MODEL 1
REMARK VINA RESULT:     -10.8      0.000      0.000
REMARK  16 active torsions:
REMARK  status: ('A' for Active; 'I' for Inactive)
REMARK    1  A    between atoms: N1_1  and  C31_39 
REMARK    2  A    between atoms: C2_3  and  C3_4 
REMARK    3  A    between atoms: C3_4  and  N2_6 
REMARK    4  A    between atoms: N2_6  and  C4_7 
REMARK    5  A    between atoms: N3_11  and  C10_14 
REMARK    6  A    between atoms: C10_14  and  C11_15 
REMARK    7  A    between atoms: C11_15  and  O2_16 
REMARK    8  A    between atoms: C11_15  and  C12_17 
REMARK    9  A    between atoms: C12_17  and  C13_18 
REMARK   10  A    between atoms: C13_18  and  C14_19 
REMARK   11  A    between atoms: C13_18  and  C21_26 
REMARK   12  A    between atoms: C14_19  and  C15_20 
REMARK   13  A    between atoms: C21_26  and  N4_28 
REMARK   14  A    between atoms: N4_28  and  C22_29 
REMARK   15  A    between atoms: C23_30  and  O4_31 
REMARK   16  A    between atoms: C31_39  and  C32_40 
ROOT
HETATM    1  C11 IND I 201       2.341   4.347  -7.571  1.00 21.68     0.136 C 
ENDROOT
BRANCH   1   2
HETATM    2  C10 IND I 201       2.163   4.090  -6.074  1.00 20.86     0.149 C 
BRANCH   2   3
HETATM    3  N3  IND I 201       2.626   5.170  -5.227  1.00 28.91    -0.395 N 
HETATM    4  C8  IND I 201       4.004   4.869  -4.766  1.00 26.24     0.148 C 
HETATM    5  C9  IND I 201       4.614   5.790  -3.729  1.00 27.47     0.292 C 
HETATM    6  N1  IND I 201       3.739   6.320  -2.781  1.00 28.25     0.096 N 
HETATM    7  C1  IND I 201       2.512   6.752  -3.503  1.00 30.30     0.307 C 
HETATM    8  C2  IND I 201       1.645   5.758  -4.250  1.00 27.27     0.200 C 
BRANCH   6   9
HETATM    9  C31 IND I 201       4.346   7.281  -1.853  1.00 36.25     0.312 C 
BRANCH   9  10
HETATM   10  C32 IND I 201       3.494   8.087  -0.867  1.00 42.75    -0.013 A 
HETATM   11  C33 IND I 201       2.585   7.494   0.022  1.00 47.41     0.125 A 
HETATM   12  N5  IND I 201       1.788   8.162   0.965  1.00 51.38    -0.273 NA
HETATM   13  C34 IND I 201       2.011   9.537   0.915  1.00 50.60     0.116 A 
HETATM   14  C35 IND I 201       2.899  10.192   0.056  1.00 49.34     0.020 A 
HETATM   15  C36 IND I 201       3.655   9.455  -0.852  1.00 44.71     0.012 A 
ENDBRANCH   9  10
ENDBRANCH   6   9
BRANCH   8  16
HETATM   16  C3  IND I 201       0.526   6.512  -4.917  1.00 28.85     0.242 C 
HETATM   17  O1  IND I 201       0.751   7.207  -5.901  1.00 29.59    -0.271 OA
BRANCH  16  18
HETATM   18  N2  IND I 201      -0.675   6.395  -4.387  1.00 22.29    -0.351 N 
HETATM   19  H4  IND I 201      -0.703   6.457  -3.359  1.00  0.00     0.163 HD
BRANCH  18  20
HETATM   20  C4  IND I 201      -1.944   6.194  -5.010  1.00 23.47     0.022 C 
HETATM   21  C5  IND I 201      -2.816   5.413  -4.009  1.00 27.66     0.037 C 
HETATM   22  C6  IND I 201      -1.863   5.513  -6.213  1.00 21.71     0.037 C 
HETATM   23  C7  IND I 201      -2.683   7.437  -5.249  1.00 22.75     0.037 C 
ENDBRANCH  18  20
ENDBRANCH  16  18
ENDBRANCH   8  16
ENDBRANCH   2   3
ENDBRANCH   1   2
BRANCH   1  24
HETATM   24  O2  IND I 201       2.483   3.002  -7.914  1.00 15.87    -0.394 OA
HETATM   25  H21 IND I 201       2.367   2.892  -8.931  1.00  0.00     0.210 HD
ENDBRANCH   1  24
BRANCH   1  26
HETATM   26  C12 IND I 201       1.258   4.957  -8.479  1.00 21.49     0.047 C 
BRANCH  26  27
HETATM   27  C13 IND I 201       1.518   5.169  -9.976  1.00 26.89     0.084 C 
BRANCH  27  28
HETATM   28  C14 IND I 201       0.442   6.044 -10.639  1.00 28.67     0.052 C 
BRANCH  28  29
HETATM   29  C15 IND I 201       0.516   6.012 -12.122  1.00 26.89    -0.057 A 
HETATM   30  C16 IND I 201       0.586   4.820 -12.844  1.00 29.22     0.007 A 
HETATM   31  C17 IND I 201       0.692   4.838 -14.228  1.00 29.22     0.001 A 
HETATM   32  C18 IND I 201       0.727   6.071 -14.884  1.00 30.97     0.000 A 
HETATM   33  C19 IND I 201       0.649   7.268 -14.162  1.00 29.25     0.001 A 
HETATM   34  C20 IND I 201       0.543   7.234 -12.771  1.00 29.96     0.007 A 
ENDBRANCH  28  29
ENDBRANCH  27  28
BRANCH  27  35
HETATM   35  C21 IND I 201       2.887   5.788 -10.237  1.00 29.35     0.222 C 
HETATM   36  O3  IND I 201       3.224   6.836  -9.666  1.00 32.66    -0.273 OA
BRANCH  35  37
HETATM   37  N4  IND I 201       3.607   5.198 -11.187  1.00 31.19    -0.350 N 
HETATM   38  H32 IND I 201       3.542   4.177 -11.308  1.00  0.00     0.163 HD
BRANCH  37  39
HETATM   39  C22 IND I 201       4.484   5.961 -12.061  1.00 29.22     0.147 C 
HETATM   40  C23 IND I 201       4.380   5.508 -13.507  1.00 28.82     0.149 C 
HETATM   41  C24 IND I 201       5.683   5.928 -14.149  1.00 32.05     0.073 C 
HETATM   42  C25 IND I 201       6.804   5.899 -13.142  1.00 31.29    -0.047 A 
HETATM   43  C30 IND I 201       6.012   5.904 -11.804  1.00 31.86    -0.027 A 
HETATM   44  C26 IND I 201       8.178   5.836 -13.160  1.00 32.00     0.008 A 
HETATM   45  C29 IND I 201       6.766   5.860 -10.673  1.00 27.70     0.010 A 
HETATM   46  C28 IND I 201       8.152   5.807 -10.722  1.00 29.01     0.001 A 
HETATM   47  C27 IND I 201       8.856   5.789 -11.937  1.00 28.00     0.001 A 
BRANCH  40  48
HETATM   48  O4  IND I 201       4.131   4.112 -13.569  1.00 28.32    -0.393 OA
HETATM   49  H35 IND I 201       5.026   3.606 -13.634  1.00  0.00     0.210 HD
ENDBRANCH  40  48
ENDBRANCH  37  39
ENDBRANCH  35  37
ENDBRANCH  27  35
ENDBRANCH  26  27
ENDBRANCH   1  26
TORSDOF 14
ENDMDL
MODEL 2
REMARK VINA RESULT:     -10.0      2.293      4.492
REMARK  16 active torsions:
REMARK  status: ('A' for Active; 'I' for Inactive)
REMARK    1  A    between atoms: N1_1  and  C31_39 
REMARK    2  A    between atoms: C2_3  and  C3_4 
REMARK    3  A    between atoms: C3_4  and  N2_6 
REMARK    4  A    between atoms: N2_6  and  C4_7 
REMARK    5  A    between atoms: N3_11  and  C10_14 
REMARK    6  A    between atoms: C10_14  and  C11_15 
REMARK    7  A    between atoms: C11_15  and  O2_16 
REMARK    8  A    between atoms: C11_15  and  C12_17 
REMARK    9  A    between atoms: C12_17  and  C13_18 
REMARK   10  A    between atoms: C13_18  and  C14_19 
REMARK   11  A    between atoms: C13_18  and  C21_26 
REMARK   12  A    between atoms: C14_19  and  C15_20 
REMARK   13  A    between atoms: C21_26  and  N4_28 
REMARK   14  A    between atoms: N4_28  and  C22_29 
REMARK   15  A    between atoms: C23_30  and  O4_31 
REMARK   16  A    between atoms: C31_39  and  C32_40 
ROOT
HETATM    1  C11 IND I 201       3.897   5.187  -4.304  1.00 21.68     0.136 C 
ENDROOT
BRANCH   1   2
HETATM    2  C10 IND I 201       3.681   5.058  -2.796  1.00 20.86     0.149 C 
BRANCH   2   3
HETATM    3  N3  IND I 201       3.164   6.255  -2.165  1.00 28.91    -0.395 N 
HETATM    4  C8  IND I 201       4.262   7.245  -2.030  1.00 26.24     0.148 C 
HETATM    5  C9  IND I 201       3.976   8.505  -1.239  1.00 27.47     0.292 C 
HETATM    6  N1  IND I 201       3.118   8.370  -0.148  1.00 28.25     0.096 N 
HETATM    7  C1  IND I 201       1.982   7.512  -0.581  1.00 30.30     0.307 C 
HETATM    8  C2  IND I 201       2.200   6.080  -1.024  1.00 27.27     0.200 C 
BRANCH   6   9
HETATM    9  C31 IND I 201       2.789   9.627   0.535  1.00 36.25     0.312 C 
BRANCH   9  10
HETATM   10  C32 IND I 201       3.691  10.861   0.414  1.00 42.75    -0.013 A 
HETATM   11  C33 IND I 201       3.596  11.777  -0.643  1.00 47.41     0.125 A 
HETATM   12  N5  IND I 201       4.370  12.937  -0.810  1.00 51.38    -0.273 NA
HETATM   13  C34 IND I 201       5.279  13.079   0.237  1.00 50.60     0.116 A 
HETATM   14  C35 IND I 201       5.426  12.205   1.318  1.00 49.34     0.020 A 
HETATM   15  C36 IND I 201       4.618  11.075   1.411  1.00 44.71     0.012 A 
ENDBRANCH   9  10
ENDBRANCH   6   9
BRANCH   8  16
HETATM   16  C3  IND I 201       0.875   5.509  -1.453  1.00 28.85     0.242 C 
HETATM   17  O1  IND I 201       0.702   4.296  -1.474  1.00 29.59    -0.271 OA
BRANCH  16  18
HETATM   18  N2  IND I 201      -0.060   6.368  -1.811  1.00 22.29    -0.351 N 
HETATM   19  H4  IND I 201       0.247   7.088  -2.481  1.00  0.00     0.163 HD
BRANCH  18  20
HETATM   20  C4  IND I 201      -1.429   6.460  -1.417  1.00 23.47     0.022 C 
HETATM   21  C5  IND I 201      -1.471   6.251   0.109  1.00 27.66     0.037 C 
HETATM   22  C6  IND I 201      -2.246   5.541  -2.053  1.00 21.71     0.037 C 
HETATM   23  C7  IND I 201      -2.010   7.791  -1.621  1.00 22.75     0.037 C 
ENDBRANCH  18  20
ENDBRANCH  16  18
ENDBRANCH   8  16
ENDBRANCH   2   3
ENDBRANCH   1   2
BRANCH   1  24
HETATM   24  O2  IND I 201       5.011   4.347  -4.345  1.00 15.87    -0.394 OA
HETATM   25  H21 IND I 201       5.384   4.318  -5.304  1.00  0.00     0.210 HD
ENDBRANCH   1  24
BRANCH   1  26
HETATM   26  C12 IND I 201       2.894   4.700  -5.367  1.00 21.49     0.047 C 
BRANCH  26  27
HETATM   27  C13 IND I 201       2.053   5.703  -6.168  1.00 26.89     0.084 C 
BRANCH  27  28
HETATM   28  C14 IND I 201       1.252   6.650  -5.259  1.00 28.67     0.052 C 
BRANCH  28  29
HETATM   29  C15 IND I 201      -0.213   6.546  -5.480  1.00 26.89    -0.057 A 
HETATM   30  C16 IND I 201      -0.795   5.478  -6.163  1.00 29.22     0.007 A 
HETATM   31  C17 IND I 201      -2.166   5.440  -6.379  1.00 29.22     0.001 A 
HETATM   32  C18 IND I 201      -2.951   6.491  -5.900  1.00 30.97     0.000 A 
HETATM   33  C19 IND I 201      -2.371   7.560  -5.207  1.00 29.25     0.001 A 
HETATM   34  C20 IND I 201      -0.991   7.584  -4.997  1.00 29.96     0.007 A 
ENDBRANCH  28  29
ENDBRANCH  27  28
BRANCH  27  35
HETATM   35  C21 IND I 201       2.906   6.535  -7.118  1.00 29.35     0.222 C 
HETATM   36  O3  IND I 201       2.800   7.771  -7.143  1.00 32.66    -0.273 OA
BRANCH  35  37
HETATM   37  N4  IND I 201       3.651   5.839  -7.972  1.00 31.19    -0.350 N 
HETATM   38  H32 IND I 201       4.009   4.916  -7.690  1.00  0.00     0.163 HD
BRANCH  37  39
HETATM   39  C22 IND I 201       3.972   6.351  -9.295  1.00 29.22     0.147 C 
HETATM   40  C23 IND I 201       3.020   5.824 -10.355  1.00 28.82     0.149 C 
HETATM   41  C24 IND I 201       3.778   5.933 -11.658  1.00 32.05     0.073 C 
HETATM   42  C25 IND I 201       5.258   5.759 -11.428  1.00 31.29    -0.047 A 
HETATM   43  C30 IND I 201       5.360   6.016  -9.899  1.00 31.86    -0.027 A 
HETATM   44  C26 IND I 201       6.365   5.429 -12.175  1.00 32.00     0.008 A 
HETATM   45  C29 IND I 201       6.606   5.908  -9.366  1.00 27.70     0.010 A 
HETATM   46  C28 IND I 201       7.708   5.582 -10.146  1.00 29.01     0.001 A 
HETATM   47  C27 IND I 201       7.600   5.339 -11.524  1.00 28.00     0.001 A 
BRANCH  40  48
HETATM   48  O4  IND I 201       2.612   4.502 -10.035  1.00 28.32    -0.393 OA
HETATM   49  H35 IND I 201       2.798   3.881 -10.836  1.00  0.00     0.210 HD
ENDBRANCH  40  48
ENDBRANCH  37  39
ENDBRANCH  35  37
ENDBRANCH  27  35
ENDBRANCH  26  27
ENDBRANCH   1  26
TORSDOF 14
ENDMDL
MODEL 3
REMARK VINA RESULT:      -9.9      2.072     10.352
REMARK  16 active torsions:
REMARK  status: ('A' for Active; 'I' for Inactive)
REMARK    1  A    between atoms: N1_1  and  C31_39 
REMARK    2  A    between atoms: C2_3  and  C3_4 
REMARK    3  A    between atoms: C3_4  and  N2_6 
REMARK    4  A    between atoms: N2_6  and  C4_7 
REMARK    5  A    between atoms: N3_11  and  C10_14 
REMARK    6  A    between atoms: C10_14  and  C11_15 
REMARK    7  A    between atoms: C11_15  and  O2_16 
REMARK    8  A    between atoms: C11_15  and  C12_17 
REMARK    9  A    between atoms: C12_17  and  C13_18 
REMARK   10  A    between atoms: C13_18  and  C14_19 
REMARK   11  A    between atoms: C13_18  and  C21_26 
REMARK   12  A    between atoms: C14_19  and  C15_20 
REMARK   13  A    between atoms: C21_26  and  N4_28 
REMARK   14  A    between atoms: N4_28  and  C22_29 
REMARK   15  A    between atoms: C23_30  and  O4_31 
REMARK   16  A    between atoms: C31_39  and  C32_40 
ROOT
HETATM    1  C11 IND I 201       3.277   4.882  -9.153  1.00 21.68     0.136 C 
ENDROOT
BRANCH   1   2
HETATM    2  C10 IND I 201       4.270   5.076 -10.299  1.00 20.86     0.149 C 
BRANCH   2   3
HETATM    3  N3  IND I 201       3.702   5.697 -11.478  1.00 28.91    -0.395 N 
HETATM    4  C8  IND I 201       2.237   5.843 -11.292  1.00 26.24     0.148 C 
HETATM    5  C9  IND I 201       1.423   6.315 -12.479  1.00 27.47     0.292 C 
HETATM    6  N1  IND I 201       1.855   5.889 -13.735  1.00 28.25     0.096 N 
HETATM    7  C1  IND I 201       3.336   6.032 -13.768  1.00 30.30     0.307 C 
HETATM    8  C2  IND I 201       4.224   5.254 -12.818  1.00 27.27     0.200 C 
BRANCH   6   9
HETATM    9  C31 IND I 201       1.101   6.443 -14.866  1.00 36.25     0.312 C 
BRANCH   9  10
HETATM   10  C32 IND I 201       1.408   7.837 -15.424  1.00 42.75    -0.013 A 
HETATM   11  C33 IND I 201       2.316   8.061 -16.468  1.00 47.41     0.125 A 
HETATM   12  N5  IND I 201       2.633   9.302 -17.044  1.00 51.38    -0.273 NA
HETATM   13  C34 IND I 201       1.912  10.327 -16.435  1.00 50.60     0.116 A 
HETATM   14  C35 IND I 201       0.993  10.175 -15.391  1.00 49.34     0.020 A 
HETATM   15  C36 IND I 201       0.735   8.907 -14.875  1.00 44.71     0.012 A 
ENDBRANCH   9  10
ENDBRANCH   6   9
BRANCH   8  16
HETATM   16  C3  IND I 201       5.652   5.665 -13.061  1.00 28.85     0.242 C 
HETATM   17  O1  IND I 201       5.935   6.376 -14.017  1.00 29.59    -0.271 OA
BRANCH  16  18
HETATM   18  N2  IND I 201       6.557   5.214 -12.214  1.00 22.29    -0.351 N 
HETATM   19  H4  IND I 201       6.497   4.206 -12.014  1.00  0.00     0.163 HD
BRANCH  18  20
HETATM   20  C4  IND I 201       7.606   5.902 -11.531  1.00 23.47     0.022 C 
HETATM   21  C5  IND I 201       7.105   7.334 -11.268  1.00 27.66     0.037 C 
HETATM   22  C6  IND I 201       8.796   5.929 -12.239  1.00 21.71     0.037 C 
HETATM   23  C7  IND I 201       7.890   5.360 -10.199  1.00 22.75     0.037 C 
ENDBRANCH  18  20
ENDBRANCH  16  18
ENDBRANCH   8  16
ENDBRANCH   2   3
ENDBRANCH   1   2
BRANCH   1  24
HETATM   24  O2  IND I 201       3.610   3.547  -8.921  1.00 15.87    -0.394 OA
HETATM   25  H21 IND I 201       3.662   3.377  -7.906  1.00  0.00     0.210 HD
ENDBRANCH   1  24
BRANCH   1  26
HETATM   26  C12 IND I 201       3.350   5.631  -7.810  1.00 21.49     0.047 C 
BRANCH  26  27
HETATM   27  C13 IND I 201       2.196   5.546  -6.802  1.00 26.89     0.084 C 
BRANCH  27  28
HETATM   28  C14 IND I 201       0.822   5.494  -7.491  1.00 28.67     0.052 C 
BRANCH  28  29
HETATM   29  C15 IND I 201      -0.278   5.941  -6.598  1.00 26.89    -0.057 A 
HETATM   30  C16 IND I 201      -1.565   5.408  -6.668  1.00 29.22     0.007 A 
HETATM   31  C17 IND I 201      -2.573   5.882  -5.840  1.00 29.22     0.001 A 
HETATM   32  C18 IND I 201      -2.274   6.903  -4.935  1.00 30.97     0.000 A 
HETATM   33  C19 IND I 201      -0.982   7.435  -4.856  1.00 29.25     0.001 A 
HETATM   34  C20 IND I 201       0.021   6.947  -5.696  1.00 29.96     0.007 A 
ENDBRANCH  28  29
ENDBRANCH  27  28
BRANCH  27  35
HETATM   35  C21 IND I 201       2.331   4.341  -5.878  1.00 29.35     0.222 C 
HETATM   36  O3  IND I 201       2.027   3.206  -6.274  1.00 32.66    -0.273 OA
BRANCH  35  37
HETATM   37  N4  IND I 201       2.667   4.621  -4.622  1.00 31.19    -0.350 N 
HETATM   38  H32 IND I 201       2.560   3.895  -3.899  1.00  0.00     0.163 HD
BRANCH  37  39
HETATM   39  C22 IND I 201       3.183   5.927  -4.244  1.00 29.22     0.147 C 
HETATM   40  C23 IND I 201       4.696   5.992  -4.348  1.00 28.82     0.149 C 
HETATM   41  C24 IND I 201       5.110   7.109  -3.417  1.00 32.05     0.073 C 
HETATM   42  C25 IND I 201       4.155   7.212  -2.255  1.00 31.29    -0.047 A 
HETATM   43  C30 IND I 201       2.926   6.432  -2.801  1.00 31.86    -0.027 A 
HETATM   44  C26 IND I 201       4.161   7.741  -0.985  1.00 32.00     0.008 A 
HETATM   45  C29 IND I 201       1.871   6.327  -1.951  1.00 27.70     0.010 A 
HETATM   46  C28 IND I 201       1.901   6.880  -0.677  1.00 29.01     0.001 A 
HETATM   47  C27 IND I 201       3.022   7.571  -0.191  1.00 28.00     0.001 A 
BRANCH  40  48
HETATM   48  O4  IND I 201       5.266   4.732  -4.026  1.00 28.32    -0.393 OA
HETATM   49  H35 IND I 201       5.960   4.851  -3.274  1.00  0.00     0.210 HD
ENDBRANCH  40  48
ENDBRANCH  37  39
ENDBRANCH  35  37
ENDBRANCH  27  35
ENDBRANCH  26  27
ENDBRANCH   1  26
TORSDOF 14
ENDMDL
MODEL 4
REMARK VINA RESULT:      -9.7      2.028     10.680
REMARK  16 active torsions:
REMARK  status: ('A' for Active; 'I' for Inactive)
REMARK    1  A    between atoms: N1_1  and  C31_39 
REMARK    2  A    between atoms: C2_3  and  C3_4 
REMARK    3  A    between atoms: C3_4  and  N2_6 
REMARK    4  A    between atoms: N2_6  and  C4_7 
REMARK    5  A    between atoms: N3_11  and  C10_14 
REMARK    6  A    between atoms: C10_14  and  C11_15 
REMARK    7  A    between atoms: C11_15  and  O2_16 
REMARK    8  A    between atoms: C11_15  and  C12_17 
REMARK    9  A    between atoms: C12_17  and  C13_18 
REMARK   10  A    between atoms: C13_18  and  C14_19 
REMARK   11  A    between atoms: C13_18  and  C21_26 
REMARK   12  A    between atoms: C14_19  and  C15_20 
REMARK   13  A    between atoms: C21_26  and  N4_28 
REMARK   14  A    between atoms: N4_28  and  C22_29 
REMARK   15  A    between atoms: C23_30  and  O4_31 
REMARK   16  A    between atoms: C31_39  and  C32_40 
ROOT
HETATM    1  C11 IND I 201       2.144   4.189  -7.167  1.00 21.68     0.136 C 
ENDROOT
BRANCH   1   2
HETATM    2  C10 IND I 201       2.381   3.951  -8.659  1.00 20.86     0.149 C 
BRANCH   2   3
HETATM    3  N3  IND I 201       2.012   5.068  -9.504  1.00 28.91    -0.395 N 
HETATM    4  C8  IND I 201       0.547   5.037  -9.737  1.00 26.24     0.148 C 
HETATM    5  C9  IND I 201      -0.025   6.020 -10.737  1.00 27.47     0.292 C 
HETATM    6  N1  IND I 201       0.777   6.321 -11.838  1.00 28.25     0.096 N 
HETATM    7  C1  IND I 201       2.163   6.522 -11.335  1.00 30.30     0.307 C 
HETATM    8  C2  IND I 201       2.924   5.402 -10.653  1.00 27.27     0.200 C 
BRANCH   6   9
HETATM    9  C31 IND I 201       0.233   7.348 -12.734  1.00 36.25     0.312 C 
BRANCH   9  10
HETATM   10  C32 IND I 201       0.908   7.684 -14.068  1.00 42.75    -0.013 A 
HETATM   11  C33 IND I 201       1.827   6.831 -14.697  1.00 47.41     0.125 A 
HETATM   12  N5  IND I 201       2.469   7.060 -15.925  1.00 51.38    -0.273 NA
HETATM   13  C34 IND I 201       2.072   8.280 -16.470  1.00 50.60     0.116 A 
HETATM   14  C35 IND I 201       1.164   9.176 -15.897  1.00 49.34     0.020 A 
HETATM   15  C36 IND I 201       0.569   8.874 -14.675  1.00 44.71     0.012 A 
ENDBRANCH   9  10
ENDBRANCH   6   9
BRANCH   8  16
HETATM   16  C3  IND I 201       4.260   5.937 -10.211  1.00 28.85     0.242 C 
HETATM   17  O1  IND I 201       4.323   6.787  -9.331  1.00 29.59    -0.271 OA
BRANCH  16  18
HETATM   18  N2  IND I 201       5.327   5.460 -10.820  1.00 22.29    -0.351 N 
HETATM   19  H4  IND I 201       5.687   4.576 -10.433  1.00  0.00     0.163 HD
BRANCH  18  20
HETATM   20  C4  IND I 201       6.065   5.974 -11.929  1.00 23.47     0.022 C 
HETATM   21  C5  IND I 201       6.268   7.479 -11.673  1.00 27.66     0.037 C 
HETATM   22  C6  IND I 201       5.437   5.772 -13.147  1.00 21.71     0.037 C 
HETATM   23  C7  IND I 201       7.423   5.432 -12.032  1.00 22.75     0.037 C 
ENDBRANCH  18  20
ENDBRANCH  16  18
ENDBRANCH   8  16
ENDBRANCH   2   3
ENDBRANCH   1   2
BRANCH   1  24
HETATM   24  O2  IND I 201       2.285   2.849  -6.802  1.00 15.87    -0.394 OA
HETATM   25  H21 IND I 201       2.416   2.783  -5.783  1.00  0.00     0.210 HD
ENDBRANCH   1  24
BRANCH   1  26
HETATM   26  C12 IND I 201       3.070   5.027  -6.267  1.00 21.49     0.047 C 
BRANCH  26  27
HETATM   27  C13 IND I 201       2.502   6.148  -5.386  1.00 26.89     0.084 C 
BRANCH  27  28
HETATM   28  C14 IND I 201       3.599   7.079  -4.845  1.00 28.67     0.052 C 
BRANCH  28  29
HETATM   29  C15 IND I 201       3.812   6.917  -3.384  1.00 26.89    -0.057 A 
HETATM   30  C16 IND I 201       3.949   5.668  -2.778  1.00 29.22     0.007 A 
HETATM   31  C17 IND I 201       4.109   5.562  -1.404  1.00 29.22     0.001 A 
HETATM   32  C18 IND I 201       4.130   6.730  -0.638  1.00 30.97     0.000 A 
HETATM   33  C19 IND I 201       4.000   7.986  -1.243  1.00 29.25     0.001 A 
HETATM   34  C20 IND I 201       3.840   8.075  -2.627  1.00 29.96     0.007 A 
ENDBRANCH  28  29
ENDBRANCH  27  28
BRANCH  27  35
HETATM   35  C21 IND I 201       1.464   6.985  -6.125  1.00 29.35     0.222 C 
HETATM   36  O3  IND I 201       1.724   7.478  -7.232  1.00 32.66    -0.273 OA
BRANCH  35  37
HETATM   37  N4  IND I 201       0.347   7.236  -5.447  1.00 31.19    -0.350 N 
HETATM   38  H32 IND I 201       0.016   8.208  -5.367  1.00  0.00     0.163 HD
BRANCH  37  39
HETATM   39  C22 IND I 201      -0.418   6.170  -4.820  1.00 29.22     0.147 C 
HETATM   40  C23 IND I 201      -1.876   6.189  -5.248  1.00 28.82     0.149 C 
HETATM   41  C24 IND I 201      -2.622   5.478  -4.142  1.00 32.05     0.073 C 
HETATM   42  C25 IND I 201      -1.938   5.691  -2.816  1.00 31.29    -0.047 A 
HETATM   43  C30 IND I 201      -0.526   6.152  -3.273  1.00 31.86    -0.027 A 
HETATM   44  C26 IND I 201      -2.270   5.613  -1.483  1.00 32.00     0.008 A 
HETATM   45  C29 IND I 201       0.347   6.452  -2.275  1.00 27.70     0.010 A 
HETATM   46  C28 IND I 201      -0.012   6.354  -0.938  1.00 29.01     0.001 A 
HETATM   47  C27 IND I 201      -1.295   5.949  -0.537  1.00 28.00     0.001 A 
BRANCH  40  48
HETATM   48  O4  IND I 201      -2.307   7.524  -5.466  1.00 28.32    -0.393 OA
HETATM   49  H35 IND I 201      -1.831   8.153  -4.803  1.00  0.00     0.210 HD
ENDBRANCH  40  48
ENDBRANCH  37  39
ENDBRANCH  35  37
ENDBRANCH  27  35
ENDBRANCH  26  27
ENDBRANCH   1  26
TORSDOF 14
ENDMDL
MODEL 5
REMARK VINA RESULT:      -9.7      2.304     10.689
REMARK  16 active torsions:
REMARK  status: ('A' for Active; 'I' for Inactive)
REMARK    1  A    between atoms: N1_1  and  C31_39 
REMARK    2  A    between atoms: C2_3  and  C3_4 
REMARK    3  A    between atoms: C3_4  and  N2_6 
REMARK    4  A    between atoms: N2_6  and  C4_7 
REMARK    5  A    between atoms: N3_11  and  C10_14 
REMARK    6  A    between atoms: C10_14  and  C11_15 
REMARK    7  A    between atoms: C11_15  and  O2_16 
REMARK    8  A    between atoms: C11_15  and  C12_17 
REMARK    9  A    between atoms: C12_17  and  C13_18 
REMARK   10  A    between atoms: C13_18  and  C14_19 
REMARK   11  A    between atoms: C13_18  and  C21_26 
REMARK   12  A    between atoms: C14_19  and  C15_20 
REMARK   13  A    between atoms: C21_26  and  N4_28 
REMARK   14  A    between atoms: N4_28  and  C22_29 
REMARK   15  A    between atoms: C23_30  and  O4_31 
REMARK   16  A    between atoms: C31_39  and  C32_40 
ROOT
HETATM    1  C11 IND I 201       3.811   5.623  -7.612  1.00 21.68     0.136 C 
ENDROOT
BRANCH   1   2
HETATM    2  C10 IND I 201       4.537   6.123  -8.861  1.00 20.86     0.149 C 
BRANCH   2   3
HETATM    3  N3  IND I 201       3.675   6.330 -10.007  1.00 28.91    -0.395 N 
HETATM    4  C8  IND I 201       2.269   6.438  -9.542  1.00 26.24     0.148 C 
HETATM    5  C9  IND I 201       1.184   6.486 -10.598  1.00 27.47     0.292 C 
HETATM    6  N1  IND I 201       1.406   5.732 -11.750  1.00 28.25     0.096 N 
HETATM    7  C1  IND I 201       2.822   5.947 -12.154  1.00 30.30     0.307 C 
HETATM    8  C2  IND I 201       3.970   5.541 -11.253  1.00 27.27     0.200 C 
BRANCH   6   9
HETATM    9  C31 IND I 201       0.380   5.879 -12.789  1.00 36.25     0.312 C 
BRANCH   9  10
HETATM   10  C32 IND I 201       0.524   6.911 -13.913  1.00 42.75    -0.013 A 
HETATM   11  C33 IND I 201       0.618   8.291 -13.677  1.00 47.41     0.125 A 
HETATM   12  N5  IND I 201       0.771   9.292 -14.650  1.00 51.38    -0.273 NA
HETATM   13  C34 IND I 201       0.821   8.736 -15.927  1.00 50.60     0.116 A 
HETATM   14  C35 IND I 201       0.734   7.374 -16.232  1.00 49.34     0.020 A 
HETATM   15  C36 IND I 201       0.583   6.443 -15.207  1.00 44.71     0.012 A 
ENDBRANCH   9  10
ENDBRANCH   6   9
BRANCH   8  16
HETATM   16  C3  IND I 201       5.259   5.945 -11.916  1.00 28.85     0.242 C 
HETATM   17  O1  IND I 201       5.256   6.773 -12.819  1.00 29.59    -0.271 OA
BRANCH  16  18
HETATM   18  N2  IND I 201       6.361   5.360 -11.489  1.00 22.29    -0.351 N 
HETATM   19  H4  IND I 201       6.351   4.331 -11.535  1.00  0.00     0.163 HD
BRANCH  18  20
HETATM   20  C4  IND I 201       7.566   5.925 -10.972  1.00 23.47     0.022 C 
HETATM   21  C5  IND I 201       7.281   7.414 -10.698  1.00 27.66     0.037 C 
HETATM   22  C6  IND I 201       8.647   5.790 -11.828  1.00 21.71     0.037 C 
HETATM   23  C7  IND I 201       7.958   5.380  -9.669  1.00 22.75     0.037 C 
ENDBRANCH  18  20
ENDBRANCH  16  18
ENDBRANCH   8  16
ENDBRANCH   2   3
ENDBRANCH   1   2
BRANCH   1  24
HETATM   24  O2  IND I 201       4.787   4.687  -7.265  1.00 15.87    -0.394 OA
HETATM   25  H21 IND I 201       4.432   3.738  -7.445  1.00  0.00     0.210 HD
ENDBRANCH   1  24
BRANCH   1  26
HETATM   26  C12 IND I 201       3.523   6.491  -6.374  1.00 21.49     0.047 C 
BRANCH  26  27
HETATM   27  C13 IND I 201       2.468   6.061  -5.344  1.00 26.89     0.084 C 
BRANCH  27  28
HETATM   28  C14 IND I 201       1.291   5.314  -5.992  1.00 28.67     0.052 C 
BRANCH  28  29
HETATM   29  C15 IND I 201      -0.008   6.002  -5.773  1.00 26.89    -0.057 A 
HETATM   30  C16 IND I 201      -0.109   7.220  -5.102  1.00 29.22     0.007 A 
HETATM   31  C17 IND I 201      -1.347   7.809  -4.887  1.00 29.22     0.001 A 
HETATM   32  C18 IND I 201      -2.491   7.157  -5.355  1.00 30.97     0.000 A 
HETATM   33  C19 IND I 201      -2.392   5.938  -6.036  1.00 29.25     0.001 A 
HETATM   34  C20 IND I 201      -1.139   5.359  -6.244  1.00 29.96     0.007 A 
ENDBRANCH  28  29
ENDBRANCH  27  28
BRANCH  27  35
HETATM   35  C21 IND I 201       3.064   5.187  -4.247  1.00 29.35     0.222 C 
HETATM   36  O3  IND I 201       4.129   4.581  -4.432  1.00 32.66    -0.273 OA
BRANCH  35  37
HETATM   37  N4  IND I 201       2.306   5.038  -3.163  1.00 31.19    -0.350 N 
HETATM   38  H32 IND I 201       2.011   4.091  -2.884  1.00  0.00     0.163 HD
BRANCH  37  39
HETATM   39  C22 IND I 201       1.887   6.178  -2.364  1.00 29.22     0.147 C 
HETATM   40  C23 IND I 201       2.805   6.407  -1.176  1.00 28.82     0.149 C 
HETATM   41  C24 IND I 201       1.971   7.172  -0.173  1.00 32.05     0.073 C 
HETATM   42  C25 IND I 201       0.517   6.790  -0.290  1.00 31.29    -0.047 A 
HETATM   43  C30 IND I 201       0.487   6.137  -1.700  1.00 31.86    -0.027 A 
HETATM   44  C26 IND I 201      -0.611   6.855   0.495  1.00 32.00     0.008 A 
HETATM   45  C29 IND I 201      -0.721   5.657  -2.100  1.00 27.70     0.010 A 
HETATM   46  C28 IND I 201      -1.845   5.744  -1.291  1.00 29.01     0.001 A 
HETATM   47  C27 IND I 201      -1.802   6.325  -0.013  1.00 28.00     0.001 A 
BRANCH  40  48
HETATM   48  O4  IND I 201       3.298   5.168  -0.688  1.00 28.32    -0.393 OA
HETATM   49  H35 IND I 201       3.173   4.441  -1.408  1.00  0.00     0.210 HD
ENDBRANCH  40  48
ENDBRANCH  37  39
ENDBRANCH  35  37
ENDBRANCH  27  35
ENDBRANCH  26  27
ENDBRANCH   1  26
TORSDOF 14
ENDMDL
MODEL 6
REMARK VINA RESULT:      -9.6      1.979     10.240
REMARK  16 active torsions:
REMARK  status: ('A' for Active; 'I' for Inactive)
REMARK    1  A    between atoms: N1_1  and  C31_39 
REMARK    2  A    between atoms: C2_3  and  C3_4 
REMARK    3  A    between atoms: C3_4  and  N2_6 
REMARK    4  A    between atoms: N2_6  and  C4_7 
REMARK    5  A    between atoms: N3_11  and  C10_14 
REMARK    6  A    between atoms: C10_14  and  C11_15 
REMARK    7  A    between atoms: C11_15  and  O2_16 
REMARK    8  A    between atoms: C11_15  and  C12_17 
REMARK    9  A    between atoms: C12_17  and  C13_18 
REMARK   10  A    between atoms: C13_18  and  C14_19 
REMARK   11  A    between atoms: C13_18  and  C21_26 
REMARK   12  A    between atoms: C14_19  and  C15_20 
REMARK   13  A    between atoms: C21_26  and  N4_28 
REMARK   14  A    between atoms: N4_28  and  C22_29 
REMARK   15  A    between atoms: C23_30  and  O4_31 
REMARK   16  A    between atoms: C31_39  and  C32_40 
ROOT
HETATM    1  C11 IND I 201       1.938   5.048  -6.846  1.00 21.68     0.136 C 
ENDROOT
BRANCH   1   2
HETATM    2  C10 IND I 201       2.493   4.047  -7.860  1.00 20.86     0.149 C 
BRANCH   2   3
HETATM    3  N3  IND I 201       3.363   4.633  -8.858  1.00 28.91    -0.395 N 
HETATM    4  C8  IND I 201       4.717   4.813  -8.276  1.00 26.24     0.148 C 
HETATM    5  C9  IND I 201       5.738   5.571  -9.098  1.00 27.47     0.292 C 
HETATM    6  N1  IND I 201       5.251   6.616  -9.882  1.00 28.25     0.096 N 
HETATM    7  C1  IND I 201       4.005   6.134 -10.538  1.00 30.30     0.307 C 
HETATM    8  C2  IND I 201       2.794   5.723  -9.725  1.00 27.27     0.200 C 
BRANCH   6   9
HETATM    9  C31 IND I 201       6.253   7.263 -10.736  1.00 36.25     0.312 C 
BRANCH   9  10
HETATM   10  C32 IND I 201       6.597   6.711 -12.125  1.00 42.75    -0.013 A 
HETATM   11  C33 IND I 201       7.189   5.456 -12.324  1.00 47.41     0.125 A 
HETATM   12  N5  IND I 201       7.513   4.875 -13.560  1.00 51.38    -0.273 NA
HETATM   13  C34 IND I 201       7.164   5.723 -14.610  1.00 50.60     0.116 A 
HETATM   14  C35 IND I 201       6.572   6.984 -14.483  1.00 49.34     0.020 A 
HETATM   15  C36 IND I 201       6.282   7.488 -13.218  1.00 44.71     0.012 A 
ENDBRANCH   9  10
ENDBRANCH   6   9
BRANCH   8  16
HETATM   16  C3  IND I 201       1.732   5.232 -10.671  1.00 28.85     0.242 C 
HETATM   17  O1  IND I 201       0.583   5.071 -10.279  1.00 29.59    -0.271 OA
BRANCH  16  18
HETATM   18  N2  IND I 201       2.105   4.978 -11.910  1.00 22.29    -0.351 N 
HETATM   19  H4  IND I 201       2.839   4.261 -12.003  1.00  0.00     0.163 HD
BRANCH  18  20
HETATM   20  C4  IND I 201       1.654   5.538 -13.144  1.00 23.47     0.022 C 
HETATM   21  C5  IND I 201       2.888   5.661 -14.057  1.00 27.66     0.037 C 
HETATM   22  C6  IND I 201       1.038   6.769 -12.994  1.00 21.71     0.037 C 
HETATM   23  C7  IND I 201       0.735   4.666 -13.882  1.00 22.75     0.037 C 
ENDBRANCH  18  20
ENDBRANCH  16  18
ENDBRANCH   8  16
ENDBRANCH   2   3
ENDBRANCH   1   2
BRANCH   1  24
HETATM   24  O2  IND I 201       0.598   4.738  -7.083  1.00 15.87    -0.394 OA
HETATM   25  H21 IND I 201       0.026   5.589  -6.985  1.00  0.00     0.210 HD
ENDBRANCH   1  24
BRANCH   1  26
HETATM   26  C12 IND I 201       2.183   4.967  -5.328  1.00 21.49     0.047 C 
BRANCH  26  27
HETATM   27  C13 IND I 201       1.599   6.026  -4.383  1.00 26.89     0.084 C 
BRANCH  27  28
HETATM   28  C14 IND I 201       0.848   5.400  -3.197  1.00 28.67     0.052 C 
BRANCH  28  29
HETATM   29  C15 IND I 201      -0.594   5.755  -3.186  1.00 26.89    -0.057 A 
HETATM   30  C16 IND I 201      -1.407   5.561  -2.069  1.00 29.22     0.007 A 
HETATM   31  C17 IND I 201      -2.759   5.873  -2.116  1.00 29.22     0.001 A 
HETATM   32  C18 IND I 201      -3.290   6.384  -3.302  1.00 30.97     0.000 A 
HETATM   33  C19 IND I 201      -2.476   6.588  -4.423  1.00 29.25     0.001 A 
HETATM   34  C20 IND I 201      -1.118   6.270  -4.360  1.00 29.96     0.007 A 
ENDBRANCH  28  29
ENDBRANCH  27  28
BRANCH  27  35
HETATM   35  C21 IND I 201       2.671   6.968  -3.847  1.00 29.35     0.222 C 
HETATM   36  O3  IND I 201       3.629   7.304  -4.560  1.00 32.66    -0.273 OA
BRANCH  35  37
HETATM   37  N4  IND I 201       2.561   7.283  -2.559  1.00 31.19    -0.350 N 
HETATM   38  H32 IND I 201       1.625   7.430  -2.156  1.00  0.00     0.163 HD
BRANCH  37  39
HETATM   39  C22 IND I 201       3.731   7.422  -1.707  1.00 29.22     0.147 C 
HETATM   40  C23 IND I 201       3.873   6.258  -0.742  1.00 28.82     0.149 C 
HETATM   41  C24 IND I 201       4.705   6.792   0.402  1.00 32.05     0.073 C 
HETATM   42  C25 IND I 201       4.455   8.265   0.599  1.00 31.29    -0.047 A 
HETATM   43  C30 IND I 201       3.813   8.649  -0.763  1.00 31.86    -0.027 A 
HETATM   44  C26 IND I 201       4.617   9.192   1.603  1.00 32.00     0.008 A 
HETATM   45  C29 IND I 201       3.443   9.951  -0.893  1.00 27.70     0.010 A 
HETATM   46  C28 IND I 201       3.628  10.868   0.134  1.00 29.01     0.001 A 
HETATM   47  C27 IND I 201       4.197  10.505   1.365  1.00 28.00     0.001 A 
BRANCH  40  48
HETATM   48  O4  IND I 201       2.593   5.785  -0.350  1.00 28.32    -0.393 OA
HETATM   49  H35 IND I 201       1.912   6.556  -0.395  1.00  0.00     0.210 HD
ENDBRANCH  40  48
ENDBRANCH  37  39
ENDBRANCH  35  37
ENDBRANCH  27  35
ENDBRANCH  26  27
ENDBRANCH   1  26
TORSDOF 14
ENDMDL
MODEL 7
REMARK VINA RESULT:      -9.5      2.052      4.381
REMARK  16 active torsions:
REMARK  status: ('A' for Active; 'I' for Inactive)
REMARK    1  A    between atoms: N1_1  and  C31_39 
REMARK    2  A    between atoms: C2_3  and  C3_4 
REMARK    3  A    between atoms: C3_4  and  N2_6 
REMARK    4  A    between atoms: N2_6  and  C4_7 
REMARK    5  A    between atoms: N3_11  and  C10_14 
REMARK    6  A    between atoms: C10_14  and  C11_15 
REMARK    7  A    between atoms: C11_15  and  O2_16 
REMARK    8  A    between atoms: C11_15  and  C12_17 
REMARK    9  A    between atoms: C12_17  and  C13_18 
REMARK   10  A    between atoms: C13_18  and  C14_19 
REMARK   11  A    between atoms: C13_18  and  C21_26 
REMARK   12  A    between atoms: C14_19  and  C15_20 
REMARK   13  A    between atoms: C21_26  and  N4_28 
REMARK   14  A    between atoms: N4_28  and  C22_29 
REMARK   15  A    between atoms: C23_30  and  O4_31 
REMARK   16  A    between atoms: C31_39  and  C32_40 
ROOT
HETATM    1  C11 IND I 201       2.921   5.307  -5.884  1.00 21.68     0.136 C 
ENDROOT
BRANCH   1   2
HETATM    2  C10 IND I 201       2.026   5.167  -4.652  1.00 20.86     0.149 C 
BRANCH   2   3
HETATM    3  N3  IND I 201       2.157   6.247  -3.696  1.00 28.91    -0.395 N 
HETATM    4  C8  IND I 201       3.465   6.918  -3.899  1.00 26.24     0.148 C 
HETATM    5  C9  IND I 201       3.877   7.968  -2.888  1.00 27.47     0.292 C 
HETATM    6  N1  IND I 201       3.486   7.746  -1.568  1.00 28.25     0.096 N 
HETATM    7  C1  IND I 201       2.072   7.283  -1.597  1.00 30.30     0.307 C 
HETATM    8  C2  IND I 201       1.678   5.996  -2.292  1.00 27.27     0.200 C 
BRANCH   6   9
HETATM    9  C31 IND I 201       3.819   8.830  -0.637  1.00 36.25     0.312 C 
BRANCH   9  10
HETATM   10  C32 IND I 201       4.234   8.540   0.810  1.00 42.75    -0.013 A 
HETATM   11  C33 IND I 201       4.528   7.252   1.279  1.00 47.41     0.125 A 
HETATM   12  N5  IND I 201       4.932   6.912   2.580  1.00 51.38    -0.273 NA
HETATM   13  C34 IND I 201       5.013   8.047   3.384  1.00 50.60     0.116 A 
HETATM   14  C35 IND I 201       4.735   9.357   2.983  1.00 49.34     0.020 A 
HETATM   15  C36 IND I 201       4.339   9.611   1.672  1.00 44.71     0.012 A 
ENDBRANCH   9  10
ENDBRANCH   6   9
BRANCH   8  16
HETATM   16  C3  IND I 201       0.184   5.843  -2.196  1.00 28.85     0.242 C 
HETATM   17  O1  IND I 201      -0.303   4.813  -1.745  1.00 29.59    -0.271 OA
BRANCH  16  18
HETATM   18  N2  IND I 201      -0.550   6.849  -2.627  1.00 22.29    -0.351 N 
HETATM   19  H4  IND I 201      -0.267   7.774  -2.273  1.00  0.00     0.163 HD
BRANCH  18  20
HETATM   20  C4  IND I 201      -1.676   6.862  -3.505  1.00 23.47     0.022 C 
HETATM   21  C5  IND I 201      -1.498   5.680  -4.477  1.00 27.66     0.037 C 
HETATM   22  C6  IND I 201      -1.812   8.048  -4.207  1.00 21.71     0.037 C 
HETATM   23  C7  IND I 201      -2.949   6.593  -2.830  1.00 22.75     0.037 C 
ENDBRANCH  18  20
ENDBRANCH  16  18
ENDBRANCH   8  16
ENDBRANCH   2   3
ENDBRANCH   1   2
BRANCH   1  24
HETATM   24  O2  IND I 201       3.065   3.935  -6.093  1.00 15.87    -0.394 OA
HETATM   25  H21 IND I 201       3.646   3.774  -6.928  1.00  0.00     0.210 HD
ENDBRANCH   1  24
BRANCH   1  26
HETATM   26  C12 IND I 201       2.472   5.946  -7.211  1.00 21.49     0.047 C 
BRANCH  26  27
HETATM   27  C13 IND I 201       3.172   5.588  -8.529  1.00 26.89     0.084 C 
BRANCH  27  28
HETATM   28  C14 IND I 201       4.672   5.309  -8.336  1.00 28.67     0.052 C 
BRANCH  28  29
HETATM   29  C15 IND I 201       5.513   6.007  -9.341  1.00 26.89    -0.057 A 
HETATM   30  C16 IND I 201       4.983   6.890 -10.282  1.00 29.22     0.007 A 
HETATM   31  C17 IND I 201       5.802   7.492 -11.227  1.00 29.22     0.001 A 
HETATM   32  C18 IND I 201       7.167   7.197 -11.220  1.00 30.97     0.000 A 
HETATM   33  C19 IND I 201       7.704   6.317 -10.272  1.00 29.25     0.001 A 
HETATM   34  C20 IND I 201       6.867   5.720  -9.328  1.00 29.96     0.007 A 
ENDBRANCH  28  29
ENDBRANCH  27  28
BRANCH  27  35
HETATM   35  C21 IND I 201       2.530   4.385  -9.209  1.00 29.35     0.222 C 
HETATM   36  O3  IND I 201       2.533   3.273  -8.659  1.00 32.66    -0.273 OA
BRANCH  35  37
HETATM   37  N4  IND I 201       2.096   4.595 -10.449  1.00 31.19    -0.350 N 
HETATM   38  H32 IND I 201       2.084   3.811 -11.117  1.00  0.00     0.163 HD
BRANCH  37  39
HETATM   39  C22 IND I 201       1.638   5.904 -10.883  1.00 29.22     0.147 C 
HETATM   40  C23 IND I 201       0.154   6.101 -10.626  1.00 28.82     0.149 C 
HETATM   41  C24 IND I 201      -0.279   7.170 -11.604  1.00 32.05     0.073 C 
HETATM   42  C25 IND I 201       0.544   7.102 -12.865  1.00 31.29    -0.047 A 
HETATM   43  C30 IND I 201       1.766   6.270 -12.385  1.00 31.86    -0.027 A 
HETATM   44  C26 IND I 201       0.434   7.527 -14.168  1.00 32.00     0.008 A 
HETATM   45  C29 IND I 201       2.710   6.011 -13.329  1.00 27.70     0.010 A 
HETATM   46  C28 IND I 201       2.577   6.461 -14.636  1.00 29.01     0.001 A 
HETATM   47  C27 IND I 201       1.462   7.201 -15.060  1.00 28.00     0.001 A 
BRANCH  40  48
HETATM   48  O4  IND I 201      -0.539   4.871 -10.775  1.00 28.32    -0.393 OA
HETATM   49  H35 IND I 201      -0.525   4.358  -9.881  1.00  0.00     0.210 HD
ENDBRANCH  40  48
ENDBRANCH  37  39
ENDBRANCH  35  37
ENDBRANCH  27  35
ENDBRANCH  26  27
ENDBRANCH   1  26
TORSDOF 14
ENDMDL
MODEL 8
REMARK VINA RESULT:      -9.5      3.201     11.187
REMARK  16 active torsions:
REMARK  status: ('A' for Active; 'I' for Inactive)
REMARK    1  A    between atoms: N1_1  and  C31_39 
REMARK    2  A    between atoms: C2_3  and  C3_4 
REMARK    3  A    between atoms: C3_4  and  N2_6 
REMARK    4  A    between atoms: N2_6  and  C4_7 
REMARK    5  A    between atoms: N3_11  and  C10_14 
REMARK    6  A    between atoms: C10_14  and  C11_15 
REMARK    7  A    between atoms: C11_15  and  O2_16 
REMARK    8  A    between atoms: C11_15  and  C12_17 
REMARK    9  A    between atoms: C12_17  and  C13_18 
REMARK   10  A    between atoms: C13_18  and  C14_19 
REMARK   11  A    between atoms: C13_18  and  C21_26 
REMARK   12  A    between atoms: C14_19  and  C15_20 
REMARK   13  A    between atoms: C21_26  and  N4_28 
REMARK   14  A    between atoms: N4_28  and  C22_29 
REMARK   15  A    between atoms: C23_30  and  O4_31 
REMARK   16  A    between atoms: C31_39  and  C32_40 
ROOT
HETATM    1  C11 IND I 201       4.444   6.565  -3.151  1.00 21.68     0.136 C 
ENDROOT
BRANCH   1   2
HETATM    2  C10 IND I 201       3.308   7.190  -3.962  1.00 20.86     0.149 C 
BRANCH   2   3
HETATM    3  N3  IND I 201       2.870   6.387  -5.085  1.00 28.91    -0.395 N 
HETATM    4  C8  IND I 201       3.943   6.361  -6.111  1.00 26.24     0.148 C 
HETATM    5  C9  IND I 201       3.622   5.718  -7.444  1.00 27.47     0.292 C 
HETATM    6  N1  IND I 201       2.316   5.872  -7.909  1.00 28.25     0.096 N 
HETATM    7  C1  IND I 201       1.405   5.642  -6.755  1.00 30.30     0.307 C 
HETATM    8  C2  IND I 201       1.441   6.537  -5.532  1.00 27.27     0.200 C 
BRANCH   6   9
HETATM    9  C31 IND I 201       2.018   5.155  -9.154  1.00 36.25     0.312 C 
BRANCH   9  10
HETATM   10  C32 IND I 201       1.456   5.884 -10.380  1.00 42.75    -0.013 A 
HETATM   11  C33 IND I 201       2.135   5.956 -11.605  1.00 47.41     0.125 A 
HETATM   12  N5  IND I 201       1.678   6.585 -12.774  1.00 51.38    -0.273 NA
HETATM   13  C34 IND I 201       0.421   7.153 -12.570  1.00 50.60     0.116 A 
HETATM   14  C35 IND I 201      -0.310   7.119 -11.378  1.00 49.34     0.020 A 
HETATM   15  C36 IND I 201       0.216   6.472 -10.262  1.00 44.71     0.012 A 
ENDBRANCH   9  10
ENDBRANCH   6   9
BRANCH   8  16
HETATM   16  C3  IND I 201       0.451   6.008  -4.529  1.00 28.85     0.242 C 
HETATM   17  O1  IND I 201       0.698   4.990  -3.894  1.00 29.59    -0.271 OA
BRANCH  16  18
HETATM   18  N2  IND I 201      -0.675   6.680  -4.388  1.00 22.29    -0.351 N 
HETATM   19  H4  IND I 201      -0.581   7.587  -3.909  1.00  0.00     0.163 HD
BRANCH  18  20
HETATM   20  C4  IND I 201      -2.004   6.351  -4.793  1.00 23.47     0.022 C 
HETATM   21  C5  IND I 201      -2.747   7.681  -5.017  1.00 27.66     0.037 C 
HETATM   22  C6  IND I 201      -2.681   5.569  -3.871  1.00 21.71     0.037 C 
HETATM   23  C7  IND I 201      -2.070   5.671  -6.090  1.00 22.75     0.037 C 
ENDBRANCH  18  20
ENDBRANCH  16  18
ENDBRANCH   8  16
ENDBRANCH   2   3
ENDBRANCH   1   2
BRANCH   1  24
HETATM   24  O2  IND I 201       5.339   7.617  -3.356  1.00 15.87    -0.394 OA
HETATM   25  H21 IND I 201       5.492   7.745  -4.366  1.00  0.00     0.210 HD
ENDBRANCH   1  24
BRANCH   1  26
HETATM   26  C12 IND I 201       4.376   6.287  -1.638  1.00 21.49     0.047 C 
BRANCH  26  27
HETATM   27  C13 IND I 201       3.392   7.054  -0.744  1.00 26.89     0.084 C 
BRANCH  27  28
HETATM   28  C14 IND I 201       3.252   8.528  -1.161  1.00 28.67     0.052 C 
BRANCH  28  29
HETATM   29  C15 IND I 201       3.709   9.463  -0.101  1.00 26.89    -0.057 A 
HETATM   30  C16 IND I 201       4.265   9.024   1.100  1.00 29.22     0.007 A 
HETATM   31  C17 IND I 201       4.645   9.933   2.078  1.00 29.22     0.001 A 
HETATM   32  C18 IND I 201       4.458  11.296   1.837  1.00 30.97     0.000 A 
HETATM   33  C19 IND I 201       3.907  11.741   0.629  1.00 29.25     0.001 A 
HETATM   34  C20 IND I 201       3.531  10.814  -0.345  1.00 29.96     0.007 A 
ENDBRANCH  28  29
ENDBRANCH  27  28
BRANCH  27  35
HETATM   35  C21 IND I 201       2.010   6.411  -0.732  1.00 29.35     0.222 C 
HETATM   36  O3  IND I 201       1.889   5.177  -0.753  1.00 32.66    -0.273 OA
BRANCH  35  37
HETATM   37  N4  IND I 201       0.987   7.257  -0.822  1.00 31.19    -0.350 N 
HETATM   38  H32 IND I 201       0.952   7.922  -1.608  1.00  0.00     0.163 HD
BRANCH  37  39
HETATM   39  C22 IND I 201      -0.084   7.263   0.161  1.00 29.22     0.147 C 
HETATM   40  C23 IND I 201      -1.455   7.280  -0.492  1.00 28.82     0.149 C 
HETATM   41  C24 IND I 201      -2.384   7.861   0.551  1.00 32.05     0.073 C 
HETATM   42  C25 IND I 201      -1.650   8.846   1.425  1.00 31.29    -0.047 A 
HETATM   43  C30 IND I 201      -0.171   8.457   1.148  1.00 31.86    -0.027 A 
HETATM   44  C26 IND I 201      -1.972   9.890   2.261  1.00 32.00     0.008 A 
HETATM   45  C29 IND I 201       0.764   9.201   1.795  1.00 27.70     0.010 A 
HETATM   46  C28 IND I 201       0.410  10.244   2.641  1.00 29.01     0.001 A 
HETATM   47  C27 IND I 201      -0.929  10.594   2.872  1.00 28.00     0.001 A 
BRANCH  40  48
HETATM   48  O4  IND I 201      -1.415   8.019  -1.703  1.00 28.32    -0.393 OA
HETATM   49  H35 IND I 201      -2.259   8.605  -1.777  1.00  0.00     0.210 HD
ENDBRANCH  40  48
ENDBRANCH  37  39
ENDBRANCH  35  37
ENDBRANCH  27  35
ENDBRANCH  26  27
ENDBRANCH   1  26
TORSDOF 14
ENDMDL
MODEL 9
REMARK VINA RESULT:      -9.4      2.723      6.057
REMARK  16 active torsions:
REMARK  status: ('A' for Active; 'I' for Inactive)
REMARK    1  A    between atoms: N1_1  and  C31_39 
REMARK    2  A    between atoms: C2_3  and  C3_4 
REMARK    3  A    between atoms: C3_4  and  N2_6 
REMARK    4  A    between atoms: N2_6  and  C4_7 
REMARK    5  A    between atoms: N3_11  and  C10_14 
REMARK    6  A    between atoms: C10_14  and  C11_15 
REMARK    7  A    between atoms: C11_15  and  O2_16 
REMARK    8  A    between atoms: C11_15  and  C12_17 
REMARK    9  A    between atoms: C12_17  and  C13_18 
REMARK   10  A    between atoms: C13_18  and  C14_19 
REMARK   11  A    between atoms: C13_18  and  C21_26 
REMARK   12  A    between atoms: C14_19  and  C15_20 
REMARK   13  A    between atoms: C21_26  and  N4_28 
REMARK   14  A    between atoms: N4_28  and  C22_29 
REMARK   15  A    between atoms: C23_30  and  O4_31 
REMARK   16  A    between atoms: C31_39  and  C32_40 
ROOT
HETATM    1  C11 IND I 201       3.489   7.280  -3.791  1.00 21.68     0.136 C 
ENDROOT
BRANCH   1   2
HETATM    2  C10 IND I 201       3.714   6.305  -2.634  1.00 20.86     0.149 C 
BRANCH   2   3
HETATM    3  N3  IND I 201       2.586   6.179  -1.735  1.00 28.91    -0.395 N 
HETATM    4  C8  IND I 201       1.551   5.326  -2.371  1.00 26.24     0.148 C 
HETATM    5  C9  IND I 201       0.214   5.206  -1.670  1.00 27.47     0.292 C 
HETATM    6  N1  IND I 201      -0.238   6.342  -0.999  1.00 28.25     0.096 N 
HETATM    7  C1  IND I 201       0.921   6.910  -0.258  1.00 30.30     0.307 C 
HETATM    8  C2  IND I 201       2.153   7.410  -0.985  1.00 27.27     0.200 C 
BRANCH   6   9
HETATM    9  C31 IND I 201      -1.488   6.159  -0.253  1.00 36.25     0.312 C 
BRANCH   9  10
HETATM   10  C32 IND I 201      -1.834   7.038   0.956  1.00 42.75    -0.013 A 
HETATM   11  C33 IND I 201      -2.026   6.523   2.246  1.00 47.41     0.125 A 
HETATM   12  N5  IND I 201      -2.323   7.264   3.401  1.00 51.38    -0.273 NA
HETATM   13  C34 IND I 201      -2.408   8.624   3.107  1.00 50.60     0.116 A 
HETATM   14  C35 IND I 201      -2.228   9.203   1.847  1.00 49.34     0.020 A 
HETATM   15  C36 IND I 201      -1.935   8.396   0.750  1.00 44.71     0.012 A 
ENDBRANCH   9  10
ENDBRANCH   6   9
BRANCH   8  16
HETATM   16  C3  IND I 201       3.158   7.861   0.040  1.00 28.85     0.242 C 
HETATM   17  O1  IND I 201       3.401   7.161   1.016  1.00 29.59    -0.271 OA
BRANCH  16  18
HETATM   18  N2  IND I 201       3.736   9.029  -0.161  1.00 22.29    -0.351 N 
HETATM   19  H4  IND I 201       4.520   9.014  -0.829  1.00  0.00     0.163 HD
BRANCH  18  20
HETATM   20  C4  IND I 201       3.449  10.310   0.401  1.00 23.47     0.022 C 
HETATM   21  C5  IND I 201       1.989  10.269   0.886  1.00 27.66     0.037 C 
HETATM   22  C6  IND I 201       3.632  11.353  -0.491  1.00 21.71     0.037 C 
HETATM   23  C7  IND I 201       4.229  10.610   1.605  1.00 22.75     0.037 C 
ENDBRANCH  18  20
ENDBRANCH  16  18
ENDBRANCH   8  16
ENDBRANCH   2   3
ENDBRANCH   1   2
BRANCH   1  24
HETATM   24  O2  IND I 201       4.270   8.302  -3.248  1.00 15.87    -0.394 OA
HETATM   25  H21 IND I 201       3.676   8.924  -2.681  1.00  0.00     0.210 HD
ENDBRANCH   1  24
BRANCH   1  26
HETATM   26  C12 IND I 201       3.964   7.034  -5.234  1.00 21.49     0.047 C 
BRANCH  26  27
HETATM   27  C13 IND I 201       3.042   6.357  -6.257  1.00 26.89     0.084 C 
BRANCH  27  28
HETATM   28  C14 IND I 201       1.869   7.260  -6.674  1.00 28.67     0.052 C 
BRANCH  28  29
HETATM   29  C15 IND I 201       0.548   6.652  -6.371  1.00 26.89    -0.057 A 
HETATM   30  C16 IND I 201      -0.031   5.673  -7.177  1.00 29.22     0.007 A 
HETATM   31  C17 IND I 201      -1.285   5.160  -6.876  1.00 29.22     0.001 A 
HETATM   32  C18 IND I 201      -1.956   5.643  -5.751  1.00 30.97     0.000 A 
HETATM   33  C19 IND I 201      -1.375   6.620  -4.934  1.00 29.25     0.001 A 
HETATM   34  C20 IND I 201      -0.113   7.126  -5.250  1.00 29.96     0.007 A 
ENDBRANCH  28  29
ENDBRANCH  27  28
BRANCH  27  35
HETATM   35  C21 IND I 201       3.797   5.920  -7.507  1.00 29.35     0.222 C 
HETATM   36  O3  IND I 201       4.698   5.071  -7.435  1.00 32.66    -0.273 OA
BRANCH  35  37
HETATM   37  N4  IND I 201       3.504   6.595  -8.615  1.00 31.19    -0.350 N 
HETATM   38  H32 IND I 201       3.493   7.625  -8.588  1.00  0.00     0.163 HD
BRANCH  37  39
HETATM   39  C22 IND I 201       3.200   5.914  -9.863  1.00 29.22     0.147 C 
HETATM   40  C23 IND I 201       4.319   6.062 -10.879  1.00 28.82     0.149 C 
HETATM   41  C24 IND I 201       3.664   5.851 -12.225  1.00 32.05     0.073 C 
HETATM   42  C25 IND I 201       2.232   6.323 -12.198  1.00 31.29    -0.047 A 
HETATM   43  C30 IND I 201       1.957   6.373 -10.669  1.00 31.86    -0.027 A 
HETATM   44  C26 IND I 201       1.275   6.700 -13.111  1.00 32.00     0.008 A 
HETATM   45  C29 IND I 201       0.716   6.795 -10.308  1.00 27.70     0.010 A 
HETATM   46  C28 IND I 201      -0.234   7.161 -11.252  1.00 29.01     0.001 A 
HETATM   47  C27 IND I 201       0.031   7.124 -12.630  1.00 28.00     0.001 A 
BRANCH  40  48
HETATM   48  O4  IND I 201       4.948   7.327 -10.737  1.00 28.32    -0.393 OA
HETATM   49  H35 IND I 201       4.427   8.033 -11.277  1.00  0.00     0.210 HD
ENDBRANCH  40  48
ENDBRANCH  37  39
ENDBRANCH  35  37
ENDBRANCH  27  35
ENDBRANCH  26  27
ENDBRANCH   1  26
TORSDOF 14
ENDMDL
