REMARK  Name = 
REMARK  6 active torsions:
REMARK  status: ('A' for Active; 'I' for Inactive)
REMARK    1  A    between atoms: C_5  and  C_6
REMARK    2  A    between atoms: C_6  and  C_14
REMARK    3  A    between atoms: C_7  and  C_8
REMARK    4  A    between atoms: C_8  and  N_9
REMARK    5  A    between atoms: C_18  and  C_19
REMARK    6  A    between atoms: C_20  and  C_21
REMARK                            x       y       z     vdW  Elec       q    Type
REMARK                         _______ _______ _______ _____ _____    ______ ____
ROOT
ATOM      1  C   UNL     1      -1.100   0.575   0.514  0.00  0.00    +0.015 C 
ATOM      2  C   UNL     1      -2.314   0.056   0.629  0.00  0.00    -0.007 C 
ENDROOT
BRANCH   1   7
ATOM      3  C   UNL     1      -2.549   5.510  -0.912  0.00  0.00    +0.031 C 
ATOM      4  C   UNL     1      -1.645   4.606  -0.151  0.00  0.00    -0.022 A 
ATOM      5  C   UNL     1      -0.573   3.970  -0.766  0.00  0.00    -0.004 A 
ATOM      6  C   UNL     1      -0.201   2.680  -0.411  0.00  0.00    -0.000 A 
ATOM      7  C   UNL     1      -0.844   2.018   0.627  0.00  0.00    +0.001 A 
ATOM      8  C   UNL     1      -1.680   2.791   1.410  0.00  0.00    -0.000 A 
ATOM      9  C   UNL     1      -1.968   4.117   1.109  0.00  0.00    -0.004 A 
ENDBRANCH   1   7
BRANCH   1  10
ATOM     10  C   UNL     1      -0.123  -0.231  -0.221  0.00  0.00    +0.081 A 
ATOM     11  N   UNL     1       1.063  -0.481   0.385  0.00  0.00    -0.245 NA
ATOM     12  C   UNL     1       2.175  -0.791  -0.305  0.00  0.00    +0.082 A 
ATOM     13  C   UNL     1       2.233  -0.443  -1.647  0.00  0.00    +0.019 A 
ATOM     14  C   UNL     1       1.051  -0.335  -2.343  0.00  0.00    +0.003 A 
ATOM     15  C   UNL     1      -0.081  -0.036  -1.596  0.00  0.00    +0.019 A 
BRANCH  12  16
ATOM     16  C   UNL     1       3.304  -1.476   0.325  0.00  0.00    +0.026 C 
ATOM     17  C   UNL     1       4.462  -1.521  -0.302  0.00  0.00    +0.088 C 
BRANCH  17  18
ATOM     18  C   UNL     1       5.723  -1.859   0.343  0.00  0.00    +0.388 C 
ATOM     19  O   UNL     1       6.287  -0.894   1.182  0.00  0.00    -0.241 OA
ATOM     20  O   UNL     1       5.903  -3.059   0.702  0.00  0.00    -0.241 OA
ENDBRANCH  17  18
ENDBRANCH  12  16
ENDBRANCH   1  10
BRANCH   2  21
ATOM     21  C   UNL     1      -2.896  -0.909  -0.324  0.00  0.00    +0.099 C 
BRANCH  21  22
ATOM     22  N   UNL     1      -2.326  -2.227  -0.214  0.00  0.00    -0.269 NA
ATOM     23  C   UNL     1      -2.424  -2.763   1.122  0.00  0.00    +0.072 C 
ATOM     24  C   UNL     1      -3.919  -2.928   1.303  0.00  0.00    +0.019 C 
ATOM     25  C   UNL     1      -4.388  -3.251  -0.110  0.00  0.00    +0.019 C 
ATOM     26  C   UNL     1      -3.170  -3.120  -0.997  0.00  0.00    +0.072 C 
ENDBRANCH  21  22
ENDBRANCH   2  21
TORSDOF 6
