REMARK  Name = 
REMARK  5 active torsions:
REMARK  status: ('A' for Active; 'I' for Inactive)
REMARK    1  A    between atoms: C_5  and  O_6
REMARK    2  A    between atoms: O_6  and  C_7
REMARK    3  A    between atoms: C_7  and  C_9
REMARK    4  A    between atoms: C_9  and  C_10
REMARK    5  A    between atoms: C_9  and  C_12
REMARK                            x       y       z     vdW  Elec       q    Type
REMARK                         _______ _______ _______ _____ _____    ______ ____
ROOT
ATOM      1  O   UNL     1       0.145  -0.751  -0.534  0.00  0.00    -0.452 OA
ENDROOT
BRANCH   1   9
ATOM      2  C   UNL     1       4.172  -1.614  -0.150  0.00  0.00    +0.090 C 
ATOM      3  N   UNL     1       3.928  -0.444  -0.848  0.00  0.00    -0.269 NA
ATOM      4  C   UNL     1       3.001   0.312   0.166  0.00  0.00    +0.091 C 
ATOM      5  C   UNL     1       4.303   0.763   1.199  0.00  0.00    +0.158 C 
ATOM      6  C   UNL     1       4.106   1.816  -0.131  0.00  0.00    +0.158 C 
ATOM      7  O   UNL     1       3.355   2.144   1.333  0.00  0.00    -0.351 OA
ATOM      8  C   UNL     1       2.167  -0.857   0.824  0.00  0.00    +0.062 C 
ATOM      9  C   UNL     1       1.041   0.248   0.190  0.00  0.00    +0.172 C 
ATOM     10  C   UNL     1       1.859   0.773  -1.203  0.00  0.00    +0.062 C 
ATOM     11  C   UNL     1       2.977   0.510  -0.114  0.00  0.00    +0.091 C 
ENDBRANCH   1   9
BRANCH   1  12
ATOM     12  C   UNL     1      -0.874  -1.347   0.189  0.00  0.00    +0.323 C 
ATOM     13  O   UNL     1      -0.269  -2.102   1.028  0.00  0.00    -0.250 OA
BRANCH  12  14
ATOM     14  C   UNL     1      -1.845  -0.476   1.142  0.00  0.00    +0.154 C 
BRANCH  14  15
ATOM     15  C   UNL     1      -2.809   0.130   0.024  0.00  0.00    -0.009 A 
ATOM     16  C   UNL     1      -3.163   1.416   0.419  0.00  0.00    -0.004 A 
ATOM     17  C   UNL     1      -4.223   2.026  -0.237  0.00  0.00    -0.000 A 
ATOM     18  C   UNL     1      -4.812   1.285  -1.263  0.00  0.00    -0.000 A 
ATOM     19  C   UNL     1      -3.942   0.417  -1.921  0.00  0.00    -0.000 A 
ATOM     20  C   UNL     1      -2.958  -0.274  -1.206  0.00  0.00    -0.004 A 
ENDBRANCH  14  15
BRANCH  14  21
ATOM     21  C   UNL     1      -2.833  -1.738   1.484  0.00  0.00    +0.198 C 
ATOM     22  O   UNL     1      -3.328  -2.237   0.327  0.00  0.00    -0.219 OA
ENDBRANCH  14  21
ENDBRANCH  12  14
ENDBRANCH   1  12
TORSDOF 5
