REMARK  Name = 
REMARK  1 active torsions:
REMARK  status: ('A' for Active; 'I' for Inactive)
REMARK    1  A    between atoms: N_11  and  C_12
REMARK                            x       y       z     vdW  Elec       q    Type
REMARK                         _______ _______ _______ _____ _____    ______ ____
ROOT
ATOM      1  O   UNL     1       0.074  -1.347  -1.338  0.00  0.00    -0.269 OA
ATOM      2  C   UNL     1       0.620  -0.681  -0.568  0.00  0.00    +0.255 C 
ATOM      3  N   UNL     1       0.005  -0.063   0.513  0.00  0.00    -0.216 N 
ATOM      4  C   UNL     1       0.940   0.895   1.029  0.00  0.00    +0.255 C 
ATOM      5  O   UNL     1       0.761   1.736   1.958  0.00  0.00    -0.269 OA
ATOM      6  C   UNL     1       2.266   0.619   0.458  0.00  0.00    +0.058 A 
ATOM      7  C   UNL     1       3.362   1.436   0.195  0.00  0.00    +0.005 A 
ATOM      8  C   UNL     1       4.501   0.772  -0.247  0.00  0.00    +0.000 A 
ATOM      9  C   UNL     1       4.412  -0.551  -0.663  0.00  0.00    +0.000 A 
ATOM     10  C   UNL     1       3.158  -1.085  -0.943  0.00  0.00    +0.005 A 
ATOM     11  C   UNL     1       2.065  -0.531  -0.300  0.00  0.00    +0.058 A 
ENDROOT
BRANCH   3  12
ATOM     12  C   UNL     1      -1.516   0.283   0.676  0.00  0.00    +0.162 C 
ATOM     13  C   UNL     1      -2.020  -1.172   0.182  0.00  0.00    +0.266 C 
ATOM     14  O   UNL     1      -1.563  -2.142   0.832  0.00  0.00    -0.271 OA
ATOM     15  N   UNL     1      -3.459  -1.065   0.184  0.00  0.00    -0.143 NA
ATOM     16  C   UNL     1      -3.984   0.183  -0.282  0.00  0.00    +0.248 C 
ATOM     17  O   UNL     1      -4.874   0.844   0.320  0.00  0.00    -0.273 OA
ATOM     18  C   UNL     1      -3.097   0.965  -1.167  0.00  0.00    +0.089 C 
ATOM     19  C   UNL     1      -1.653   0.904  -0.839  0.00  0.00    +0.039 C 
ENDBRANCH   3  12
TORSDOF 1
