REMARK  Name = 
REMARK  6 active torsions:
REMARK  status: ('A' for Active; 'I' for Inactive)
REMARK    1  A    between atoms: C_7  and  C_8
REMARK    2  A    between atoms: C_8  and  O_9
REMARK    3  A    between atoms: C_8  and  C_15
REMARK    4  A    between atoms: O_9  and  C_10
REMARK    5  A    between atoms: C_10  and  C_11
REMARK    6  A    between atoms: C_11  and  N_12
REMARK                            x       y       z     vdW  Elec       q    Type
REMARK                         _______ _______ _______ _____ _____    ______ ____
ROOT
ATOM      1  C   UNL     1      -0.194   0.122  -0.948  0.00  0.00    +0.159 C 
ENDROOT
BRANCH   1   4
ATOM      2  C   UNL     1      -2.693   1.294  -1.172  0.00  0.00    +0.031 C 
ATOM      3  C   UNL     1      -1.928   1.618  -0.104  0.00  0.00    -0.023 A 
ATOM      4  C   UNL     1      -0.908   0.807   0.390  0.00  0.00    +0.005 A 
ATOM      5  C   UNL     1      -0.003   1.533   1.159  0.00  0.00    -0.002 A 
ATOM      6  C   UNL     1      -0.485   2.518   2.010  0.00  0.00    -0.000 A 
ATOM      7  C   UNL     1      -1.475   3.316   1.505  0.00  0.00    -0.000 A 
ATOM      8  C   UNL     1      -2.151   2.906   0.362  0.00  0.00    -0.004 A 
ENDBRANCH   1   4
BRANCH   1   9
ATOM      9  C   UNL     1      -0.852  -1.366  -0.649  0.00  0.00    +0.009 A 
ATOM     10  C   UNL     1      -1.834  -1.734  -1.523  0.00  0.00    -0.002 A 
ATOM     11  C   UNL     1      -2.716  -2.723  -1.098  0.00  0.00    -0.000 A 
ATOM     12  C   UNL     1      -2.426  -3.423   0.067  0.00  0.00    -0.000 A 
ATOM     13  C   UNL     1      -1.347  -3.045   0.857  0.00  0.00    -0.000 A 
ATOM     14  C   UNL     1      -0.727  -1.823   0.614  0.00  0.00    -0.002 A 
ENDBRANCH   1   9
BRANCH   1  15
ATOM     15  O   UNL     1       1.121  -0.246  -0.193  0.00  0.00    -0.346 OA
BRANCH  15  16
ATOM     16  C   UNL     1       1.984   0.674  -0.793  0.00  0.00    +0.160 C 
BRANCH  16  17
ATOM     17  C   UNL     1       3.297   0.001  -1.178  0.00  0.00    +0.105 C 
BRANCH  17  18
ATOM     18  N   UNL     1       4.242   0.234  -0.107  0.00  0.00    -0.268 NA
ATOM     19  C   UNL     1       5.463  -0.493  -0.352  0.00  0.00    +0.090 C 
ATOM     20  C   UNL     1       3.634  -0.171   1.153  0.00  0.00    +0.090 C 
ENDBRANCH  17  18
ENDBRANCH  16  17
ENDBRANCH  15  16
ENDBRANCH   1  15
TORSDOF 6
