REMARK  Name = 
REMARK  3 active torsions:
REMARK  status: ('A' for Active; 'I' for Inactive)
REMARK    1  A    between atoms: CA_2  and  C_3
REMARK    2  A    between atoms: CA_2  and  C_6
REMARK    3  A    between atoms: C_6  and  C_8
REMARK                            x       y       z     vdW  Elec       q    Type
REMARK                         _______ _______ _______ _____ _____    ______ ____
ROOT
ATOM      1  C   UNL     1      -0.382  -0.529  -0.827  0.00  0.00    +0.013 A 
ATOM      2  C   UNL     1      -0.803  -0.435   0.460  0.00  0.00    +0.044 A 
ATOM      3  C   UNL     1      -2.156  -0.205   0.678  0.00  0.00    +0.234 A 
ATOM      4  O   UNL     1      -2.818  -0.588   1.822  0.00  0.00    -0.283 OA
ATOM      5  C   UNL     1      -2.737   0.790  -0.090  0.00  0.00    +0.234 A 
ATOM      6  O   UNL     1      -3.555   1.784   0.460  0.00  0.00    -0.283 OA
ATOM      7  C   UNL     1      -2.268   0.906  -1.393  0.00  0.00    +0.045 A 
ATOM      8  C   UNL     1      -1.089   0.255  -1.738  0.00  0.00    +0.002 A 
ENDROOT
BRANCH   1   9
ATOM      9  C   UNL     1       1.193  -0.138  -1.084  0.00  0.00    +0.203 C 
ATOM     10  O   UNL     1       1.398  -1.432  -1.892  0.00  0.00    -0.216 OA
BRANCH   9  12
ATOM     11  N   UNL     1       3.144  -1.306  -0.244  0.00  0.00    -0.118 NA
ATOM     12  CA  UNL     1       1.750  -0.908   0.400  0.00  0.00    +0.229 C 
BRANCH  12  13
ATOM     13  C   UNL     1       2.352   0.473   1.008  0.00  0.00    +0.385 C 
ATOM     14  OXT UNL     1       2.985   0.147   2.215  0.00  0.00    -0.244 OA
ATOM     15  O   UNL     1       2.986   1.186   0.225  0.00  0.00    -0.244 OA
ENDBRANCH  12  13
ENDBRANCH   9  12
ENDBRANCH   1   9
TORSDOF 3
