REMARK  Name = 
REMARK  1 active torsions:
REMARK  status: ('A' for Active; 'I' for Inactive)
REMARK    1  A    between atoms: C_2  and  C_4
REMARK                            x       y       z     vdW  Elec       q    Type
REMARK                         _______ _______ _______ _____ _____    ______ ____
ROOT
ATOM      1  C   UNL     1       0.670  -0.163   0.175  0.00  0.00    +0.016 C 
ATOM      2  C   UNL     1      -0.011  -0.836   1.364  0.00  0.00    +0.001 C 
ATOM      3  C   UNL     1      -1.483  -0.558   1.225  0.00  0.00    +0.000 C 
ATOM      4  C   UNL     1      -1.768   0.939   1.251  0.00  0.00    +0.000 C 
ATOM      5  C   UNL     1      -0.986   1.568   0.105  0.00  0.00    +0.000 C 
ATOM      6  C   UNL     1      -1.417   1.023  -1.236  0.00  0.00    +0.000 C 
ATOM      7  C   UNL     1      -1.200  -0.486  -1.259  0.00  0.00    +0.000 C 
ATOM      8  C   UNL     1      -2.007  -1.054  -0.118  0.00  0.00    +0.000 C 
ATOM      9  C   UNL     1       0.458   1.306   0.377  0.00  0.00    +0.001 C 
ATOM     10  C   UNL     1       0.253  -0.730  -1.095  0.00  0.00    +0.001 C 
ENDROOT
BRANCH   1  12
ATOM     11  C   UNL     1       2.504  -1.407  -0.877  0.00  0.00    +0.020 C 
ATOM     12  C   UNL     1       2.265  -0.445   0.448  0.00  0.00    +0.092 C 
ATOM     13  N   UNL     1       2.722   0.842  -0.359  0.00  0.00    -0.133 NA
ENDBRANCH   1  12
TORSDOF 1
