REMARK  Name = 
REMARK  5 active torsions:
REMARK  status: ('A' for Active; 'I' for Inactive)
REMARK    1  A    between atoms: C_2  and  C_3
REMARK    2  A    between atoms: C_3  and  C_4
REMARK    3  A    between atoms: C_4  and  N_5
REMARK    4  A    between atoms: C_10  and  C_11
REMARK    5  A    between atoms: N_13  and  C_14
REMARK                            x       y       z     vdW  Elec       q    Type
REMARK                         _______ _______ _______ _____ _____    ______ ____
ROOT
ATOM      1  C   UNL     1      -0.073  -0.690   0.053  0.00  0.00    +0.260 C 
ATOM      2  N   UNL     1      -0.754   0.424  -0.458  0.00  0.00    -0.179 NA
ATOM      3  O   UNL     1      -0.561  -1.326   0.966  0.00  0.00    -0.272 OA
ENDROOT
BRANCH   2   4
ATOM      4  C   UNL     1      -2.136   0.664  -0.328  0.00  0.00    +0.065 A 
ATOM      5  C   UNL     1      -2.703   0.474   0.927  0.00  0.00    -0.007 A 
ATOM      6  C   UNL     1      -1.987   0.978   2.142  0.00  0.00    +0.032 C 
ATOM      7  C   UNL     1      -4.080   0.262   0.907  0.00  0.00    -0.003 A 
ATOM      8  C   UNL     1      -4.848   0.774  -0.132  0.00  0.00    -0.001 A 
ATOM      9  C   UNL     1      -4.241   1.399  -1.216  0.00  0.00    -0.003 A 
ATOM     10  C   UNL     1      -2.859   1.278  -1.348  0.00  0.00    -0.007 A 
ATOM     11  C   UNL     1      -2.216   1.767  -2.581  0.00  0.00    +0.032 C 
ENDBRANCH   2   4
BRANCH   1  13
ATOM     12  N   UNL     1       2.196  -1.008   0.234  0.00  0.00    -0.267 NA
ATOM     13  C   UNL     1       1.094  -1.335  -0.848  0.00  0.00    +0.137 C 
ATOM     14  C   UNL     1       0.861  -2.868  -0.298  0.00  0.00    +0.025 C 
ATOM     15  C   UNL     1       2.157  -3.450   0.080  0.00  0.00    +0.003 C 
ATOM     16  C   UNL     1       3.232  -2.911  -0.816  0.00  0.00    +0.017 C 
ATOM     17  C   UNL     1       3.436  -1.462  -0.397  0.00  0.00    +0.072 C 
BRANCH  12  18
ATOM     18  C   UNL     1       2.250   0.453   0.156  0.00  0.00    +0.072 C 
BRANCH  18  19
ATOM     19  C   UNL     1       3.577   0.991   0.619  0.00  0.00    +0.017 C 
BRANCH  19  21
ATOM     20  C   UNL     1       3.736   3.262   0.589  0.00  0.00    +0.000 C 
ATOM     21  C   UNL     1       3.920   2.321   0.004  0.00  0.00    +0.001 C 
ENDBRANCH  19  21
ENDBRANCH  18  19
ENDBRANCH  12  18
ENDBRANCH   1  13
TORSDOF 5
