REMARK  Name = 
REMARK  2 active torsions:
REMARK  status: ('A' for Active; 'I' for Inactive)
REMARK    1  A    between atoms: N_2  and  C_4
REMARK    2  A    between atoms: C_7  and  C_8
REMARK                            x       y       z     vdW  Elec       q    Type
REMARK                         _______ _______ _______ _____ _____    ______ ____
ROOT
ATOM      1  C   UNL     1      -2.546   1.190  -0.459  0.00  0.00    +0.124 C 
ATOM      2  C   UNL     1      -1.059   0.853   0.381  0.00  0.00    +0.065 C 
ATOM      3  C   UNL     1      -1.121  -0.761   0.246  0.00  0.00    +0.237 C 
ATOM      4  C   UNL     1       0.062  -1.300  -0.395  0.00  0.00    +0.207 C 
ATOM      5  C   UNL     1       1.230  -0.761  -0.580  0.00  0.00    +0.057 C 
ATOM      6  C   UNL     1       1.225   0.800  -0.103  0.00  0.00    +0.060 C 
ATOM      7  C   UNL     1       2.240   1.264  -1.333  0.00  0.00    +0.149 C 
ATOM      8  O   UNL     1       1.843   0.611  -2.443  0.00  0.00    -0.221 OA
ATOM      9  C   UNL     1       2.169   2.755  -1.392  0.00  0.00    +0.038 C 
ATOM     10  C   UNL     1       3.534   0.796  -0.734  0.00  0.00    +0.012 A 
ATOM     11  C   UNL     1       3.668  -0.490  -0.216  0.00  0.00    +0.076 A 
ATOM     12  C   UNL     1       4.692  -0.819   0.671  0.00  0.00    +0.198 A 
ATOM     13  C   UNL     1       5.401   0.199   1.302  0.00  0.00    +0.042 A 
ATOM     14  C   UNL     1       4.976   1.500   1.099  0.00  0.00    +0.003 A 
ATOM     15  O   UNL     1       4.671  -2.060   1.317  0.00  0.00    -0.286 OA
ATOM     16  C   UNL     1       4.254   1.772  -0.049  0.00  0.00    -0.002 A 
ATOM     17  C   UNL     1       2.519  -1.397  -0.403  0.00  0.00    +0.197 C 
ATOM     18  O   UNL     1       2.543  -2.575   0.028  0.00  0.00    -0.287 OA
ATOM     19  O   UNL     1       0.085  -2.700  -0.383  0.00  0.00    -0.289 OA
ATOM     20  O   UNL     1      -0.958  -1.094   1.608  0.00  0.00    -0.210 OA
ATOM     21  C   UNL     1      -2.400  -1.216  -0.221  0.00  0.00    +0.215 C 
ATOM     22  O   UNL     1      -2.456  -2.338  -0.755  0.00  0.00    -0.288 OA
ATOM     23  C   UNL     1      -3.592  -0.712   0.480  0.00  0.00    +0.130 C 
ATOM     24  C   UNL     1      -0.164   1.066  -0.984  0.00  0.00    +0.012 C 
ATOM     25  C   UNL     1      -3.454   0.589   0.759  0.00  0.00    +0.195 C 
ATOM     26  O   UNL     1      -4.659   1.275   0.956  0.00  0.00    -0.290 OA
ENDROOT
BRANCH   1  28
ATOM     27  C   UNL     1      -3.642   3.260  -0.700  0.00  0.00    +0.090 C 
ATOM     28  N   UNL     1      -2.623   2.663   0.133  0.00  0.00    -0.265 NA
ATOM     29  C   UNL     1      -1.388   3.297  -0.173  0.00  0.00    +0.090 C 
ENDBRANCH   1  28
BRANCH  23  30
ATOM     30  C   UNL     1      -4.798  -1.480   0.689  0.00  0.00    +0.290 C 
ATOM     31  O   UNL     1      -5.308  -2.063  -0.306  0.00  0.00    -0.266 OA
ATOM     32  N   UNL     1      -4.946  -2.122   1.961  0.00  0.00    -0.084 NA
ENDBRANCH  23  30
TORSDOF 2
