REMARK  Name = 
REMARK  6 active torsions:
REMARK  status: ('A' for Active; 'I' for Inactive)
REMARK    1  A    between atoms: C_2  and  C_3
REMARK    2  A    between atoms: C_2  and  C_19
REMARK    3  A    between atoms: C_3  and  N_4
REMARK    4  A    between atoms: N_4  and  C_5
REMARK    5  A    between atoms: C_5  and  C_6
REMARK    6  A    between atoms: C_6  and  C_8
REMARK                            x       y       z     vdW  Elec       q    Type
REMARK                         _______ _______ _______ _____ _____    ______ ____
ROOT
ATOM      1  N   UNL     1       0.512  -2.474  -0.181  0.00  0.00    -0.212 NA
ENDROOT
BRANCH   1   2
ATOM      2  C   UNL     1      -0.806  -2.142  -0.618  0.00  0.00    +0.125 C 
BRANCH   2   4
ATOM      3  O   UNL     1      -1.048  -0.028   0.173  0.00  0.00    -0.218 OA
ATOM      4  C   UNL     1      -1.535  -1.387   0.670  0.00  0.00    +0.209 C 
BRANCH   4   5
ATOM      5  C   UNL     1      -3.061  -1.318  -0.190  0.00  0.00    +0.198 C 
ATOM      6  O   UNL     1      -3.211   0.217  -0.087  0.00  0.00    -0.477 OA
ATOM      7  C   UNL     1      -4.453   0.658  -0.428  0.00  0.00    +0.135 A 
ATOM      8  C   UNL     1      -5.534   0.103   0.226  0.00  0.00    +0.014 A 
ATOM      9  C   UNL     1      -6.660   0.873   0.436  0.00  0.00    +0.028 A 
ATOM     10  C   UNL     1      -6.721   2.187  -0.010  0.00  0.00    +0.140 A 
ATOM     11  C   UNL     1      -5.734   2.657  -0.855  0.00  0.00    +0.033 A 
ATOM     12  F   UNL     1      -7.534   3.023   0.667  0.00  0.00    -0.204 F 
ATOM     13  C   UNL     1      -5.328  -1.239   0.792  0.00  0.00    +0.033 C 
ATOM     14  C   UNL     1      -4.669   1.819  -1.152  0.00  0.00    +0.039 A 
ATOM     15  C   UNL     1      -3.908  -1.519   1.219  0.00  0.00    +0.051 C 
ENDBRANCH   4   5
ENDBRANCH   2   4
ENDBRANCH   1   2
BRANCH   1  16
ATOM     16  C   UNL     1       1.394  -1.376   0.003  0.00  0.00    +0.125 C 
BRANCH  16  17
ATOM     17  C   UNL     1       1.431  -0.575  -1.452  0.00  0.00    +0.209 C 
ATOM     18  O   UNL     1       2.120  -1.737  -2.169  0.00  0.00    -0.218 OA
BRANCH  17  19
ATOM     19  C   UNL     1       2.946   0.237  -1.100  0.00  0.00    +0.198 C 
ATOM     20  O   UNL     1       3.617  -1.034  -0.510  0.00  0.00    -0.477 OA
ATOM     21  C   UNL     1       4.785  -0.793   0.173  0.00  0.00    +0.135 A 
ATOM     22  C   UNL     1       4.606   0.102   1.227  0.00  0.00    +0.014 A 
ATOM     23  C   UNL     1       5.627   1.012   1.461  0.00  0.00    +0.028 A 
ATOM     24  C   UNL     1       6.840   0.918   0.789  0.00  0.00    +0.140 A 
ATOM     25  C   UNL     1       7.149  -0.350   0.303  0.00  0.00    +0.033 A 
ATOM     26  F   UNL     1       7.539   2.033   0.430  0.00  0.00    -0.204 F 
ATOM     27  C   UNL     1       3.180   0.374   1.454  0.00  0.00    +0.033 C 
ATOM     28  C   UNL     1       6.072  -1.058  -0.235  0.00  0.00    +0.039 A 
ATOM     29  C   UNL     1       2.384   0.818   0.338  0.00  0.00    +0.051 C 
ENDBRANCH  17  19
ENDBRANCH  16  17
ENDBRANCH   1  16
TORSDOF 6
