REMARK  Name = 
REMARK  4 active torsions:
REMARK  status: ('A' for Active; 'I' for Inactive)
REMARK    1  A    between atoms: C_2  and  C_3
REMARK    2  A    between atoms: C_5  and  C_6
REMARK    3  A    between atoms: C_6  and  C_7
REMARK    4  A    between atoms: C_26  and  C_28
REMARK                            x       y       z     vdW  Elec       q    Type
REMARK                         _______ _______ _______ _____ _____    ______ ____
ROOT
ATOM      1  C   UNL     1       0.748  -1.209   0.103  0.00  0.00    +0.081 A 
ATOM      2  C   UNL     1       0.882   0.012   0.750  0.00  0.00    +0.144 A 
ATOM      3  F   UNL     1       1.924   0.828   0.418  0.00  0.00    -0.204 F 
ATOM      4  C   UNL     1      -0.276   0.500   1.344  0.00  0.00    +0.029 A 
ATOM      5  C   UNL     1      -1.503  -0.099   1.082  0.00  0.00    -0.002 A 
ATOM      6  C   UNL     1      -1.647  -1.007   0.040  0.00  0.00    -0.016 A 
ATOM      7  C   UNL     1      -0.491  -1.670  -0.326  0.00  0.00    +0.003 A 
ENDROOT
BRANCH   1   9
ATOM      8  O   UNL     1       1.849  -2.972  -1.016  0.00  0.00    -0.270 OA
ATOM      9  C   UNL     1       1.937  -1.927  -0.303  0.00  0.00    +0.251 C 
ATOM     10  N   UNL     1       3.238  -1.508   0.125  0.00  0.00    -0.273 N 
ATOM     11  C   UNL     1       3.495  -1.635   1.556  0.00  0.00    +0.115 C 
ATOM     12  C   UNL     1       4.787  -0.983   1.965  0.00  0.00    +0.115 C 
ATOM     13  N   UNL     1       5.645  -0.692   0.819  0.00  0.00    -0.276 N 
ATOM     14  C   UNL     1       5.666   0.654   0.331  0.00  0.00    +0.225 C 
ATOM     15  O   UNL     1       4.916   1.545   0.831  0.00  0.00    -0.275 OA
ATOM     16  C   UNL     1       5.667  -1.732  -0.208  0.00  0.00    +0.115 C 
ATOM     17  C   UNL     1       4.307  -1.707  -0.850  0.00  0.00    +0.115 C 
BRANCH  14  18
ATOM     18  C   UNL     1       6.253   0.981  -1.001  0.00  0.00    +0.077 C 
ATOM     19  C   UNL     1       7.644   1.653  -0.864  0.00  0.00    +0.010 C 
ATOM     20  C   UNL     1       6.392   2.419  -1.355  0.00  0.00    +0.010 C 
ENDBRANCH  14  18
ENDBRANCH   1   9
BRANCH   6  21
ATOM     21  C   UNL     1      -2.797  -0.946  -0.913  0.00  0.00    +0.074 C 
BRANCH  21  22
ATOM     22  C   UNL     1      -4.061  -0.589  -0.246  0.00  0.00    +0.085 A 
ATOM     23  C   UNL     1      -4.416   0.740  -0.154  0.00  0.00    +0.020 A 
ATOM     24  C   UNL     1      -5.702   1.051   0.269  0.00  0.00    +0.061 A 
ATOM     25  C   UNL     1      -5.999   2.346   0.673  0.00  0.00    +0.005 A 
ATOM     26  C   UNL     1      -4.958   3.258   0.670  0.00  0.00    +0.000 A 
ATOM     27  C   UNL     1      -3.847   3.053  -0.123  0.00  0.00    +0.000 A 
ATOM     28  C   UNL     1      -6.712   0.111   0.111  0.00  0.00    +0.297 A 
ATOM     29  O   UNL     1      -7.885   0.364   0.504  0.00  0.00    -0.264 OA
ATOM     30  N   UNL     1      -6.346  -1.132  -0.288  0.00  0.00    -0.106 NA
ATOM     31  C   UNL     1      -3.629   1.774  -0.620  0.00  0.00    +0.001 A 
ATOM     32  N   UNL     1      -5.081  -1.478  -0.161  0.00  0.00    -0.149 NA
ENDBRANCH  21  22
ENDBRANCH   6  21
TORSDOF 4
