REMARK  Name = 
REMARK  7 active torsions:
REMARK  status: ('A' for Active; 'I' for Inactive)
REMARK    1  A    between atoms: C_2  and  C_3
REMARK    2  A    between atoms: C_3  and  C_4
REMARK    3  A    between atoms: C_6  and  C_7
REMARK    4  A    between atoms: N_9  and  C_10
REMARK    5  A    between atoms: C_10  and  C_11
REMARK    6  A    between atoms: C_10  and  C_14
REMARK    7  A    between atoms: C_16  and  S_17
REMARK                            x       y       z     vdW  Elec       q    Type
REMARK                         _______ _______ _______ _____ _____    ______ ____
ROOT
ATOM      1  C   UNL     1      -1.325  -0.691   1.500  0.00  0.00    +0.155 C 
ENDROOT
BRANCH   1   2
ATOM      2  C   UNL     1      -1.815   0.304   0.230  0.00  0.00    +0.172 C 
ATOM      3  C   UNL     1      -3.282   0.689   1.015  0.00  0.00    +0.213 C 
ATOM      4  O   UNL     1      -3.801  -0.710   1.159  0.00  0.00    -0.218 OA
ATOM      5  C   UNL     1      -4.336   1.205  -0.190  0.00  0.00    +0.218 C 
ATOM      6  O   UNL     1      -5.112  -0.121  -0.381  0.00  0.00    -0.217 OA
ATOM      7  C   UNL     1      -3.824   0.845  -1.759  0.00  0.00    +0.222 C 
ATOM      8  O   UNL     1      -3.876   2.333  -2.150  0.00  0.00    -0.217 OA
ATOM      9  C   UNL     1      -2.164   0.675  -1.607  0.00  0.00    +0.195 C 
ATOM     10  O   UNL     1      -2.504  -0.512  -0.744  0.00  0.00    -0.341 OA
BRANCH   9  11
ATOM     11  S   UNL     1      -1.978   2.202  -0.513  0.00  0.00    -0.108 S 
ATOM     12  C   UNL     1      -0.837   3.332  -0.479  0.00  0.00    +0.072 C 
ENDBRANCH   9  11
ENDBRANCH   1   2
BRANCH   1  13
ATOM     13  C   UNL     1      -1.006  -2.241   0.928  0.00  0.00    +0.174 C 
ATOM     14  O   UNL     1      -1.459  -2.140  -0.483  0.00  0.00    -0.221 OA
ATOM     15  C   UNL     1      -2.396  -2.987   1.448  0.00  0.00    +0.037 C 
ENDBRANCH   1  13
BRANCH   1  17
ATOM     16  C   UNL     1       1.204  -0.934   0.647  0.00  0.00    +0.256 C 
ATOM     17  N   UNL     1       0.127  -0.154   1.147  0.00  0.00    -0.201 NA
ATOM     18  O   UNL     1       1.087  -2.141   1.014  0.00  0.00    -0.272 OA
BRANCH  16  23
ATOM     19  C   UNL     1       4.167  -0.191  -0.936  0.00  0.00    +0.018 C 
ATOM     20  C   UNL     1       4.702  -0.512   0.570  0.00  0.00    +0.073 C 
ATOM     21  N   UNL     1       3.518  -1.404   0.693  0.00  0.00    -0.265 NA
ATOM     22  C   UNL     1       3.106  -2.021  -0.526  0.00  0.00    +0.090 C 
ATOM     23  C   UNL     1       2.594  -0.187   1.035  0.00  0.00    +0.137 C 
ATOM     24  C   UNL     1       2.874   0.616  -0.372  0.00  0.00    +0.027 C 
BRANCH  19  25
ATOM     25  C   UNL     1       5.126   1.081  -1.240  0.00  0.00    +0.001 C 
BRANCH  25  27
ATOM     26  C   UNL     1       5.736   1.881   0.717  0.00  0.00    +0.000 C 
ATOM     27  C   UNL     1       5.474   1.785   0.161  0.00  0.00    +0.000 C 
ENDBRANCH  25  27
ENDBRANCH  19  25
ENDBRANCH  16  23
ENDBRANCH   1  17
TORSDOF 7
