
     RDKit          3D

 11 11  0  0  0  0  0  0  0  0999 V2000
   -2.3525    1.6823    0.1719 N   0  0  0  0  0  0  0  0  0  0  0  0
   -1.3373    0.7691   -0.6254 C   0  0  1  0  0  0  0  0  0  0  0  0
   -0.2750    0.7831    0.6337 C   0  0  0  0  0  0  0  0  0  0  0  0
    1.0411    0.3763    0.0476 C   0  0  0  0  0  0  0  0  0  0  0  0
    2.2223    1.0662   -0.0615 C   0  0  0  0  0  0  0  0  0  0  0  0
    3.2243    0.1977    0.2301 N   0  0  0  0  0  0  0  0  0  0  0  0
    2.7150   -1.0494    0.3513 C   0  0  0  0  0  0  0  0  0  0  0  0
    1.4281   -0.9172    0.0721 N   0  0  0  0  0  0  0  0  0  0  0  0
   -2.0590   -0.5786   -0.1227 C   0  0  0  0  0  0  0  0  0  0  0  0
   -3.2693   -0.6744   -0.3219 O   0  0  0  0  0  0  0  0  0  0  0  0
   -1.3378   -1.6550    0.2279 O   0  0  0  0  0  0  0  0  0  0  0  0
  2  1  1  1
  2  3  1  0
  3  4  1  0
  4  5  2  0
  5  6  1  0
  6  7  1  0
  7  8  2  0
  2  9  1  0
  9 10  2  0
  9 11  1  0
  8  4  1  0
M  END
>  <supplier_code>  (1) 
DB00117

>  <zinc_id>  (1) 
ZINC000006661227

>  <catalog_short_name>  (1) 
dbfda

$$$$

     RDKit          3D

  6  5  0  0  0  0  0  0  0  0999 V2000
    1.4658   -0.9422    0.7161 C   0  0  0  0  0  0  0  0  0  0  0  0
    0.7271    0.0613   -0.0765 C   0  0  0  0  0  0  0  0  0  0  0  0
    1.2973    1.0078   -0.6512 O   0  0  0  0  0  0  0  0  0  0  0  0
   -0.7374   -0.0351   -0.0362 C   0  0  0  0  0  0  0  0  0  0  0  0
   -1.3050   -0.9132   -0.7444 O   0  0  0  0  0  0  0  0  0  0  0  0
   -1.4478    0.8214    0.7921 O   0  0  0  0  0  0  0  0  0  0  0  0
  1  2  1  0
  2  3  2  0
  2  4  1  0
  4  5  2  0
  4  6  1  0
M  END
>  <supplier_code>  (2) 
DB00119

>  <zinc_id>  (2) 
ZINC000001532517

>  <catalog_short_name>  (2) 
dbfda

$$$$

     RDKit          3D

 12 12  0  0  0  0  0  0  0  0999 V2000
   -2.2044    1.9761   -0.7093 N   0  0  0  0  0  0  0  0  0  0  0  0
   -1.4267    0.5841   -0.9092 C   0  0  1  0  0  0  0  0  0  0  0  0
   -0.5603    0.7963    0.5114 C   0  0  0  0  0  0  0  0  0  0  0  0
    0.7439    0.1273    0.1965 C   0  0  0  0  0  0  0  0  0  0  0  0
    1.1598   -0.9813    0.9230 C   0  0  0  0  0  0  0  0  0  0  0  0
    2.4460   -1.4627    0.7143 C   0  0  0  0  0  0  0  0  0  0  0  0
    3.4063   -0.7169    0.0440 C   0  0  0  0  0  0  0  0  0  0  0  0
    2.9889    0.4187   -0.6313 C   0  0  0  0  0  0  0  0  0  0  0  0
    1.7319    0.9211   -0.3572 C   0  0  0  0  0  0  0  0  0  0  0  0
   -2.6072   -0.2689   -0.1513 C   0  0  0  0  0  0  0  0  0  0  0  0
   -3.0187    0.2010    0.9075 O   0  0  0  0  0  0  0  0  0  0  0  0
   -2.6594   -1.5948   -0.5385 O   0  0  0  0  0  0  0  0  0  0  0  0
  2  1  1  1
  2  3  1  0
  3  4  1  0
  4  5  2  0
  5  6  1  0
  6  7  2  0
  7  8  1  0
  8  9  2  0
  2 10  1  0
 10 11  2  0
 10 12  1  0
  9  4  1  0
M  END
>  <supplier_code>  (3) 
DB00120

>  <zinc_id>  (3) 
ZINC000000105196

>  <catalog_short_name>  (3) 
dbfda

$$$$

     RDKit          3D

 16 17  0  0  0  0  0  0  0  0999 V2000
    4.9120    1.5397    0.4878 O   0  0  0  0  0  0  0  0  0  0  0  0
    4.5593    0.8289    0.2279 C   0  0  0  0  0  0  0  0  0  0  0  0
    5.3439   -0.3166    0.1222 O   0  0  0  0  0  0  0  0  0  0  0  0
    3.0927    0.7025    0.0364 C   0  0  0  0  0  0  0  0  0  0  0  0
    2.7015   -0.7197    0.3043 C   0  0  0  0  0  0  0  0  0  0  0  0
    1.5285   -0.8629    1.2274 C   0  0  0  0  0  0  0  0  0  0  0  0
    0.3392   -0.0607    0.7755 C   0  0  0  0  0  0  0  0  0  0  0  0
   -0.3950   -0.9893   -0.2645 C   0  0  2  0  0  0  0  0  0  0  0  0
   -0.7482    0.3599   -1.5100 S   0  0  0  0  0  0  0  0  0  0  0  0
   -2.4329    0.1116   -1.6116 C   0  0  0  0  0  0  0  0  0  0  0  0
   -2.7643   -1.3095   -0.8550 C   0  0  2  0  0  0  0  0  0  0  0  0
   -4.0108   -0.6512   -0.1429 N   0  0  0  0  0  0  0  0  0  0  0  0
   -3.5986    0.4256    0.3763 C   0  0  0  0  0  0  0  0  0  0  0  0
   -4.5008    1.3198    0.9729 O   0  0  0  0  0  0  0  0  0  0  0  0
   -2.1771    0.5753    0.4071 N   0  0  0  0  0  0  0  0  0  0  0  0
   -1.8494   -0.9534    0.5644 C   0  0  2  0  0  0  0  0  0  0  0  0
  1  2  2  0
  2  3  1  0
  2  4  1  0
  4  5  1  0
  5  6  1  0
  6  7  1  0
  8  7  1  1
  8  9  1  0
  9 10  1  0
 11 10  1  6
 11 12  1  0
 12 13  2  0
 13 14  1  0
 13 15  1  0
 16 15  1  6
 16  8  1  0
 16 11  1  0
M  END
>  <supplier_code>  (4) 
DB00121

>  <zinc_id>  (4) 
ZINC000035024346

>  <catalog_short_name>  (4) 
dbfda

$$$$

     RDKit          3D

  7  6  0  0  0  0  0  0  0  0999 V2000
   -1.4508   -0.9958   -0.7519 C   0  0  0  0  0  0  0  0  0  0  0  0
   -0.8121   -0.0078    0.0982 N   0  0  0  0  0  0  0  0  0  0  0  0
   -0.5715    1.1653   -0.7282 C   0  0  0  0  0  0  0  0  0  0  0  0
   -1.7594    0.3536    1.1242 C   0  0  0  0  0  0  0  0  0  0  0  0
    0.4411   -0.4458    0.6465 C   0  0  0  0  0  0  0  0  0  0  0  0
    1.5472   -0.4621   -0.3658 C   0  0  0  0  0  0  0  0  0  0  0  0
    2.6055    0.3926   -0.0230 O   0  0  0  0  0  0  0  0  0  0  0  0
  1  2  1  0
  2  3  1  0
  2  4  1  0
  2  5  1  0
  5  6  1  0
  6  7  1  0
M  CHG  1   2   1
M  END
>  <supplier_code>  (5) 
DB00122

>  <zinc_id>  (5) 
ZINC000003079337

>  <catalog_short_name>  (5) 
dbfda

$$$$

     RDKit          3D

 10  9  0  0  0  0  0  0  0  0999 V2000
    3.3966   -0.6081    0.5291 N   0  0  0  0  0  0  0  0  0  0  0  0
    3.3912    0.6565    0.1056 C   0  0  0  0  0  0  0  0  0  0  0  0
    2.0116    1.2133   -0.0897 C   0  0  0  0  0  0  0  0  0  0  0  0
    1.1564    0.1300   -0.6926 C   0  0  0  0  0  0  0  0  0  0  0  0
    0.1712   -0.3256    0.3788 C   0  0  0  0  0  0  0  0  0  0  0  0
   -1.0756   -0.8441   -0.5798 C   0  0  2  0  0  0  0  0  0  0  0  0
   -1.2631    0.5942   -1.2199 N   0  0  0  0  0  0  0  0  0  0  0  0
   -2.2128   -0.5622    0.5423 C   0  0  0  0  0  0  0  0  0  0  0  0
   -2.0774    0.4539    1.2332 O   0  0  0  0  0  0  0  0  0  0  0  0
   -3.4981   -0.7081   -0.0003 O   0  0  0  0  0  0  0  0  0  0  0  0
  1  2  1  0
  2  3  1  0
  3  4  1  0
  4  5  1  0
  6  5  1  1
  6  7  1  0
  6  8  1  0
  8  9  2  0
  8 10  1  0
M  END
>  <supplier_code>  (6) 
DB00123

>  <zinc_id>  (6) 
ZINC000001532522

>  <catalog_short_name>  (6) 
dbfda

$$$$

     RDKit          3D

 12 11  0  0  0  0  0  0  0  0999 V2000
    3.2831    1.1416   -0.2931 N   0  0  0  0  0  0  0  0  0  0  0  0
    3.2759    0.1842    0.2110 C   0  0  0  0  0  0  0  0  0  0  0  0
    3.9367   -0.0010    1.4690 N   0  0  0  0  0  0  0  0  0  0  0  0
    2.4121   -0.8117   -0.3079 N   0  0  0  0  0  0  0  0  0  0  0  0
    1.2877   -0.4571   -1.1256 C   0  0  0  0  0  0  0  0  0  0  0  0
    0.3708    0.3889   -0.2624 C   0  0  0  0  0  0  0  0  0  0  0  0
   -1.0007    0.4260   -0.8950 C   0  0  0  0  0  0  0  0  0  0  0  0
   -1.7499   -0.8190   -0.0807 C   0  0  2  0  0  0  0  0  0  0  0  0
   -2.6734   -1.1534   -1.3355 N   0  0  0  0  0  0  0  0  0  0  0  0
   -2.9062    0.1125    0.5868 C   0  0  0  0  0  0  0  0  0  0  0  0
   -3.1154    1.2163    0.1093 O   0  0  0  0  0  0  0  0  0  0  0  0
   -3.1207   -0.2273    1.9242 O   0  0  0  0  0  0  0  0  0  0  0  0
  1  2  2  0
  2  3  1  0
  2  4  1  0
  4  5  1  0
  5  6  1  0
  6  7  1  0
  8  7  1  6
  8  9  1  0
  8 10  1  0
 10 11  2  0
 10 12  1  0
M  END
>  <supplier_code>  (7) 
DB00125

>  <zinc_id>  (7) 
ZINC000001532525

>  <catalog_short_name>  (7) 
dbfda

$$$$

     RDKit          3D

 12 12  0  0  0  0  0  0  0  0999 V2000
    2.1470   -2.0474    0.1371 O   0  0  0  0  0  0  0  0  0  0  0  0
    1.4304   -1.2057    0.1109 C   0  0  0  0  0  0  0  0  0  0  0  0
    0.1544   -1.1563   -0.4114 O   0  0  0  0  0  0  0  0  0  0  0  0
   -0.5271   -0.0951    0.4778 C   0  0  2  0  0  0  0  0  0  0  0  0
   -1.4491    0.5735   -0.8413 C   0  0  1  0  0  0  0  0  0  0  0  0
   -1.9425   -0.7790   -1.3303 O   0  0  0  0  0  0  0  0  0  0  0  0
   -2.7956    0.7601    0.0939 C   0  0  0  0  0  0  0  0  0  0  0  0
   -2.9327   -0.3712    0.8394 O   0  0  0  0  0  0  0  0  0  0  0  0
    0.6754    0.9565    0.2254 C   0  0  0  0  0  0  0  0  0  0  0  0
    0.4575    2.3015    0.3537 O   0  0  0  0  0  0  0  0  0  0  0  0
    1.7651    0.2207    0.1951 C   0  0  0  0  0  0  0  0  0  0  0  0
    3.0172    0.8425    0.1498 O   0  0  0  0  0  0  0  0  0  0  0  0
  1  2  2  0
  2  3  1  0
  4  3  1  6
  4  5  1  0
  5  6  1  6
  5  7  1  0
  7  8  1  0
  4  9  1  0
  9 10  1  0
  9 11  2  0
 11 12  1  0
 11  2  1  0
M  END
>  <supplier_code>  (8) 
DB00126

>  <zinc_id>  (8) 
ZINC000100006770

>  <catalog_short_name>  (8) 
dbfda

$$$$

     RDKit          3D

  9  8  0  0  0  0  0  0  0  0999 V2000
   -0.0103   -1.2926   -1.0310 N   0  0  0  0  0  0  0  0  0  0  0  0
    0.2834    0.2200   -0.6892 C   0  0  1  0  0  0  0  0  0  0  0  0
   -0.2982    0.0361    0.8425 C   0  0  0  0  0  0  0  0  0  0  0  0
   -1.7247    0.4046    0.5629 C   0  0  0  0  0  0  0  0  0  0  0  0
   -1.9552    1.5795    0.2125 O   0  0  0  0  0  0  0  0  0  0  0  0
   -2.5732   -0.5715    0.0459 O   0  0  0  0  0  0  0  0  0  0  0  0
    1.8008   -0.0618   -0.2255 C   0  0  0  0  0  0  0  0  0  0  0  0
    2.3684    0.9323    0.3261 O   0  0  0  0  0  0  0  0  0  0  0  0
    2.1089   -1.2465    0.3699 O   0  0  0  0  0  0  0  0  0  0  0  0
  2  1  1  6
  2  3  1  0
  3  4  1  0
  4  5  2  0
  4  6  1  0
  2  7  1  0
  7  8  2  0
  7  9  1  0
M  END
>  <supplier_code>  (9) 
DB00128

>  <zinc_id>  (9) 
ZINC000000895032

>  <catalog_short_name>  (9) 
dbfda

$$$$

     RDKit          3D

 10  9  0  0  0  0  0  0  0  0999 V2000
   -3.2383   -1.0887   -0.3348 N   0  0  0  0  0  0  0  0  0  0  0  0
   -2.2718   -0.1472   -0.1686 C   0  0  0  0  0  0  0  0  0  0  0  0
   -2.5445    0.8336    0.5852 O   0  0  0  0  0  0  0  0  0  0  0  0
   -0.8711   -0.5406   -0.4479 C   0  0  0  0  0  0  0  0  0  0  0  0
    0.0060    0.6861   -0.3891 C   0  0  0  0  0  0  0  0  0  0  0  0
    0.9026    0.3284    0.9581 C   0  0  2  0  0  0  0  0  0  0  0  0
    1.5993    1.7556    0.9417 N   0  0  0  0  0  0  0  0  0  0  0  0
    2.0875   -0.3594    0.0877 C   0  0  0  0  0  0  0  0  0  0  0  0
    2.4933    0.2572   -0.8958 O   0  0  0  0  0  0  0  0  0  0  0  0
    1.8370   -1.7250   -0.0430 O   0  0  0  0  0  0  0  0  0  0  0  0
  1  2  1  0
  2  3  2  0
  2  4  1  0
  4  5  1  0
  6  5  1  6
  6  7  1  0
  6  8  1  0
  8  9  2  0
  8 10  1  0
M  END
>  <supplier_code>  (10) 
DB00130

>  <zinc_id>  (10) 
ZINC000001532526

>  <catalog_short_name>  (10) 
dbfda

$$$$

     RDKit          3D

  7  6  0  0  0  0  0  0  0  0999 V2000
   -0.7318   -0.6872    1.3610 N   0  0  0  0  0  0  0  0  0  0  0  0
    0.0234   -1.0816    0.0144 C   0  0  1  0  0  0  0  0  0  0  0  0
   -1.0930   -0.3920   -0.9992 C   0  0  0  0  0  0  0  0  0  0  0  0
   -1.7940    0.5347   -0.3154 O   0  0  0  0  0  0  0  0  0  0  0  0
    0.9519    0.2534    0.0498 C   0  0  0  0  0  0  0  0  0  0  0  0
    0.3867    1.3236    0.2372 O   0  0  0  0  0  0  0  0  0  0  0  0
    2.2567    0.0492   -0.3479 O   0  0  0  0  0  0  0  0  0  0  0  0
  2  1  1  1
  2  3  1  0
  3  4  1  0
  2  5  1  0
  5  6  2  0
  5  7  1  0
M  END
>  <supplier_code>  (11) 
DB00133

>  <zinc_id>  (11) 
ZINC000000895034

>  <catalog_short_name>  (11) 
dbfda

$$$$

     RDKit          3D

  9  8  0  0  0  0  0  0  0  0999 V2000
    4.1429    0.3611    0.7140 C   0  0  0  0  0  0  0  0  0  0  0  0
    3.0573   -0.4351   -0.4749 S   0  0  0  0  0  0  0  0  0  0  0  0
    1.4396   -0.6844    0.2687 C   0  0  0  0  0  0  0  0  0  0  0  0
    0.3647    0.1344   -0.4372 C   0  0  0  0  0  0  0  0  0  0  0  0
   -0.9745   -0.6417    0.2059 C   0  0  2  0  0  0  0  0  0  0  0  0
   -1.2892   -1.3399   -1.2046 N   0  0  0  0  0  0  0  0  0  0  0  0
   -1.9516    0.6296   -0.1602 C   0  0  0  0  0  0  0  0  0  0  0  0
   -1.5442    1.7030    0.3759 O   0  0  0  0  0  0  0  0  0  0  0  0
   -3.2449    0.2730    0.2426 O   0  0  0  0  0  0  0  0  0  0  0  0
  1  2  1  0
  2  3  1  0
  3  4  1  0
  5  4  1  6
  5  6  1  0
  5  7  1  0
  7  8  2  0
  7  9  1  0
M  END
>  <supplier_code>  (12) 
DB00134

>  <zinc_id>  (12) 
ZINC000001532529

>  <catalog_short_name>  (12) 
dbfda

$$$$

     RDKit          3D

 13 13  0  0  0  0  0  0  0  0999 V2000
    1.4898    1.3160    0.6147 N   0  0  0  0  0  0  0  0  0  0  0  0
    1.9998   -0.2054    0.6538 C   0  0  1  0  0  0  0  0  0  0  0  0
    0.8274   -0.6745   -0.4405 C   0  0  0  0  0  0  0  0  0  0  0  0
   -0.4285   -0.7175    0.3722 C   0  0  0  0  0  0  0  0  0  0  0  0
   -0.8038    0.2458    1.2622 C   0  0  0  0  0  0  0  0  0  0  0  0
   -2.0662    0.8226    1.1853 C   0  0  0  0  0  0  0  0  0  0  0  0
   -3.0647    0.3054    0.3704 C   0  0  0  0  0  0  0  0  0  0  0  0
   -4.1321    1.0994   -0.0651 O   0  0  0  0  0  0  0  0  0  0  0  0
   -2.7677   -0.8849   -0.2723 C   0  0  0  0  0  0  0  0  0  0  0  0
   -1.4777   -1.4048   -0.2070 C   0  0  0  0  0  0  0  0  0  0  0  0
    3.0614    0.0797   -0.5704 C   0  0  0  0  0  0  0  0  0  0  0  0
    3.3036   -0.9460   -1.2363 O   0  0  0  0  0  0  0  0  0  0  0  0
    4.0587    0.9642   -0.2272 O   0  0  0  0  0  0  0  0  0  0  0  0
  2  1  1  6
  2  3  1  0
  3  4  1  0
  4  5  2  0
  5  6  1  0
  6  7  2  0
  7  8  1  0
  7  9  1  0
  9 10  2  0
  2 11  1  0
 11 12  2  0
 11 13  1  0
 10  4  1  0
M  END
>  <supplier_code>  (13) 
DB00135

>  <zinc_id>  (13) 
ZINC000000266964

>  <catalog_short_name>  (13) 
dbfda

$$$$

     RDKit          3D

 30 32  0  0  0  0  0  0  0  0999 V2000
    2.8630    0.6499    1.6530 C   0  0  0  0  0  0  0  0  0  0  0  0
    3.6461    0.9173    0.9993 C   0  0  0  0  0  0  0  0  0  0  0  0
    3.8104    0.1926   -0.2856 C   0  0  0  0  0  0  0  0  0  0  0  0
    3.5447   -1.0900   -0.2614 C   0  0  0  0  0  0  0  0  0  0  0  0
    2.3195   -1.3972    0.5054 C   0  0  0  0  0  0  0  0  0  0  0  0
    1.2601   -1.8338   -0.2072 C   0  0  0  0  0  0  0  0  0  0  0  0
    1.0522   -0.8226   -1.2805 C   0  0  0  0  0  0  0  0  0  0  0  0
    0.3441    0.3653   -0.6895 C   0  0  0  0  0  0  0  0  0  0  0  0
   -0.7488    0.0524    0.2566 C   0  0  0  0  0  0  0  0  0  0  0  0
   -1.1333   -1.3155   -0.0660 C   0  0  1  0  0  0  0  0  0  0  0  0
   -1.2377   -1.8787   -1.3422 C   0  0  0  0  0  0  0  0  0  0  0  0
    0.0364   -2.0710    0.8157 C   0  0  1  0  0  0  0  0  0  0  0  0
   -0.4727   -3.4891    0.1803 C   0  0  0  0  0  0  0  0  0  0  0  0
   -1.9866   -3.4027    0.3867 C   0  0  0  0  0  0  0  0  0  0  0  0
   -2.1429   -1.9220    1.0387 C   0  0  2  0  0  0  0  0  0  0  0  0
   -3.6451   -1.4754    0.3612 C   0  0  2  0  0  0  0  0  0  0  0  0
   -3.6756   -2.4440   -0.9365 C   0  0  0  0  0  0  0  0  0  0  0  0
   -3.1587   -0.1872   -0.5055 C   0  0  0  0  0  0  0  0  0  0  0  0
   -4.4049    0.2116   -1.2239 C   0  0  0  0  0  0  0  0  0  0  0  0
   -5.3892    0.4639   -0.0855 C   0  0  0  0  0  0  0  0  0  0  0  0
   -5.3825    1.9472    0.1787 C   0  0  0  0  0  0  0  0  0  0  0  0
   -6.8228    2.3909   -0.0592 C   0  0  0  0  0  0  0  0  0  0  0  0
   -4.4635    2.6837   -0.7597 C   0  0  0  0  0  0  0  0  0  0  0  0
   -5.0723    2.2618    1.5002 O   0  0  0  0  0  0  0  0  0  0  0  0
    4.9208    0.8334   -1.0691 C   0  0  0  0  0  0  0  0  0  0  0  0
    5.9829    0.9176    0.2001 C   0  0  1  0  0  0  0  0  0  0  0  0
    7.0324    1.5803   -0.6813 O   0  0  0  0  0  0  0  0  0  0  0  0
    5.4939    2.3808    0.7833 C   0  0  0  0  0  0  0  0  0  0  0  0
    3.8844    2.4269    0.4407 C   0  0  2  0  0  0  0  0  0  0  0  0
    3.5456    3.0535    1.7893 O   0  0  0  0  0  0  0  0  0  0  0  0
  1  2  2  0
  2  3  1  0
  3  4  2  0
  4  5  1  0
  5  6  2  0
  6  7  1  0
  7  8  1  0
  8  9  1  0
  9 10  1  0
 10 11  1  6
 10 12  1  0
 12 13  1  6
 13 14  1  0
 15 14  1  6
 15 16  1  0
 16 17  1  6
 16 18  1  0
 18 19  1  0
 19 20  1  0
 20 21  1  0
 21 22  1  0
 21 23  1  0
 21 24  1  0
  3 25  1  0
 25 26  1  0
 26 27  1  6
 26 28  1  0
 28 29  1  0
 29 30  1  1
 29  2  1  0
 12  6  1  0
 15 10  1  0
M  END
>  <supplier_code>  (14) 
DB00136

>  <zinc_id>  (14) 
ZINC000100015048

>  <catalog_short_name>  (14) 
dbfda

$$$$

     RDKit          3D

 27 29  0  0  0  0  0  0  0  0999 V2000
   -3.6403   -3.9939   -1.0210 C   0  0  0  0  0  0  0  0  0  0  0  0
   -2.9992   -2.9149   -0.2050 C   0  0  0  0  0  0  0  0  0  0  0  0
   -3.2920   -1.5911   -0.5062 C   0  0  0  0  0  0  0  0  0  0  0  0
   -2.3922   -0.6049   -0.1166 C   0  0  0  0  0  0  0  0  0  0  0  0
   -2.7984    0.6560    0.1721 N   0  0  0  0  0  0  0  0  0  0  0  0
   -1.8384    1.5898    0.2026 C   0  0  0  0  0  0  0  0  0  0  0  0
   -1.9980    2.7928    0.8805 C   0  0  0  0  0  0  0  0  0  0  0  0
   -2.8872    2.8973    1.7600 O   0  0  0  0  0  0  0  0  0  0  0  0
   -1.0411    3.7135    0.6767 N   0  0  0  0  0  0  0  0  0  0  0  0
    0.0529    3.4469   -0.0590 C   0  0  0  0  0  0  0  0  0  0  0  0
    0.6821    4.4169   -0.5560 O   0  0  0  0  0  0  0  0  0  0  0  0
    0.4202    2.1924   -0.3979 N   0  0  0  0  0  0  0  0  0  0  0  0
   -0.4834    1.2239   -0.2373 C   0  0  0  0  0  0  0  0  0  0  0  0
   -0.1209   -0.0627   -0.2655 N   0  0  0  0  0  0  0  0  0  0  0  0
    1.2220   -0.5099   -0.4755 C   0  0  0  0  0  0  0  0  0  0  0  0
    1.9727    0.7829   -1.1491 C   0  0  2  0  0  0  0  0  0  0  0  0
    1.9665    0.1591   -2.5238 O   0  0  0  0  0  0  0  0  0  0  0  0
    3.5795    0.2573   -0.8112 C   0  0  2  0  0  0  0  0  0  0  0  0
    3.3623   -1.1713   -1.2033 O   0  0  0  0  0  0  0  0  0  0  0  0
    3.2126    0.0295    0.8513 C   0  0  2  0  0  0  0  0  0  0  0  0
    4.2141    1.0924    1.2477 O   0  0  0  0  0  0  0  0  0  0  0  0
    4.3367   -1.1397    1.0609 C   0  0  0  0  0  0  0  0  0  0  0  0
    3.7975   -2.3371    0.7120 O   0  0  0  0  0  0  0  0  0  0  0  0
   -1.0602   -0.9844    0.0119 C   0  0  0  0  0  0  0  0  0  0  0  0
   -0.7311   -2.2866    0.3700 C   0  0  0  0  0  0  0  0  0  0  0  0
   -1.7808   -3.1981    0.4024 C   0  0  0  0  0  0  0  0  0  0  0  0
   -1.7558   -4.4559    1.1791 C   0  0  0  0  0  0  0  0  0  0  0  0
  1  2  1  0
  2  3  2  0
  3  4  1  0
  4  5  1  0
  5  6  2  0
  6  7  1  0
  7  8  2  0
  7  9  1  0
  9 10  1  0
 10 11  2  0
 10 12  1  0
 12 13  2  0
 13 14  1  0
 14 15  1  0
 16 15  1  1
 16 17  1  0
 16 18  1  0
 18 19  1  6
 18 20  1  0
 20 21  1  1
 20 22  1  0
 22 23  1  0
 14 24  1  0
 24 25  1  0
 25 26  2  0
 26 27  1  0
 26  2  1  0
 24  4  2  0
 13  6  1  0
M  END
>  <supplier_code>  (15) 
DB00140

>  <zinc_id>  (15) 
ZINC000002036848

>  <catalog_short_name>  (15) 
dbfda

$$$$

     RDKit          3D

 10  9  0  0  0  0  0  0  0  0999 V2000
   -0.6593    1.0043    0.9540 N   0  0  0  0  0  0  0  0  0  0  0  0
   -1.0194    0.5720   -0.5499 C   0  0  1  0  0  0  0  0  0  0  0  0
    0.0410   -0.7232   -0.5490 C   0  0  0  0  0  0  0  0  0  0  0  0
    1.1668   -0.3802    0.3250 C   0  0  0  0  0  0  0  0  0  0  0  0
    2.3695    0.1804   -0.3289 C   0  0  0  0  0  0  0  0  0  0  0  0
    3.2990   -0.6714   -0.4856 O   0  0  0  0  0  0  0  0  0  0  0  0
    2.8156    1.4136    0.1634 O   0  0  0  0  0  0  0  0  0  0  0  0
   -2.2456   -0.3894   -0.0219 C   0  0  0  0  0  0  0  0  0  0  0  0
   -3.1817    0.3581    0.3895 O   0  0  0  0  0  0  0  0  0  0  0  0
   -2.5859   -1.3640   -0.9697 O   0  0  0  0  0  0  0  0  0  0  0  0
  2  1  1  1
  2  3  1  0
  3  4  1  0
  4  5  1  0
  5  6  2  0
  5  7  1  0
  2  8  1  0
  8  9  2  0
  8 10  1  0
M  END
>  <supplier_code>  (16) 
DB00142

>  <zinc_id>  (16) 
ZINC000001482113

>  <catalog_short_name>  (16) 
dbfda

$$$$

     RDKit          3D

 20 19  0  0  0  0  0  0  0  0999 V2000
    4.5161    0.0073    0.9181 N   0  0  0  0  0  0  0  0  0  0  0  0
    4.3718    0.5258   -0.5664 C   0  0  1  0  0  0  0  0  0  0  0  0
    2.7681    0.1518   -0.6239 C   0  0  0  0  0  0  0  0  0  0  0  0
    2.6611   -1.2678   -0.1182 C   0  0  0  0  0  0  0  0  0  0  0  0
    1.3427   -1.3852    0.5356 C   0  0  0  0  0  0  0  0  0  0  0  0
    0.8998   -0.6304    1.4197 O   0  0  0  0  0  0  0  0  0  0  0  0
    0.3014   -2.2789    0.2474 N   0  0  0  0  0  0  0  0  0  0  0  0
   -0.8406   -1.7188   -0.6836 C   0  0  1  0  0  0  0  0  0  0  0  0
   -1.9034   -2.8306   -0.0930 C   0  0  0  0  0  0  0  0  0  0  0  0
   -2.9667   -3.2217   -1.5257 S   0  0  0  0  0  0  0  0  0  0  0  0
   -1.3595   -0.5314    0.2916 C   0  0  0  0  0  0  0  0  0  0  0  0
   -0.8543    0.5100   -0.2604 O   0  0  0  0  0  0  0  0  0  0  0  0
   -2.7938   -0.3593    0.3354 N   0  0  0  0  0  0  0  0  0  0  0  0
   -3.4026    0.7913   -0.2052 C   0  0  0  0  0  0  0  0  0  0  0  0
   -4.6436    1.3185    0.2353 C   0  0  0  0  0  0  0  0  0  0  0  0
   -4.6208    2.5795    0.4375 O   0  0  0  0  0  0  0  0  0  0  0  0
   -5.7566    0.9500   -0.5429 O   0  0  0  0  0  0  0  0  0  0  0  0
    4.1447    2.0467   -0.0873 C   0  0  0  0  0  0  0  0  0  0  0  0
    3.1365    2.3733    0.4930 O   0  0  0  0  0  0  0  0  0  0  0  0
    4.9998    2.9700   -0.6448 O   0  0  0  0  0  0  0  0  0  0  0  0
  2  1  1  1
  2  3  1  0
  3  4  1  0
  4  5  1  0
  5  6  2  0
  5  7  1  0
  8  7  1  1
  8  9  1  0
  9 10  1  0
  8 11  1  0
 11 12  2  0
 11 13  1  0
 13 14  1  0
 14 15  1  0
 15 16  2  0
 15 17  1  0
  2 18  1  0
 18 19  2  0
 18 20  1  0
M  END
>  <supplier_code>  (17) 
DB00143

>  <zinc_id>  (17) 
ZINC000003830891

>  <catalog_short_name>  (17) 
dbfda

$$$$

     RDKit          3D

  5  4  0  0  0  0  0  0  0  0999 V2000
    1.9277   -0.0382   -0.3966 N   0  0  0  0  0  0  0  0  0  0  0  0
    0.8786   -0.1361    0.6045 C   0  0  0  0  0  0  0  0  0  0  0  0
   -0.4555    0.0359   -0.0502 C   0  0  0  0  0  0  0  0  0  0  0  0
   -1.0051    1.1786   -0.0428 O   0  0  0  0  0  0  0  0  0  0  0  0
   -1.3457   -1.0403   -0.1149 O   0  0  0  0  0  0  0  0  0  0  0  0
  1  2  1  0
  2  3  1  0
  3  4  2  0
  3  5  1  0
M  END
>  <supplier_code>  (18) 
DB00145

>  <zinc_id>  (18) 
ZINC000004658552

>  <catalog_short_name>  (18) 
dbfda

$$$$

     RDKit          3D

 29 31  0  0  0  0  0  0  0  0999 V2000
    3.5776    0.2236    1.6274 C   0  0  0  0  0  0  0  0  0  0  0  0
    4.2964    0.8075    1.1329 C   0  0  0  0  0  0  0  0  0  0  0  0
    5.7528    0.9327    1.5038 C   0  0  0  0  0  0  0  0  0  0  0  0
    6.3693   -0.0224    0.5254 C   0  0  0  0  0  0  0  0  0  0  0  0
    6.7639    0.9092   -0.8146 C   0  0  2  0  0  0  0  0  0  0  0  0
    7.4407    1.9754    0.0761 O   0  0  0  0  0  0  0  0  0  0  0  0
    5.3284    1.7779   -0.8442 C   0  0  0  0  0  0  0  0  0  0  0  0
    4.2861    0.8824   -0.3480 C   0  0  0  0  0  0  0  0  0  0  0  0
    3.2429    0.4223   -1.0354 C   0  0  0  0  0  0  0  0  0  0  0  0
    2.0681    0.1314   -0.2103 C   0  0  0  0  0  0  0  0  0  0  0  0
    1.1109   -0.7131   -0.5225 C   0  0  0  0  0  0  0  0  0  0  0  0
    1.0658   -1.2051   -1.9219 C   0  0  0  0  0  0  0  0  0  0  0  0
   -0.1188   -2.0393   -2.2501 C   0  0  0  0  0  0  0  0  0  0  0  0
   -1.3657   -1.7673   -1.4974 C   0  0  0  0  0  0  0  0  0  0  0  0
   -1.1176   -1.4241   -0.1259 C   0  0  1  0  0  0  0  0  0  0  0  0
   -0.4624   -2.2182    0.8511 C   0  0  0  0  0  0  0  0  0  0  0  0
   -0.3278    0.0218   -0.3054 C   0  0  1  0  0  0  0  0  0  0  0  0
   -0.1162    0.1073    1.3291 C   0  0  0  0  0  0  0  0  0  0  0  0
   -1.4447   -0.2219    1.8432 C   0  0  0  0  0  0  0  0  0  0  0  0
   -2.3400   -0.5705    0.5205 C   0  0  2  0  0  0  0  0  0  0  0  0
   -3.0522   -1.9142    1.3236 C   0  0  2  0  0  0  0  0  0  0  0  0
   -3.4533   -2.6627   -0.0715 C   0  0  0  0  0  0  0  0  0  0  0  0
   -4.4851   -1.1333    1.4303 C   0  0  0  0  0  0  0  0  0  0  0  0
   -4.8683   -0.6698    0.0906 C   0  0  0  0  0  0  0  0  0  0  0  0
   -4.5208    0.7034   -0.3228 C   0  0  0  0  0  0  0  0  0  0  0  0
   -5.6673    1.6573   -0.1946 C   0  0  0  0  0  0  0  0  0  0  0  0
   -5.2866    2.9570   -0.8650 C   0  0  0  0  0  0  0  0  0  0  0  0
   -5.8356    1.8689    1.3063 C   0  0  0  0  0  0  0  0  0  0  0  0
   -6.8403    1.1837   -0.7470 O   0  0  0  0  0  0  0  0  0  0  0  0
  1  2  2  0
  2  3  1  0
  3  4  1  0
  4  5  1  0
  5  6  1  1
  5  7  1  0
  7  8  1  0
  8  9  2  0
  9 10  1  0
 10 11  2  0
 11 12  1  0
 12 13  1  0
 13 14  1  0
 14 15  1  0
 15 16  1  1
 15 17  1  0
 17 18  1  1
 18 19  1  0
 20 19  1  1
 20 21  1  0
 21 22  1  6
 21 23  1  0
 23 24  1  0
 24 25  1  0
 25 26  1  0
 26 27  1  0
 26 28  1  0
 26 29  1  0
  8  2  1  0
 17 11  1  0
 20 15  1  0
M  END
>  <supplier_code>  (19) 
DB00146

>  <zinc_id>  (19) 
ZINC000004474414

>  <catalog_short_name>  (19) 
dbfda

$$$$

     RDKit          3D

  9  8  0  0  0  0  0  0  0  0999 V2000
    1.4624   -1.5061   -0.2792 C   0  0  0  0  0  0  0  0  0  0  0  0
    1.7519   -0.2532    0.1077 C   0  0  0  0  0  0  0  0  0  0  0  0
    3.1203    0.1373    0.4546 C   0  0  0  0  0  0  0  0  0  0  0  0
    0.6461    0.6759    0.4191 C   0  0  0  0  0  0  0  0  0  0  0  0
   -0.3744    0.3804   -0.8401 C   0  0  2  0  0  0  0  0  0  0  0  0
   -1.0727    1.7840   -0.6725 N   0  0  0  0  0  0  0  0  0  0  0  0
   -1.4643   -0.3592    0.0874 C   0  0  0  0  0  0  0  0  0  0  0  0
   -2.2879   -1.0408   -0.5690 O   0  0  0  0  0  0  0  0  0  0  0  0
   -1.7815    0.1817    1.2920 O   0  0  0  0  0  0  0  0  0  0  0  0
  1  2  1  0
  2  3  1  0
  2  4  1  0
  5  4  1  1
  5  6  1  0
  5  7  1  0
  7  8  2  0
  7  9  1  0
M  END
>  <supplier_code>  (20) 
DB00149

>  <zinc_id>  (20) 
ZINC000003645145

>  <catalog_short_name>  (20) 
dbfda

$$$$

     RDKit          3D

 15 16  0  0  0  0  0  0  0  0999 V2000
    2.4501    0.0119    1.8025 N   0  0  0  0  0  0  0  0  0  0  0  0
    2.4194   -0.4514    0.2768 C   0  0  1  0  0  0  0  0  0  0  0  0
    1.1373    0.5576   -0.0534 C   0  0  0  0  0  0  0  0  0  0  0  0
    0.0062   -0.3401    0.2377 C   0  0  0  0  0  0  0  0  0  0  0  0
   -0.1012   -1.6322    0.6227 C   0  0  0  0  0  0  0  0  0  0  0  0
   -1.3273   -2.0923    0.3669 N   0  0  0  0  0  0  0  0  0  0  0  0
   -2.1018   -1.0140    0.2353 C   0  0  0  0  0  0  0  0  0  0  0  0
   -3.4366   -0.9122    0.0210 C   0  0  0  0  0  0  0  0  0  0  0  0
   -4.0141    0.2647   -0.3460 C   0  0  0  0  0  0  0  0  0  0  0  0
   -3.2860    1.4431   -0.3201 C   0  0  0  0  0  0  0  0  0  0  0  0
   -1.9118    1.2949   -0.1818 C   0  0  0  0  0  0  0  0  0  0  0  0
   -1.3102    0.1012    0.1506 C   0  0  0  0  0  0  0  0  0  0  0  0
    3.5290    0.6653   -0.1441 C   0  0  0  0  0  0  0  0  0  0  0  0
    4.6498    0.1494   -0.4350 O   0  0  0  0  0  0  0  0  0  0  0  0
    3.2973    1.9539    0.1837 O   0  0  0  0  0  0  0  0  0  0  0  0
  2  1  1  1
  2  3  1  0
  3  4  1  0
  4  5  2  0
  5  6  1  0
  6  7  1  0
  7  8  2  0
  8  9  1  0
  9 10  2  0
 10 11  1  0
 11 12  2  0
  2 13  1  0
 13 14  2  0
 13 15  1  0
 12  4  1  0
 12  7  1  0
M  END
>  <supplier_code>  (21) 
DB00150

>  <zinc_id>  (21) 
ZINC000000083315

>  <catalog_short_name>  (21) 
dbfda

$$$$

     RDKit          3D

  7  6  0  0  0  0  0  0  0  0999 V2000
   -0.5091    1.7082    0.5056 N   0  0  0  0  0  0  0  0  0  0  0  0
    0.1482    0.7739   -0.5819 C   0  0  1  0  0  0  0  0  0  0  0  0
    1.4122    0.4108    0.4101 C   0  0  0  0  0  0  0  0  0  0  0  0
    2.2744   -0.9280   -0.4337 S   0  0  0  0  0  0  0  0  0  0  0  0
   -0.7507   -0.4865   -0.1443 C   0  0  0  0  0  0  0  0  0  0  0  0
   -0.5357   -1.0893    0.8867 O   0  0  0  0  0  0  0  0  0  0  0  0
   -2.0392   -0.3891   -0.6424 O   0  0  0  0  0  0  0  0  0  0  0  0
  2  1  1  1
  2  3  1  0
  3  4  1  0
  2  5  1  0
  5  6  2  0
  5  7  1  0
M  END
>  <supplier_code>  (22) 
DB00151

>  <zinc_id>  (22) 
ZINC000000895042

>  <catalog_short_name>  (22) 
dbfda

$$$$

     RDKit          3D

 18 19  0  0  0  0  0  0  0  0999 V2000
    1.2084    0.3977    1.1612 C   0  0  0  0  0  0  0  0  0  0  0  0
    1.6570   -0.5786    0.1167 C   0  0  0  0  0  0  0  0  0  0  0  0
    2.9620   -0.7361   -0.3421 C   0  0  0  0  0  0  0  0  0  0  0  0
    4.1855   -0.0399    0.1741 C   0  0  0  0  0  0  0  0  0  0  0  0
    3.7475    1.3140    0.6647 C   0  0  0  0  0  0  0  0  0  0  0  0
    4.8567    2.0463    1.0682 O   0  0  0  0  0  0  0  0  0  0  0  0
    2.8604   -2.3403   -0.9547 S   0  0  0  0  0  0  0  0  0  0  0  0
    1.1443   -2.4645   -0.9477 C   0  0  0  0  0  0  0  0  0  0  0  0
    0.7793   -1.1798   -0.7028 N   0  0  0  0  0  0  0  0  0  0  0  0
   -0.4427   -0.6348   -1.2935 C   0  0  0  0  0  0  0  0  0  0  0  0
   -1.4094   -0.1879   -0.2436 C   0  0  0  0  0  0  0  0  0  0  0  0
   -2.3526   -1.0577    0.2925 C   0  0  0  0  0  0  0  0  0  0  0  0
   -3.6714   -0.7431    0.3253 N   0  0  0  0  0  0  0  0  0  0  0  0
   -3.9888    0.5715    0.4151 C   0  0  0  0  0  0  0  0  0  0  0  0
   -5.4120    0.9779    0.6389 C   0  0  0  0  0  0  0  0  0  0  0  0
   -3.0958    1.4977   -0.0075 N   0  0  0  0  0  0  0  0  0  0  0  0
   -1.8349    1.1327   -0.3516 C   0  0  0  0  0  0  0  0  0  0  0  0
   -1.1935    2.0249   -1.2732 N   0  0  0  0  0  0  0  0  0  0  0  0
  1  2  1  0
  2  3  2  0
  3  4  1  0
  4  5  1  0
  5  6  1  0
  3  7  1  0
  7  8  1  0
  8  9  2  0
  9 10  1  0
 10 11  1  0
 11 12  2  0
 12 13  1  0
 13 14  2  0
 14 15  1  0
 14 16  1  0
 16 17  2  0
 17 18  1  0
  9  2  1  0
 17 11  1  0
M  CHG  1   9   1
M  END
>  <supplier_code>  (23) 
DB00152

>  <zinc_id>  (23) 
ZINC000000049153

>  <catalog_short_name>  (23) 
dbfda

$$$$

     RDKit          3D

 29 31  0  0  0  0  0  0  0  0999 V2000
   -3.5458    0.9784   -2.6698 C   0  0  0  0  0  0  0  0  0  0  0  0
   -4.3749    0.8850   -1.8271 C   0  0  0  0  0  0  0  0  0  0  0  0
   -4.8532    2.1509   -1.1813 C   0  0  0  0  0  0  0  0  0  0  0  0
   -5.2497    1.7786    0.2344 C   0  0  0  0  0  0  0  0  0  0  0  0
   -6.3683    0.5828    0.0349 C   0  0  2  0  0  0  0  0  0  0  0  0
   -6.6163    0.5145    1.5333 O   0  0  0  0  0  0  0  0  0  0  0  0
   -5.2329   -0.6057    0.1238 C   0  0  0  0  0  0  0  0  0  0  0  0
   -4.3313   -0.3363   -1.0103 C   0  0  0  0  0  0  0  0  0  0  0  0
   -3.4466   -1.2515   -1.4117 C   0  0  0  0  0  0  0  0  0  0  0  0
   -2.0916   -0.7770   -1.7696 C   0  0  0  0  0  0  0  0  0  0  0  0
   -1.2681   -0.7673   -0.7064 C   0  0  0  0  0  0  0  0  0  0  0  0
   -1.9001    0.0396    0.3704 C   0  0  0  0  0  0  0  0  0  0  0  0
   -1.4197    1.4476    0.4715 C   0  0  0  0  0  0  0  0  0  0  0  0
    0.0668    1.5711    0.1635 C   0  0  0  0  0  0  0  0  0  0  0  0
    0.5673    0.2467    0.3654 C   0  0  1  0  0  0  0  0  0  0  0  0
    0.2283   -0.5869    1.5044 C   0  0  0  0  0  0  0  0  0  0  0  0
    0.2784   -0.5085   -1.0448 C   0  0  1  0  0  0  0  0  0  0  0  0
    0.8186   -1.8949   -0.3787 C   0  0  0  0  0  0  0  0  0  0  0  0
    2.0595   -1.4900    0.3392 C   0  0  0  0  0  0  0  0  0  0  0  0
    2.1529    0.1132    0.1688 C   0  0  2  0  0  0  0  0  0  0  0  0
    2.4218    0.3797    1.8298 C   0  0  2  0  0  0  0  0  0  0  0  0
    2.2480    1.9872    1.6652 C   0  0  0  0  0  0  0  0  0  0  0  0
    4.0016    0.4534    1.6860 C   0  0  0  0  0  0  0  0  0  0  0  0
    4.5533    0.8994    0.6037 C   0  0  0  0  0  0  0  0  0  0  0  0
    6.1367    0.6178    0.6897 C   0  0  2  0  0  0  0  0  0  0  0  0
    6.3391    0.8875   -0.9104 C   0  0  0  0  0  0  0  0  0  0  0  0
    5.9378   -0.9946    0.5646 C   0  0  0  0  0  0  0  0  0  0  0  0
    5.8092   -1.4498   -0.8039 C   0  0  0  0  0  0  0  0  0  0  0  0
    7.0790   -1.5306    1.3654 C   0  0  0  0  0  0  0  0  0  0  0  0
  1  2  2  0
  2  3  1  0
  3  4  1  0
  4  5  1  0
  5  6  1  1
  5  7  1  0
  7  8  1  0
  8  9  2  0
  9 10  1  0
 10 11  2  0
 11 12  1  0
 12 13  1  0
 13 14  1  0
 14 15  1  0
 15 16  1  1
 15 17  1  0
 17 18  1  1
 18 19  1  0
 20 19  1  1
 20 21  1  0
 21 22  1  6
 21 23  1  0
 23 24  2  0
 25 24  1  6
 25 26  1  0
 25 27  1  0
 27 28  1  0
 27 29  1  0
  8  2  1  0
 17 11  1  0
 20 15  1  0
M  END
>  <supplier_code>  (24) 
DB00153

>  <zinc_id>  (24) 
ZINC000004629876

>  <catalog_short_name>  (24) 
dbfda

$$$$

     RDKit          3D

  8  7  0  0  0  0  0  0  0  0999 V2000
    1.6576   -1.3188   -0.6699 C   0  0  0  0  0  0  0  0  0  0  0  0
    0.9314   -0.4395    0.5360 C   0  0  1  0  0  0  0  0  0  0  0  0
    2.0915    0.5559    0.5475 O   0  0  0  0  0  0  0  0  0  0  0  0
    0.0657    0.5176   -0.6489 C   0  0  2  0  0  0  0  0  0  0  0  0
    0.0068    1.7872    0.2970 N   0  0  0  0  0  0  0  0  0  0  0  0
   -1.3945    0.0251   -0.1451 C   0  0  0  0  0  0  0  0  0  0  0  0
   -1.5294   -0.1291    1.0700 O   0  0  0  0  0  0  0  0  0  0  0  0
   -1.8291   -0.9985   -0.9867 O   0  0  0  0  0  0  0  0  0  0  0  0
  2  1  1  6
  2  3  1  0
  2  4  1  0
  4  5  1  1
  4  6  1  0
  6  7  2  0
  6  8  1  0
M  END
>  <supplier_code>  (25) 
DB00156

>  <zinc_id>  (25) 
ZINC000000895103

>  <catalog_short_name>  (25) 
dbfda

$$$$

     RDKit          3D

 32 34  0  0  0  0  0  0  0  0999 V2000
   -6.3319    2.7042   -1.5484 N   0  0  0  0  0  0  0  0  0  0  0  0
   -6.4492    1.5989   -0.8494 C   0  0  0  0  0  0  0  0  0  0  0  0
   -6.3125    1.6652    0.4989 N   0  0  0  0  0  0  0  0  0  0  0  0
   -5.9062    0.5964    1.2303 C   0  0  0  0  0  0  0  0  0  0  0  0
   -5.4980    0.7305    2.5622 O   0  0  0  0  0  0  0  0  0  0  0  0
   -5.5254   -0.5749    0.5825 C   0  0  0  0  0  0  0  0  0  0  0  0
   -4.4350   -1.2842    0.9654 N   0  0  0  0  0  0  0  0  0  0  0  0
   -3.8001   -2.1082    0.0942 C   0  0  0  0  0  0  0  0  0  0  0  0
   -2.3038   -2.1577    0.0342 C   0  0  0  0  0  0  0  0  0  0  0  0
   -1.8939   -1.0406   -0.7926 N   0  0  0  0  0  0  0  0  0  0  0  0
   -0.9973   -0.0452   -0.2820 C   0  0  0  0  0  0  0  0  0  0  0  0
   -0.3208    0.7890   -1.1670 C   0  0  0  0  0  0  0  0  0  0  0  0
    1.0307    1.0802   -1.0040 C   0  0  0  0  0  0  0  0  0  0  0  0
    1.7702    0.4657    0.0014 C   0  0  0  0  0  0  0  0  0  0  0  0
    3.0667   -0.1782   -0.2713 C   0  0  0  0  0  0  0  0  0  0  0  0
    3.1354   -1.3627   -0.7271 O   0  0  0  0  0  0  0  0  0  0  0  0
    4.2359    0.5884   -0.0637 N   0  0  0  0  0  0  0  0  0  0  0  0
    5.5759   -0.2047   -0.3025 C   0  0  1  0  0  0  0  0  0  0  0  0
    6.4052    0.7424    0.7566 C   0  0  0  0  0  0  0  0  0  0  0  0
    6.4521    2.0418   -0.0393 C   0  0  0  0  0  0  0  0  0  0  0  0
    7.7993    2.0689   -0.6908 C   0  0  0  0  0  0  0  0  0  0  0  0
    8.6629    2.8138   -0.1358 O   0  0  0  0  0  0  0  0  0  0  0  0
    8.2422    0.8450   -1.2034 O   0  0  0  0  0  0  0  0  0  0  0  0
    5.2301   -1.3050    0.8190 C   0  0  0  0  0  0  0  0  0  0  0  0
    4.8041   -0.9242    1.9129 O   0  0  0  0  0  0  0  0  0  0  0  0
    5.5913   -2.5947    0.5320 O   0  0  0  0  0  0  0  0  0  0  0  0
    1.0030    0.0521    1.0878 C   0  0  0  0  0  0  0  0  0  0  0  0
   -0.3656   -0.1759    0.9504 C   0  0  0  0  0  0  0  0  0  0  0  0
   -4.5905   -2.5762   -0.9500 C   0  0  0  0  0  0  0  0  0  0  0  0
   -5.6880   -1.8725   -1.3247 N   0  0  0  0  0  0  0  0  0  0  0  0
   -6.0393   -0.7226   -0.7015 C   0  0  0  0  0  0  0  0  0  0  0  0
   -6.5473    0.3449   -1.3593 N   0  0  0  0  0  0  0  0  0  0  0  0
  1  2  1  0
  2  3  2  0
  3  4  1  0
  4  5  1  0
  4  6  2  0
  6  7  1  0
  7  8  2  0
  8  9  1  0
  9 10  1  0
 10 11  1  0
 11 12  2  0
 12 13  1  0
 13 14  2  0
 14 15  1  0
 15 16  2  0
 15 17  1  0
 18 17  1  1
 18 19  1  0
 19 20  1  0
 20 21  1  0
 21 22  2  0
 21 23  1  0
 18 24  1  0
 24 25  2  0
 24 26  1  0
 14 27  1  0
 27 28  2  0
  8 29  1  0
 29 30  2  0
 30 31  1  0
 31 32  2  0
 32  2  1  0
 31  6  1  0
 28 11  1  0
M  END
>  <supplier_code>  (26) 
DB00158

>  <zinc_id>  (26) 
ZINC000008577218

>  <catalog_short_name>  (26) 
dbfda

$$$$

     RDKit          3D

 22 21  0  0  0  0  0  0  0  0999 V2000
   -5.2455    2.8139    1.0565 C   0  0  0  0  0  0  0  0  0  0  0  0
   -4.8209    1.4128    1.3977 C   0  0  0  0  0  0  0  0  0  0  0  0
   -6.0141    0.5118    1.4001 C   0  0  0  0  0  0  0  0  0  0  0  0
   -6.2447   -0.2253    0.3089 C   0  0  0  0  0  0  0  0  0  0  0  0
   -5.0391   -0.7585   -0.3866 C   0  0  0  0  0  0  0  0  0  0  0  0
   -3.9621   -1.1359    0.5841 C   0  0  0  0  0  0  0  0  0  0  0  0
   -3.1929   -2.1647    0.2021 C   0  0  0  0  0  0  0  0  0  0  0  0
   -2.8281   -2.1809   -1.2528 C   0  0  0  0  0  0  0  0  0  0  0  0
   -2.1980   -0.8460   -1.5244 C   0  0  0  0  0  0  0  0  0  0  0  0
   -1.2317   -0.5040   -0.6612 C   0  0  0  0  0  0  0  0  0  0  0  0
   -0.2013   -1.5689   -0.4312 C   0  0  0  0  0  0  0  0  0  0  0  0
    0.6414   -1.2209    0.7310 C   0  0  0  0  0  0  0  0  0  0  0  0
    0.9178    0.0636    0.9243 C   0  0  0  0  0  0  0  0  0  0  0  0
    0.7953    1.1128   -0.1030 C   0  0  0  0  0  0  0  0  0  0  0  0
    1.6731    0.9227   -1.2676 C   0  0  0  0  0  0  0  0  0  0  0  0
    2.9885    0.9236   -1.2529 C   0  0  0  0  0  0  0  0  0  0  0  0
    3.6506    1.4954   -0.0431 C   0  0  0  0  0  0  0  0  0  0  0  0
    4.2087    0.4006    0.8357 C   0  0  0  0  0  0  0  0  0  0  0  0
    5.3028   -0.3802    0.1617 C   0  0  0  0  0  0  0  0  0  0  0  0
    6.6352    0.1588    0.5638 C   0  0  0  0  0  0  0  0  0  0  0  0
    7.3471    0.6754   -0.3444 O   0  0  0  0  0  0  0  0  0  0  0  0
    6.8179    0.4937    1.9058 O   0  0  0  0  0  0  0  0  0  0  0  0
  1  2  1  0
  2  3  1  0
  3  4  2  0
  4  5  1  0
  5  6  1  0
  6  7  2  0
  7  8  1  0
  8  9  1  0
  9 10  2  0
 10 11  1  0
 11 12  1  0
 12 13  2  0
 13 14  1  0
 14 15  1  0
 15 16  2  0
 16 17  1  0
 17 18  1  0
 18 19  1  0
 19 20  1  0
 20 21  2  0
 20 22  1  0
M  END
>  <supplier_code>  (27) 
DB00159

>  <zinc_id>  (27) 
ZINC000004474603

>  <catalog_short_name>  (27) 
dbfda

$$$$

     RDKit          3D

  6  5  0  0  0  0  0  0  0  0999 V2000
   -1.3028    1.1744   -0.1714 C   0  0  0  0  0  0  0  0  0  0  0  0
   -0.6876   -0.2739   -0.7495 C   0  0  2  0  0  0  0  0  0  0  0  0
   -1.2546   -1.0754    0.5210 N   0  0  0  0  0  0  0  0  0  0  0  0
    0.7670   -0.0347   -0.0297 C   0  0  0  0  0  0  0  0  0  0  0  0
    1.7155   -0.2295   -0.8018 O   0  0  0  0  0  0  0  0  0  0  0  0
    0.7626    0.4392    1.2315 O   0  0  0  0  0  0  0  0  0  0  0  0
  2  1  1  1
  2  3  1  0
  2  4  1  0
  4  5  2  0
  4  6  1  0
M  END
>  <supplier_code>  (28) 
DB00160

>  <zinc_id>  (28) 
ZINC000004658553

>  <catalog_short_name>  (28) 
dbfda

$$$$

     RDKit          3D

  8  7  0  0  0  0  0  0  0  0999 V2000
    1.1980   -1.3873   -0.9100 C   0  0  0  0  0  0  0  0  0  0  0  0
    1.0952   -0.2695   -0.1725 C   0  0  0  0  0  0  0  0  0  0  0  0
    2.0071    0.3694    0.6691 C   0  0  0  0  0  0  0  0  0  0  0  0
   -0.1281    0.6669   -0.7297 C   0  0  2  0  0  0  0  0  0  0  0  0
    0.1778    1.8816    0.2342 N   0  0  0  0  0  0  0  0  0  0  0  0
   -1.2438    0.0459    0.2599 C   0  0  0  0  0  0  0  0  0  0  0  0
   -0.8976   -0.7000    1.1823 O   0  0  0  0  0  0  0  0  0  0  0  0
   -2.2086   -0.6070   -0.5333 O   0  0  0  0  0  0  0  0  0  0  0  0
  1  2  1  0
  2  3  1  0
  4  2  1  1
  4  5  1  0
  4  6  1  0
  6  7  2  0
  6  8  1  0
M  END
>  <supplier_code>  (29) 
DB00161

>  <zinc_id>  (29) 
ZINC000000895099

>  <catalog_short_name>  (29) 
dbfda

$$$$

     RDKit          3D

 21 21  0  0  0  0  0  0  0  0999 V2000
    0.2542   -0.8891   -1.7961 C   0  0  0  0  0  0  0  0  0  0  0  0
    0.2021   -0.7222   -0.3120 C   0  0  0  0  0  0  0  0  0  0  0  0
   -1.0462   -0.9684    0.4174 C   0  0  0  0  0  0  0  0  0  0  0  0
   -1.4703   -0.1714    1.3989 C   0  0  0  0  0  0  0  0  0  0  0  0
   -2.8444    0.3588    1.3847 C   0  0  0  0  0  0  0  0  0  0  0  0
   -3.0977    1.6266    1.0506 C   0  0  0  0  0  0  0  0  0  0  0  0
   -2.0438    2.6279    1.3710 C   0  0  0  0  0  0  0  0  0  0  0  0
   -4.0711    1.9387   -0.0451 C   0  0  0  0  0  0  0  0  0  0  0  0
   -3.8278    0.9073   -1.1237 C   0  0  0  0  0  0  0  0  0  0  0  0
   -3.8660   -0.5043   -0.6146 C   0  0  0  0  0  0  0  0  0  0  0  0
   -3.8786   -0.6048    0.8868 C   0  0  0  0  0  0  0  0  0  0  0  0
   -3.4963   -2.0048    1.2844 C   0  0  0  0  0  0  0  0  0  0  0  0
   -5.2025   -0.1787    1.4658 C   0  0  0  0  0  0  0  0  0  0  0  0
    1.1086    0.0550    0.2382 C   0  0  0  0  0  0  0  0  0  0  0  0
    2.1796    0.7131   -0.4912 C   0  0  0  0  0  0  0  0  0  0  0  0
    3.0364    0.0956   -1.2711 C   0  0  0  0  0  0  0  0  0  0  0  0
    4.4662    0.3615   -1.2879 C   0  0  0  0  0  0  0  0  0  0  0  0
    5.2903   -0.3586   -2.3088 C   0  0  0  0  0  0  0  0  0  0  0  0
    5.1277    0.9212   -0.2962 C   0  0  0  0  0  0  0  0  0  0  0  0
    6.4518    0.4799    0.1796 C   0  0  0  0  0  0  0  0  0  0  0  0
    6.7279   -0.8534   -0.1308 O   0  0  0  0  0  0  0  0  0  0  0  0
  1  2  1  0
  2  3  1  0
  3  4  2  0
  4  5  1  0
  5  6  2  0
  6  7  1  0
  6  8  1  0
  8  9  1  0
  9 10  1  0
 10 11  1  0
 11 12  1  0
 11 13  1  0
  2 14  2  0
 14 15  1  0
 15 16  2  0
 16 17  1  0
 17 18  1  0
 17 19  2  0
 19 20  1  0
 20 21  1  0
 11  5  1  0
M  END
>  <supplier_code>  (30) 
DB00162

>  <zinc_id>  (30) 
ZINC000003831417

>  <catalog_short_name>  (30) 
dbfda

$$$$

     RDKit          3D

 31 32  0  0  0  0  0  0  0  0999 V2000
   -7.1434   -0.8581    0.4687 C   0  0  0  0  0  0  0  0  0  0  0  0
   -6.1089   -0.2671    0.7235 C   0  0  0  0  0  0  0  0  0  0  0  0
   -5.1050   -0.7265    1.5714 C   0  0  0  0  0  0  0  0  0  0  0  0
   -5.2871   -2.1312    2.0486 C   0  0  0  0  0  0  0  0  0  0  0  0
   -3.8176   -0.2103    1.5386 C   0  0  0  0  0  0  0  0  0  0  0  0
   -3.6070    1.0217    0.9294 C   0  0  0  0  0  0  0  0  0  0  0  0
   -4.6510    1.6101    0.2294 C   0  0  0  0  0  0  0  0  0  0  0  0
   -4.4134    2.9295   -0.4325 C   0  0  0  0  0  0  0  0  0  0  0  0
   -5.7999    0.8657   -0.0214 C   0  0  0  0  0  0  0  0  0  0  0  0
   -6.4942    1.1444   -1.2032 O   0  0  0  0  0  0  0  0  0  0  0  0
   -2.3828    1.8048    1.2321 C   0  0  0  0  0  0  0  0  0  0  0  0
   -1.2473    0.8838    1.6567 C   0  0  0  0  0  0  0  0  0  0  0  0
   -1.5250   -0.4468    1.0181 C   0  0  1  0  0  0  0  0  0  0  0  0
   -1.9507   -0.1954   -0.4241 C   0  0  0  0  0  0  0  0  0  0  0  0
   -0.3601   -1.3661    0.9525 C   0  0  0  0  0  0  0  0  0  0  0  0
    0.7708   -0.6596    0.2739 C   0  0  0  0  0  0  0  0  0  0  0  0
    0.6161   -0.5630   -1.2378 C   0  0  0  0  0  0  0  0  0  0  0  0
    1.1086    0.9783   -1.5322 C   0  0  2  0  0  0  0  0  0  0  0  0
    0.4933    0.9756   -3.0569 C   0  0  0  0  0  0  0  0  0  0  0  0
    2.5760    0.4836   -2.0776 C   0  0  0  0  0  0  0  0  0  0  0  0
    3.1641   -0.2527   -0.9159 C   0  0  0  0  0  0  0  0  0  0  0  0
    4.4027   -0.9467   -1.3903 C   0  0  0  0  0  0  0  0  0  0  0  0
    4.9602   -0.0778   -2.6703 C   0  0  2  0  0  0  0  0  0  0  0  0
    6.4860   -0.6669   -2.4969 C   0  0  0  0  0  0  0  0  0  0  0  0
    5.3050    1.2637   -1.7913 C   0  0  0  0  0  0  0  0  0  0  0  0
    5.5562    0.9297   -0.4018 C   0  0  0  0  0  0  0  0  0  0  0  0
    6.8786    0.3674   -0.0273 C   0  0  0  0  0  0  0  0  0  0  0  0
    6.9915    0.1690    1.4569 C   0  0  0  0  0  0  0  0  0  0  0  0
    7.5569   -1.2069    1.7144 C   0  0  0  0  0  0  0  0  0  0  0  0
    5.6935    0.3323    2.1901 C   0  0  0  0  0  0  0  0  0  0  0  0
   -2.6662   -0.9963    1.6752 O   0  0  0  0  0  0  0  0  0  0  0  0
  1  2  1  0
  2  3  2  0
  3  4  1  0
  3  5  1  0
  5  6  2  0
  6  7  1  0
  7  8  1  0
  7  9  2  0
  9 10  1  0
  6 11  1  0
 11 12  1  0
 12 13  1  0
 13 14  1  6
 13 15  1  0
 15 16  1  0
 16 17  1  0
 18 17  1  1
 18 19  1  0
 18 20  1  0
 20 21  1  0
 21 22  1  0
 23 22  1  1
 23 24  1  0
 23 25  1  0
 25 26  1  0
 26 27  1  0
 27 28  1  0
 28 29  1  0
 28 30  1  0
 13 31  1  0
  9  2  1  0
 31  5  1  0
M  END
>  <supplier_code>  (31) 
DB00163

>  <zinc_id>  (31) 
ZINC000004095858

>  <catalog_short_name>  (31) 
dbfda

$$$$

     RDKit          3D

 12 12  0  0  0  0  0  0  0  0999 V2000
   -3.2512   -0.3755    0.7346 C   0  0  0  0  0  0  0  0  0  0  0  0
   -1.9218   -0.4297    0.0553 C   0  0  0  0  0  0  0  0  0  0  0  0
   -1.3245   -1.6356   -0.1072 N   0  0  0  0  0  0  0  0  0  0  0  0
    0.0058   -1.7395   -0.3427 C   0  0  0  0  0  0  0  0  0  0  0  0
    0.8471   -0.6393   -0.2243 C   0  0  0  0  0  0  0  0  0  0  0  0
    2.1789   -0.7606    0.4478 C   0  0  0  0  0  0  0  0  0  0  0  0
    3.1392   -1.1634   -0.4900 O   0  0  0  0  0  0  0  0  0  0  0  0
    0.2052    0.5873   -0.3527 C   0  0  0  0  0  0  0  0  0  0  0  0
    1.0798    1.7994   -0.4271 C   0  0  0  0  0  0  0  0  0  0  0  0
    1.9331    1.6958    0.6853 O   0  0  0  0  0  0  0  0  0  0  0  0
   -1.1595    0.7129   -0.1482 C   0  0  0  0  0  0  0  0  0  0  0  0
   -1.7321    1.9483    0.1693 O   0  0  0  0  0  0  0  0  0  0  0  0
  1  2  1  0
  2  3  2  0
  3  4  1  0
  4  5  2  0
  5  6  1  0
  6  7  1  0
  5  8  1  0
  8  9  1  0
  9 10  1  0
  8 11  2  0
 11 12  1  0
 11  2  1  0
M  END
>  <supplier_code>  (32) 
DB00165

>  <zinc_id>  (32) 
ZINC000000049154

>  <catalog_short_name>  (32) 
dbfda

$$$$

     RDKit          3D

  9  8  0  0  0  0  0  0  0  0999 V2000
    1.4230    1.3434    1.0073 C   0  0  0  0  0  0  0  0  0  0  0  0
    2.1311    0.4043    0.3940 C   0  0  0  0  0  0  0  0  0  0  0  0
    1.1501   -0.2715   -0.7020 C   0  0  2  0  0  0  0  0  0  0  0  0
    0.6597    1.1680   -1.2497 C   0  0  0  0  0  0  0  0  0  0  0  0
   -0.0789   -0.4619    0.4635 C   0  0  2  0  0  0  0  0  0  0  0  0
   -0.1515   -2.0020    0.1786 N   0  0  0  0  0  0  0  0  0  0  0  0
   -1.2707   -0.0725   -0.5252 C   0  0  0  0  0  0  0  0  0  0  0  0
   -1.9362    0.8463    0.0468 O   0  0  0  0  0  0  0  0  0  0  0  0
   -1.9267   -0.9541   -1.2833 O   0  0  0  0  0  0  0  0  0  0  0  0
  1  2  1  0
  3  2  1  1
  3  4  1  0
  3  5  1  0
  5  6  1  6
  5  7  1  0
  7  8  2  0
  7  9  1  0
M  END
>  <supplier_code>  (33) 
DB00167

>  <zinc_id>  (33) 
ZINC000003581355

>  <catalog_short_name>  (33) 
dbfda

$$$$

     RDKit          3D

 28 30  0  0  0  0  0  0  0  0999 V2000
   -4.0148    1.2113   -1.9069 C   0  0  0  0  0  0  0  0  0  0  0  0
   -4.5885    1.1342   -0.8111 C   0  0  0  0  0  0  0  0  0  0  0  0
   -6.0144    1.5197   -0.5680 C   0  0  0  0  0  0  0  0  0  0  0  0
   -6.3954    1.3519    0.8844 C   0  0  0  0  0  0  0  0  0  0  0  0
   -5.8982   -0.1819    1.2860 C   0  0  2  0  0  0  0  0  0  0  0  0
   -6.3026    0.0124    2.7480 O   0  0  0  0  0  0  0  0  0  0  0  0
   -4.3540    0.3498    1.6002 C   0  0  0  0  0  0  0  0  0  0  0  0
   -3.8746    0.3209    0.1829 C   0  0  0  0  0  0  0  0  0  0  0  0
   -3.2312   -0.7339   -0.3262 C   0  0  0  0  0  0  0  0  0  0  0  0
   -2.1860   -0.3142   -1.2833 C   0  0  0  0  0  0  0  0  0  0  0  0
   -0.9862   -0.9161   -1.2875 C   0  0  0  0  0  0  0  0  0  0  0  0
   -1.0724   -2.3095   -0.7329 C   0  0  0  0  0  0  0  0  0  0  0  0
   -0.6704   -2.3282    0.7110 C   0  0  0  0  0  0  0  0  0  0  0  0
    0.7871   -1.9313    0.7877 C   0  0  0  0  0  0  0  0  0  0  0  0
    1.2029   -1.2896   -0.4247 C   0  0  1  0  0  0  0  0  0  0  0  0
    1.4064   -1.9582   -1.6825 C   0  0  0  0  0  0  0  0  0  0  0  0
    0.1834   -0.0171   -0.6183 C   0  0  1  0  0  0  0  0  0  0  0  0
    0.8882    0.3161   -2.0606 C   0  0  0  0  0  0  0  0  0  0  0  0
    2.3319    0.2594   -1.7276 C   0  0  0  0  0  0  0  0  0  0  0  0
    2.3821   -0.2069   -0.1726 C   0  0  2  0  0  0  0  0  0  0  0  0
    3.6154   -1.3376   -0.4944 C   0  0  2  0  0  0  0  0  0  0  0  0
    3.4756   -2.0156    0.9769 C   0  0  0  0  0  0  0  0  0  0  0  0
    4.7936   -0.3244   -0.0150 C   0  0  0  0  0  0  0  0  0  0  0  0
    4.3763    0.2761    1.2876 C   0  0  0  0  0  0  0  0  0  0  0  0
    4.8614    1.6808    1.4751 C   0  0  0  0  0  0  0  0  0  0  0  0
    6.0865    2.0046    0.6437 C   0  0  0  0  0  0  0  0  0  0  0  0
    5.8884    3.3682   -0.0076 C   0  0  0  0  0  0  0  0  0  0  0  0
    7.3098    2.0589    1.5358 C   0  0  0  0  0  0  0  0  0  0  0  0
  1  2  2  0
  2  3  1  0
  3  4  1  0
  4  5  1  0
  5  6  1  1
  5  7  1  0
  7  8  1  0
  8  9  2  0
  9 10  1  0
 10 11  2  0
 11 12  1  0
 12 13  1  0
 13 14  1  0
 14 15  1  0
 15 16  1  6
 15 17  1  0
 17 18  1  6
 18 19  1  0
 20 19  1  6
 20 21  1  0
 21 22  1  1
 21 23  1  0
 23 24  1  0
 24 25  1  0
 25 26  1  0
 26 27  1  0
 26 28  1  0
  8  2  1  0
 17 11  1  0
 20 15  1  0
M  END
>  <supplier_code>  (34) 
DB00169

>  <zinc_id>  (34) 
ZINC000004474460

>  <catalog_short_name>  (34) 
dbfda

$$$$

     RDKit          3D

  8  8  0  0  0  0  0  0  0  0999 V2000
    0.8585    0.9322    0.0076 O   0  0  0  0  0  0  0  0  0  0  0  0
    1.0053    0.2614    0.0148 C   0  0  0  0  0  0  0  0  0  0  0  0
    2.2518   -0.3187   -0.2728 O   0  0  0  0  0  0  0  0  0  0  0  0
    0.0914   -0.8794    0.7063 C   0  0  2  0  0  0  0  0  0  0  0  0
   -0.7476   -1.1756   -0.6754 C   0  0  0  0  0  0  0  0  0  0  0  0
   -1.0199    0.2183   -1.1520 C   0  0  0  0  0  0  0  0  0  0  0  0
   -1.4728    0.8113    0.1330 C   0  0  0  0  0  0  0  0  0  0  0  0
   -0.9667    0.1506    1.2385 N   0  0  0  0  0  0  0  0  0  0  0  0
  1  2  2  0
  2  3  1  0
  4  2  1  6
  4  5  1  0
  5  6  1  0
  6  7  1  0
  7  8  1  0
  8  4  1  0
M  END
>  <supplier_code>  (35) 
DB00172

>  <zinc_id>  (35) 
ZINC000000895360

>  <catalog_short_name>  (35) 
dbfda

$$$$

     RDKit          3D

 10 11  0  0  0  0  0  0  0  0999 V2000
   -1.5491    2.1012   -0.2278 N   0  0  0  0  0  0  0  0  0  0  0  0
   -1.1116    0.7827    0.0132 C   0  0  0  0  0  0  0  0  0  0  0  0
   -1.9948   -0.2136    0.0863 N   0  0  0  0  0  0  0  0  0  0  0  0
   -1.5795   -1.4895    0.0577 C   0  0  0  0  0  0  0  0  0  0  0  0
   -0.2828   -1.7670   -0.2168 N   0  0  0  0  0  0  0  0  0  0  0  0
    0.6301   -0.8439    0.1711 C   0  0  0  0  0  0  0  0  0  0  0  0
    1.9437   -0.7969   -0.1623 N   0  0  0  0  0  0  0  0  0  0  0  0
    2.4030    0.4710   -0.0241 C   0  0  0  0  0  0  0  0  0  0  0  0
    1.3143    1.2722    0.0620 N   0  0  0  0  0  0  0  0  0  0  0  0
    0.2266    0.4838    0.2407 C   0  0  0  0  0  0  0  0  0  0  0  0
  1  2  1  0
  2  3  2  0
  3  4  1  0
  4  5  2  0
  5  6  1  0
  6  7  1  0
  7  8  1  0
  8  9  2  0
  9 10  1  0
 10  2  1  0
 10  6  2  0
M  END
>  <supplier_code>  (36) 
DB00173

>  <zinc_id>  (36) 
ZINC000000000882

>  <catalog_short_name>  (36) 
dbfda

$$$$

     RDKit          3D

 30 31  0  0  0  0  0  0  0  0999 V2000
   -5.9919   -1.1612   -0.3288 C   0  0  0  0  0  0  0  0  0  0  0  0
   -6.3075   -0.9162   -0.5439 C   0  0  0  0  0  0  0  0  0  0  0  0
   -5.7484    0.6267   -0.7396 C   0  0  2  0  0  0  0  0  0  0  0  0
   -5.1153    0.2862   -2.2160 C   0  0  0  0  0  0  0  0  0  0  0  0
   -4.4790    0.3127    0.1738 C   0  0  0  0  0  0  0  0  0  0  0  0
   -4.9771    0.3465    1.3419 O   0  0  0  0  0  0  0  0  0  0  0  0
   -3.2245    0.3028   -0.1018 O   0  0  0  0  0  0  0  0  0  0  0  0
   -2.4276   -0.2962    1.0730 C   0  0  1  0  0  0  0  0  0  0  0  0
   -2.5685   -1.8217    0.5261 C   0  0  0  0  0  0  0  0  0  0  0  0
   -2.5885   -1.7668   -1.1263 C   0  0  2  0  0  0  0  0  0  0  0  0
   -1.4931   -2.8513   -1.1884 O   0  0  0  0  0  0  0  0  0  0  0  0
   -1.5425   -0.5871   -1.4578 C   0  0  0  0  0  0  0  0  0  0  0  0
   -1.2195    0.4627   -0.8686 C   0  0  0  0  0  0  0  0  0  0  0  0
   -1.4505    1.8481   -0.7985 C   0  0  0  0  0  0  0  0  0  0  0  0
   -0.5351    2.5911   -0.1694 C   0  0  0  0  0  0  0  0  0  0  0  0
    0.7405    1.7723    0.3770 C   0  0  2  0  0  0  0  0  0  0  0  0
    0.8248    0.7923   -0.9120 C   0  0  0  0  0  0  0  0  0  0  0  0
   -0.2141    0.8543    1.4325 C   0  0  2  0  0  0  0  0  0  0  0  0
    0.9646   -0.1629    1.8770 C   0  0  0  0  0  0  0  0  0  0  0  0
    2.2582    0.4630    1.8991 C   0  0  0  0  0  0  0  0  0  0  0  0
    3.4375   -0.6802    1.6942 C   0  0  1  0  0  0  0  0  0  0  0  0
    2.5946   -1.5725    0.7911 O   0  0  0  0  0  0  0  0  0  0  0  0
    4.1208    0.1509    0.4367 C   0  0  0  0  0  0  0  0  0  0  0  0
    4.5376   -1.0935   -0.5706 C   0  0  1  0  0  0  0  0  0  0  0  0
    4.9550   -0.1179   -1.6660 O   0  0  0  0  0  0  0  0  0  0  0  0
    6.0897   -1.1965   -0.0030 C   0  0  0  0  0  0  0  0  0  0  0  0
    6.5618    0.1837    0.1716 C   0  0  0  0  0  0  0  0  0  0  0  0
    6.4800    0.6275    1.3457 O   0  0  0  0  0  0  0  0  0  0  0  0
    7.1529    0.8823   -0.8762 O   0  0  0  0  0  0  0  0  0  0  0  0
   -0.8343   -0.3389    0.4270 C   0  0  1  0  0  0  0  0  0  0  0  0
  1  2  1  0
  3  2  1  1
  3  4  1  0
  3  5  1  0
  5  6  2  0
  5  7  1  0
  8  7  1  6
  8  9  1  0
  9 10  1  0
 10 11  1  6
 10 12  1  0
 12 13  2  0
 13 14  1  0
 14 15  2  0
 15 16  1  0
 16 17  1  6
 16 18  1  0
 18 19  1  1
 19 20  1  0
 21 20  1  1
 21 22  1  0
 21 23  1  0
 24 23  1  1
 24 25  1  0
 24 26  1  0
 26 27  1  0
 27 28  2  0
 27 29  1  0
 18 30  1  0
 30  8  1  0
 30 13  1  6
M  END
>  <supplier_code>  (37) 
DB00175

>  <zinc_id>  (37) 
ZINC000003798763

>  <catalog_short_name>  (37) 
dbfda

$$$$

     RDKit          3D

 22 22  0  0  0  0  0  0  0  0999 V2000
   -4.7635   -3.0725    0.2939 C   0  0  0  0  0  0  0  0  0  0  0  0
   -4.6182   -2.0671   -0.6498 O   0  0  0  0  0  0  0  0  0  0  0  0
   -4.5702   -0.8390    0.0298 C   0  0  0  0  0  0  0  0  0  0  0  0
   -4.0488    0.1801   -0.9768 C   0  0  0  0  0  0  0  0  0  0  0  0
   -2.5368    0.0399   -0.9678 C   0  0  0  0  0  0  0  0  0  0  0  0
   -2.1105   -0.0171    0.4943 C   0  0  0  0  0  0  0  0  0  0  0  0
   -0.6722    0.4053    0.4964 C   0  0  0  0  0  0  0  0  0  0  0  0
   -0.4534    1.5932    0.0114 N   0  0  0  0  0  0  0  0  0  0  0  0
   -1.3983    2.5883    0.0676 O   0  0  0  0  0  0  0  0  0  0  0  0
   -1.1106    3.7643    0.7894 C   0  0  0  0  0  0  0  0  0  0  0  0
   -0.2077    4.7003    0.0316 C   0  0  0  0  0  0  0  0  0  0  0  0
   -1.0605    5.6028   -0.7234 N   0  0  0  0  0  0  0  0  0  0  0  0
    0.2593   -0.6456    0.0662 C   0  0  0  0  0  0  0  0  0  0  0  0
    0.8552   -0.6191   -1.1885 C   0  0  0  0  0  0  0  0  0  0  0  0
    2.0656   -1.2707   -1.4050 C   0  0  0  0  0  0  0  0  0  0  0  0
    2.8476   -1.5659   -0.2939 C   0  0  0  0  0  0  0  0  0  0  0  0
    4.3161   -1.3357   -0.2589 C   0  0  0  0  0  0  0  0  0  0  0  0
    4.7829   -1.8766    0.9083 F   0  0  0  0  0  0  0  0  0  0  0  0
    4.6472   -0.0055   -0.3869 F   0  0  0  0  0  0  0  0  0  0  0  0
    4.8601   -2.0335   -1.3117 F   0  0  0  0  0  0  0  0  0  0  0  0
    2.1232   -1.9562    0.8266 C   0  0  0  0  0  0  0  0  0  0  0  0
    0.7934   -1.5698    0.9529 C   0  0  0  0  0  0  0  0  0  0  0  0
  1  2  1  0
  2  3  1  0
  3  4  1  0
  4  5  1  0
  5  6  1  0
  6  7  1  0
  7  8  2  0
  8  9  1  0
  9 10  1  0
 10 11  1  0
 11 12  1  0
  7 13  1  0
 13 14  2  0
 14 15  1  0
 15 16  2  0
 16 17  1  0
 17 18  1  0
 17 19  1  0
 17 20  1  0
 16 21  1  0
 21 22  2  0
 22 13  1  0
M  END
>  <supplier_code>  (38) 
DB00176

>  <zinc_id>  (38) 
ZINC000003872605

>  <catalog_short_name>  (38) 
dbfda

$$$$

     RDKit          3D

 22 22  0  0  0  0  0  0  0  0999 V2000
    5.5458   -2.1009   -0.6190 C   0  0  0  0  0  0  0  0  0  0  0  0
    5.1200   -1.8445    0.6799 O   0  0  0  0  0  0  0  0  0  0  0  0
    5.3046   -0.5326    1.0697 C   0  0  0  0  0  0  0  0  0  0  0  0
    4.0780    0.3195    0.9606 C   0  0  0  0  0  0  0  0  0  0  0  0
    2.7901   -0.4441    1.0031 C   0  0  0  0  0  0  0  0  0  0  0  0
    2.1198   -0.3090   -0.3364 C   0  0  0  0  0  0  0  0  0  0  0  0
    0.9721    0.6249   -0.3212 C   0  0  0  0  0  0  0  0  0  0  0  0
    1.0979    1.9142   -0.4318 N   0  0  0  0  0  0  0  0  0  0  0  0
    0.3089    2.6600   -1.2809 O   0  0  0  0  0  0  0  0  0  0  0  0
   -0.9297    3.2143   -0.9207 C   0  0  0  0  0  0  0  0  0  0  0  0
   -0.8304    4.6238   -0.4096 C   0  0  0  0  0  0  0  0  0  0  0  0
    0.5681    4.9972   -0.2515 N   0  0  0  0  0  0  0  0  0  0  0  0
   -0.4006    0.1190   -0.4373 C   0  0  0  0  0  0  0  0  0  0  0  0
   -0.6577   -1.0479   -1.1464 C   0  0  0  0  0  0  0  0  0  0  0  0
   -1.7307   -1.8724   -0.8318 C   0  0  0  0  0  0  0  0  0  0  0  0
   -2.6502   -1.4386    0.0907 C   0  0  0  0  0  0  0  0  0  0  0  0
   -3.9681   -2.0945    0.3032 C   0  0  0  0  0  0  0  0  0  0  0  0
   -4.9473   -1.4493   -0.4166 F   0  0  0  0  0  0  0  0  0  0  0  0
   -4.2442   -2.0686    1.6619 F   0  0  0  0  0  0  0  0  0  0  0  0
   -3.8358   -3.4242   -0.0448 F   0  0  0  0  0  0  0  0  0  0  0  0
   -2.4985   -0.1692    0.6251 C   0  0  0  0  0  0  0  0  0  0  0  0
   -1.2121    0.3230    0.6715 C   0  0  0  0  0  0  0  0  0  0  0  0
  1  2  1  0
  2  3  1  0
  3  4  1  0
  4  5  1  0
  5  6  1  0
  6  7  1  0
  7  8  2  0
  8  9  1  0
  9 10  1  0
 10 11  1  0
 11 12  1  0
  7 13  1  0
 13 14  2  0
 14 15  1  0
 15 16  2  0
 16 17  1  0
 17 18  1  0
 17 19  1  0
 17 20  1  0
 16 21  1  0
 21 22  2  0
 22 13  1  0
M  END
>  <supplier_code>  (39) 
DB00176

>  <zinc_id>  (39) 
ZINC000012466082

>  <catalog_short_name>  (39) 
dbfda

$$$$

     RDKit          3D

 22 22  0  0  0  0  0  0  0  0999 V2000
   -5.8604   -3.0501    1.2469 C   0  0  0  0  0  0  0  0  0  0  0  0
   -4.7701   -2.5340    0.5592 O   0  0  0  0  0  0  0  0  0  0  0  0
   -4.5537   -1.1914    0.8711 C   0  0  0  0  0  0  0  0  0  0  0  0
   -3.3493   -0.7387    0.0859 C   0  0  0  0  0  0  0  0  0  0  0  0
   -2.8505    0.6192    0.4932 C   0  0  0  0  0  0  0  0  0  0  0  0
   -1.9614    1.1351   -0.6038 C   0  0  0  0  0  0  0  0  0  0  0  0
   -0.5649    1.3556   -0.1712 C   0  0  0  0  0  0  0  0  0  0  0  0
    0.0563    2.3218   -0.7830 N   0  0  0  0  0  0  0  0  0  0  0  0
    1.2138    2.8563   -0.2455 O   0  0  0  0  0  0  0  0  0  0  0  0
    1.1688    4.2206    0.1136 C   0  0  0  0  0  0  0  0  0  0  0  0
    0.0068    4.9345   -0.5526 C   0  0  0  0  0  0  0  0  0  0  0  0
   -1.1802    4.7847    0.2667 N   0  0  0  0  0  0  0  0  0  0  0  0
    0.2838    0.2511    0.2895 C   0  0  0  0  0  0  0  0  0  0  0  0
   -0.0149   -1.0712    0.0599 C   0  0  0  0  0  0  0  0  0  0  0  0
    0.9889   -2.0283    0.0970 C   0  0  0  0  0  0  0  0  0  0  0  0
    2.3080   -1.5983    0.1736 C   0  0  0  0  0  0  0  0  0  0  0  0
    3.4545   -2.4108   -0.2814 C   0  0  0  0  0  0  0  0  0  0  0  0
    3.0191   -3.5815   -0.8464 F   0  0  0  0  0  0  0  0  0  0  0  0
    4.2459   -1.7495   -1.2076 F   0  0  0  0  0  0  0  0  0  0  0  0
    4.2773   -2.6357    0.8179 F   0  0  0  0  0  0  0  0  0  0  0  0
    2.5405   -0.4252    0.8833 C   0  0  0  0  0  0  0  0  0  0  0  0
    1.5415    0.5357    0.7724 C   0  0  0  0  0  0  0  0  0  0  0  0
  1  2  1  0
  2  3  1  0
  3  4  1  0
  4  5  1  0
  5  6  1  0
  6  7  1  0
  7  8  2  3
  8  9  1  0
  9 10  1  0
 10 11  1  0
 11 12  1  0
  7 13  1  0
 13 14  2  0
 14 15  1  0
 15 16  2  0
 16 17  1  0
 17 18  1  0
 17 19  1  0
 17 20  1  0
 16 21  1  0
 21 22  2  0
 22 13  1  0
M  END
>  <supplier_code>  (40) 
DB00176

>  <zinc_id>  (40) 
ZINC000252678020

>  <catalog_short_name>  (40) 
dbfda

$$$$

     RDKit          3D

 32 34  0  0  0  0  0  0  0  0999 V2000
   -3.9291    3.7748    1.5005 C   0  0  0  0  0  0  0  0  0  0  0  0
   -3.5908    2.6974    2.5205 C   0  0  0  0  0  0  0  0  0  0  0  0
   -4.4943    1.5175    2.1808 C   0  0  0  0  0  0  0  0  0  0  0  0
   -3.6266    0.3195    1.9176 C   0  0  0  0  0  0  0  0  0  0  0  0
   -3.4306    0.1178    0.4451 C   0  0  0  0  0  0  0  0  0  0  0  0
   -3.4763    1.1532   -0.2413 O   0  0  0  0  0  0  0  0  0  0  0  0
   -2.8685   -1.1054    0.1353 N   0  0  0  0  0  0  0  0  0  0  0  0
   -1.6015   -1.4418    0.7855 C   0  0  0  0  0  0  0  0  0  0  0  0
   -0.5242   -0.5859    0.2194 C   0  0  0  0  0  0  0  0  0  0  0  0
    0.0788    0.3602    1.0197 C   0  0  0  0  0  0  0  0  0  0  0  0
    1.3590    0.7842    0.7189 C   0  0  0  0  0  0  0  0  0  0  0  0
    1.9978    0.3373   -0.4203 C   0  0  0  0  0  0  0  0  0  0  0  0
    3.1962    1.0710   -0.8178 C   0  0  0  0  0  0  0  0  0  0  0  0
    3.1889    2.0314   -1.8191 C   0  0  0  0  0  0  0  0  0  0  0  0
    3.9571    3.1747   -1.6352 C   0  0  0  0  0  0  0  0  0  0  0  0
    4.9054    3.2538   -0.6343 C   0  0  0  0  0  0  0  0  0  0  0  0
    5.2188    2.0629    0.0042 C   0  0  0  0  0  0  0  0  0  0  0  0
    4.2487    1.0710    0.0785 C   0  0  0  0  0  0  0  0  0  0  0  0
    4.5526   -0.1320    0.8424 C   0  0  0  0  0  0  0  0  0  0  0  0
    5.6801   -0.4017    1.5311 N   0  0  0  0  0  0  0  0  0  0  0  0
    5.6406   -1.6585    1.9385 N   0  0  0  0  0  0  0  0  0  0  0  0
    4.7717   -2.2595    1.1595 N   0  0  0  0  0  0  0  0  0  0  0  0
    3.9838   -1.3462    0.6437 N   0  0  0  0  0  0  0  0  0  0  0  0
    1.2130   -0.2821   -1.3783 C   0  0  0  0  0  0  0  0  0  0  0  0
   -0.0016   -0.8078   -1.0284 C   0  0  0  0  0  0  0  0  0  0  0  0
   -2.8014   -1.6112   -1.3516 C   0  0  2  0  0  0  0  0  0  0  0  0
   -4.1634   -0.8769   -1.8244 C   0  0  0  0  0  0  0  0  0  0  0  0
   -5.0463   -1.6273   -2.3411 O   0  0  0  0  0  0  0  0  0  0  0  0
   -3.7427    0.0265   -2.8236 O   0  0  0  0  0  0  0  0  0  0  0  0
   -3.5305   -3.0374   -0.9589 C   0  0  0  0  0  0  0  0  0  0  0  0
   -2.4760   -3.8692   -0.2932 C   0  0  0  0  0  0  0  0  0  0  0  0
   -4.6887   -2.7102   -0.0741 C   0  0  0  0  0  0  0  0  0  0  0  0
  1  2  1  0
  2  3  1  0
  3  4  1  0
  4  5  1  0
  5  6  2  0
  5  7  1  0
  7  8  1  0
  8  9  1  0
  9 10  2  0
 10 11  1  0
 11 12  2  0
 12 13  1  0
 13 14  2  0
 14 15  1  0
 15 16  2  0
 16 17  1  0
 17 18  2  0
 18 19  1  0
 19 20  1  0
 20 21  2  0
 21 22  1  0
 22 23  1  0
 12 24  1  0
 24 25  2  0
 26  7  1  1
 26 27  1  0
 27 28  2  0
 27 29  1  0
 26 30  1  0
 30 31  1  0
 30 32  1  0
 25  9  1  0
 18 13  1  0
 23 19  2  0
M  END
>  <supplier_code>  (41) 
DB00177

>  <zinc_id>  (41) 
ZINC000003875259

>  <catalog_short_name>  (41) 
dbfda

$$$$

     RDKit          3D

 30 32  0  0  0  0  0  0  0  0999 V2000
    1.7528   -4.8324    0.9254 C   0  0  0  0  0  0  0  0  0  0  0  0
    2.1950   -3.8389    1.7043 C   0  0  0  0  0  0  0  0  0  0  0  0
    1.9339   -2.5775    1.0873 O   0  0  0  0  0  0  0  0  0  0  0  0
    1.8293   -2.5987   -0.2369 C   0  0  0  0  0  0  0  0  0  0  0  0
    2.4305   -3.3517   -1.0488 O   0  0  0  0  0  0  0  0  0  0  0  0
    1.2481   -1.3270   -1.0774 C   0  0  2  0  0  0  0  0  0  0  0  0
    2.7487   -0.6041   -1.1157 C   0  0  0  0  0  0  0  0  0  0  0  0
    2.9874    0.0649    0.1736 C   0  0  0  0  0  0  0  0  0  0  0  0
    4.0749    1.0326   -0.0513 C   0  0  0  0  0  0  0  0  0  0  0  0
    5.1897    1.0989    0.7504 C   0  0  0  0  0  0  0  0  0  0  0  0
    6.1073    2.0885    0.5356 C   0  0  0  0  0  0  0  0  0  0  0  0
    5.9996    2.9348   -0.5609 C   0  0  0  0  0  0  0  0  0  0  0  0
    5.0473    2.6758   -1.5388 C   0  0  0  0  0  0  0  0  0  0  0  0
    4.1759    1.6456   -1.2902 C   0  0  0  0  0  0  0  0  0  0  0  0
    0.6995   -0.5252    0.2053 N   0  0  0  0  0  0  0  0  0  0  0  0
   -0.7916   -0.7087   -0.3517 C   0  0  1  0  0  0  0  0  0  0  0  0
   -1.1368   -1.8809    0.7854 C   0  0  0  0  0  0  0  0  0  0  0  0
   -1.4180    0.4909    0.5635 C   0  0  0  0  0  0  0  0  0  0  0  0
   -0.9697    0.6606    1.6673 O   0  0  0  0  0  0  0  0  0  0  0  0
   -2.7742    0.6123    0.1286 N   0  0  0  0  0  0  0  0  0  0  0  0
   -3.6385    1.7946    0.7248 C   0  0  2  0  0  0  0  0  0  0  0  0
   -3.8787    1.0258    2.1508 C   0  0  0  0  0  0  0  0  0  0  0  0
   -3.3969    1.6761    3.0973 O   0  0  0  0  0  0  0  0  0  0  0  0
   -4.2842   -0.2536    2.1100 O   0  0  0  0  0  0  0  0  0  0  0  0
   -4.9711    1.0934   -0.0172 C   0  0  0  0  0  0  0  0  0  0  0  0
   -4.2961    1.9403   -1.2435 C   0  0  2  0  0  0  0  0  0  0  0  0
   -5.2201    1.2696   -2.4021 C   0  0  0  0  0  0  0  0  0  0  0  0
   -4.5212    0.0533   -2.8177 C   0  0  0  0  0  0  0  0  0  0  0  0
   -4.1004   -0.4579   -1.4421 C   0  0  0  0  0  0  0  0  0  0  0  0
   -3.0227    0.7986   -1.4152 C   0  0  2  0  0  0  0  0  0  0  0  0
  1  2  1  0
  2  3  1  0
  3  4  1  0
  4  5  2  0
  6  4  1  1
  6  7  1  0
  7  8  1  0
  8  9  1  0
  9 10  2  0
 10 11  1  0
 11 12  2  0
 12 13  1  0
 13 14  2  0
  6 15  1  0
 16 15  1  1
 16 17  1  0
 16 18  1  0
 18 19  2  0
 18 20  1  0
 20 21  1  0
 21 22  1  1
 22 23  2  0
 22 24  1  0
 21 25  1  0
 26 25  1  1
 26 27  1  0
 27 28  1  0
 28 29  1  0
 30 29  1  1
 14  9  1  0
 30 20  1  0
 30 26  1  0
M  END
>  <supplier_code>  (42) 
DB00178

>  <zinc_id>  (42) 
ZINC000003798757

>  <catalog_short_name>  (42) 
dbfda

$$$$

     RDKit          3D

 31 35  0  0  0  0  0  0  0  0999 V2000
    3.7736   -2.0379    1.1659 C   0  0  0  0  0  0  0  0  0  0  0  0
    3.1228   -2.0414    0.7709 C   0  0  0  0  0  0  0  0  0  0  0  0
    2.5793   -3.3772    0.2464 C   0  0  0  0  0  0  0  0  0  0  0  0
    2.1019   -1.3814    1.4801 O   0  0  0  0  0  0  0  0  0  0  0  0
    2.7682   -0.0172    1.4867 C   0  0  2  0  0  0  0  0  0  0  0  0
    1.4167    0.9436    1.4941 C   0  0  0  0  0  0  0  0  0  0  0  0
    0.5703   -0.1893    0.7178 C   0  0  1  0  0  0  0  0  0  0  0  0
   -0.6504    0.7475    0.0419 C   0  0  2  0  0  0  0  0  0  0  0  0
   -1.5040    0.8757    1.3946 C   0  0  0  0  0  0  0  0  0  0  0  0
   -2.4716    1.9496    0.5588 C   0  0  2  0  0  0  0  0  0  0  0  0
   -3.2732    2.2620    1.7992 F   0  0  0  0  0  0  0  0  0  0  0  0
   -3.4005    0.7092    0.0611 C   0  0  0  0  0  0  0  0  0  0  0  0
   -4.6697    0.7525    0.2402 C   0  0  0  0  0  0  0  0  0  0  0  0
   -5.4011   -0.5136    0.1736 C   0  0  0  0  0  0  0  0  0  0  0  0
   -6.6211   -0.5006    0.4776 O   0  0  0  0  0  0  0  0  0  0  0  0
   -4.6457   -1.6839   -0.2573 C   0  0  0  0  0  0  0  0  0  0  0  0
   -3.4929   -1.5128   -0.7769 C   0  0  0  0  0  0  0  0  0  0  0  0
   -2.7854   -0.1773   -0.9160 C   0  0  1  0  0  0  0  0  0  0  0  0
   -2.8855    0.1201   -2.3336 C   0  0  0  0  0  0  0  0  0  0  0  0
   -1.3498   -0.7053   -0.4359 C   0  0  1  0  0  0  0  0  0  0  0  0
   -0.5789   -0.8060   -1.9661 C   0  0  1  0  0  0  0  0  0  0  0  0
   -0.5168    0.6767   -2.2578 O   0  0  0  0  0  0  0  0  0  0  0  0
    0.9585   -0.8983   -1.4480 C   0  0  0  0  0  0  0  0  0  0  0  0
    1.4697    0.0741   -0.6066 C   0  0  1  0  0  0  0  0  0  0  0  0
    1.3499    1.5757   -0.9442 C   0  0  0  0  0  0  0  0  0  0  0  0
    2.8441   -0.0079   -0.1589 C   0  0  1  0  0  0  0  0  0  0  0  0
    3.7463    1.1243   -0.2973 C   0  0  0  0  0  0  0  0  0  0  0  0
    3.7509    1.9851   -1.1770 O   0  0  0  0  0  0  0  0  0  0  0  0
    4.5811    1.7081    0.8360 C   0  0  0  0  0  0  0  0  0  0  0  0
    5.8590    1.5978    0.2553 O   0  0  0  0  0  0  0  0  0  0  0  0
    3.3545   -1.2521   -0.3782 O   0  0  0  0  0  0  0  0  0  0  0  0
  1  2  1  0
  2  3  1  0
  2  4  1  0
  5  4  1  6
  5  6  1  0
  7  6  1  1
  7  8  1  0
  8  9  1  1
  9 10  1  0
 10 11  1  1
 10 12  1  0
 12 13  2  0
 13 14  1  0
 14 15  2  0
 14 16  1  0
 16 17  2  0
 17 18  1  0
 18 19  1  6
 20 18  1  6
 20 21  1  0
 21 22  1  6
 21 23  1  0
 23 24  1  0
 24 25  1  6
 24 26  1  0
 26 27  1  1
 27 28  2  0
 27 29  1  0
 29 30  1  0
 26 31  1  0
 31  2  1  0
 26  5  1  0
 24  7  1  0
 20  8  1  0
 18 12  1  0
M  END
>  <supplier_code>  (43) 
DB00180

>  <zinc_id>  (43) 
ZINC000004097305

>  <catalog_short_name>  (43) 
dbfda

$$$$

     RDKit          3D

 14 14  0  0  0  0  0  0  0  0999 V2000
   -0.8640    2.3923    1.6123 N   0  0  0  0  0  0  0  0  0  0  0  0
   -1.5989    1.3305    1.0660 C   0  0  0  0  0  0  0  0  0  0  0  0
   -1.3229    1.3350   -0.5469 C   0  0  2  0  0  0  0  0  0  0  0  0
   -2.2302    0.0056   -0.7916 C   0  0  0  0  0  0  0  0  0  0  0  0
   -1.8321   -1.0773    0.0712 C   0  0  0  0  0  0  0  0  0  0  0  0
   -1.9076   -1.1419    1.3269 O   0  0  0  0  0  0  0  0  0  0  0  0
   -1.9484   -2.3484   -0.5205 O   0  0  0  0  0  0  0  0  0  0  0  0
    0.0664    0.5628   -0.3878 C   0  0  0  0  0  0  0  0  0  0  0  0
    1.1316    1.4550   -0.2444 C   0  0  0  0  0  0  0  0  0  0  0  0
    2.4063    0.9010   -0.1552 C   0  0  0  0  0  0  0  0  0  0  0  0
    2.5347   -0.4836   -0.1775 C   0  0  0  0  0  0  0  0  0  0  0  0
    3.6608   -1.3375    0.8754 Cl  0  0  0  0  0  0  0  0  0  0  0  0
    1.5279   -1.1443   -0.8740 C   0  0  0  0  0  0  0  0  0  0  0  0
    0.3765   -0.4493   -1.2540 C   0  0  0  0  0  0  0  0  0  0  0  0
  1  2  1  0
  3  2  1  1
  3  4  1  0
  4  5  1  0
  5  6  2  0
  5  7  1  0
  3  8  1  0
  8  9  2  0
  9 10  1  0
 10 11  2  0
 11 12  1  0
 11 13  1  0
 13 14  2  0
 14  8  1  0
M  END
>  <supplier_code>  (44) 
DB00181

>  <zinc_id>  (44) 
ZINC000000000061

>  <catalog_short_name>  (44) 
dbfda

$$$$

     RDKit          3D

 14 14  0  0  0  0  0  0  0  0999 V2000
    1.3853    2.5387    1.9443 N   0  0  0  0  0  0  0  0  0  0  0  0
    0.4300    1.6684    1.3352 C   0  0  0  0  0  0  0  0  0  0  0  0
    1.1574    1.1633   -0.0498 C   0  0  1  0  0  0  0  0  0  0  0  0
    1.9122   -0.0689    0.7337 C   0  0  0  0  0  0  0  0  0  0  0  0
    2.3434   -1.0081   -0.3483 C   0  0  0  0  0  0  0  0  0  0  0  0
    2.4054   -2.2237   -0.0315 O   0  0  0  0  0  0  0  0  0  0  0  0
    3.3572   -0.5075   -1.1712 O   0  0  0  0  0  0  0  0  0  0  0  0
   -0.1113    0.2903   -0.5143 C   0  0  0  0  0  0  0  0  0  0  0  0
   -1.1573    1.1032   -0.9426 C   0  0  0  0  0  0  0  0  0  0  0  0
   -2.4664    0.6390   -1.0286 C   0  0  0  0  0  0  0  0  0  0  0  0
   -2.7531   -0.4875   -0.2883 C   0  0  0  0  0  0  0  0  0  0  0  0
   -4.3390   -0.9221    0.2741 Cl  0  0  0  0  0  0  0  0  0  0  0  0
   -1.7025   -1.3756   -0.0890 C   0  0  0  0  0  0  0  0  0  0  0  0
   -0.4614   -0.8096    0.1761 C   0  0  0  0  0  0  0  0  0  0  0  0
  1  2  1  0
  3  2  1  1
  3  4  1  0
  4  5  1  0
  5  6  2  0
  5  7  1  0
  3  8  1  0
  8  9  2  0
  9 10  1  0
 10 11  2  0
 11 12  1  0
 11 13  1  0
 13 14  2  0
 14  8  1  0
M  END
>  <supplier_code>  (45) 
DB00181

>  <zinc_id>  (45) 
ZINC000000085733

>  <catalog_short_name>  (45) 
dbfda

$$$$

     RDKit          3D

 10 10  0  0  0  0  0  0  0  0999 V2000
    3.3469    0.6787    0.4144 C   0  0  0  0  0  0  0  0  0  0  0  0
    1.9370   -0.1699    0.6945 C   0  0  2  0  0  0  0  0  0  0  0  0
    2.5015   -1.4417   -0.0940 N   0  0  0  0  0  0  0  0  0  0  0  0
    1.2440    0.4366   -0.6978 C   0  0  0  0  0  0  0  0  0  0  0  0
   -0.2084    0.3173   -0.4532 C   0  0  0  0  0  0  0  0  0  0  0  0
   -1.0172   -0.5313   -1.1736 C   0  0  0  0  0  0  0  0  0  0  0  0
   -2.3028   -0.8001   -0.7668 C   0  0  0  0  0  0  0  0  0  0  0  0
   -2.7179   -0.2583    0.4200 C   0  0  0  0  0  0  0  0  0  0  0  0
   -2.0139    0.7150    1.0838 C   0  0  0  0  0  0  0  0  0  0  0  0
   -0.7695    1.0537    0.5727 C   0  0  0  0  0  0  0  0  0  0  0  0
  2  1  1  6
  2  3  1  0
  2  4  1  0
  4  5  1  0
  5  6  2  0
  6  7  1  0
  7  8  2  0
  8  9  1  0
  9 10  2  0
 10  5  1  0
M  END
>  <supplier_code>  (46) 
DB00182

>  <zinc_id>  (46) 
ZINC000006021033

>  <catalog_short_name>  (46) 
dbfda

$$$$

     RDKit          3D

 10 10  0  0  0  0  0  0  0  0999 V2000
   -2.9473    1.2030    0.0857 C   0  0  0  0  0  0  0  0  0  0  0  0
   -1.9186    0.0449    0.7059 C   0  0  1  0  0  0  0  0  0  0  0  0
   -2.9949   -1.1111    0.4554 N   0  0  0  0  0  0  0  0  0  0  0  0
   -1.2280   -0.2129   -0.7909 C   0  0  0  0  0  0  0  0  0  0  0  0
    0.2170    0.0043   -0.5659 C   0  0  0  0  0  0  0  0  0  0  0  0
    1.1172   -0.9791   -0.9571 C   0  0  0  0  0  0  0  0  0  0  0  0
    2.4122   -0.9176   -0.4757 C   0  0  0  0  0  0  0  0  0  0  0  0
    2.6671   -0.1528    0.6563 C   0  0  0  0  0  0  0  0  0  0  0  0
    1.9496    1.0320    0.7631 C   0  0  0  0  0  0  0  0  0  0  0  0
    0.7256    1.0893    0.1231 C   0  0  0  0  0  0  0  0  0  0  0  0
  2  1  1  6
  2  3  1  0
  2  4  1  0
  4  5  1  0
  5  6  2  0
  6  7  1  0
  7  8  2  0
  8  9  1  0
  9 10  2  0
 10  5  1  0
M  END
>  <supplier_code>  (47) 
DB00182

>  <zinc_id>  (47) 
ZINC000006036847

>  <catalog_short_name>  (47) 
dbfda

$$$$

     RDKit          3D

 12 13  0  0  0  0  0  0  0  0999 V2000
   -1.2308   -1.2636   -0.4742 C   0  0  0  0  0  0  0  0  0  0  0  0
   -1.1893   -0.8856   -0.4051 N   0  0  0  0  0  0  0  0  0  0  0  0
   -1.6384    0.1778   -1.1766 C   0  0  0  0  0  0  0  0  0  0  0  0
   -2.7429    0.7764   -0.3223 C   0  0  0  0  0  0  0  0  0  0  0  0
   -1.7701    1.0970    0.8025 C   0  0  0  0  0  0  0  0  0  0  0  0
   -1.2031   -0.4192    1.0954 C   0  0  2  0  0  0  0  0  0  0  0  0
    0.3448    0.0399    1.0572 C   0  0  0  0  0  0  0  0  0  0  0  0
    1.1762   -1.0585    1.2660 C   0  0  0  0  0  0  0  0  0  0  0  0
    2.5249   -0.8815    0.9780 C   0  0  0  0  0  0  0  0  0  0  0  0
    2.9465    0.3424    0.4734 C   0  0  0  0  0  0  0  0  0  0  0  0
    2.0477    1.2055   -0.0028 N   0  0  0  0  0  0  0  0  0  0  0  0
    0.7346    0.8694    0.0648 C   0  0  0  0  0  0  0  0  0  0  0  0
  1  2  1  0
  2  3  1  0
  3  4  1  0
  4  5  1  0
  5  6  1  0
  6  7  1  6
  7  8  2  0
  8  9  1  0
  9 10  2  0
 10 11  1  0
 11 12  2  0
  6  2  1  0
 12  7  1  0
M  END
>  <supplier_code>  (48) 
DB00184

>  <zinc_id>  (48) 
ZINC000000001798

>  <catalog_short_name>  (48) 
dbfda

$$$$

     RDKit          3D

 12 13  0  0  0  0  0  0  0  0999 V2000
   -1.4085    1.6877   -1.0274 C   0  0  0  0  0  0  0  0  0  0  0  0
   -1.3516    0.3678   -0.8877 N   0  0  0  0  0  0  0  0  0  0  0  0
   -2.7087   -0.0695   -0.8510 C   0  0  0  0  0  0  0  0  0  0  0  0
   -2.9671   -0.8238    0.4034 C   0  0  0  0  0  0  0  0  0  0  0  0
   -1.5625   -1.2697    0.7674 C   0  0  0  0  0  0  0  0  0  0  0  0
   -0.9715    0.2876    0.6634 C   0  0  1  0  0  0  0  0  0  0  0  0
    0.5430   -0.2637    0.4242 C   0  0  0  0  0  0  0  0  0  0  0  0
    0.9894   -0.5261   -0.8013 C   0  0  0  0  0  0  0  0  0  0  0  0
    2.3746   -0.5851   -0.9438 C   0  0  0  0  0  0  0  0  0  0  0  0
    3.0477    0.3864   -0.2108 C   0  0  0  0  0  0  0  0  0  0  0  0
    2.6474    0.5576    1.0725 N   0  0  0  0  0  0  0  0  0  0  0  0
    1.3678    0.2509    1.3911 C   0  0  0  0  0  0  0  0  0  0  0  0
  1  2  1  0
  2  3  1  0
  3  4  1  0
  4  5  1  0
  5  6  1  0
  6  7  1  6
  7  8  2  0
  8  9  1  0
  9 10  2  0
 10 11  1  0
 11 12  2  0
  6  2  1  0
 12  7  1  0
M  END
>  <supplier_code>  (49) 
DB00184

>  <zinc_id>  (49) 
ZINC000000391812

>  <catalog_short_name>  (49) 
dbfda

$$$$

     RDKit          3D

 13 15  0  0  0  0  0  0  0  0999 V2000
    2.8897   -1.4044    1.3637 C   0  0  0  0  0  0  0  0  0  0  0  0
    2.3365    0.0978    1.1562 C   0  0  2  0  0  0  0  0  0  0  0  0
    0.9516   -0.3505    0.9634 O   0  0  0  0  0  0  0  0  0  0  0  0
    0.3545    0.2560   -0.0238 C   0  0  1  0  0  0  0  0  0  0  0  0
    1.1912    1.0316   -0.9679 C   0  0  0  0  0  0  0  0  0  0  0  0
    2.7407    0.0928   -0.7343 S   0  0  0  0  0  0  0  0  0  0  0  0
   -0.2446   -0.8646   -0.8845 C   0  0  0  0  0  0  0  0  0  0  0  0
   -1.6651   -0.9830   -0.7093 N   0  0  0  0  0  0  0  0  0  0  0  0
   -2.2466    0.1393   -1.4421 C   0  0  0  0  0  0  0  0  0  0  0  0
   -1.5965    1.4230   -0.9653 C   0  0  0  0  0  0  0  0  0  0  0  0
   -0.8419    1.1367    0.3283 C   0  0  0  0  0  0  0  0  0  0  0  0
   -1.8010    0.4014    1.2286 C   0  0  0  0  0  0  0  0  0  0  0  0
   -2.0686   -0.9762    0.6870 C   0  0  0  0  0  0  0  0  0  0  0  0
  2  1  1  1
  2  3  1  0
  4  3  1  1
  4  5  1  0
  5  6  1  0
  4  7  1  0
  7  8  1  0
  8  9  1  0
  9 10  1  0
 10 11  1  0
 11 12  1  0
 12 13  1  0
  6  2  1  0
 13  8  1  0
 11  4  1  0
M  END
>  <supplier_code>  (50) 
DB00185

>  <zinc_id>  (50) 
ZINC000000010163

>  <catalog_short_name>  (50) 
dbfda

$$$$

     RDKit          3D

 13 15  0  0  0  0  0  0  0  0999 V2000
   -3.5942    0.5540   -0.0858 C   0  0  0  0  0  0  0  0  0  0  0  0
   -2.3284   -0.2629   -0.6473 C   0  0  1  0  0  0  0  0  0  0  0  0
   -1.3506    0.6736   -0.0681 O   0  0  0  0  0  0  0  0  0  0  0  0
   -0.2301   -0.0858    0.1426 C   0  0  1  0  0  0  0  0  0  0  0  0
   -0.5259   -1.0246    1.3077 C   0  0  0  0  0  0  0  0  0  0  0  0
   -2.2526   -1.4335    0.8771 S   0  0  0  0  0  0  0  0  0  0  0  0
    0.3005   -0.7996   -1.0566 C   0  0  0  0  0  0  0  0  0  0  0  0
    1.7096   -0.5051   -1.1799 N   0  0  0  0  0  0  0  0  0  0  0  0
    1.8156    0.8866   -1.5908 C   0  0  0  0  0  0  0  0  0  0  0  0
    1.2064    1.7633   -0.5032 C   0  0  0  0  0  0  0  0  0  0  0  0
    0.8052    0.8955    0.6792 C   0  0  0  0  0  0  0  0  0  0  0  0
    1.9881    0.0969    1.1921 C   0  0  0  0  0  0  0  0  0  0  0  0
    2.4566   -0.7584    0.0245 C   0  0  0  0  0  0  0  0  0  0  0  0
  2  1  1  1
  2  3  1  0
  4  3  1  6
  4  5  1  0
  5  6  1  0
  4  7  1  0
  7  8  1  0
  8  9  1  0
  9 10  1  0
 10 11  1  0
 11 12  1  0
 12 13  1  0
  6  2  1  0
 13  8  1  0
 11  4  1  0
M  END
>  <supplier_code>  (51) 
DB00185

>  <zinc_id>  (51) 
ZINC000000010164

>  <catalog_short_name>  (51) 
dbfda

$$$$

     RDKit          3D

 21 23  0  0  0  0  0  0  0  0999 V2000
   -2.8072   -3.1950    0.0177 O   0  0  0  0  0  0  0  0  0  0  0  0
   -2.1674   -2.1984   -0.0862 C   0  0  0  0  0  0  0  0  0  0  0  0
   -2.4992   -1.1433   -0.9447 N   0  0  0  0  0  0  0  0  0  0  0  0
   -1.7712    0.0860   -1.0761 C   0  0  0  0  0  0  0  0  0  0  0  0
   -2.5069    1.1484   -1.5234 C   0  0  0  0  0  0  0  0  0  0  0  0
   -2.2621    2.4529   -1.1162 C   0  0  0  0  0  0  0  0  0  0  0  0
   -1.1981    2.6870   -0.2714 C   0  0  0  0  0  0  0  0  0  0  0  0
   -1.3463    3.9779    0.9242 Cl  0  0  0  0  0  0  0  0  0  0  0  0
   -0.2082    1.7181   -0.1704 C   0  0  0  0  0  0  0  0  0  0  0  0
   -0.5574    0.4082   -0.4753 C   0  0  0  0  0  0  0  0  0  0  0  0
    0.3181   -0.5764    0.1381 C   0  0  0  0  0  0  0  0  0  0  0  0
    1.7049   -0.1124    0.1906 C   0  0  0  0  0  0  0  0  0  0  0  0
    2.0289    1.1181    0.6606 C   0  0  0  0  0  0  0  0  0  0  0  0
    3.3376    1.4241    0.9770 C   0  0  0  0  0  0  0  0  0  0  0  0
    4.2550    0.4002    0.8076 C   0  0  0  0  0  0  0  0  0  0  0  0
    3.9895   -0.6413   -0.0482 C   0  0  0  0  0  0  0  0  0  0  0  0
    2.6637   -0.9298   -0.3404 C   0  0  0  0  0  0  0  0  0  0  0  0
    2.2227   -2.3709   -1.2082 Cl  0  0  0  0  0  0  0  0  0  0  0  0
    0.0133   -1.6841    0.6462 N   0  0  0  0  0  0  0  0  0  0  0  0
   -1.3863   -2.0197    1.3423 C   0  0  1  0  0  0  0  0  0  0  0  0
   -1.8235   -0.5497    1.5561 O   0  0  0  0  0  0  0  0  0  0  0  0
  1  2  2  0
  2  3  1  0
  3  4  1  0
  4  5  2  0
  5  6  1  0
  6  7  2  0
  7  8  1  0
  7  9  1  0
  9 10  2  0
 10 11  1  0
 11 12  1  0
 12 13  2  0
 13 14  1  0
 14 15  2  0
 15 16  1  0
 16 17  2  0
 17 18  1  0
 11 19  2  0
 19 20  1  0
 20 21  1  1
 20  2  1  0
 10  4  1  0
 17 12  1  0
M  END
>  <supplier_code>  (52) 
DB00186

>  <zinc_id>  (52) 
ZINC000000000431

>  <catalog_short_name>  (52) 
dbfda

$$$$

     RDKit          3D

 21 23  0  0  0  0  0  0  0  0999 V2000
   -3.3627   -2.6655    0.2108 O   0  0  0  0  0  0  0  0  0  0  0  0
   -2.3663   -1.9674   -0.0433 C   0  0  0  0  0  0  0  0  0  0  0  0
   -2.2882   -1.1283   -1.1809 N   0  0  0  0  0  0  0  0  0  0  0  0
   -1.5303    0.0863   -1.1215 C   0  0  0  0  0  0  0  0  0  0  0  0
   -2.1201    1.1630   -1.7723 C   0  0  0  0  0  0  0  0  0  0  0  0
   -1.6460    2.4189   -1.3845 C   0  0  0  0  0  0  0  0  0  0  0  0
   -1.0984    2.6340   -0.1261 C   0  0  0  0  0  0  0  0  0  0  0  0
   -1.7572    3.7742    1.0468 Cl  0  0  0  0  0  0  0  0  0  0  0  0
   -0.2617    1.5914    0.2727 C   0  0  0  0  0  0  0  0  0  0  0  0
   -0.5393    0.2917   -0.1509 C   0  0  0  0  0  0  0  0  0  0  0  0
    0.2527   -0.7272    0.5907 C   0  0  0  0  0  0  0  0  0  0  0  0
    1.6494   -0.2464    0.5337 C   0  0  0  0  0  0  0  0  0  0  0  0
    2.3934   -0.6159   -0.5796 C   0  0  0  0  0  0  0  0  0  0  0  0
    3.4971    0.0709   -0.9747 C   0  0  0  0  0  0  0  0  0  0  0  0
    3.9287    1.1388   -0.2226 C   0  0  0  0  0  0  0  0  0  0  0  0
    3.3812    1.3263    1.0381 C   0  0  0  0  0  0  0  0  0  0  0  0
    2.2005    0.6725    1.3613 C   0  0  0  0  0  0  0  0  0  0  0  0
    1.6975    0.5541    3.0270 Cl  0  0  0  0  0  0  0  0  0  0  0  0
    0.0886   -1.8764   -0.0263 N   0  0  0  0  0  0  0  0  0  0  0  0
   -1.0827   -2.8664    0.4187 C   0  0  2  0  0  0  0  0  0  0  0  0
   -1.0360   -3.6285   -0.9169 O   0  0  0  0  0  0  0  0  0  0  0  0
  1  2  2  0
  2  3  1  0
  3  4  1  0
  4  5  2  0
  5  6  1  0
  6  7  2  0
  7  8  1  0
  7  9  1  0
  9 10  2  0
 10 11  1  0
 11 12  1  0
 12 13  2  0
 13 14  1  0
 14 15  2  0
 15 16  1  0
 16 17  2  0
 17 18  1  0
 11 19  2  0
 19 20  1  0
 20 21  1  6
 20  2  1  0
 10  4  1  0
 17 12  1  0
M  END
>  <supplier_code>  (53) 
DB00186

>  <zinc_id>  (53) 
ZINC000000896595

>  <catalog_short_name>  (53) 
dbfda

$$$$

     RDKit          3D

 21 21  0  0  0  0  0  0  0  0999 V2000
   -4.9561    3.5687   -0.1118 C   0  0  0  0  0  0  0  0  0  0  0  0
   -4.7466    2.5337    0.5759 O   0  0  0  0  0  0  0  0  0  0  0  0
   -4.9389    1.2493    0.0576 C   0  0  0  0  0  0  0  0  0  0  0  0
   -5.2045    1.1869   -1.1801 O   0  0  0  0  0  0  0  0  0  0  0  0
   -4.3649    0.0728    0.7813 C   0  0  0  0  0  0  0  0  0  0  0  0
   -3.9003   -0.9159   -0.2468 C   0  0  0  0  0  0  0  0  0  0  0  0
   -2.4605   -0.8107   -0.5476 C   0  0  0  0  0  0  0  0  0  0  0  0
   -1.8582   -1.8375   -1.2635 C   0  0  0  0  0  0  0  0  0  0  0  0
   -0.5471   -2.2221   -1.0093 C   0  0  0  0  0  0  0  0  0  0  0  0
    0.2135   -1.5060   -0.0937 C   0  0  0  0  0  0  0  0  0  0  0  0
    1.1916   -2.2041    0.5968 O   0  0  0  0  0  0  0  0  0  0  0  0
    2.3148   -1.5290    1.1220 C   0  0  0  0  0  0  0  0  0  0  0  0
    3.4964   -1.8110   -0.0426 C   0  0  2  0  0  0  0  0  0  0  0  0
    4.6112   -1.3707    0.9386 O   0  0  0  0  0  0  0  0  0  0  0  0
    3.3268   -0.2457   -0.6345 C   0  0  0  0  0  0  0  0  0  0  0  0
    4.6755    0.1620   -0.9388 N   0  0  0  0  0  0  0  0  0  0  0  0
    4.8090    1.5193   -0.4128 C   0  0  0  0  0  0  0  0  0  0  0  0
    6.2390    1.9513   -0.2846 C   0  0  0  0  0  0  0  0  0  0  0  0
    3.9774    2.4189   -1.2853 C   0  0  0  0  0  0  0  0  0  0  0  0
   -0.2811   -0.2849    0.3168 C   0  0  0  0  0  0  0  0  0  0  0  0
   -1.5971    0.0748    0.0555 C   0  0  0  0  0  0  0  0  0  0  0  0
  1  2  1  0
  2  3  1  0
  3  4  2  0
  3  5  1  0
  5  6  1  0
  6  7  1  0
  7  8  2  0
  8  9  1  0
  9 10  2  0
 10 11  1  0
 11 12  1  0
 13 12  1  1
 13 14  1  0
 13 15  1  0
 15 16  1  0
 16 17  1  0
 17 18  1  0
 17 19  1  0
 10 20  1  0
 20 21  2  0
 21  7  1  0
M  END
>  <supplier_code>  (54) 
DB00187

>  <zinc_id>  (54) 
ZINC000000000257

>  <catalog_short_name>  (54) 
dbfda

$$$$

     RDKit          3D

 21 21  0  0  0  0  0  0  0  0999 V2000
   -7.4388    0.6975   -0.7630 C   0  0  0  0  0  0  0  0  0  0  0  0
   -6.3470    1.1240   -0.3872 O   0  0  0  0  0  0  0  0  0  0  0  0
   -5.5899    0.5572    0.6433 C   0  0  0  0  0  0  0  0  0  0  0  0
   -6.0537   -0.5241    1.1170 O   0  0  0  0  0  0  0  0  0  0  0  0
   -4.0956    0.6512    0.6333 C   0  0  0  0  0  0  0  0  0  0  0  0
   -3.6617   -0.0158   -0.6654 C   0  0  0  0  0  0  0  0  0  0  0  0
   -2.5620   -1.0036   -0.4260 C   0  0  0  0  0  0  0  0  0  0  0  0
   -1.6245   -1.1691   -1.4400 C   0  0  0  0  0  0  0  0  0  0  0  0
   -0.2582   -1.1252   -1.1741 C   0  0  0  0  0  0  0  0  0  0  0  0
    0.2161   -0.9214    0.1210 C   0  0  0  0  0  0  0  0  0  0  0  0
    1.1909    0.0279    0.3446 O   0  0  0  0  0  0  0  0  0  0  0  0
    2.2446    0.0295    1.2057 C   0  0  0  0  0  0  0  0  0  0  0  0
    3.4964   -0.8069    0.5333 C   0  0  1  0  0  0  0  0  0  0  0  0
    3.1161   -0.4324   -0.8928 O   0  0  0  0  0  0  0  0  0  0  0  0
    4.5213    0.4814    0.7082 C   0  0  0  0  0  0  0  0  0  0  0  0
    5.1401    0.6640   -0.5423 N   0  0  0  0  0  0  0  0  0  0  0  0
    6.4054    1.1850   -0.6843 C   0  0  0  0  0  0  0  0  0  0  0  0
    6.5392    2.6056   -1.0736 C   0  0  0  0  0  0  0  0  0  0  0  0
    7.5386    0.5582    0.0245 C   0  0  0  0  0  0  0  0  0  0  0  0
   -0.7034   -1.3198    1.0878 C   0  0  0  0  0  0  0  0  0  0  0  0
   -2.0741   -1.2633    0.8493 C   0  0  0  0  0  0  0  0  0  0  0  0
  1  2  1  0
  2  3  1  0
  3  4  2  0
  3  5  1  0
  5  6  1  0
  6  7  1  0
  7  8  2  0
  8  9  1  0
  9 10  2  0
 10 11  1  0
 11 12  1  0
 13 12  1  1
 13 14  1  0
 13 15  1  0
 15 16  1  0
 16 17  1  0
 17 18  1  0
 17 19  1  0
 10 20  1  0
 20 21  2  0
 21  7  1  0
M  END
>  <supplier_code>  (55) 
DB00187

>  <zinc_id>  (55) 
ZINC000000896523

>  <catalog_short_name>  (55) 
dbfda

$$$$

     RDKit          3D

 28 29  0  0  0  0  0  0  0  0999 V2000
    4.9705    2.9582    1.1764 C   0  0  0  0  0  0  0  0  0  0  0  0
    4.5552    2.2373    0.0944 C   0  0  0  0  0  0  0  0  0  0  0  0
    5.5608    1.6367   -0.8191 C   0  0  0  0  0  0  0  0  0  0  0  0
    3.2123    1.6165    0.0970 C   0  0  0  0  0  0  0  0  0  0  0  0
    3.3572    0.1487   -0.6412 C   0  0  2  0  0  0  0  0  0  0  0  0
    2.0478   -0.4009    0.0509 N   0  0  0  0  0  0  0  0  0  0  0  0
    0.8880   -0.0082   -0.6712 C   0  0  0  0  0  0  0  0  0  0  0  0
    0.8645    0.4895   -1.7953 O   0  0  0  0  0  0  0  0  0  0  0  0
   -0.3936   -0.9347   -0.2543 C   0  0  2  0  0  0  0  0  0  0  0  0
   -0.4952   -1.6418   -1.7652 C   0  0  0  0  0  0  0  0  0  0  0  0
   -1.4651   -2.7369   -1.5743 C   0  0  0  0  0  0  0  0  0  0  0  0
   -2.7066   -2.5295   -0.9957 C   0  0  0  0  0  0  0  0  0  0  0  0
   -3.4090   -3.6015   -0.4668 C   0  0  0  0  0  0  0  0  0  0  0  0
   -2.7153   -4.7797   -0.2188 C   0  0  0  0  0  0  0  0  0  0  0  0
   -1.7027   -5.0711   -1.1252 C   0  0  0  0  0  0  0  0  0  0  0  0
   -1.1322   -4.0395   -1.8584 C   0  0  0  0  0  0  0  0  0  0  0  0
   -1.4428    0.2032   -0.6607 N   0  0  0  0  0  0  0  0  0  0  0  0
   -1.4455    1.2389    0.2983 C   0  0  0  0  0  0  0  0  0  0  0  0
   -0.3392    1.8226    0.4466 O   0  0  0  0  0  0  0  0  0  0  0  0
   -2.6184    1.8006    0.9335 C   0  0  0  0  0  0  0  0  0  0  0  0
   -3.9103    1.6102    0.5032 C   0  0  0  0  0  0  0  0  0  0  0  0
   -4.9224    2.3609    1.0023 N   0  0  0  0  0  0  0  0  0  0  0  0
   -4.5387    3.5917    1.4221 C   0  0  0  0  0  0  0  0  0  0  0  0
   -3.4052    3.6123    2.2254 C   0  0  0  0  0  0  0  0  0  0  0  0
   -2.4594    2.6828    1.9461 N   0  0  0  0  0  0  0  0  0  0  0  0
    4.3842   -0.4803    0.5936 B   0  0  0  0  0  0  0  0  0  0  0  0
    5.2338   -1.5502    0.1017 O   0  0  0  0  0  0  0  0  0  0  0  0
    4.0274   -0.2355    1.9547 O   0  0  0  0  0  0  0  0  0  0  0  0
  1  2  1  0
  2  3  1  0
  2  4  1  0
  5  4  1  1
  5  6  1  0
  6  7  1  0
  7  8  2  0
  9  7  1  6
  9 10  1  0
 10 11  1  0
 11 12  2  0
 12 13  1  0
 13 14  2  0
 14 15  1  0
 15 16  2  0
  9 17  1  0
 17 18  1  0
 18 19  2  0
 18 20  1  0
 20 21  2  0
 21 22  1  0
 22 23  2  0
 23 24  1  0
 24 25  2  0
  5 26  1  0
 26 27  1  0
 26 28  1  0
 16 11  1  0
 25 20  1  0
M  END
>  <supplier_code>  (56) 
DB00188

>  <zinc_id>  (56) 
ZINC000169746649

>  <catalog_short_name>  (56) 
dbfda

$$$$

     RDKit          3D

 16 16  0  0  0  0  0  0  0  0999 V2000
    1.5493   -0.0850    1.7435 C   0  0  0  0  0  0  0  0  0  0  0  0
    1.8291    0.1548    0.2852 C   0  0  1  0  0  0  0  0  0  0  0  0
    0.7900   -0.4163   -0.6275 C   0  0  0  0  0  0  0  0  0  0  0  0
   -0.5519   -0.5275   -0.0340 C   0  0  0  0  0  0  0  0  0  0  0  0
   -1.3512   -1.5927   -0.4334 C   0  0  0  0  0  0  0  0  0  0  0  0
   -2.7262   -1.4524   -0.5843 C   0  0  0  0  0  0  0  0  0  0  0  0
   -3.3426   -0.2341   -0.3252 C   0  0  0  0  0  0  0  0  0  0  0  0
   -4.4137    0.2252   -1.0983 O   0  0  0  0  0  0  0  0  0  0  0  0
   -2.6160    0.6428    0.4715 C   0  0  0  0  0  0  0  0  0  0  0  0
   -3.2723    1.7331    1.0016 O   0  0  0  0  0  0  0  0  0  0  0  0
   -1.2333    0.5251    0.5503 C   0  0  0  0  0  0  0  0  0  0  0  0
    2.0039    1.5535   -0.0322 N   0  0  0  0  0  0  0  0  0  0  0  0
    3.3262    1.9843    0.1118 N   0  0  0  0  0  0  0  0  0  0  0  0
    3.1057   -0.5684   -0.0161 C   0  0  0  0  0  0  0  0  0  0  0  0
    3.0421   -1.8312    0.0876 O   0  0  0  0  0  0  0  0  0  0  0  0
    3.8609   -0.1113   -1.1007 O   0  0  0  0  0  0  0  0  0  0  0  0
  2  1  1  1
  2  3  1  0
  3  4  1  0
  4  5  2  0
  5  6  1  0
  6  7  2  0
  7  8  1  0
  7  9  1  0
  9 10  1  0
  9 11  2  0
  2 12  1  0
 12 13  1  0
  2 14  1  0
 14 15  2  0
 14 16  1  0
 11  4  1  0
M  END
>  <supplier_code>  (57) 
DB00190

>  <zinc_id>  (57) 
ZINC000019168887

>  <catalog_short_name>  (57) 
dbfda

$$$$

     RDKit          3D

 11 11  0  0  0  0  0  0  0  0999 V2000
    1.9155   -1.1094    0.9807 C   0  0  0  0  0  0  0  0  0  0  0  0
    1.9625   -0.0012   -0.0338 C   0  0  0  0  0  0  0  0  0  0  0  0
    3.3046   -0.0371   -0.7591 C   0  0  0  0  0  0  0  0  0  0  0  0
    1.9192    1.2663    0.6598 N   0  0  0  0  0  0  0  0  0  0  0  0
    0.9126   -0.1360   -1.0979 C   0  0  0  0  0  0  0  0  0  0  0  0
   -0.4422    0.2264   -0.6022 C   0  0  0  0  0  0  0  0  0  0  0  0
   -0.6715    0.6697    0.6942 C   0  0  0  0  0  0  0  0  0  0  0  0
   -1.8754    0.3960    1.3292 C   0  0  0  0  0  0  0  0  0  0  0  0
   -2.7512   -0.5218    0.7627 C   0  0  0  0  0  0  0  0  0  0  0  0
   -2.6975   -0.6055   -0.6244 C   0  0  0  0  0  0  0  0  0  0  0  0
   -1.5765   -0.1475   -1.3091 C   0  0  0  0  0  0  0  0  0  0  0  0
  1  2  1  0
  2  3  1  0
  2  4  1  0
  2  5  1  0
  5  6  1  0
  6  7  2  0
  7  8  1  0
  8  9  2  0
  9 10  1  0
 10 11  2  0
 11  6  1  0
M  END
>  <supplier_code>  (58) 
DB00191

>  <zinc_id>  (58) 
ZINC000008403947

>  <catalog_short_name>  (58) 
dbfda

$$$$

     RDKit          3D

 19 20  0  0  0  0  0  0  0  0999 V2000
   -4.0469   -0.1942   -2.4167 C   0  0  0  0  0  0  0  0  0  0  0  0
   -3.6403   -0.1371   -2.0131 O   0  0  0  0  0  0  0  0  0  0  0  0
   -2.9279    0.0088   -0.8196 C   0  0  0  0  0  0  0  0  0  0  0  0
   -3.6072    0.4409    0.3103 C   0  0  0  0  0  0  0  0  0  0  0  0
   -2.8592    1.1510    1.2420 C   0  0  0  0  0  0  0  0  0  0  0  0
   -1.4709    1.1213    1.1942 C   0  0  0  0  0  0  0  0  0  0  0  0
   -0.7885    0.3550    0.2611 C   0  0  0  0  0  0  0  0  0  0  0  0
    0.4275   -0.3749    0.6791 C   0  0  1  0  0  0  0  0  0  0  0  0
    1.1722    0.2554    1.6332 O   0  0  0  0  0  0  0  0  0  0  0  0
    0.1236   -1.8176    1.0120 C   0  0  0  0  0  0  0  0  0  0  0  0
    0.8669   -2.7848    0.1180 C   0  0  0  0  0  0  0  0  0  0  0  0
    2.3658   -2.5116    0.1581 C   0  0  0  0  0  0  0  0  0  0  0  0
    2.6635   -1.0361    0.1838 C   0  0  0  0  0  0  0  0  0  0  0  0
    1.3750   -0.4479   -0.6737 C   0  0  2  0  0  0  0  0  0  0  0  0
    1.7939    1.1429   -0.5673 C   0  0  0  0  0  0  0  0  0  0  0  0
    2.9461    1.2915    0.2109 N   0  0  0  0  0  0  0  0  0  0  0  0
    4.2069    1.1138   -0.4867 C   0  0  0  0  0  0  0  0  0  0  0  0
    2.9538    2.6069    0.7849 C   0  0  0  0  0  0  0  0  0  0  0  0
   -1.5541   -0.1832   -0.7540 C   0  0  0  0  0  0  0  0  0  0  0  0
  1  2  1  0
  2  3  1  0
  3  4  2  0
  4  5  1  0
  5  6  2  0
  6  7  1  0
  8  7  1  6
  8  9  1  0
  8 10  1  0
 10 11  1  0
 11 12  1  0
 12 13  1  0
 13 14  1  0
 14 15  1  1
 15 16  1  0
 16 17  1  0
 16 18  1  0
  7 19  2  0
 19  3  1  0
 14  8  1  0
M  END
>  <supplier_code>  (59) 
DB00193

>  <zinc_id>  (59) 
ZINC000000000853

>  <catalog_short_name>  (59) 
dbfda

$$$$

     RDKit          3D

 22 23  0  0  0  0  0  0  0  0999 V2000
    5.6712    1.6798   -0.6876 C   0  0  0  0  0  0  0  0  0  0  0  0
    5.7152    0.3641   -0.7470 C   0  0  0  0  0  0  0  0  0  0  0  0
    6.8434   -0.4017   -0.1556 C   0  0  0  0  0  0  0  0  0  0  0  0
    4.7274   -0.3935   -1.4240 N   0  0  0  0  0  0  0  0  0  0  0  0
    3.5501   -0.6810   -0.6141 C   0  0  0  0  0  0  0  0  0  0  0  0
    4.2598   -0.7994    0.8754 C   0  0  2  0  0  0  0  0  0  0  0  0
    3.8013   -2.2424    1.0341 O   0  0  0  0  0  0  0  0  0  0  0  0
    2.9516   -0.2341    1.7094 C   0  0  0  0  0  0  0  0  0  0  0  0
    2.3118    0.6859    0.8824 O   0  0  0  0  0  0  0  0  0  0  0  0
    1.0098    0.3959    0.4653 C   0  0  0  0  0  0  0  0  0  0  0  0
    0.0890    1.3883    0.1771 C   0  0  0  0  0  0  0  0  0  0  0  0
   -1.2274    1.0546   -0.1055 C   0  0  0  0  0  0  0  0  0  0  0  0
   -1.7260   -0.2218    0.0800 C   0  0  0  0  0  0  0  0  0  0  0  0
   -2.8149   -0.7817   -0.7508 C   0  0  0  0  0  0  0  0  0  0  0  0
   -4.1326   -0.2247   -0.6180 C   0  0  0  0  0  0  0  0  0  0  0  0
   -4.3948    0.7455    0.2958 O   0  0  0  0  0  0  0  0  0  0  0  0
   -5.4611    1.4856   -0.2183 C   0  0  0  0  0  0  0  0  0  0  0  0
   -6.6314    0.5697   -0.5311 C   0  0  0  0  0  0  0  0  0  0  0  0
   -6.6576   -0.7463    0.2519 C   0  0  0  0  0  0  0  0  0  0  0  0
   -7.5547    0.4000    0.6716 C   0  0  0  0  0  0  0  0  0  0  0  0
   -0.8484   -1.1456    0.6375 C   0  0  0  0  0  0  0  0  0  0  0  0
    0.5185   -0.8971    0.6026 C   0  0  0  0  0  0  0  0  0  0  0  0
  1  2  1  0
  2  3  1  0
  2  4  1  0
  4  5  1  0
  6  5  1  6
  6  7  1  0
  6  8  1  0
  8  9  1  0
  9 10  1  0
 10 11  2  0
 11 12  1  0
 12 13  2  0
 13 14  1  0
 14 15  1  0
 15 16  1  0
 16 17  1  0
 17 18  1  0
 18 19  1  0
 19 20  1  0
 13 21  1  0
 21 22  2  0
 22 10  1  0
 20 18  1  0
M  END
>  <supplier_code>  (60) 
DB00195

>  <zinc_id>  (60) 
ZINC000001530567

>  <catalog_short_name>  (60) 
dbfda

$$$$

     RDKit          3D

 22 23  0  0  0  0  0  0  0  0999 V2000
   -6.7424    0.2334    0.7475 C   0  0  0  0  0  0  0  0  0  0  0  0
   -6.0735    0.9968    0.3404 C   0  0  0  0  0  0  0  0  0  0  0  0
   -5.6148    0.8360   -1.1044 C   0  0  0  0  0  0  0  0  0  0  0  0
   -4.8907    1.1580    1.1847 N   0  0  0  0  0  0  0  0  0  0  0  0
   -3.8561    0.3738    0.5660 C   0  0  0  0  0  0  0  0  0  0  0  0
   -2.7958    0.1496    1.8076 C   0  0  1  0  0  0  0  0  0  0  0  0
   -3.8515   -0.5594    2.6368 O   0  0  0  0  0  0  0  0  0  0  0  0
   -2.2501   -1.2752    1.1896 C   0  0  0  0  0  0  0  0  0  0  0  0
   -2.0509   -1.0872   -0.1692 O   0  0  0  0  0  0  0  0  0  0  0  0
   -1.2262   -0.1551   -0.7647 C   0  0  0  0  0  0  0  0  0  0  0  0
   -0.5923    0.8663   -0.0648 C   0  0  0  0  0  0  0  0  0  0  0  0
    0.7529    1.1449   -0.2859 C   0  0  0  0  0  0  0  0  0  0  0  0
    1.4993    0.4290   -1.2174 C   0  0  0  0  0  0  0  0  0  0  0  0
    2.8576   -0.0914   -0.8572 C   0  0  0  0  0  0  0  0  0  0  0  0
    3.8853    0.2225   -1.9047 C   0  0  0  0  0  0  0  0  0  0  0  0
    5.1201   -0.1717   -1.3869 O   0  0  0  0  0  0  0  0  0  0  0  0
    5.3790    0.5605   -0.2429 C   0  0  0  0  0  0  0  0  0  0  0  0
    6.2502   -0.1976    0.7238 C   0  0  0  0  0  0  0  0  0  0  0  0
    7.5981    0.4279    0.9462 C   0  0  0  0  0  0  0  0  0  0  0  0
    6.4942    0.4550    2.0390 C   0  0  0  0  0  0  0  0  0  0  0  0
    0.7265   -0.1782   -2.2028 C   0  0  0  0  0  0  0  0  0  0  0  0
   -0.6190   -0.4549   -1.9808 C   0  0  0  0  0  0  0  0  0  0  0  0
  1  2  1  0
  2  3  1  0
  2  4  1  0
  4  5  1  0
  6  5  1  6
  6  7  1  0
  6  8  1  0
  8  9  1  0
  9 10  1  0
 10 11  2  0
 11 12  1  0
 12 13  2  0
 13 14  1  0
 14 15  1  0
 15 16  1  0
 16 17  1  0
 17 18  1  0
 18 19  1  0
 19 20  1  0
 13 21  1  0
 21 22  2  0
 22 10  1  0
 20 18  1  0
M  END
>  <supplier_code>  (61) 
DB00195

>  <zinc_id>  (61) 
ZINC000001530568

>  <catalog_short_name>  (61) 
dbfda

$$$$

     RDKit          3D

 22 24  0  0  0  0  0  0  0  0999 V2000
   -0.9012    0.2407   -1.2720 O   0  0  0  0  0  0  0  0  0  0  0  0
   -0.2132    0.1265   -0.0669 C   0  0  0  0  0  0  0  0  0  0  0  0
    0.1203    1.4682    0.5293 C   0  0  0  0  0  0  0  0  0  0  0  0
   -0.9721    2.4045    0.4791 N   0  0  0  0  0  0  0  0  0  0  0  0
   -1.0239    3.5008    1.2742 C   0  0  0  0  0  0  0  0  0  0  0  0
   -1.8005    4.4103    0.6659 N   0  0  0  0  0  0  0  0  0  0  0  0
   -2.3590    3.8148   -0.3863 C   0  0  0  0  0  0  0  0  0  0  0  0
   -1.6024    2.7299   -0.6428 N   0  0  0  0  0  0  0  0  0  0  0  0
   -0.9873   -0.6457    0.9777 C   0  0  0  0  0  0  0  0  0  0  0  0
   -1.7790   -1.7095    0.4169 N   0  0  0  0  0  0  0  0  0  0  0  0
   -2.8674   -2.2602    1.0000 C   0  0  0  0  0  0  0  0  0  0  0  0
   -3.0215   -3.4880    0.4587 N   0  0  0  0  0  0  0  0  0  0  0  0
   -2.4619   -3.4125   -0.7705 C   0  0  0  0  0  0  0  0  0  0  0  0
   -1.4813   -2.4880   -0.6229 N   0  0  0  0  0  0  0  0  0  0  0  0
    1.0865   -0.5887   -0.2714 C   0  0  0  0  0  0  0  0  0  0  0  0
    1.5588   -1.4973    0.6616 C   0  0  0  0  0  0  0  0  0  0  0  0
    2.9256   -1.6870    0.8202 C   0  0  0  0  0  0  0  0  0  0  0  0
    3.8300   -0.8217    0.2178 C   0  0  0  0  0  0  0  0  0  0  0  0
    4.9772   -0.4293    0.8441 F   0  0  0  0  0  0  0  0  0  0  0  0
    3.3865   -0.2226   -0.9506 C   0  0  0  0  0  0  0  0  0  0  0  0
    2.0258    0.0270   -1.0907 C   0  0  0  0  0  0  0  0  0  0  0  0
    1.5599    0.5278   -2.2713 F   0  0  0  0  0  0  0  0  0  0  0  0
  1  2  1  0
  2  3  1  0
  3  4  1  0
  4  5  1  0
  5  6  2  0
  6  7  1  0
  7  8  2  0
  2  9  1  0
  9 10  1  0
 10 11  1  0
 11 12  2  0
 12 13  1  0
 13 14  2  0
  2 15  1  0
 15 16  2  0
 16 17  1  0
 17 18  2  0
 18 19  1  0
 18 20  1  0
 20 21  2  0
 21 22  1  0
  8  4  1  0
 14 10  1  0
 21 15  1  0
M  END
>  <supplier_code>  (62) 
DB00196

>  <zinc_id>  (62) 
ZINC000000004009

>  <catalog_short_name>  (62) 
dbfda

$$$$

     RDKit          3D

 22 22  0  0  0  0  0  0  0  0999 V2000
    5.5237   -0.8351    0.1596 C   0  0  0  0  0  0  0  0  0  0  0  0
    4.7164   -1.8624   -0.3235 C   0  0  0  0  0  0  0  0  0  0  0  0
    3.3969   -1.4659   -0.5751 O   0  0  0  0  0  0  0  0  0  0  0  0
    2.9548   -0.2660   -0.0106 C   0  0  0  0  0  0  0  0  0  0  0  0
    3.7726    0.7005   -0.1120 O   0  0  0  0  0  0  0  0  0  0  0  0
    1.5550    0.0322   -0.1341 C   0  0  0  0  0  0  0  0  0  0  0  0
    0.5713   -0.4883    0.6067 C   0  0  0  0  0  0  0  0  0  0  0  0
   -0.7437   -0.0019   -0.2650 C   0  0  1  0  0  0  0  0  0  0  0  0
   -1.6926   -0.6734    0.7339 O   0  0  0  0  0  0  0  0  0  0  0  0
   -1.9132   -1.9288    0.2871 C   0  0  0  0  0  0  0  0  0  0  0  0
   -3.2703   -2.4898    0.4839 C   0  0  0  0  0  0  0  0  0  0  0  0
   -3.7911   -3.3278   -0.6341 C   0  0  0  0  0  0  0  0  0  0  0  0
   -1.1128   -2.4457   -0.8301 C   0  0  0  0  0  0  0  0  0  0  0  0
   -0.9403   -3.9463   -0.6418 C   0  0  0  0  0  0  0  0  0  0  0  0
   -0.8509    1.4676    0.6383 C   0  0  2  0  0  0  0  0  0  0  0  0
   -1.8857    2.0636   -0.3592 N   0  0  0  0  0  0  0  0  0  0  0  0
   -2.7902    3.0283    0.1555 C   0  0  0  0  0  0  0  0  0  0  0  0
   -3.0170    4.3634   -0.4491 C   0  0  0  0  0  0  0  0  0  0  0  0
   -3.3579    2.6950    1.2400 O   0  0  0  0  0  0  0  0  0  0  0  0
    0.4386    2.2974   -0.1410 C   0  0  1  0  0  0  0  0  0  0  0  0
    1.3892    2.0320    1.1095 N   0  0  0  0  0  0  0  0  0  0  0  0
    1.0472    1.0514   -1.0297 C   0  0  0  0  0  0  0  0  0  0  0  0
  1  2  1  0
  2  3  1  0
  3  4  1  0
  4  5  2  0
  4  6  1  0
  6  7  2  0
  7  8  1  0
  8  9  1  1
  9 10  1  0
 10 11  1  0
 11 12  1  0
 10 13  1  0
 13 14  1  0
  8 15  1  0
 15 16  1  6
 16 17  1  0
 17 18  1  0
 17 19  2  0
 15 20  1  0
 20 21  1  1
 20 22  1  0
 22  6  1  0
M  END
>  <supplier_code>  (63) 
DB00198

>  <zinc_id>  (63) 
ZINC000003929508

>  <catalog_short_name>  (63) 
dbfda

$$$$

     RDKit          3D

 51 53  0  0  0  0  0  0  0  0999 V2000
   -2.3033   -3.3183    3.3532 C   0  0  0  0  0  0  0  0  0  0  0  0
   -3.1902   -3.5784    2.7430 C   0  0  0  0  0  0  0  0  0  0  0  0
   -3.0961   -3.0402    1.1864 C   0  0  1  0  0  0  0  0  0  0  0  0
   -1.6870   -2.4637    1.3669 O   0  0  0  0  0  0  0  0  0  0  0  0
   -1.5318   -1.1767    1.6360 C   0  0  0  0  0  0  0  0  0  0  0  0
   -1.1805   -0.6696    2.7624 O   0  0  0  0  0  0  0  0  0  0  0  0
   -2.5292   -0.1044    1.0280 C   0  0  2  0  0  0  0  0  0  0  0  0
   -3.0136   -0.9037   -0.2996 C   0  0  0  0  0  0  0  0  0  0  0  0
   -1.4302    0.8239    0.1026 C   0  0  1  0  0  0  0  0  0  0  0  0
   -1.7734    1.9773    1.0254 O   0  0  0  0  0  0  0  0  0  0  0  0
   -2.4721    2.5884   -0.1951 C   0  0  1  0  0  0  0  0  0  0  0  0
   -3.5596    3.5111    0.6742 C   0  0  0  0  0  0  0  0  0  0  0  0
   -3.8035    4.4701   -0.4355 C   0  0  1  0  0  0  0  0  0  0  0  0
   -3.6073    3.9553   -1.8118 C   0  0  0  0  0  0  0  0  0  0  0  0
   -5.0010    5.0459   -0.3482 O   0  0  0  0  0  0  0  0  0  0  0  0
   -5.8976    4.2183   -1.0363 C   0  0  0  0  0  0  0  0  0  0  0  0
   -2.6469    5.6165   -0.3487 C   0  0  1  0  0  0  0  0  0  0  0  0
   -3.3555    6.2901    0.8029 O   0  0  0  0  0  0  0  0  0  0  0  0
   -1.7037    4.6534    0.7223 C   0  0  2  0  0  0  0  0  0  0  0  0
   -0.3661    5.5054    0.3099 C   0  0  0  0  0  0  0  0  0  0  0  0
   -1.3958    3.6561   -0.3534 O   0  0  0  0  0  0  0  0  0  0  0  0
   -0.0037    0.3050    0.8220 C   0  0  2  0  0  0  0  0  0  0  0  0
    0.3580    1.6362    1.6553 C   0  0  0  0  0  0  0  0  0  0  0  0
    1.0452    0.8410   -0.4053 C   0  0  1  0  0  0  0  0  0  0  0  0
    2.1685    0.1293    0.3237 O   0  0  0  0  0  0  0  0  0  0  0  0
    3.4031    0.5882   -0.4309 C   0  0  2  0  0  0  0  0  0  0  0  0
    3.8878   -0.8398   -0.4878 O   0  0  0  0  0  0  0  0  0  0  0  0
    5.2523   -0.7865   -1.1452 C   0  0  2  0  0  0  0  0  0  0  0  0
    6.0310   -1.1202    0.2850 C   0  0  0  0  0  0  0  0  0  0  0  0
    5.5095    0.8061   -1.2510 C   0  0  0  0  0  0  0  0  0  0  0  0
    5.4503    1.7068    0.0556 C   0  0  2  0  0  0  0  0  0  0  0  0
    6.7948    1.1678    0.6666 N   0  0  0  0  0  0  0  0  0  0  0  0
    7.1302    2.0581    1.7547 C   0  0  0  0  0  0  0  0  0  0  0  0
    7.6819    1.5746   -0.4299 C   0  0  0  0  0  0  0  0  0  0  0  0
    4.3867    0.7467    0.9860 C   0  0  1  0  0  0  0  0  0  0  0  0
    3.7273    1.9953    1.4641 O   0  0  0  0  0  0  0  0  0  0  0  0
    0.7870   -0.3328   -1.5024 C   0  0  2  0  0  0  0  0  0  0  0  0
    1.8302    0.0673   -2.5570 C   0  0  0  0  0  0  0  0  0  0  0  0
   -0.3409   -0.0437   -2.2017 O   0  0  0  0  0  0  0  0  0  0  0  0
    1.0339   -1.6643   -1.0216 C   0  0  0  0  0  0  0  0  0  0  0  0
    0.8939   -2.4457   -2.4549 C   0  0  1  0  0  0  0  0  0  0  0  0
    1.9661   -3.6085   -2.0442 C   0  0  0  0  0  0  0  0  0  0  0  0
   -0.3729   -3.3466   -2.0847 C   0  0  0  0  0  0  0  0  0  0  0  0
   -1.2924   -2.9311   -2.7276 O   0  0  0  0  0  0  0  0  0  0  0  0
   -0.5485   -3.7300   -0.5607 C   0  0  2  0  0  0  0  0  0  0  0  0
    0.2097   -5.1524   -0.7247 C   0  0  0  0  0  0  0  0  0  0  0  0
   -2.1639   -4.2622   -0.8357 C   0  0  1  0  0  0  0  0  0  0  0  0
   -1.8970   -5.7252   -1.0696 O   0  0  0  0  0  0  0  0  0  0  0  0
   -2.5049   -4.5050    0.7403 C   0  0  1  0  0  0  0  0  0  0  0  0
   -1.3267   -4.8233    1.5014 C   0  0  0  0  0  0  0  0  0  0  0  0
   -3.5526   -5.3619    0.7955 O   0  0  0  0  0  0  0  0  0  0  0  0
  1  2  1  0
  3  2  1  1
  3  4  1  0
  4  5  1  0
  5  6  2  0
  5  7  1  0
  7  8  1  6
  7  9  1  0
  9 10  1  1
 11 10  1  1
 11 12  1  0
 12 13  1  0
 13 14  1  6
 13 15  1  0
 15 16  1  0
 13 17  1  0
 17 18  1  1
 17 19  1  0
 19 20  1  6
 19 21  1  0
  9 22  1  0
 22 23  1  1
 22 24  1  0
 24 25  1  1
 26 25  1  1
 26 27  1  0
 27 28  1  0
 28 29  1  1
 28 30  1  0
 30 31  1  0
 31 32  1  1
 32 33  1  0
 32 34  1  0
 31 35  1  0
 35 36  1  1
 24 37  1  0
 37 38  1  6
 37 39  1  0
 37 40  1  0
 40 41  1  0
 41 42  1  1
 41 43  1  0
 43 44  2  0
 43 45  1  0
 45 46  1  6
 45 47  1  0
 47 48  1  6
 47 49  1  0
 49 50  1  1
 49 51  1  0
 49  3  1  0
 21 11  1  0
 35 26  1  0
M  END
>  <supplier_code>  (64) 
DB00199

>  <zinc_id>  (64) 
ZINC000085534336

>  <catalog_short_name>  (64) 
dbfda

$$$$

     RDKit          3D

 14 15  0  0  0  0  0  0  0  0999 V2000
   -2.7178    1.7315    0.7516 C   0  0  0  0  0  0  0  0  0  0  0  0
   -2.0937    0.6911   -0.0535 N   0  0  0  0  0  0  0  0  0  0  0  0
   -2.6804   -0.4221   -0.5555 C   0  0  0  0  0  0  0  0  0  0  0  0
   -1.8027   -1.4505   -0.4626 N   0  0  0  0  0  0  0  0  0  0  0  0
   -0.5667   -0.9240   -0.3232 C   0  0  0  0  0  0  0  0  0  0  0  0
   -0.7690    0.4452   -0.2091 C   0  0  0  0  0  0  0  0  0  0  0  0
    0.3314    1.2421    0.0464 C   0  0  0  0  0  0  0  0  0  0  0  0
    0.1825    2.4266    0.4174 O   0  0  0  0  0  0  0  0  0  0  0  0
    1.5551    0.6809   -0.0051 N   0  0  0  0  0  0  0  0  0  0  0  0
    2.6679    1.5546   -0.3678 C   0  0  0  0  0  0  0  0  0  0  0  0
    1.7037   -0.6653   -0.0843 C   0  0  0  0  0  0  0  0  0  0  0  0
    2.8579   -1.0735    0.2488 O   0  0  0  0  0  0  0  0  0  0  0  0
    0.6367   -1.5018   -0.0939 N   0  0  0  0  0  0  0  0  0  0  0  0
    0.6949   -2.7348    0.6907 C   0  0  0  0  0  0  0  0  0  0  0  0
  1  2  1  0
  2  3  1  0
  3  4  2  0
  4  5  1  0
  5  6  2  0
  6  7  1  0
  7  8  2  0
  7  9  1  0
  9 10  1  0
  9 11  1  0
 11 12  2  0
 11 13  1  0
 13 14  1  0
  6  2  1  0
 13  5  1  0
M  END
>  <supplier_code>  (65) 
DB00201

>  <zinc_id>  (65) 
ZINC000000001084

>  <catalog_short_name>  (65) 
dbfda

$$$$

     RDKit          3D

 20 19  0  0  0  0  0  0  0  0999 V2000
   -3.9601   -1.3403   -0.8857 C   0  0  0  0  0  0  0  0  0  0  0  0
   -4.9925   -0.7998   -0.0331 N   0  0  0  0  0  0  0  0  0  0  0  0
   -6.2262   -0.8012   -0.8143 C   0  0  0  0  0  0  0  0  0  0  0  0
   -5.1354   -1.6133    1.1488 C   0  0  0  0  0  0  0  0  0  0  0  0
   -4.6411    0.5802    0.2886 C   0  0  0  0  0  0  0  0  0  0  0  0
   -4.1106    1.2283   -0.9631 C   0  0  0  0  0  0  0  0  0  0  0  0
   -2.6863    1.1588   -0.9503 O   0  0  0  0  0  0  0  0  0  0  0  0
   -2.0811    1.5451    0.2493 C   0  0  0  0  0  0  0  0  0  0  0  0
   -2.6732    1.3708    1.3556 O   0  0  0  0  0  0  0  0  0  0  0  0
   -0.6095    1.7219    0.3132 C   0  0  0  0  0  0  0  0  0  0  0  0
    0.0181    0.4786   -0.2784 C   0  0  0  0  0  0  0  0  0  0  0  0
    1.4934    0.4537   -0.0294 C   0  0  0  0  0  0  0  0  0  0  0  0
    2.2751    1.2427   -0.6414 O   0  0  0  0  0  0  0  0  0  0  0  0
    2.1087   -0.5348    0.7269 O   0  0  0  0  0  0  0  0  0  0  0  0
    3.2897   -1.1867    0.2788 C   0  0  0  0  0  0  0  0  0  0  0  0
    4.5358   -0.6089    0.8903 C   0  0  0  0  0  0  0  0  0  0  0  0
    5.5803   -0.6873   -0.1256 N   0  0  0  0  0  0  0  0  0  0  0  0
    6.2484    0.5969   -0.2305 C   0  0  0  0  0  0  0  0  0  0  0  0
    6.5353   -1.7314    0.2383 C   0  0  0  0  0  0  0  0  0  0  0  0
    5.0314   -1.0735   -1.4227 C   0  0  0  0  0  0  0  0  0  0  0  0
  1  2  1  0
  2  3  1  0
  2  4  1  0
  2  5  1  0
  5  6  1  0
  6  7  1  0
  7  8  1  0
  8  9  2  0
  8 10  1  0
 10 11  1  0
 11 12  1  0
 12 13  2  0
 12 14  1  0
 14 15  1  0
 15 16  1  0
 16 17  1  0
 17 18  1  0
 17 19  1  0
 17 20  1  0
M  CHG  2   2   1  17   1
M  END
>  <supplier_code>  (66) 
DB00202

>  <zinc_id>  (66) 
ZINC000001530820

>  <catalog_short_name>  (66) 
dbfda

$$$$

     RDKit          3D

 33 36  0  0  0  0  0  0  0  0999 V2000
   -6.3622    3.7706    0.5615 C   0  0  0  0  0  0  0  0  0  0  0  0
   -5.3472    3.4098    1.6370 C   0  0  0  0  0  0  0  0  0  0  0  0
   -4.1270    2.7383    1.0188 C   0  0  0  0  0  0  0  0  0  0  0  0
   -4.4995    1.4487    0.3688 C   0  0  0  0  0  0  0  0  0  0  0  0
   -5.5865    1.1656   -0.3873 N   0  0  0  0  0  0  0  0  0  0  0  0
   -5.3258    0.1852   -1.2245 N   0  0  0  0  0  0  0  0  0  0  0  0
   -6.0342   -0.2938   -2.3848 C   0  0  0  0  0  0  0  0  0  0  0  0
   -4.2089   -0.4035   -0.7552 C   0  0  0  0  0  0  0  0  0  0  0  0
   -3.6584    0.3523    0.2609 C   0  0  0  0  0  0  0  0  0  0  0  0
   -2.3638    0.1752    0.6174 N   0  0  0  0  0  0  0  0  0  0  0  0
   -1.7017   -0.8987    0.1423 C   0  0  0  0  0  0  0  0  0  0  0  0
   -0.2497   -1.0395    0.3062 C   0  0  0  0  0  0  0  0  0  0  0  0
    0.5297    0.0538    0.6183 C   0  0  0  0  0  0  0  0  0  0  0  0
    1.8975   -0.1073    0.7817 C   0  0  0  0  0  0  0  0  0  0  0  0
    3.0376    1.1857    0.4306 S   0  0  0  0  0  0  0  0  0  0  0  0
    2.7151    2.3971    1.2580 O   0  0  0  0  0  0  0  0  0  0  0  0
    2.8907    1.4976   -1.0387 O   0  0  0  0  0  0  0  0  0  0  0  0
    4.5855    0.6342    0.8546 N   0  0  0  0  0  0  0  0  0  0  0  0
    5.0885   -0.4528    0.0942 C   0  0  0  0  0  0  0  0  0  0  0  0
    6.2829   -0.1471   -0.7548 C   0  0  0  0  0  0  0  0  0  0  0  0
    7.3041    0.6070   -0.0768 N   0  0  0  0  0  0  0  0  0  0  0  0
    7.9988   -0.1368    0.9387 C   0  0  0  0  0  0  0  0  0  0  0  0
    6.7006    1.8226    0.3974 C   0  0  0  0  0  0  0  0  0  0  0  0
    5.5098    1.6190    1.2750 C   0  0  0  0  0  0  0  0  0  0  0  0
    2.3363   -1.4116    0.9728 C   0  0  0  0  0  0  0  0  0  0  0  0
    1.5764   -2.4940    0.5494 C   0  0  0  0  0  0  0  0  0  0  0  0
    0.3084   -2.2858    0.0462 C   0  0  0  0  0  0  0  0  0  0  0  0
   -0.2343   -3.0795   -0.9696 O   0  0  0  0  0  0  0  0  0  0  0  0
    0.3141   -3.0074   -2.2791 C   0  0  0  0  0  0  0  0  0  0  0  0
    0.6398   -1.6008   -2.6952 C   0  0  0  0  0  0  0  0  0  0  0  0
   -2.4200   -1.8531   -0.4750 N   0  0  0  0  0  0  0  0  0  0  0  0
   -3.6248   -1.6183   -1.0427 C   0  0  0  0  0  0  0  0  0  0  0  0
   -3.9718   -2.2328   -2.0960 O   0  0  0  0  0  0  0  0  0  0  0  0
  1  2  1  0
  2  3  1  0
  3  4  1  0
  4  5  2  0
  5  6  1  0
  6  7  1  0
  6  8  1  0
  8  9  2  0
  9 10  1  0
 10 11  2  0
 11 12  1  0
 12 13  2  0
 13 14  1  0
 14 15  1  0
 15 16  2  0
 15 17  2  0
 15 18  1  0
 18 19  1  0
 19 20  1  0
 20 21  1  0
 21 22  1  0
 21 23  1  0
 23 24  1  0
 14 25  2  0
 25 26  1  0
 26 27  2  0
 27 28  1  0
 28 29  1  0
 29 30  1  0
 11 31  1  0
 31 32  1  0
 32 33  2  0
  9  4  1  0
 27 12  1  0
 32  8  1  0
 24 18  1  0
M  END
>  <supplier_code>  (67) 
DB00203

>  <zinc_id>  (67) 
ZINC000019796168

>  <catalog_short_name>  (67) 
dbfda

$$$$

     RDKit          3D

 29 30  0  0  0  0  0  0  0  0999 V2000
    1.1100   -1.1044   -1.0304 C   0  0  0  0  0  0  0  0  0  0  0  0
    0.3140    0.1153   -0.9514 N   0  0  0  0  0  0  0  0  0  0  0  0
   -1.0675   -0.3186   -0.7624 C   0  0  0  0  0  0  0  0  0  0  0  0
   -1.2067   -0.8733    0.6481 C   0  0  0  0  0  0  0  0  0  0  0  0
   -1.8659   -2.1198    0.6482 O   0  0  0  0  0  0  0  0  0  0  0  0
   -3.2498   -2.2479    0.5004 C   0  0  0  0  0  0  0  0  0  0  0  0
   -3.8104   -2.6155   -0.7165 C   0  0  0  0  0  0  0  0  0  0  0  0
   -5.0165   -2.0676   -1.1332 C   0  0  0  0  0  0  0  0  0  0  0  0
   -5.6758   -1.1114   -0.3722 C   0  0  0  0  0  0  0  0  0  0  0  0
   -6.3736   -0.0803   -1.0443 N   0  0  0  0  0  0  0  0  0  0  0  0
   -6.9917    1.3096   -0.2541 S   0  0  0  0  0  0  0  0  0  0  0  0
   -8.2956    0.9146    0.8747 C   0  0  0  0  0  0  0  0  0  0  0  0
   -7.5634    2.2155   -1.3161 O   0  0  0  0  0  0  0  0  0  0  0  0
   -5.9468    2.0820    0.4824 O   0  0  0  0  0  0  0  0  0  0  0  0
   -5.2810   -1.0236    0.9544 C   0  0  0  0  0  0  0  0  0  0  0  0
   -4.1280   -1.6555    1.3998 C   0  0  0  0  0  0  0  0  0  0  0  0
    0.6891    0.7882    0.2899 C   0  0  0  0  0  0  0  0  0  0  0  0
    1.5312   -0.1071    1.1760 C   0  0  0  0  0  0  0  0  0  0  0  0
    2.9510   -0.0648    0.7258 C   0  0  0  0  0  0  0  0  0  0  0  0
    3.8633   -1.0495    0.9912 C   0  0  0  0  0  0  0  0  0  0  0  0
    4.9878   -1.1715    0.1917 C   0  0  0  0  0  0  0  0  0  0  0  0
    5.4102   -0.0880   -0.5427 C   0  0  0  0  0  0  0  0  0  0  0  0
    6.7840    0.1302   -0.8851 N   0  0  0  0  0  0  0  0  0  0  0  0
    7.5250    1.6779   -0.6204 S   0  0  0  0  0  0  0  0  0  0  0  0
    9.2256    1.5269   -0.1697 C   0  0  0  0  0  0  0  0  0  0  0  0
    6.7335    2.3425    0.4838 O   0  0  0  0  0  0  0  0  0  0  0  0
    7.4142    2.5164   -1.8666 O   0  0  0  0  0  0  0  0  0  0  0  0
    4.5761    1.0110   -0.6115 C   0  0  0  0  0  0  0  0  0  0  0  0
    3.3578    1.0689    0.0536 C   0  0  0  0  0  0  0  0  0  0  0  0
  1  2  1  0
  2  3  1  0
  3  4  1  0
  4  5  1  0
  5  6  1  0
  6  7  2  0
  7  8  1  0
  8  9  2  0
  9 10  1  0
 10 11  1  0
 11 12  1  0
 11 13  2  0
 11 14  2  0
  9 15  1  0
 15 16  2  0
  2 17  1  0
 17 18  1  0
 18 19  1  0
 19 20  2  0
 20 21  1  0
 21 22  2  0
 22 23  1  0
 23 24  1  0
 24 25  1  0
 24 26  2  0
 24 27  2  0
 22 28  1  0
 28 29  2  0
 16  6  1  0
 29 19  1  0
M  END
>  <supplier_code>  (68) 
DB00204

>  <zinc_id>  (68) 
ZINC000000596731

>  <catalog_short_name>  (68) 
dbfda

$$$$

     RDKit          3D

 17 18  0  0  0  0  0  0  0  0999 V2000
   -1.9193    3.3555   -0.2104 C   0  0  0  0  0  0  0  0  0  0  0  0
   -1.1854    2.2502   -0.9099 C   0  0  0  0  0  0  0  0  0  0  0  0
   -1.5282    0.9047   -0.3542 C   0  0  0  0  0  0  0  0  0  0  0  0
   -2.8028    0.4411   -0.3436 N   0  0  0  0  0  0  0  0  0  0  0  0
   -3.0928   -0.8705   -0.4887 C   0  0  0  0  0  0  0  0  0  0  0  0
   -4.4357   -1.3625   -0.5125 N   0  0  0  0  0  0  0  0  0  0  0  0
   -2.1241   -1.7466   -0.8028 N   0  0  0  0  0  0  0  0  0  0  0  0
   -0.8631   -1.4025   -0.5043 C   0  0  0  0  0  0  0  0  0  0  0  0
    0.2108   -2.3362   -0.4410 N   0  0  0  0  0  0  0  0  0  0  0  0
   -0.5282   -0.0592   -0.3905 C   0  0  0  0  0  0  0  0  0  0  0  0
    0.8143    0.3706    0.0227 C   0  0  0  0  0  0  0  0  0  0  0  0
    1.5768    1.1911   -0.8012 C   0  0  0  0  0  0  0  0  0  0  0  0
    2.9607    1.0552   -0.8044 C   0  0  0  0  0  0  0  0  0  0  0  0
    3.5807   -0.0229   -0.1814 C   0  0  0  0  0  0  0  0  0  0  0  0
    4.9296   -0.8729   -0.9284 Cl  0  0  0  0  0  0  0  0  0  0  0  0
    2.8903   -0.5444    0.9018 C   0  0  0  0  0  0  0  0  0  0  0  0
    1.5164   -0.3506    0.9814 C   0  0  0  0  0  0  0  0  0  0  0  0
  1  2  1  0
  2  3  1  0
  3  4  2  0
  4  5  1  0
  5  6  1  0
  5  7  2  0
  7  8  1  0
  8  9  1  0
  8 10  2  0
 10 11  1  0
 11 12  2  0
 12 13  1  0
 13 14  2  0
 14 15  1  0
 14 16  1  0
 16 17  2  0
 10  3  1  0
 17 11  1  0
M  END
>  <supplier_code>  (69) 
DB00205

>  <zinc_id>  (69) 
ZINC000000057464

>  <catalog_short_name>  (69) 
dbfda

$$$$

     RDKit          3D

 44 49  0  0  0  0  0  0  0  0999 V2000
   -0.3417   -3.0509    1.2442 C   0  0  0  0  0  0  0  0  0  0  0  0
   -0.5552   -1.8885    0.5523 O   0  0  0  0  0  0  0  0  0  0  0  0
    0.3437   -1.1359   -0.2443 C   0  0  0  0  0  0  0  0  0  0  0  0
    1.2789   -2.0306   -0.2463 O   0  0  0  0  0  0  0  0  0  0  0  0
    0.6945    0.2196    0.4931 C   0  0  2  0  0  0  0  0  0  0  0  0
   -0.9069    0.6534    0.9570 C   0  0  1  0  0  0  0  0  0  0  0  0
   -0.3934    1.9120    1.5804 O   0  0  0  0  0  0  0  0  0  0  0  0
   -0.1053    1.7048    2.8919 C   0  0  0  0  0  0  0  0  0  0  0  0
   -1.3623    1.5310   -0.4316 C   0  0  2  0  0  0  0  0  0  0  0  0
   -2.8572    1.2808   -0.3510 O   0  0  0  0  0  0  0  0  0  0  0  0
   -3.3968    0.2489    0.2937 C   0  0  0  0  0  0  0  0  0  0  0  0
   -2.9053    0.0502    1.4403 O   0  0  0  0  0  0  0  0  0  0  0  0
   -4.8624    0.1106    0.2634 C   0  0  0  0  0  0  0  0  0  0  0  0
   -5.6304    1.2556    0.4102 C   0  0  0  0  0  0  0  0  0  0  0  0
   -6.8989    1.2239    0.9378 C   0  0  0  0  0  0  0  0  0  0  0  0
   -7.5433    2.3794    1.3897 O   0  0  0  0  0  0  0  0  0  0  0  0
   -6.8578    3.2607    2.2380 C   0  0  0  0  0  0  0  0  0  0  0  0
   -7.5212   -0.0029    1.1329 C   0  0  0  0  0  0  0  0  0  0  0  0
   -8.8215   -0.0653    1.6303 O   0  0  0  0  0  0  0  0  0  0  0  0
   -9.6713    1.0731    1.4698 C   0  0  0  0  0  0  0  0  0  0  0  0
   -6.7817   -1.1357    1.0185 C   0  0  0  0  0  0  0  0  0  0  0  0
   -7.3976   -2.3895    0.9246 O   0  0  0  0  0  0  0  0  0  0  0  0
   -8.2360   -2.7805    1.9663 C   0  0  0  0  0  0  0  0  0  0  0  0
   -5.3978   -0.9943    0.9182 C   0  0  0  0  0  0  0  0  0  0  0  0
   -1.1039    0.2866   -1.4679 C   0  0  0  0  0  0  0  0  0  0  0  0
    0.2396    0.9862   -2.0840 C   0  0  2  0  0  0  0  0  0  0  0  0
    1.1784   -0.2845   -2.3754 C   0  0  0  0  0  0  0  0  0  0  0  0
    2.5179    0.1880   -2.5947 N   0  0  0  0  0  0  0  0  0  0  0  0
    3.2861   -0.7604   -3.2857 C   0  0  0  0  0  0  0  0  0  0  0  0
    4.2543   -1.5741   -2.4333 C   0  0  0  0  0  0  0  0  0  0  0  0
    5.0213   -0.6604   -1.5485 C   0  0  0  0  0  0  0  0  0  0  0  0
    6.3096   -0.6507   -1.0669 C   0  0  0  0  0  0  0  0  0  0  0  0
    7.1997   -1.6527   -0.7345 C   0  0  0  0  0  0  0  0  0  0  0  0
    8.4092   -1.2054   -0.2137 C   0  0  0  0  0  0  0  0  0  0  0  0
    8.7159    0.1322   -0.0147 C   0  0  0  0  0  0  0  0  0  0  0  0
   10.0674    0.4761    0.0518 O   0  0  0  0  0  0  0  0  0  0  0  0
   10.4230    1.8468   -0.1318 C   0  0  0  0  0  0  0  0  0  0  0  0
    7.6960    1.0228   -0.1857 C   0  0  0  0  0  0  0  0  0  0  0  0
    6.4205    0.6116   -0.5049 C   0  0  0  0  0  0  0  0  0  0  0  0
    5.1542    0.9996   -0.2054 N   0  0  0  0  0  0  0  0  0  0  0  0
    4.3851    0.5382   -1.2314 C   0  0  0  0  0  0  0  0  0  0  0  0
    2.8439    0.0901   -1.0504 C   0  0  1  0  0  0  0  0  0  0  0  0
    2.3515    1.6122   -0.8383 C   0  0  0  0  0  0  0  0  0  0  0  0
    0.7573    1.5106   -0.5642 C   0  0  2  0  0  0  0  0  0  0  0  0
  1  2  1  0
  2  3  1  0
  3  4  2  0
  5  3  1  6
  5  6  1  0
  6  7  1  1
  7  8  1  0
  6  9  1  0
  9 10  1  1
 10 11  1  0
 11 12  2  0
 11 13  1  0
 13 14  2  0
 14 15  1  0
 15 16  1  0
 16 17  1  0
 15 18  2  0
 18 19  1  0
 19 20  1  0
 18 21  1  0
 21 22  1  0
 22 23  1  0
 21 24  2  0
  9 25  1  0
 26 25  1  1
 26 27  1  0
 27 28  1  0
 28 29  1  0
 29 30  1  0
 30 31  1  0
 31 32  1  0
 32 33  2  0
 33 34  1  0
 34 35  2  0
 35 36  1  0
 36 37  1  0
 35 38  1  0
 38 39  2  0
 39 40  1  0
 40 41  1  0
 42 41  1  6
 42 43  1  0
 44 43  1  6
 44  5  1  0
 24 13  1  0
 44 26  1  0
 42 28  1  0
 41 31  2  0
 39 32  1  0
M  END
>  <supplier_code>  (70) 
DB00206

>  <zinc_id>  (70) 
ZINC000003938746

>  <catalog_short_name>  (70) 
dbfda

$$$$

     RDKit          3D

 52 54  0  0  0  0  0  0  0  0999 V2000
   -3.6152   -3.4110   -1.9693 C   0  0  0  0  0  0  0  0  0  0  0  0
   -3.1950   -3.2249   -1.8875 C   0  0  0  0  0  0  0  0  0  0  0  0
   -2.5394   -2.6359   -0.4926 C   0  0  1  0  0  0  0  0  0  0  0  0
   -3.3252   -1.3105   -0.5946 O   0  0  0  0  0  0  0  0  0  0  0  0
   -2.5063   -0.1762   -0.7190 C   0  0  0  0  0  0  0  0  0  0  0  0
   -2.1061    0.2953   -1.8236 O   0  0  0  0  0  0  0  0  0  0  0  0
   -1.4684   -0.1861    0.4936 C   0  0  2  0  0  0  0  0  0  0  0  0
   -2.5250    0.4303    1.5585 C   0  0  0  0  0  0  0  0  0  0  0  0
   -0.6077    1.2280    0.0556 C   0  0  1  0  0  0  0  0  0  0  0  0
   -1.2864    2.2202    0.9618 O   0  0  0  0  0  0  0  0  0  0  0  0
   -2.5603    2.4697    0.1408 C   0  0  1  0  0  0  0  0  0  0  0  0
   -3.2566    3.4705    1.2680 C   0  0  0  0  0  0  0  0  0  0  0  0
   -3.2066    4.8397    0.8233 C   0  0  1  0  0  0  0  0  0  0  0  0
   -4.2726    5.5579    1.6548 C   0  0  0  0  0  0  0  0  0  0  0  0
   -2.0270    5.4238    1.0169 O   0  0  0  0  0  0  0  0  0  0  0  0
   -2.2253    6.7049    1.5251 C   0  0  0  0  0  0  0  0  0  0  0  0
   -3.8439    5.1928   -0.6220 C   0  0  1  0  0  0  0  0  0  0  0  0
   -2.7974    6.2171   -1.0107 O   0  0  0  0  0  0  0  0  0  0  0  0
   -3.0257    4.0137   -1.5873 C   0  0  2  0  0  0  0  0  0  0  0  0
   -4.2101    2.9449   -1.1998 C   0  0  0  0  0  0  0  0  0  0  0  0
   -1.9597    3.6544   -0.5885 O   0  0  0  0  0  0  0  0  0  0  0  0
    0.6300    0.8618    1.1430 C   0  0  2  0  0  0  0  0  0  0  0  0
    1.2190    2.3378    0.9381 C   0  0  0  0  0  0  0  0  0  0  0  0
    1.7555    0.2170    0.0351 C   0  0  1  0  0  0  0  0  0  0  0  0
    2.8707    0.1947    1.0271 O   0  0  0  0  0  0  0  0  0  0  0  0
    3.8727    1.2651    0.6801 C   0  0  2  0  0  0  0  0  0  0  0  0
    3.6100    1.3147   -0.8064 O   0  0  0  0  0  0  0  0  0  0  0  0
    4.4885    2.4691   -1.2597 C   0  0  2  0  0  0  0  0  0  0  0  0
    5.3697    1.5109   -2.3030 C   0  0  0  0  0  0  0  0  0  0  0  0
    5.6572    2.5481   -0.1727 C   0  0  0  0  0  0  0  0  0  0  0  0
    6.1026    1.4380    0.8485 C   0  0  2  0  0  0  0  0  0  0  0  0
    7.4470    1.0400    0.1220 N   0  0  0  0  0  0  0  0  0  0  0  0
    7.2575   -0.2018   -0.5358 C   0  0  0  0  0  0  0  0  0  0  0  0
    8.3720    0.7707    1.2378 C   0  0  0  0  0  0  0  0  0  0  0  0
    5.1433    0.1821    0.2013 C   0  0  1  0  0  0  0  0  0  0  0  0
    5.2263   -0.6135    1.4587 O   0  0  0  0  0  0  0  0  0  0  0  0
    1.4425   -1.3809    0.3116 C   0  0  2  0  0  0  0  0  0  0  0  0
    0.8053   -1.5905    1.5988 C   0  0  0  0  0  0  0  0  0  0  0  0
    2.6609   -2.0376    0.5547 O   0  0  0  0  0  0  0  0  0  0  0  0
    1.0898   -1.7446   -0.9880 C   0  0  0  0  0  0  0  0  0  0  0  0
    0.9147   -3.3050   -1.3828 C   0  0  1  0  0  0  0  0  0  0  0  0
    2.4876   -3.7282   -1.2346 C   0  0  0  0  0  0  0  0  0  0  0  0
    0.5417   -3.8118    0.1341 C   0  0  0  0  0  0  0  0  0  0  0  0
   -0.6878   -4.5002   -0.2880 N   0  0  0  0  0  0  0  0  0  0  0  0
   -0.2500   -5.7372   -0.7987 C   0  0  0  0  0  0  0  0  0  0  0  0
   -1.5761   -4.6208    0.9752 C   0  0  2  0  0  0  0  0  0  0  0  0
   -1.3367   -6.2133    1.1908 C   0  0  0  0  0  0  0  0  0  0  0  0
   -2.9873   -4.8944    0.0377 C   0  0  1  0  0  0  0  0  0  0  0  0
   -3.6889   -5.5575    1.1919 O   0  0  0  0  0  0  0  0  0  0  0  0
   -3.6209   -3.4398    0.4267 C   0  0  1  0  0  0  0  0  0  0  0  0
   -3.3975   -3.1828    1.8417 C   0  0  0  0  0  0  0  0  0  0  0  0
   -4.8594   -3.3087   -0.0970 O   0  0  0  0  0  0  0  0  0  0  0  0
  1  2  1  0
  3  2  1  6
  3  4  1  0
  4  5  1  0
  5  6  2  0
  5  7  1  0
  7  8  1  1
  7  9  1  0
  9 10  1  1
 11 10  1  1
 11 12  1  0
 12 13  1  0
 13 14  1  1
 13 15  1  0
 15 16  1  0
 13 17  1  0
 17 18  1  6
 17 19  1  0
 19 20  1  1
 19 21  1  0
  9 22  1  0
 22 23  1  6
 22 24  1  0
 24 25  1  1
 26 25  1  1
 26 27  1  0
 27 28  1  0
 28 29  1  6
 28 30  1  0
 30 31  1  0
 31 32  1  6
 32 33  1  0
 32 34  1  0
 31 35  1  0
 35 36  1  1
 24 37  1  0
 37 38  1  1
 37 39  1  0
 37 40  1  0
 40 41  1  0
 41 42  1  1
 41 43  1  0
 43 44  1  0
 44 45  1  0
 44 46  1  0
 46 47  1  1
 46 48  1  0
 48 49  1  1
 48 50  1  0
 50 51  1  1
 50 52  1  0
 50  3  1  0
 21 11  1  0
 35 26  1  0
M  END
>  <supplier_code>  (71) 
DB00207

>  <zinc_id>  (71) 
ZINC000085537026

>  <catalog_short_name>  (71) 
dbfda

$$$$

     RDKit          3D

 17 19  0  0  0  0  0  0  0  0999 V2000
   -1.7499    2.0106   -0.4229 Cl  0  0  0  0  0  0  0  0  0  0  0  0
   -2.6032    0.6612    0.2668 C   0  0  0  0  0  0  0  0  0  0  0  0
   -3.9779    0.7587    0.3810 C   0  0  0  0  0  0  0  0  0  0  0  0
   -4.7725   -0.3538    0.5537 C   0  0  0  0  0  0  0  0  0  0  0  0
   -4.1435   -1.5658    0.8047 C   0  0  0  0  0  0  0  0  0  0  0  0
   -2.7630   -1.6032    0.8506 C   0  0  0  0  0  0  0  0  0  0  0  0
   -1.9686   -0.5707    0.3652 C   0  0  0  0  0  0  0  0  0  0  0  0
   -0.7687   -0.8910   -0.4693 C   0  0  0  0  0  0  0  0  0  0  0  0
    0.2533    0.1273   -0.3741 N   0  0  0  0  0  0  0  0  0  0  0  0
    0.8188    0.2929   -1.6824 C   0  0  0  0  0  0  0  0  0  0  0  0
    1.9267    1.3391   -1.6615 C   0  0  0  0  0  0  0  0  0  0  0  0
    2.9874    0.7778   -0.7642 C   0  0  0  0  0  0  0  0  0  0  0  0
    4.5888    0.1984   -0.9930 S   0  0  0  0  0  0  0  0  0  0  0  0
    4.7498   -0.7249    0.4476 C   0  0  0  0  0  0  0  0  0  0  0  0
    3.6689   -0.2235    1.1640 C   0  0  0  0  0  0  0  0  0  0  0  0
    2.5924   -0.0045    0.3154 C   0  0  0  0  0  0  0  0  0  0  0  0
    1.1613   -0.2288    0.6578 C   0  0  0  0  0  0  0  0  0  0  0  0
  1  2  1  0
  2  3  2  0
  3  4  1  0
  4  5  2  0
  5  6  1  0
  6  7  2  0
  7  8  1  0
  8  9  1  0
  9 10  1  0
 10 11  1  0
 11 12  1  0
 12 13  1  0
 13 14  1  0
 14 15  2  0
 15 16  1  0
 16 17  1  0
  7  2  1  0
 17  9  1  0
 16 12  2  0
M  END
>  <supplier_code>  (72) 
DB00208

>  <zinc_id>  (72) 
ZINC000019594599

>  <catalog_short_name>  (72) 
dbfda

$$$$

     RDKit          3D

 29 33  0  0  0  0  0  0  0  0999 V2000
   -0.2848   -0.2369   -0.7089 O   0  0  0  0  0  0  0  0  0  0  0  0
   -0.4660   -0.1995   -0.4135 C   0  0  0  0  0  0  0  0  0  0  0  0
    0.1764   -0.7718    0.6589 O   0  0  0  0  0  0  0  0  0  0  0  0
    1.6026   -0.7974    0.5312 C   0  0  0  0  0  0  0  0  0  0  0  0
    1.8666   -1.1415   -0.8610 C   0  0  0  0  0  0  0  0  0  0  0  0
    3.4772   -1.3846   -1.0702 C   0  0  1  0  0  0  0  0  0  0  0  0
    3.6842   -0.1317   -2.1183 C   0  0  0  0  0  0  0  0  0  0  0  0
    2.7596    0.7841   -1.4695 C   0  0  0  0  0  0  0  0  0  0  0  0
    3.4550    0.8807    0.0130 C   0  0  1  0  0  0  0  0  0  0  0  0
    2.0611    0.5554    0.8258 C   0  0  0  0  0  0  0  0  0  0  0  0
    4.0116   -0.5481    0.0989 N   0  0  0  0  0  0  0  0  0  0  0  0
    5.3662   -0.2836   -0.4023 C   0  0  0  0  0  0  0  0  0  0  0  0
    5.9201    0.4127    0.8372 C   0  0  0  0  0  0  0  0  0  0  0  0
    5.4287   -0.5755    1.8915 C   0  0  0  0  0  0  0  0  0  0  0  0
    4.1351   -1.1153    1.2891 C   0  0  0  0  0  0  0  0  0  0  0  0
   -1.8426    0.2321   -0.6219 C   0  0  0  0  0  0  0  0  0  0  0  0
   -1.8601    0.5554   -1.9956 O   0  0  0  0  0  0  0  0  0  0  0  0
   -2.7559   -0.8958   -0.3780 C   0  0  0  0  0  0  0  0  0  0  0  0
   -2.5655   -1.5927    0.7972 C   0  0  0  0  0  0  0  0  0  0  0  0
   -3.2646   -2.7463    1.0174 C   0  0  0  0  0  0  0  0  0  0  0  0
   -4.1802   -3.1394    0.0785 C   0  0  0  0  0  0  0  0  0  0  0  0
   -4.5403   -2.3084   -0.9601 C   0  0  0  0  0  0  0  0  0  0  0  0
   -3.8947   -1.0904   -1.1147 C   0  0  0  0  0  0  0  0  0  0  0  0
   -2.2486    1.4326    0.1157 C   0  0  0  0  0  0  0  0  0  0  0  0
   -1.8759    2.6744   -0.3833 C   0  0  0  0  0  0  0  0  0  0  0  0
   -2.5605    3.8288   -0.0202 C   0  0  0  0  0  0  0  0  0  0  0  0
   -3.9113    3.6785    0.2688 C   0  0  0  0  0  0  0  0  0  0  0  0
   -4.2542    2.5216    0.9584 C   0  0  0  0  0  0  0  0  0  0  0  0
   -3.4391    1.4023    0.8316 C   0  0  0  0  0  0  0  0  0  0  0  0
  1  2  2  0
  2  3  1  0
  3  4  1  0
  4  5  1  0
  6  5  1  1
  6  7  1  0
  7  8  1  0
  9  8  1  6
  9 10  1  0
  9 11  1  0
 11 12  1  0
 12 13  1  0
 13 14  1  0
 14 15  1  0
  2 16  1  0
 16 17  1  0
 16 18  1  0
 18 19  2  0
 19 20  1  0
 20 21  2  0
 21 22  1  0
 22 23  2  0
 16 24  1  0
 24 25  2  0
 25 26  1  0
 26 27  2  0
 27 28  1  0
 28 29  2  0
 10  4  1  0
 15 11  1  0
 23 18  1  0
 29 24  1  0
 11  6  1  0
M  CHG  1  11   1
M  END
>  <supplier_code>  (73) 
DB00209

>  <zinc_id>  (73) 
ZINC000012503068

>  <catalog_short_name>  (73) 
dbfda

$$$$

     RDKit          3D

 29 33  0  0  0  0  0  0  0  0999 V2000
   -0.5364   -1.0868    0.7048 O   0  0  0  0  0  0  0  0  0  0  0  0
   -0.6224   -0.7832    0.6595 C   0  0  0  0  0  0  0  0  0  0  0  0
    0.2421   -0.5512   -0.3526 O   0  0  0  0  0  0  0  0  0  0  0  0
    1.7400   -0.8149   -0.0733 C   0  0  1  0  0  0  0  0  0  0  0  0
    2.1108    0.3205   -1.1900 C   0  0  0  0  0  0  0  0  0  0  0  0
    3.7533    0.3141   -1.1793 C   0  0  1  0  0  0  0  0  0  0  0  0
    3.8711    1.9360   -0.9043 C   0  0  0  0  0  0  0  0  0  0  0  0
    2.7222    2.0448   -0.0276 C   0  0  0  0  0  0  0  0  0  0  0  0
    3.1991    1.0055    1.1568 C   0  0  1  0  0  0  0  0  0  0  0  0
    1.7562    0.2203    1.1863 C   0  0  0  0  0  0  0  0  0  0  0  0
    3.9955    0.0091    0.3014 N   0  0  0  0  0  0  0  0  0  0  0  0
    4.1541   -1.2342    0.7137 C   0  0  0  0  0  0  0  0  0  0  0  0
    5.4035   -1.6986   -0.0128 C   0  0  0  0  0  0  0  0  0  0  0  0
    6.2373   -0.4445   -0.1816 C   0  0  0  0  0  0  0  0  0  0  0  0
    5.3361    0.6035    0.4455 C   0  0  0  0  0  0  0  0  0  0  0  0
   -1.9921   -0.2846    0.8826 C   0  0  0  0  0  0  0  0  0  0  0  0
   -2.2419   -0.2861    2.2661 O   0  0  0  0  0  0  0  0  0  0  0  0
   -2.2674    1.0593    0.4026 C   0  0  0  0  0  0  0  0  0  0  0  0
   -2.0804    1.3979   -0.9287 C   0  0  0  0  0  0  0  0  0  0  0  0
   -2.8087    2.3517   -1.5865 C   0  0  0  0  0  0  0  0  0  0  0  0
   -3.5167    3.2481   -0.8016 C   0  0  0  0  0  0  0  0  0  0  0  0
   -3.5088    3.1038    0.5773 C   0  0  0  0  0  0  0  0  0  0  0  0
   -2.8583    2.0482    1.1917 C   0  0  0  0  0  0  0  0  0  0  0  0
   -2.8985   -1.2270    0.1971 C   0  0  0  0  0  0  0  0  0  0  0  0
   -2.9263   -1.1592   -1.1739 C   0  0  0  0  0  0  0  0  0  0  0  0
   -3.7560   -1.9284   -1.9359 C   0  0  0  0  0  0  0  0  0  0  0  0
   -4.4259   -2.9444   -1.2654 C   0  0  0  0  0  0  0  0  0  0  0  0
   -4.5003   -2.9826    0.1124 C   0  0  0  0  0  0  0  0  0  0  0  0
   -3.5811   -2.2371    0.8156 C   0  0  0  0  0  0  0  0  0  0  0  0
  1  2  2  0
  2  3  1  0
  4  3  1  6
  4  5  1  0
  6  5  1  1
  6  7  1  0
  7  8  1  0
  9  8  1  6
  9 10  1  0
  9 11  1  0
 11 12  1  0
 12 13  1  0
 13 14  1  0
 14 15  1  0
  2 16  1  0
 16 17  1  0
 16 18  1  0
 18 19  2  0
 19 20  1  0
 20 21  2  0
 21 22  1  0
 22 23  2  0
 16 24  1  0
 24 25  2  0
 25 26  1  0
 26 27  2  0
 27 28  1  0
 28 29  2  0
 10  4  1  0
 15 11  1  0
 23 18  1  0
 29 24  1  0
 11  6  1  0
M  CHG  1  11   1
M  END
>  <supplier_code>  (74) 
DB00209

>  <zinc_id>  (74) 
ZINC000100016084

>  <catalog_short_name>  (74) 
dbfda

$$$$

     RDKit          3D

 29 33  0  0  0  0  0  0  0  0999 V2000
   -0.2910   -0.3864    1.4546 O   0  0  0  0  0  0  0  0  0  0  0  0
   -0.6254    0.1664    0.3719 C   0  0  0  0  0  0  0  0  0  0  0  0
    0.4138    0.3171   -0.5251 O   0  0  0  0  0  0  0  0  0  0  0  0
    1.7190   -0.0025   -0.3807 C   0  0  0  0  0  0  0  0  0  0  0  0
    2.4859    0.8312   -1.4666 C   0  0  0  0  0  0  0  0  0  0  0  0
    3.1718    1.0740   -0.0230 C   0  0  2  0  0  0  0  0  0  0  0  0
    4.4256    2.0456   -0.2641 C   0  0  0  0  0  0  0  0  0  0  0  0
    4.2576    1.7384    1.2595 C   0  0  0  0  0  0  0  0  0  0  0  0
    3.7248    0.1712    1.3530 C   0  0  1  0  0  0  0  0  0  0  0  0
    2.1012    0.3375    1.0689 C   0  0  0  0  0  0  0  0  0  0  0  0
    4.1303   -0.1558   -0.1506 N   0  0  0  0  0  0  0  0  0  0  0  0
    3.6975   -1.4106   -0.0964 C   0  0  0  0  0  0  0  0  0  0  0  0
    4.8843   -2.1655    0.4435 C   0  0  0  0  0  0  0  0  0  0  0  0
    6.0410   -1.1826    0.4113 C   0  0  0  0  0  0  0  0  0  0  0  0
    5.4610    0.1268   -0.0799 C   0  0  0  0  0  0  0  0  0  0  0  0
   -1.9629   -0.0037   -0.2378 C   0  0  0  0  0  0  0  0  0  0  0  0
   -1.9320    0.0316   -1.6406 O   0  0  0  0  0  0  0  0  0  0  0  0
   -2.8873    1.1038    0.1573 C   0  0  0  0  0  0  0  0  0  0  0  0
   -4.1619    0.9868   -0.3864 C   0  0  0  0  0  0  0  0  0  0  0  0
   -5.0271    2.0703   -0.4362 C   0  0  0  0  0  0  0  0  0  0  0  0
   -4.4828    3.3301   -0.4815 C   0  0  0  0  0  0  0  0  0  0  0  0
   -3.2136    3.5050    0.0383 C   0  0  0  0  0  0  0  0  0  0  0  0
   -2.4384    2.4087    0.3059 C   0  0  0  0  0  0  0  0  0  0  0  0
   -2.4846   -1.3106    0.2315 C   0  0  0  0  0  0  0  0  0  0  0  0
   -1.9553   -2.4433   -0.3702 C   0  0  0  0  0  0  0  0  0  0  0  0
   -2.6624   -3.6325   -0.4360 C   0  0  0  0  0  0  0  0  0  0  0  0
   -4.0274   -3.6194   -0.2492 C   0  0  0  0  0  0  0  0  0  0  0  0
   -4.5957   -2.4717    0.2793 C   0  0  0  0  0  0  0  0  0  0  0  0
   -3.7660   -1.4602    0.7481 C   0  0  0  0  0  0  0  0  0  0  0  0
  1  2  2  0
  2  3  1  0
  3  4  1  0
  4  5  1  0
  6  5  1  6
  6  7  1  0
  7  8  1  0
  9  8  1  6
  9 10  1  0
  9 11  1  0
 11 12  1  0
 12 13  1  0
 13 14  1  0
 14 15  1  0
  2 16  1  0
 16 17  1  0
 16 18  1  0
 18 19  2  0
 19 20  1  0
 20 21  2  0
 21 22  1  0
 22 23  2  0
 16 24  1  0
 24 25  2  0
 25 26  1  0
 26 27  2  0
 27 28  1  0
 28 29  2  0
 10  4  1  0
 15 11  1  0
 23 18  1  0
 29 24  1  0
 11  6  1  0
M  CHG  1  11   1
M  END
>  <supplier_code>  (75) 
DB00209

>  <zinc_id>  (75) 
ZINC000100018594

>  <catalog_short_name>  (75) 
dbfda

$$$$

     RDKit          3D

 29 33  0  0  0  0  0  0  0  0999 V2000
   -0.0249   -0.1394   -0.2738 O   0  0  0  0  0  0  0  0  0  0  0  0
   -0.3557   -0.3203    0.0735 C   0  0  0  0  0  0  0  0  0  0  0  0
    0.3116    0.1717    1.1882 O   0  0  0  0  0  0  0  0  0  0  0  0
    1.6223    0.3838    0.8569 C   0  0  0  0  0  0  0  0  0  0  0  0
    2.6324    0.0427    1.9766 C   0  0  0  0  0  0  0  0  0  0  0  0
    3.2241    0.8347    0.6605 C   0  0  1  0  0  0  0  0  0  0  0  0
    4.2660    1.8903    1.2956 C   0  0  0  0  0  0  0  0  0  0  0  0
    3.6481    2.2273   -0.1122 C   0  0  0  0  0  0  0  0  0  0  0  0
    3.5356    0.7822   -0.9194 C   0  0  2  0  0  0  0  0  0  0  0  0
    1.9961    0.3150   -0.5439 C   0  0  0  0  0  0  0  0  0  0  0  0
    4.3249   -0.1054    0.1943 N   0  0  0  0  0  0  0  0  0  0  0  0
    4.9508   -0.4035   -0.8979 C   0  0  0  0  0  0  0  0  0  0  0  0
    4.9284   -1.8689   -1.3011 C   0  0  0  0  0  0  0  0  0  0  0  0
    4.4221   -2.4905   -0.0078 C   0  0  0  0  0  0  0  0  0  0  0  0
    3.5320   -1.3311    0.3535 C   0  0  0  0  0  0  0  0  0  0  0  0
   -1.6986   -0.1250   -0.4394 C   0  0  0  0  0  0  0  0  0  0  0  0
   -1.4221   -0.1502   -1.8298 O   0  0  0  0  0  0  0  0  0  0  0  0
   -2.6411   -1.2155   -0.2045 C   0  0  0  0  0  0  0  0  0  0  0  0
   -2.5348   -2.2489    0.6668 C   0  0  0  0  0  0  0  0  0  0  0  0
   -3.4504   -3.2890    0.5517 C   0  0  0  0  0  0  0  0  0  0  0  0
   -4.3814   -3.3227   -0.4734 C   0  0  0  0  0  0  0  0  0  0  0  0
   -4.7055   -2.1233   -1.0716 C   0  0  0  0  0  0  0  0  0  0  0  0
   -3.7855   -1.1179   -0.9891 C   0  0  0  0  0  0  0  0  0  0  0  0
   -2.2616    1.1720   -0.0625 C   0  0  0  0  0  0  0  0  0  0  0  0
   -2.7636    1.9612   -1.0825 C   0  0  0  0  0  0  0  0  0  0  0  0
   -3.3353    3.1709   -0.7788 C   0  0  0  0  0  0  0  0  0  0  0  0
   -3.9058    3.3465    0.4638 C   0  0  0  0  0  0  0  0  0  0  0  0
   -3.4491    2.5373    1.4926 C   0  0  0  0  0  0  0  0  0  0  0  0
   -2.6791    1.4161    1.2136 C   0  0  0  0  0  0  0  0  0  0  0  0
  1  2  2  0
  2  3  1  0
  3  4  1  0
  4  5  1  0
  6  5  1  1
  6  7  1  0
  7  8  1  0
  9  8  1  1
  9 10  1  0
  9 11  1  0
 11 12  1  0
 12 13  1  0
 13 14  1  0
 14 15  1  0
  2 16  1  0
 16 17  1  0
 16 18  1  0
 18 19  2  0
 19 20  1  0
 20 21  2  0
 21 22  1  0
 22 23  2  0
 16 24  1  0
 24 25  2  0
 25 26  1  0
 26 27  2  0
 27 28  1  0
 28 29  2  0
 10  4  1  0
 15 11  1  0
 23 18  1  0
 29 24  1  0
 11  6  1  0
M  CHG  1  11   1
M  END
>  <supplier_code>  (76) 
DB00209

>  <zinc_id>  (76) 
ZINC000100018598

>  <catalog_short_name>  (76) 
dbfda

$$$$

     RDKit          3D

 31 36  0  0  0  0  0  0  0  0999 V2000
   -3.1852   -3.7792    0.1148 C   0  0  0  0  0  0  0  0  0  0  0  0
   -3.4160   -2.5091    0.6803 O   0  0  0  0  0  0  0  0  0  0  0  0
   -2.3848   -1.6559    1.0855 C   0  0  0  0  0  0  0  0  0  0  0  0
   -1.3307   -2.1127    1.8677 C   0  0  0  0  0  0  0  0  0  0  0  0
   -0.0912   -1.5113    1.6906 C   0  0  0  0  0  0  0  0  0  0  0  0
    0.1266   -0.5451    0.7166 C   0  0  0  0  0  0  0  0  0  0  0  0
    1.4187   -0.4574    0.0275 C   0  0  0  0  0  0  0  0  0  0  0  0
    2.1404   -1.5942   -0.3151 C   0  0  0  0  0  0  0  0  0  0  0  0
    3.5296   -1.6149   -0.3014 C   0  0  0  0  0  0  0  0  0  0  0  0
    4.1601   -0.3990   -0.1486 C   0  0  0  0  0  0  0  0  0  0  0  0
    5.5079   -0.2621    0.1052 C   0  0  0  0  0  0  0  0  0  0  0  0
    6.2030    0.8784   -0.2774 C   0  0  0  0  0  0  0  0  0  0  0  0
    7.6694    0.8184   -0.3101 C   0  0  0  0  0  0  0  0  0  0  0  0
    8.2782   -0.2914   -0.2959 O   0  0  0  0  0  0  0  0  0  0  0  0
    8.4527    1.9600   -0.1698 O   0  0  0  0  0  0  0  0  0  0  0  0
    5.4950    1.8707   -0.9447 C   0  0  0  0  0  0  0  0  0  0  0  0
    4.1124    1.9009   -0.8194 C   0  0  0  0  0  0  0  0  0  0  0  0
    3.4465    0.7652   -0.3985 C   0  0  0  0  0  0  0  0  0  0  0  0
    2.0812    0.7524   -0.1406 C   0  0  0  0  0  0  0  0  0  0  0  0
   -1.0039    0.1169    0.2571 C   0  0  0  0  0  0  0  0  0  0  0  0
   -2.2661   -0.3670    0.5794 C   0  0  0  0  0  0  0  0  0  0  0  0
   -3.5206    0.2780    0.1436 C   0  0  0  0  0  0  0  0  0  0  0  0
   -4.4162    0.3688    1.3738 C   0  0  0  0  0  0  0  0  0  0  0  0
   -5.7930    0.8678    1.0206 C   0  0  0  0  0  0  0  0  0  0  0  0
   -5.6411    2.2424    0.4276 C   0  0  0  0  0  0  0  0  0  0  0  0
   -4.7116    2.1881   -0.7704 C   0  0  0  0  0  0  0  0  0  0  0  0
   -5.3676    1.2675   -1.7847 C   0  0  0  0  0  0  0  0  0  0  0  0
   -5.5601   -0.1234   -1.2289 C   0  0  0  0  0  0  0  0  0  0  0  0
   -6.4044   -0.0836    0.0164 C   0  0  0  0  0  0  0  0  0  0  0  0
   -4.1954   -0.6422   -0.8346 C   0  0  0  0  0  0  0  0  0  0  0  0
   -3.3338    1.6732   -0.3708 C   0  0  0  0  0  0  0  0  0  0  0  0
  1  2  1  0
  2  3  1  0
  3  4  2  0
  4  5  1  0
  5  6  2  0
  6  7  1  0
  7  8  2  0
  8  9  1  0
  9 10  2  0
 10 11  1  0
 11 12  2  0
 12 13  1  0
 13 14  2  0
 13 15  1  0
 12 16  1  0
 16 17  2  0
 17 18  1  0
 18 19  2  0
  6 20  1  0
 20 21  2  0
 21 22  1  0
 22 23  1  0
 23 24  1  0
 24 25  1  0
 25 26  1  0
 26 27  1  0
 27 28  1  0
 28 29  1  0
 28 30  1  0
 26 31  1  0
 21  3  1  0
 30 22  1  0
 19  7  1  0
 31 22  1  0
 18 10  1  0
 29 24  1  0
M  END
>  <supplier_code>  (77) 
DB00210

>  <zinc_id>  (77) 
ZINC000003784182

>  <catalog_short_name>  (77) 
dbfda

$$$$

     RDKit          3D

 18 18  0  0  0  0  0  0  0  0999 V2000
   -3.0161    3.3187   -0.0201 C   0  0  0  0  0  0  0  0  0  0  0  0
   -2.4787    2.7503   -0.2201 O   0  0  0  0  0  0  0  0  0  0  0  0
   -2.2065    1.3890   -0.3930 C   0  0  0  0  0  0  0  0  0  0  0  0
   -3.3061    0.5475   -0.4233 C   0  0  0  0  0  0  0  0  0  0  0  0
   -3.1307   -0.8266   -0.5105 C   0  0  0  0  0  0  0  0  0  0  0  0
   -1.8975   -1.2961   -0.1292 C   0  0  0  0  0  0  0  0  0  0  0  0
   -1.6878   -2.5977    0.3452 O   0  0  0  0  0  0  0  0  0  0  0  0
   -2.1500   -2.8148    1.6785 C   0  0  0  0  0  0  0  0  0  0  0  0
   -0.8250   -0.4777    0.2017 C   0  0  0  0  0  0  0  0  0  0  0  0
    0.5789   -1.0066   -0.5008 C   0  0  2  0  0  0  0  0  0  0  0  0
    0.4163   -2.4486    0.0504 O   0  0  0  0  0  0  0  0  0  0  0  0
    1.4605   -0.5609    0.8654 C   0  0  0  0  0  0  0  0  0  0  0  0
    2.8132   -0.7484    0.4205 N   0  0  0  0  0  0  0  0  0  0  0  0
    3.5803    0.4160    0.1194 C   0  0  0  0  0  0  0  0  0  0  0  0
    3.5244    1.3507    0.9668 O   0  0  0  0  0  0  0  0  0  0  0  0
    4.5960    0.4044   -0.9747 C   0  0  0  0  0  0  0  0  0  0  0  0
    4.6848    1.7326   -1.5406 N   0  0  0  0  0  0  0  0  0  0  0  0
   -0.9559    0.8682   -0.1315 C   0  0  0  0  0  0  0  0  0  0  0  0
  1  2  1  0
  2  3  1  0
  3  4  2  0
  4  5  1  0
  5  6  2  0
  6  7  1  0
  7  8  1  0
  6  9  1  0
 10  9  1  1
 10 11  1  0
 10 12  1  0
 12 13  1  0
 13 14  1  0
 14 15  2  0
 14 16  1  0
 16 17  1  0
  9 18  2  0
 18  3  1  0
M  END
>  <supplier_code>  (78) 
DB00211

>  <zinc_id>  (78) 
ZINC000000000507

>  <catalog_short_name>  (78) 
dbfda

$$$$

     RDKit          3D

 18 18  0  0  0  0  0  0  0  0999 V2000
   -3.8209    2.8822   -0.3249 C   0  0  0  0  0  0  0  0  0  0  0  0
   -3.1972    2.4962   -0.0055 O   0  0  0  0  0  0  0  0  0  0  0  0
   -2.7481    1.1914    0.2158 C   0  0  0  0  0  0  0  0  0  0  0  0
   -3.5237    0.1201   -0.2167 C   0  0  0  0  0  0  0  0  0  0  0  0
   -2.9615   -1.1321    0.0102 C   0  0  0  0  0  0  0  0  0  0  0  0
   -1.6400   -1.2490    0.4309 C   0  0  0  0  0  0  0  0  0  0  0  0
   -1.1794   -2.5447    0.6050 O   0  0  0  0  0  0  0  0  0  0  0  0
   -1.0581   -3.4726   -0.4725 C   0  0  0  0  0  0  0  0  0  0  0  0
   -0.8342   -0.1256    0.6218 C   0  0  0  0  0  0  0  0  0  0  0  0
    0.6626   -0.5162    0.0285 C   0  0  1  0  0  0  0  0  0  0  0  0
    1.1170    0.9668   -0.0848 O   0  0  0  0  0  0  0  0  0  0  0  0
    1.2848   -0.6552    1.5884 C   0  0  0  0  0  0  0  0  0  0  0  0
    2.5362    0.0204    1.5723 N   0  0  0  0  0  0  0  0  0  0  0  0
    3.4666    0.0172    0.5008 C   0  0  0  0  0  0  0  0  0  0  0  0
    3.4812   -1.0500   -0.1761 O   0  0  0  0  0  0  0  0  0  0  0  0
    4.2819    1.2141    0.1285 C   0  0  0  0  0  0  0  0  0  0  0  0
    5.5151    0.8359   -0.5175 N   0  0  0  0  0  0  0  0  0  0  0  0
   -1.3824    1.0010    0.0341 C   0  0  0  0  0  0  0  0  0  0  0  0
  1  2  1  0
  2  3  1  0
  3  4  2  0
  4  5  1  0
  5  6  2  0
  6  7  1  0
  7  8  1  0
  6  9  1  0
 10  9  1  1
 10 11  1  0
 10 12  1  0
 12 13  1  0
 13 14  1  0
 14 15  2  0
 14 16  1  0
 16 17  1  0
  9 18  2  0
 18  3  1  0
M  END
>  <supplier_code>  (79) 
DB00211

>  <zinc_id>  (79) 
ZINC000000403079

>  <catalog_short_name>  (79) 
dbfda

$$$$

     RDKit          3D

 26 28  0  0  0  0  0  0  0  0999 V2000
    6.3206   -1.6659   -1.1704 C   0  0  0  0  0  0  0  0  0  0  0  0
    6.2400   -0.3993   -1.3784 O   0  0  0  0  0  0  0  0  0  0  0  0
    5.3999    0.3563   -0.5550 C   0  0  0  0  0  0  0  0  0  0  0  0
    5.9194    1.3141    0.3054 C   0  0  0  0  0  0  0  0  0  0  0  0
    5.1241    1.8825    1.2923 C   0  0  0  0  0  0  0  0  0  0  0  0
    3.9130    1.3563    1.5795 N   0  0  0  0  0  0  0  0  0  0  0  0
    3.3776    0.4139    0.7872 C   0  0  0  0  0  0  0  0  0  0  0  0
    2.2324   -0.4072    1.2446 C   0  0  0  0  0  0  0  0  0  0  0  0
    0.9230    0.6789    1.9489 S   0  0  0  0  0  0  0  0  0  0  0  0
    0.4018   -0.2433    3.0917 O   0  0  0  0  0  0  0  0  0  0  0  0
   -0.4048    0.4705    0.7337 C   0  0  0  0  0  0  0  0  0  0  0  0
   -0.7144   -0.6318    0.0502 N   0  0  0  0  0  0  0  0  0  0  0  0
   -1.9210   -0.4788   -0.5485 C   0  0  0  0  0  0  0  0  0  0  0  0
   -2.7876   -1.4083   -1.1061 C   0  0  0  0  0  0  0  0  0  0  0  0
   -4.1557   -1.3627   -0.8678 C   0  0  0  0  0  0  0  0  0  0  0  0
   -4.6862   -0.4114   -0.0049 C   0  0  0  0  0  0  0  0  0  0  0  0
   -5.7204   -0.7680    0.8655 O   0  0  0  0  0  0  0  0  0  0  0  0
   -7.0657   -0.4367    0.6364 C   0  0  0  0  0  0  0  0  0  0  0  0
   -7.2627    0.9214    0.6036 F   0  0  0  0  0  0  0  0  0  0  0  0
   -7.5916   -1.0943   -0.4463 F   0  0  0  0  0  0  0  0  0  0  0  0
   -3.8741    0.6913    0.2286 C   0  0  0  0  0  0  0  0  0  0  0  0
   -2.4994    0.6478    0.0242 C   0  0  0  0  0  0  0  0  0  0  0  0
   -1.4446    1.3197    0.5479 N   0  0  0  0  0  0  0  0  0  0  0  0
    4.1026   -0.0601   -0.2973 C   0  0  0  0  0  0  0  0  0  0  0  0
    3.4325   -0.7250   -1.3268 O   0  0  0  0  0  0  0  0  0  0  0  0
    2.7416    0.0401   -2.2832 C   0  0  0  0  0  0  0  0  0  0  0  0
  1  2  1  0
  2  3  1  0
  3  4  2  0
  4  5  1  0
  5  6  2  0
  6  7  1  0
  7  8  1  0
  9  8  1  6
  9 10  2  0
  9 11  1  0
 11 12  2  0
 12 13  1  0
 13 14  2  0
 14 15  1  0
 15 16  2  0
 16 17  1  0
 17 18  1  0
 18 19  1  0
 18 20  1  0
 16 21  1  0
 21 22  2  0
 22 23  1  0
  7 24  2  0
 24 25  1  0
 25 26  1  0
 24  3  1  0
 23 11  1  0
 22 13  1  0
M  END
>  <supplier_code>  (80) 
DB00213

>  <zinc_id>  (80) 
ZINC000004099200

>  <catalog_short_name>  (80) 
dbfda

$$$$

     RDKit          3D

 26 28  0  0  0  0  0  0  0  0999 V2000
    6.4619   -0.5382   -1.1627 C   0  0  0  0  0  0  0  0  0  0  0  0
    5.9826   -0.1534   -1.0022 O   0  0  0  0  0  0  0  0  0  0  0  0
    4.8934    0.4529   -0.3854 C   0  0  0  0  0  0  0  0  0  0  0  0
    4.7024    1.8100   -0.3688 C   0  0  0  0  0  0  0  0  0  0  0  0
    3.5855    2.3491    0.2534 C   0  0  0  0  0  0  0  0  0  0  0  0
    2.8510    1.5455    1.0562 N   0  0  0  0  0  0  0  0  0  0  0  0
    3.1588    0.2323    1.1905 C   0  0  0  0  0  0  0  0  0  0  0  0
    2.1050   -0.6447    1.7819 C   0  0  0  0  0  0  0  0  0  0  0  0
    1.2795   -1.4209    0.3306 S   0  0  0  0  0  0  0  0  0  0  0  0
    0.6127   -2.6460    1.0242 O   0  0  0  0  0  0  0  0  0  0  0  0
   -0.1405   -0.3133    0.1436 C   0  0  0  0  0  0  0  0  0  0  0  0
   -0.6613    0.1359   -1.0085 N   0  0  0  0  0  0  0  0  0  0  0  0
   -1.9125    0.6082   -0.7885 C   0  0  0  0  0  0  0  0  0  0  0  0
   -3.0222    0.6846   -1.6214 C   0  0  0  0  0  0  0  0  0  0  0  0
   -4.2946    0.3709   -1.1593 C   0  0  0  0  0  0  0  0  0  0  0  0
   -4.4835    0.2916    0.2150 C   0  0  0  0  0  0  0  0  0  0  0  0
   -5.6471   -0.3414    0.6627 O   0  0  0  0  0  0  0  0  0  0  0  0
   -6.9150    0.0548    0.1823 C   0  0  0  0  0  0  0  0  0  0  0  0
   -7.1889   -0.4715   -1.0554 F   0  0  0  0  0  0  0  0  0  0  0  0
   -7.0018    1.4370    0.2042 F   0  0  0  0  0  0  0  0  0  0  0  0
   -3.4161    0.5666    1.0390 C   0  0  0  0  0  0  0  0  0  0  0  0
   -2.1029    0.6210    0.5878 C   0  0  0  0  0  0  0  0  0  0  0  0
   -0.9430    0.1446    1.1055 N   0  0  0  0  0  0  0  0  0  0  0  0
    3.9672   -0.3682    0.2333 C   0  0  0  0  0  0  0  0  0  0  0  0
    3.6815   -1.6336   -0.2886 O   0  0  0  0  0  0  0  0  0  0  0  0
    4.4482   -2.7738    0.0050 C   0  0  0  0  0  0  0  0  0  0  0  0
  1  2  1  0
  2  3  1  0
  3  4  2  0
  4  5  1  0
  5  6  2  0
  6  7  1  0
  7  8  1  0
  9  8  1  1
  9 10  2  0
  9 11  1  0
 11 12  2  0
 12 13  1  0
 13 14  2  0
 14 15  1  0
 15 16  2  0
 16 17  1  0
 17 18  1  0
 18 19  1  0
 18 20  1  0
 16 21  1  0
 21 22  2  0
 22 23  1  0
  7 24  2  0
 24 25  1  0
 25 26  1  0
 24  3  1  0
 23 11  1  0
 22 13  1  0
M  END
>  <supplier_code>  (81) 
DB00213

>  <zinc_id>  (81) 
ZINC000004676424

>  <catalog_short_name>  (81) 
dbfda

$$$$

     RDKit          3D

 24 25  0  0  0  0  0  0  0  0999 V2000
   -4.1897    3.8875   -0.8930 C   0  0  0  0  0  0  0  0  0  0  0  0
   -4.1413    2.4765   -0.4050 C   0  0  0  0  0  0  0  0  0  0  0  0
   -5.0658    1.5479   -0.8475 C   0  0  0  0  0  0  0  0  0  0  0  0
   -5.0208    0.2299   -0.4205 C   0  0  0  0  0  0  0  0  0  0  0  0
   -3.9103   -0.2052    0.2879 C   0  0  0  0  0  0  0  0  0  0  0  0
   -2.8165    0.6334    0.4553 C   0  0  0  0  0  0  0  0  0  0  0  0
   -1.4923    0.1503    0.6196 N   0  0  0  0  0  0  0  0  0  0  0  0
   -1.0571   -1.1290    0.1884 C   0  0  0  0  0  0  0  0  0  0  0  0
   -1.9337   -2.1981    0.0503 C   0  0  0  0  0  0  0  0  0  0  0  0
   -1.4622   -3.4791   -0.1883 C   0  0  0  0  0  0  0  0  0  0  0  0
   -0.1338   -3.6806   -0.0155 N   0  0  0  0  0  0  0  0  0  0  0  0
    0.6989   -2.6366   -0.1785 C   0  0  0  0  0  0  0  0  0  0  0  0
    0.3131   -1.3240    0.0581 C   0  0  0  0  0  0  0  0  0  0  0  0
    1.2046   -0.0530   -0.7723 S   0  0  0  0  0  0  0  0  0  0  0  0
    1.2964   -0.4366   -2.2333 O   0  0  0  0  0  0  0  0  0  0  0  0
    0.4779    1.2606   -0.7047 O   0  0  0  0  0  0  0  0  0  0  0  0
    2.8135    0.0893   -0.2038 N   0  0  0  0  0  0  0  0  0  0  0  0
    3.1574   -0.0371    1.0260 C   0  0  0  0  0  0  0  0  0  0  0  0
    2.3215   -0.7779    1.8327 O   0  0  0  0  0  0  0  0  0  0  0  0
    4.3116    0.6503    1.4824 N   0  0  0  0  0  0  0  0  0  0  0  0
    5.3195    0.9899    0.5129 C   0  0  0  0  0  0  0  0  0  0  0  0
    6.1114    2.2167    0.8728 C   0  0  0  0  0  0  0  0  0  0  0  0
    6.2889   -0.1656    0.3864 C   0  0  0  0  0  0  0  0  0  0  0  0
   -3.0911    1.9907    0.3585 C   0  0  0  0  0  0  0  0  0  0  0  0
  1  2  1  0
  2  3  2  0
  3  4  1  0
  4  5  2  0
  5  6  1  0
  6  7  1  0
  7  8  1  0
  8  9  2  0
  9 10  1  0
 10 11  2  0
 11 12  1  0
 12 13  2  0
 13 14  1  0
 14 15  2  0
 14 16  2  0
 14 17  1  0
 17 18  2  0
 18 19  1  0
 18 20  1  0
 20 21  1  0
 21 22  1  0
 21 23  1  0
  6 24  2  0
 24  2  1  0
 13  8  1  0
M  END
>  <supplier_code>  (82) 
DB00214

>  <zinc_id>  (82) 
ZINC000000005823

>  <catalog_short_name>  (82) 
dbfda

$$$$

     RDKit          3D

 24 26  0  0  0  0  0  0  0  0999 V2000
    4.1363   -1.1000    0.0538 C   0  0  0  0  0  0  0  0  0  0  0  0
    3.4374   -1.6720   -0.0796 N   0  0  0  0  0  0  0  0  0  0  0  0
    3.5655   -2.9595    0.5990 C   0  0  0  0  0  0  0  0  0  0  0  0
    3.0576   -1.9239   -1.4529 C   0  0  0  0  0  0  0  0  0  0  0  0
    1.9072   -1.0432   -1.9027 C   0  0  0  0  0  0  0  0  0  0  0  0
    0.6692   -1.5426   -1.1884 C   0  0  0  0  0  0  0  0  0  0  0  0
   -0.3507   -0.4529   -1.0508 C   0  0  2  0  0  0  0  0  0  0  0  0
   -1.5381   -0.9683   -0.3439 C   0  0  0  0  0  0  0  0  0  0  0  0
   -2.1450   -2.1440   -0.7412 C   0  0  0  0  0  0  0  0  0  0  0  0
   -2.9020   -2.8332    0.1971 C   0  0  0  0  0  0  0  0  0  0  0  0
   -3.0247   -2.3602    1.4886 C   0  0  0  0  0  0  0  0  0  0  0  0
   -3.2842   -3.1778    2.5384 F   0  0  0  0  0  0  0  0  0  0  0  0
   -2.8616   -0.9905    1.6521 C   0  0  0  0  0  0  0  0  0  0  0  0
   -2.0603   -0.3189    0.7471 C   0  0  0  0  0  0  0  0  0  0  0  0
   -0.7435    0.0984   -2.2611 O   0  0  0  0  0  0  0  0  0  0  0  0
   -1.5082    1.1909   -1.8216 C   0  0  0  0  0  0  0  0  0  0  0  0
   -0.7235    1.7549   -0.6793 C   0  0  0  0  0  0  0  0  0  0  0  0
   -0.6470    2.9975   -0.0737 C   0  0  0  0  0  0  0  0  0  0  0  0
    0.4506    3.2884    0.6952 C   0  0  0  0  0  0  0  0  0  0  0  0
    1.0060    4.6149    0.8074 C   0  0  0  0  0  0  0  0  0  0  0  0
    1.4314    5.6573    1.0313 N   0  0  0  0  0  0  0  0  0  0  0  0
    1.1667    2.2222    1.2222 C   0  0  0  0  0  0  0  0  0  0  0  0
    0.8027    0.9230    0.8904 C   0  0  0  0  0  0  0  0  0  0  0  0
    0.1583    0.7395   -0.3272 C   0  0  0  0  0  0  0  0  0  0  0  0
  1  2  1  0
  2  3  1  0
  2  4  1  0
  4  5  1  0
  5  6  1  0
  7  6  1  6
  7  8  1  0
  8  9  2  0
  9 10  1  0
 10 11  2  0
 11 12  1  0
 11 13  1  0
 13 14  2  0
  7 15  1  0
 15 16  1  0
 16 17  1  0
 17 18  2  0
 18 19  1  0
 19 20  1  0
 20 21  3  0
 19 22  2  0
 22 23  1  0
 23 24  2  0
 24  7  1  0
 14  8  1  0
 24 17  1  0
M  END
>  <supplier_code>  (83) 
DB00215

>  <zinc_id>  (83) 
ZINC000003794601

>  <catalog_short_name>  (83) 
dbfda

$$$$

     RDKit          3D

 24 26  0  0  0  0  0  0  0  0999 V2000
   -1.7050    4.8504    1.0416 C   0  0  0  0  0  0  0  0  0  0  0  0
   -2.5303    4.0288    0.1683 N   0  0  0  0  0  0  0  0  0  0  0  0
   -1.8241    3.6998   -1.0644 C   0  0  0  0  0  0  0  0  0  0  0  0
   -2.7497    2.7746    0.8808 C   0  0  0  0  0  0  0  0  0  0  0  0
   -2.0792    1.6153    0.1797 C   0  0  0  0  0  0  0  0  0  0  0  0
   -0.9074    1.1096    1.0049 C   0  0  0  0  0  0  0  0  0  0  0  0
   -0.2265    0.0417    0.1983 C   0  0  1  0  0  0  0  0  0  0  0  0
   -0.9488   -1.2446    0.2176 C   0  0  0  0  0  0  0  0  0  0  0  0
   -1.4242   -1.8083   -0.9598 C   0  0  0  0  0  0  0  0  0  0  0  0
   -2.3467   -2.8248   -0.9746 C   0  0  0  0  0  0  0  0  0  0  0  0
   -3.1019   -3.0073    0.1656 C   0  0  0  0  0  0  0  0  0  0  0  0
   -4.3590   -3.5349    0.1178 F   0  0  0  0  0  0  0  0  0  0  0  0
   -2.5638   -2.6144    1.3836 C   0  0  0  0  0  0  0  0  0  0  0  0
   -1.4980   -1.7273    1.3962 C   0  0  0  0  0  0  0  0  0  0  0  0
   -0.1092    0.4800   -1.1304 O   0  0  0  0  0  0  0  0  0  0  0  0
    0.8166   -0.3876   -1.7296 C   0  0  0  0  0  0  0  0  0  0  0  0
    1.8034   -0.5635   -0.6185 C   0  0  0  0  0  0  0  0  0  0  0  0
    3.1420   -0.8957   -0.5475 C   0  0  0  0  0  0  0  0  0  0  0  0
    4.0060   -0.3228    0.3753 C   0  0  0  0  0  0  0  0  0  0  0  0
    5.4145   -0.1875    0.1403 C   0  0  0  0  0  0  0  0  0  0  0  0
    6.4949   -0.2433   -0.2973 N   0  0  0  0  0  0  0  0  0  0  0  0
    3.4311    0.4026    1.3866 C   0  0  0  0  0  0  0  0  0  0  0  0
    2.0484    0.4722    1.5047 C   0  0  0  0  0  0  0  0  0  0  0  0
    1.2170   -0.1128    0.5581 C   0  0  0  0  0  0  0  0  0  0  0  0
  1  2  1  0
  2  3  1  0
  2  4  1  0
  4  5  1  0
  5  6  1  0
  7  6  1  1
  7  8  1  0
  8  9  2  0
  9 10  1  0
 10 11  2  0
 11 12  1  0
 11 13  1  0
 13 14  2  0
  7 15  1  0
 15 16  1  0
 16 17  1  0
 17 18  2  0
 18 19  1  0
 19 20  1  0
 20 21  3  0
 19 22  2  0
 22 23  1  0
 23 24  2  0
 24  7  1  0
 14  8  1  0
 24 17  1  0
M  END
>  <supplier_code>  (84) 
DB00215

>  <zinc_id>  (84) 
ZINC000003800706

>  <catalog_short_name>  (84) 
dbfda

$$$$

     RDKit          3D

 27 30  0  0  0  0  0  0  0  0999 V2000
   -4.6587    1.5957   -1.3042 C   0  0  0  0  0  0  0  0  0  0  0  0
   -4.9477    1.5991   -1.0427 N   0  0  0  0  0  0  0  0  0  0  0  0
   -4.8047    2.4748    0.0536 C   0  0  0  0  0  0  0  0  0  0  0  0
   -5.7819    2.1189    1.1009 C   0  0  0  0  0  0  0  0  0  0  0  0
   -6.4408    0.8840    0.6072 C   0  0  0  0  0  0  0  0  0  0  0  0
   -5.2414    0.2341   -0.3100 C   0  0  2  0  0  0  0  0  0  0  0  0
   -4.0959    0.4925    0.8405 C   0  0  0  0  0  0  0  0  0  0  0  0
   -3.2854   -0.7543    0.8034 C   0  0  0  0  0  0  0  0  0  0  0  0
   -3.7734   -2.0515    0.8942 C   0  0  0  0  0  0  0  0  0  0  0  0
   -2.8284   -2.9226    0.4654 N   0  0  0  0  0  0  0  0  0  0  0  0
   -1.7751   -2.1689    0.0689 C   0  0  0  0  0  0  0  0  0  0  0  0
   -0.5246   -2.4865   -0.4463 C   0  0  0  0  0  0  0  0  0  0  0  0
    0.5343   -1.7194   -0.0478 C   0  0  0  0  0  0  0  0  0  0  0  0
    0.3973   -0.4412    0.4681 C   0  0  0  0  0  0  0  0  0  0  0  0
    1.6116    0.1765    1.0545 C   0  0  0  0  0  0  0  0  0  0  0  0
    2.6404   -0.8699    1.3985 C   0  0  0  0  0  0  0  0  0  0  0  0
    3.8874   -1.0502    0.1746 S   0  0  0  0  0  0  0  0  0  0  0  0
    4.8341   -2.1297    0.6447 O   0  0  0  0  0  0  0  0  0  0  0  0
    3.3673   -1.3240   -1.1953 O   0  0  0  0  0  0  0  0  0  0  0  0
    4.8171    0.4395    0.0673 C   0  0  0  0  0  0  0  0  0  0  0  0
    4.2522    1.6685    0.2864 C   0  0  0  0  0  0  0  0  0  0  0  0
    5.0740    2.7274    0.5893 C   0  0  0  0  0  0  0  0  0  0  0  0
    6.4273    2.5085    0.8156 C   0  0  0  0  0  0  0  0  0  0  0  0
    6.9953    1.4476    0.1222 C   0  0  0  0  0  0  0  0  0  0  0  0
    6.1625    0.4027   -0.2485 C   0  0  0  0  0  0  0  0  0  0  0  0
   -0.8810   -0.0025    0.6828 C   0  0  0  0  0  0  0  0  0  0  0  0
   -1.9617   -0.8490    0.4620 C   0  0  0  0  0  0  0  0  0  0  0  0
  1  2  1  0
  2  3  1  0
  3  4  1  0
  4  5  1  0
  5  6  1  0
  6  7  1  1
  7  8  1  0
  8  9  2  0
  9 10  1  0
 10 11  1  0
 11 12  2  0
 12 13  1  0
 13 14  2  0
 14 15  1  0
 15 16  1  0
 16 17  1  0
 17 18  2  0
 17 19  2  0
 17 20  1  0
 20 21  2  0
 21 22  1  0
 22 23  2  0
 23 24  1  0
 24 25  2  0
 14 26  1  0
 26 27  2  0
  6  2  1  0
 27  8  1  0
 27 11  1  0
 25 20  1  0
M  END
>  <supplier_code>  (85) 
DB00216

>  <zinc_id>  (85) 
ZINC000003823475

>  <catalog_short_name>  (85) 
dbfda

$$$$

     RDKit          3D

 29 33  0  0  0  0  0  0  0  0999 V2000
    0.6053    3.3023    0.1684 C   0  0  0  0  0  0  0  0  0  0  0  0
    0.0777    2.2874   -0.3402 O   0  0  0  0  0  0  0  0  0  0  0  0
   -0.0431    1.0288    0.2075 C   0  0  0  0  0  0  0  0  0  0  0  0
    1.0602    0.2021    0.4063 C   0  0  0  0  0  0  0  0  0  0  0  0
    2.1044    0.2684   -0.5768 N   0  0  0  0  0  0  0  0  0  0  0  0
    2.7714   -0.9255   -0.9410 C   0  0  0  0  0  0  0  0  0  0  0  0
    4.0958   -0.4696   -1.7269 C   0  0  2  0  0  0  0  0  0  0  0  0
    5.0347   -1.4882   -0.8824 C   0  0  0  0  0  0  0  0  0  0  0  0
    6.0719   -0.7137   -0.1532 C   0  0  0  0  0  0  0  0  0  0  0  0
    5.3909   -0.1758    1.1041 C   0  0  0  0  0  0  0  0  0  0  0  0
    4.0734    0.2162    0.6160 N   0  0  0  0  0  0  0  0  0  0  0  0
    4.3975    0.8945   -0.7536 C   0  0  2  0  0  0  0  0  0  0  0  0
    2.8697    1.4044   -0.9867 C   0  0  0  0  0  0  0  0  0  0  0  0
    0.8911   -0.9070    1.2348 C   0  0  0  0  0  0  0  0  0  0  0  0
    1.6083   -2.0500    0.9869 F   0  0  0  0  0  0  0  0  0  0  0  0
   -0.3554   -1.0836    1.8367 C   0  0  0  0  0  0  0  0  0  0  0  0
   -1.5125   -0.5285    1.3034 C   0  0  0  0  0  0  0  0  0  0  0  0
   -2.7177   -1.2169    1.2177 C   0  0  0  0  0  0  0  0  0  0  0  0
   -2.7740   -2.3820    1.7159 O   0  0  0  0  0  0  0  0  0  0  0  0
   -3.5261   -0.9946    0.1075 C   0  0  0  0  0  0  0  0  0  0  0  0
   -4.3760   -2.0475   -0.4094 C   0  0  0  0  0  0  0  0  0  0  0  0
   -5.4623   -2.2335    0.2183 O   0  0  0  0  0  0  0  0  0  0  0  0
   -3.7542   -3.1911   -0.9201 O   0  0  0  0  0  0  0  0  0  0  0  0
   -3.4601    0.2803   -0.4356 C   0  0  0  0  0  0  0  0  0  0  0  0
   -2.4108    1.0667   -0.1405 N   0  0  0  0  0  0  0  0  0  0  0  0
   -2.3698    2.4945   -0.4442 C   0  0  0  0  0  0  0  0  0  0  0  0
   -3.7859    3.0647   -0.7161 C   0  0  0  0  0  0  0  0  0  0  0  0
   -3.1753    3.2744    0.6356 C   0  0  0  0  0  0  0  0  0  0  0  0
   -1.3290    0.6227    0.5468 C   0  0  0  0  0  0  0  0  0  0  0  0
  1  2  1  0
  2  3  1  0
  3  4  2  0
  4  5  1  0
  5  6  1  0
  7  6  1  1
  7  8  1  0
  8  9  1  0
  9 10  1  0
 10 11  1  0
 12 11  1  1
 12 13  1  0
  4 14  1  0
 14 15  1  0
 14 16  2  0
 16 17  1  0
 17 18  1  0
 18 19  2  0
 18 20  1  0
 20 21  1  0
 21 22  2  0
 21 23  1  0
 20 24  2  0
 24 25  1  0
 25 26  1  0
 26 27  1  0
 27 28  1  0
 25 29  1  0
 29  3  1  0
 13  5  1  0
 29 17  2  0
 12  7  1  0
 28 26  1  0
M  END
>  <supplier_code>  (86) 
DB00218

>  <zinc_id>  (86) 
ZINC000003826253

>  <catalog_short_name>  (86) 
dbfda

$$$$

     RDKit          3D

 40 43  0  0  0  0  0  0  0  0999 V2000
   -2.8595    2.6822   -1.1632 C   0  0  0  0  0  0  0  0  0  0  0  0
   -3.2925    3.1522   -0.0284 C   0  0  0  0  0  0  0  0  0  0  0  0
   -4.1737    4.2222   -0.1337 C   0  0  0  0  0  0  0  0  0  0  0  0
   -4.3066    4.8477   -1.3761 O   0  0  0  0  0  0  0  0  0  0  0  0
   -4.5050    4.9776    0.9786 C   0  0  0  0  0  0  0  0  0  0  0  0
   -4.2141    4.4584    2.2317 C   0  0  0  0  0  0  0  0  0  0  0  0
   -3.2396    3.4968    2.3802 C   0  0  0  0  0  0  0  0  0  0  0  0
   -2.7810    2.9165    1.2392 C   0  0  0  0  0  0  0  0  0  0  0  0
   -1.7822    1.8860    1.3295 C   0  0  0  0  0  0  0  0  0  0  0  0
   -0.6012    2.2132    0.9957 O   0  0  0  0  0  0  0  0  0  0  0  0
   -1.8031    0.6940    2.0260 N   0  0  0  0  0  0  0  0  0  0  0  0
   -1.0986   -0.5768    1.4604 C   0  0  1  0  0  0  0  0  0  0  0  0
   -2.3581   -0.9415    0.5005 C   0  0  0  0  0  0  0  0  0  0  0  0
   -3.4698   -1.9675    1.4145 S   0  0  0  0  0  0  0  0  0  0  0  0
   -4.1590   -3.1788    0.2673 C   0  0  0  0  0  0  0  0  0  0  0  0
   -4.8458   -2.7782   -0.8748 C   0  0  0  0  0  0  0  0  0  0  0  0
   -5.2321   -3.7857   -1.7323 C   0  0  0  0  0  0  0  0  0  0  0  0
   -5.0922   -5.1262   -1.3968 C   0  0  0  0  0  0  0  0  0  0  0  0
   -4.7070   -5.4734   -0.1083 C   0  0  0  0  0  0  0  0  0  0  0  0
   -4.3531   -4.4520    0.7386 C   0  0  0  0  0  0  0  0  0  0  0  0
   -0.1430    0.2573    0.3016 C   0  0  2  0  0  0  0  0  0  0  0  0
   -0.9142   -0.0906   -0.9437 O   0  0  0  0  0  0  0  0  0  0  0  0
    0.7895   -1.0747    0.1540 C   0  0  0  0  0  0  0  0  0  0  0  0
    1.7675   -0.6842   -0.7253 N   0  0  0  0  0  0  0  0  0  0  0  0
    2.3853    0.5539   -0.7029 C   0  0  0  0  0  0  0  0  0  0  0  0
    2.9609    0.9178   -2.1805 C   0  0  1  0  0  0  0  0  0  0  0  0
    4.4783    0.9703   -1.6332 C   0  0  0  0  0  0  0  0  0  0  0  0
    5.4732    0.7158   -2.6858 C   0  0  0  0  0  0  0  0  0  0  0  0
    4.6802    0.6141   -3.9641 C   0  0  0  0  0  0  0  0  0  0  0  0
    3.9805   -0.6500   -3.8784 C   0  0  0  0  0  0  0  0  0  0  0  0
    2.8833   -0.6998   -2.7021 C   0  0  1  0  0  0  0  0  0  0  0  0
    3.8930   -1.2526   -1.5560 C   0  0  0  0  0  0  0  0  0  0  0  0
    2.8136   -1.8297   -0.4548 C   0  0  1  0  0  0  0  0  0  0  0  0
    3.5016   -1.0474    0.7695 C   0  0  0  0  0  0  0  0  0  0  0  0
    2.7568   -0.5579    1.6412 O   0  0  0  0  0  0  0  0  0  0  0  0
    4.6831   -1.6721    1.2962 N   0  0  0  0  0  0  0  0  0  0  0  0
    5.5453   -0.7010    1.9764 C   0  0  0  0  0  0  0  0  0  0  0  0
    5.9178    0.3220    0.9241 C   0  0  0  0  0  0  0  0  0  0  0  0
    4.6975    0.0193    3.0083 C   0  0  0  0  0  0  0  0  0  0  0  0
    6.7238   -1.3771    2.6069 C   0  0  0  0  0  0  0  0  0  0  0  0
  1  2  1  0
  2  3  2  0
  3  4  1  0
  3  5  1  0
  5  6  2  0
  6  7  1  0
  7  8  2  0
  8  9  1  0
  9 10  2  0
  9 11  1  0
 12 11  1  1
 12 13  1  0
 13 14  1  0
 14 15  1  0
 15 16  2  0
 16 17  1  0
 17 18  2  0
 18 19  1  0
 19 20  2  0
 12 21  1  0
 21 22  1  6
 21 23  1  0
 23 24  1  0
 24 25  1  0
 26 25  1  1
 26 27  1  0
 27 28  1  0
 28 29  1  0
 29 30  1  0
 31 30  1  6
 31 32  1  0
 32 33  1  0
 33 34  1  1
 34 35  2  0
 34 36  1  0
 36 37  1  0
 37 38  1  0
 37 39  1  0
 37 40  1  0
  8  2  1  0
 20 15  1  0
 33 24  1  0
 31 26  1  0
M  END
>  <supplier_code>  (87) 
DB00220

>  <zinc_id>  (87) 
ZINC000003833846

>  <catalog_short_name>  (87) 
dbfda

$$$$

     RDKit          3D

 34 36  0  0  0  0  0  0  0  0999 V2000
   -8.7465   -0.9771   -1.1716 C   0  0  0  0  0  0  0  0  0  0  0  0
   -8.6439    0.4475   -0.6482 C   0  0  0  0  0  0  0  0  0  0  0  0
   -7.2992    0.6973   -0.0393 C   0  0  0  0  0  0  0  0  0  0  0  0
   -6.3651    1.4513   -0.5950 C   0  0  0  0  0  0  0  0  0  0  0  0
   -6.5878    2.3253   -1.7728 C   0  0  0  0  0  0  0  0  0  0  0  0
   -5.0754    1.3242    0.1268 C   0  0  0  0  0  0  0  0  0  0  0  0
   -5.2081    0.0782    0.8765 N   0  0  0  0  0  0  0  0  0  0  0  0
   -4.1700   -0.8770    1.1257 C   0  0  0  0  0  0  0  0  0  0  0  0
   -3.9281   -1.8188    0.3119 O   0  0  0  0  0  0  0  0  0  0  0  0
   -3.5420   -0.9850    2.4086 N   0  0  0  0  0  0  0  0  0  0  0  0
   -2.2917   -1.7154    2.4789 C   0  0  0  0  0  0  0  0  0  0  0  0
   -1.2032   -0.7643    2.8909 C   0  0  0  0  0  0  0  0  0  0  0  0
   -0.4346   -0.2485    1.7204 C   0  0  0  0  0  0  0  0  0  0  0  0
    0.2924    0.9206    1.8200 C   0  0  0  0  0  0  0  0  0  0  0  0
    1.3273    1.2018    0.9367 C   0  0  0  0  0  0  0  0  0  0  0  0
    1.2112    0.6497   -0.3332 C   0  0  0  0  0  0  0  0  0  0  0  0
    2.6337    0.7178   -1.3674 S   0  0  0  0  0  0  0  0  0  0  0  0
    2.2269    0.2030   -2.7157 O   0  0  0  0  0  0  0  0  0  0  0  0
    3.1413    2.1349   -1.4754 O   0  0  0  0  0  0  0  0  0  0  0  0
    3.9073   -0.2471   -0.7214 N   0  0  0  0  0  0  0  0  0  0  0  0
    4.4249   -1.2512   -1.3310 C   0  0  0  0  0  0  0  0  0  0  0  0
    4.0645   -1.4279   -2.6666 O   0  0  0  0  0  0  0  0  0  0  0  0
    5.6778   -1.7260   -0.8374 N   0  0  0  0  0  0  0  0  0  0  0  0
    6.2572   -1.2021    0.3952 C   0  0  0  0  0  0  0  0  0  0  0  0
    7.7567   -0.9901    0.2247 C   0  0  0  0  0  0  0  0  0  0  0  0
    7.9143   -0.1430   -1.0334 C   0  0  0  0  0  0  0  0  0  0  0  0
    7.4363    1.2400   -0.6837 C   0  0  0  0  0  0  0  0  0  0  0  0
    6.8049    1.9119   -1.8682 C   0  0  0  0  0  0  0  0  0  0  0  0
    6.5911    1.2840    0.5574 C   0  0  0  0  0  0  0  0  0  0  0  0
    5.6267    0.1351    0.6662 C   0  0  0  0  0  0  0  0  0  0  0  0
    0.3901   -0.4439   -0.5008 C   0  0  0  0  0  0  0  0  0  0  0  0
   -0.3966   -0.9356    0.5257 C   0  0  0  0  0  0  0  0  0  0  0  0
   -6.6233   -0.1188    0.9765 C   0  0  0  0  0  0  0  0  0  0  0  0
   -7.1692   -0.9716    1.7190 O   0  0  0  0  0  0  0  0  0  0  0  0
  1  2  1  0
  2  3  1  0
  3  4  2  0
  4  5  1  0
  4  6  1  0
  6  7  1  0
  7  8  1  0
  8  9  2  0
  8 10  1  0
 10 11  1  0
 11 12  1  0
 12 13  1  0
 13 14  2  0
 14 15  1  0
 15 16  2  0
 16 17  1  0
 17 18  2  0
 17 19  2  0
 17 20  1  0
 20 21  2  0
 21 22  1  0
 21 23  1  0
 23 24  1  0
 24 25  1  0
 25 26  1  0
 26 27  1  0
 27 28  1  0
 27 29  1  0
 29 30  1  0
 16 31  1  0
 31 32  2  0
  7 33  1  0
 33 34  2  0
 33  3  1  0
 32 13  1  0
 30 24  1  0
M  END
>  <supplier_code>  (88) 
DB00222

>  <zinc_id>  (88) 
ZINC000000537791

>  <catalog_short_name>  (88) 
dbfda

$$$$

     RDKit          3D

 34 36  0  0  0  0  0  0  0  0999 V2000
   -7.8512   -2.5612   -0.6497 C   0  0  0  0  0  0  0  0  0  0  0  0
   -7.7759   -2.0379   -0.5538 C   0  0  0  0  0  0  0  0  0  0  0  0
   -6.8903   -1.0998    0.1783 C   0  0  0  0  0  0  0  0  0  0  0  0
   -5.8107   -1.5184    0.8351 C   0  0  0  0  0  0  0  0  0  0  0  0
   -5.7024   -2.8486    1.5044 C   0  0  0  0  0  0  0  0  0  0  0  0
   -5.1439   -0.3090    1.3891 C   0  0  0  0  0  0  0  0  0  0  0  0
   -5.6725    0.7957    0.6058 N   0  0  0  0  0  0  0  0  0  0  0  0
   -4.8997    1.9690    0.3239 C   0  0  0  0  0  0  0  0  0  0  0  0
   -4.9995    2.5697   -0.7878 O   0  0  0  0  0  0  0  0  0  0  0  0
   -3.9488    2.4753    1.2618 N   0  0  0  0  0  0  0  0  0  0  0  0
   -2.9142    3.3778    0.7619 C   0  0  0  0  0  0  0  0  0  0  0  0
   -2.5279    2.8429   -0.6081 C   0  0  0  0  0  0  0  0  0  0  0  0
   -2.0092    1.4517   -0.3769 C   0  0  0  0  0  0  0  0  0  0  0  0
   -1.4374    0.7154   -1.4127 C   0  0  0  0  0  0  0  0  0  0  0  0
   -0.1585    0.1754   -1.3055 C   0  0  0  0  0  0  0  0  0  0  0  0
    0.5664    0.3314   -0.1281 C   0  0  0  0  0  0  0  0  0  0  0  0
    2.2685    0.7193   -0.1129 S   0  0  0  0  0  0  0  0  0  0  0  0
    2.7699    0.8976   -1.5253 O   0  0  0  0  0  0  0  0  0  0  0  0
    2.5858    1.9607    0.6397 O   0  0  0  0  0  0  0  0  0  0  0  0
    3.0510   -0.6809    0.5449 N   0  0  0  0  0  0  0  0  0  0  0  0
    4.4473   -0.7629    0.6597 C   0  0  0  0  0  0  0  0  0  0  0  0
    5.0672    0.3179    0.8924 O   0  0  0  0  0  0  0  0  0  0  0  0
    5.2307   -1.9372    0.5371 N   0  0  0  0  0  0  0  0  0  0  0  0
    6.5098   -1.7489   -0.4033 C   0  0  1  0  0  0  0  0  0  0  0  0
    7.0537   -0.4614    0.5115 C   0  0  0  0  0  0  0  0  0  0  0  0
    8.3090   -0.0188   -0.1937 C   0  0  0  0  0  0  0  0  0  0  0  0
    8.8763   -1.3779   -0.9485 C   0  0  1  0  0  0  0  0  0  0  0  0
   10.4447   -0.9363   -0.6713 C   0  0  0  0  0  0  0  0  0  0  0  0
    8.8096   -2.2493    0.4570 C   0  0  0  0  0  0  0  0  0  0  0  0
    7.4088   -2.8258    0.4987 C   0  0  0  0  0  0  0  0  0  0  0  0
   -0.2368    0.5138    0.9933 C   0  0  0  0  0  0  0  0  0  0  0  0
   -1.5141    1.0581    0.8653 C   0  0  0  0  0  0  0  0  0  0  0  0
   -6.6595    0.2701   -0.2535 C   0  0  0  0  0  0  0  0  0  0  0  0
   -7.2460    0.9325   -1.1620 O   0  0  0  0  0  0  0  0  0  0  0  0
  1  2  1  0
  2  3  1  0
  3  4  2  0
  4  5  1  0
  4  6  1  0
  6  7  1  0
  7  8  1  0
  8  9  2  0
  8 10  1  0
 10 11  1  0
 11 12  1  0
 12 13  1  0
 13 14  2  0
 14 15  1  0
 15 16  2  0
 16 17  1  0
 17 18  2  0
 17 19  2  0
 17 20  1  0
 20 21  1  0
 21 22  2  0
 21 23  1  0
 24 23  1  1
 24 25  1  0
 25 26  1  0
 26 27  1  0
 27 28  1  1
 27 29  1  0
 29 30  1  0
 16 31  1  0
 31 32  2  0
  7 33  1  0
 33 34  2  0
 33  3  1  0
 32 13  1  0
 30 24  1  0
M  END
>  <supplier_code>  (89) 
DB00222

>  <zinc_id>  (89) 
ZINC000100070954

>  <catalog_short_name>  (89) 
dbfda

$$$$

     RDKit          3D

 29 32  0  0  0  0  0  0  0  0999 V2000
   -3.4062   -2.8480   -0.6187 C   0  0  0  0  0  0  0  0  0  0  0  0
   -2.8828   -2.4030    0.8613 C   0  0  1  0  0  0  0  0  0  0  0  0
   -1.3023   -2.5575    0.4501 C   0  0  0  0  0  0  0  0  0  0  0  0
   -0.8285   -1.1344    1.0491 C   0  0  1  0  0  0  0  0  0  0  0  0
    0.5332   -1.0081    0.0507 C   0  0  2  0  0  0  0  0  0  0  0  0
    1.5262   -1.4853    1.2453 C   0  0  0  0  0  0  0  0  0  0  0  0
    2.8902   -1.4121    0.3093 C   0  0  2  0  0  0  0  0  0  0  0  0
    3.7514   -1.9250    1.4377 F   0  0  0  0  0  0  0  0  0  0  0  0
    3.1459    0.1280    0.7590 C   0  0  0  0  0  0  0  0  0  0  0  0
    4.4042    0.5232    0.6100 C   0  0  0  0  0  0  0  0  0  0  0  0
    4.6718    1.9621    0.5178 C   0  0  0  0  0  0  0  0  0  0  0  0
    5.7653    2.4649    0.8606 O   0  0  0  0  0  0  0  0  0  0  0  0
    3.5345    2.8508    0.2523 C   0  0  0  0  0  0  0  0  0  0  0  0
    2.2889    2.3764    0.2891 C   0  0  0  0  0  0  0  0  0  0  0  0
    2.1367    0.9384    0.0186 C   0  0  1  0  0  0  0  0  0  0  0  0
    2.3861    0.8010   -1.4791 C   0  0  0  0  0  0  0  0  0  0  0  0
    0.7529    0.5406    0.3786 C   0  0  2  0  0  0  0  0  0  0  0  0
    0.3114    0.9028    1.5712 F   0  0  0  0  0  0  0  0  0  0  0  0
   -0.0765    1.3893   -0.7525 C   0  0  1  0  0  0  0  0  0  0  0  0
   -0.0424    0.2996   -1.8097 O   0  0  0  0  0  0  0  0  0  0  0  0
   -1.5399    0.9816   -0.1290 C   0  0  0  0  0  0  0  0  0  0  0  0
   -1.7507   -0.4143   -0.0578 C   0  0  1  0  0  0  0  0  0  0  0  0
   -1.7495   -1.1540   -1.3355 C   0  0  0  0  0  0  0  0  0  0  0  0
   -2.9853   -0.8041    0.6158 C   0  0  2  0  0  0  0  0  0  0  0  0
   -2.9732   -0.3623    1.9338 O   0  0  0  0  0  0  0  0  0  0  0  0
   -4.2063   -0.4123   -0.0065 C   0  0  0  0  0  0  0  0  0  0  0  0
   -5.0548   -1.0058   -0.6099 O   0  0  0  0  0  0  0  0  0  0  0  0
   -4.2921    1.0787   -0.2020 C   0  0  0  0  0  0  0  0  0  0  0  0
   -5.0085    1.6889    0.8032 O   0  0  0  0  0  0  0  0  0  0  0  0
  2  1  1  6
  2  3  1  0
  4  3  1  6
  4  5  1  0
  5  6  1  1
  6  7  1  0
  7  8  1  1
  7  9  1  0
  9 10  2  0
 10 11  1  0
 11 12  2  0
 11 13  1  0
 13 14  2  0
 14 15  1  0
 15 16  1  6
 15 17  1  0
 17 18  1  1
 17 19  1  0
 19 20  1  6
 19 21  1  0
 21 22  1  0
 22 23  1  6
 22 24  1  0
 24 25  1  1
 24 26  1  0
 26 27  2  0
 26 28  1  0
 28 29  1  0
 24  2  1  0
 22  4  1  0
 17  5  1  0
 15  9  1  0
M  END
>  <supplier_code>  (90) 
DB00223

>  <zinc_id>  (90) 
ZINC000005752191

>  <catalog_short_name>  (90) 
dbfda

$$$$

     RDKit          3D

 45 49  0  0  0  0  0  0  0  0999 V2000
    4.4573    0.9602   -4.5192 C   0  0  0  0  0  0  0  0  0  0  0  0
    4.8759    0.0490   -3.7119 C   0  0  0  0  0  0  0  0  0  0  0  0
    6.3778   -0.1445   -3.7881 C   0  0  0  0  0  0  0  0  0  0  0  0
    4.1854   -1.2848   -3.9599 C   0  0  0  0  0  0  0  0  0  0  0  0
    4.5522    0.3758   -2.3260 N   0  0  0  0  0  0  0  0  0  0  0  0
    3.1634    0.2780   -1.9729 C   0  0  0  0  0  0  0  0  0  0  0  0
    2.4512    1.0789   -2.6532 O   0  0  0  0  0  0  0  0  0  0  0  0
    3.0049    0.8494   -0.4428 C   0  0  2  0  0  0  0  0  0  0  0  0
    3.9626   -0.3756    0.1723 C   0  0  0  0  0  0  0  0  0  0  0  0
    3.7516   -0.3298    1.5892 N   0  0  0  0  0  0  0  0  0  0  0  0
    4.2734    0.8455    2.2148 C   0  0  0  0  0  0  0  0  0  0  0  0
    5.7640    0.7421    2.2370 C   0  0  0  0  0  0  0  0  0  0  0  0
    6.5287    1.1772    3.2975 C   0  0  0  0  0  0  0  0  0  0  0  0
    7.7802    0.6086    3.4514 C   0  0  0  0  0  0  0  0  0  0  0  0
    8.3031   -0.2945    2.5701 C   0  0  0  0  0  0  0  0  0  0  0  0
    7.6863   -0.4103    1.3718 N   0  0  0  0  0  0  0  0  0  0  0  0
    6.4434    0.0575    1.2364 C   0  0  0  0  0  0  0  0  0  0  0  0
    2.4134   -0.6704    1.9949 C   0  0  0  0  0  0  0  0  0  0  0  0
    1.5093    0.2842    1.2223 C   0  0  0  0  0  0  0  0  0  0  0  0
    1.6688    0.0142   -0.1959 N   0  0  0  0  0  0  0  0  0  0  0  0
    1.9073   -1.3001   -0.5565 C   0  0  0  0  0  0  0  0  0  0  0  0
    0.5631   -1.9045   -1.3428 C   0  0  1  0  0  0  0  0  0  0  0  0
    0.2636   -2.8306   -0.1408 O   0  0  0  0  0  0  0  0  0  0  0  0
   -0.5099   -0.7515   -0.7493 C   0  0  0  0  0  0  0  0  0  0  0  0
   -1.8908   -1.6655   -0.9162 C   0  0  1  0  0  0  0  0  0  0  0  0
   -2.0494   -1.8794    0.7097 C   0  0  0  0  0  0  0  0  0  0  0  0
   -2.2248   -0.6411    1.3838 C   0  0  0  0  0  0  0  0  0  0  0  0
   -1.6895    0.5922    1.2216 C   0  0  0  0  0  0  0  0  0  0  0  0
   -1.9966    1.7151    1.9355 C   0  0  0  0  0  0  0  0  0  0  0  0
   -3.0952    1.6022    2.7796 C   0  0  0  0  0  0  0  0  0  0  0  0
   -3.3918    0.3403    3.2801 C   0  0  0  0  0  0  0  0  0  0  0  0
   -2.9050   -0.7623    2.5987 C   0  0  0  0  0  0  0  0  0  0  0  0
   -2.8658   -0.3627   -0.9937 C   0  0  0  0  0  0  0  0  0  0  0  0
   -2.8878   -0.1851   -2.2580 O   0  0  0  0  0  0  0  0  0  0  0  0
   -4.1813   -0.5175   -0.4273 N   0  0  0  0  0  0  0  0  0  0  0  0
   -4.9571    0.7776   -0.9304 C   0  0  1  0  0  0  0  0  0  0  0  0
   -6.3339   -0.0256   -1.1901 C   0  0  0  0  0  0  0  0  0  0  0  0
   -7.2574    0.5381   -2.0610 C   0  0  0  0  0  0  0  0  0  0  0  0
   -8.5190   -0.0446   -2.0699 C   0  0  0  0  0  0  0  0  0  0  0  0
   -8.9105   -0.8990   -1.0448 C   0  0  0  0  0  0  0  0  0  0  0  0
   -8.0484   -1.0107    0.0173 C   0  0  0  0  0  0  0  0  0  0  0  0
   -6.7482   -0.5157   -0.0196 C   0  0  0  0  0  0  0  0  0  0  0  0
   -5.8593   -0.2540    1.1010 C   0  0  0  0  0  0  0  0  0  0  0  0
   -5.4887    1.2952    0.6519 C   0  0  1  0  0  0  0  0  0  0  0  0
   -4.0761    1.1964    1.2334 O   0  0  0  0  0  0  0  0  0  0  0  0
  1  2  1  0
  2  3  1  0
  2  4  1  0
  2  5  1  0
  5  6  1  0
  6  7  2  0
  8  6  1  6
  8  9  1  0
  9 10  1  0
 10 11  1  0
 11 12  1  0
 12 13  2  0
 13 14  1  0
 14 15  2  0
 15 16  1  0
 16 17  2  0
 10 18  1  0
 18 19  1  0
 19 20  1  0
 20 21  1  0
 22 21  1  1
 22 23  1  0
 22 24  1  0
 25 24  1  1
 25 26  1  0
 26 27  1  0
 27 28  2  0
 28 29  1  0
 29 30  2  0
 30 31  1  0
 31 32  2  0
 25 33  1  0
 33 34  2  0
 33 35  1  0
 36 35  1  1
 36 37  1  0
 37 38  2  0
 38 39  1  0
 39 40  2  0
 40 41  1  0
 41 42  2  0
 42 43  1  0
 43 44  1  0
 44 45  1  1
 20  8  1  0
 32 27  1  0
 44 36  1  0
 17 12  1  0
 42 37  1  0
M  END
>  <supplier_code>  (91) 
DB00224

>  <zinc_id>  (91) 
ZINC000022448696

>  <catalog_short_name>  (91) 
dbfda

$$$$

     RDKit          3D

 29 31  0  0  0  0  0  0  0  0999 V2000
   -5.7681    3.0034   -0.3927 C   0  0  0  0  0  0  0  0  0  0  0  0
   -5.0031    2.3451    0.4859 C   0  0  0  0  0  0  0  0  0  0  0  0
   -4.6394    0.9261   -0.2955 C   0  0  2  0  0  0  0  0  0  0  0  0
   -5.6790    0.0896    0.6909 C   0  0  0  0  0  0  0  0  0  0  0  0
   -3.3807    0.5482    0.6534 C   0  0  0  0  0  0  0  0  0  0  0  0
   -2.9034    1.3867    1.3960 O   0  0  0  0  0  0  0  0  0  0  0  0
   -2.5413   -0.4072    0.1397 O   0  0  0  0  0  0  0  0  0  0  0  0
   -1.9939   -1.2785    1.3098 C   0  0  1  0  0  0  0  0  0  0  0  0
   -2.8329   -2.5919    0.7773 C   0  0  0  0  0  0  0  0  0  0  0  0
   -1.6803   -3.6811    0.3570 C   0  0  1  0  0  0  0  0  0  0  0  0
   -2.8409   -4.7284   -0.1998 C   0  0  0  0  0  0  0  0  0  0  0  0
   -1.5838   -2.9800   -1.1141 C   0  0  0  0  0  0  0  0  0  0  0  0
   -1.0700   -1.7738   -0.9746 C   0  0  0  0  0  0  0  0  0  0  0  0
    0.0946   -1.6360   -1.8901 C   0  0  0  0  0  0  0  0  0  0  0  0
    0.7443   -0.4741   -1.7361 C   0  0  0  0  0  0  0  0  0  0  0  0
   -0.4878    0.3922   -1.1354 C   0  0  2  0  0  0  0  0  0  0  0  0
    0.3924    1.7739   -1.0809 C   0  0  0  0  0  0  0  0  0  0  0  0
   -0.1807    0.0636    0.5186 C   0  0  2  0  0  0  0  0  0  0  0  0
    1.4207   -0.1369    0.4115 C   0  0  0  0  0  0  0  0  0  0  0  0
    2.1256    0.8959    1.2325 C   0  0  0  0  0  0  0  0  0  0  0  0
    3.2844    1.3912    0.1352 C   0  0  2  0  0  0  0  0  0  0  0  0
    4.1919    0.0184    0.4079 C   0  0  0  0  0  0  0  0  0  0  0  0
    5.2528    0.1592   -0.8843 C   0  0  1  0  0  0  0  0  0  0  0  0
    4.0980    0.3587   -1.8909 O   0  0  0  0  0  0  0  0  0  0  0  0
    5.4725    1.8160   -0.7159 C   0  0  0  0  0  0  0  0  0  0  0  0
    5.4361    2.0752    0.7216 C   0  0  0  0  0  0  0  0  0  0  0  0
    6.4463    1.8771    1.4008 O   0  0  0  0  0  0  0  0  0  0  0  0
    4.1187    2.1761    1.2087 O   0  0  0  0  0  0  0  0  0  0  0  0
   -0.4929   -1.6088    0.4988 C   0  0  1  0  0  0  0  0  0  0  0  0
  1  2  1  0
  3  2  1  1
  3  4  1  0
  3  5  1  0
  5  6  2  0
  5  7  1  0
  8  7  1  6
  8  9  1  0
  9 10  1  0
 10 11  1  6
 10 12  1  0
 12 13  2  0
 13 14  1  0
 14 15  2  0
 15 16  1  0
 16 17  1  1
 16 18  1  0
 18 19  1  6
 19 20  1  0
 21 20  1  1
 21 22  1  0
 22 23  1  0
 23 24  1  6
 23 25  1  0
 25 26  1  0
 26 27  2  0
 26 28  1  0
 18 29  1  0
 29  8  1  0
 29 13  1  6
 28 21  1  0
M  END
>  <supplier_code>  (92) 
DB00227

>  <zinc_id>  (92) 
ZINC000003812841

>  <catalog_short_name>  (92) 
dbfda

$$$$

     RDKit          3D

 11 10  0  0  0  0  0  0  0  0999 V2000
   -2.7637    1.0294    0.3515 C   0  0  0  0  0  0  0  0  0  0  0  0
   -2.0100   -0.1911    0.4997 C   0  0  0  0  0  0  0  0  0  0  0  0
   -2.4651   -0.9243    1.7192 C   0  0  0  0  0  0  0  0  0  0  0  0
   -0.5246    0.0300    0.4172 C   0  0  0  0  0  0  0  0  0  0  0  0
   -0.3699    0.3121   -1.2121 C   0  0  2  0  0  0  0  0  0  0  0  0
   -0.1548   -1.2997   -1.5319 C   0  0  0  0  0  0  0  0  0  0  0  0
    0.7938   -1.7716   -0.5713 N   0  0  0  0  0  0  0  0  0  0  0  0
    1.2566    0.5976   -1.1935 C   0  0  0  0  0  0  0  0  0  0  0  0
    1.7607    0.6351    0.1397 C   0  0  0  0  0  0  0  0  0  0  0  0
    1.4435    1.4900    1.0224 O   0  0  0  0  0  0  0  0  0  0  0  0
    3.0335    0.0926    0.3592 O   0  0  0  0  0  0  0  0  0  0  0  0
  1  2  1  0
  2  3  1  0
  2  4  1  0
  5  4  1  1
  5  6  1  0
  6  7  1  0
  5  8  1  0
  8  9  1  0
  9 10  2  0
  9 11  1  0
M  END
>  <supplier_code>  (93) 
DB00230

>  <zinc_id>  (93) 
ZINC000000005152

>  <catalog_short_name>  (93) 
dbfda

$$$$

     RDKit          3D

 21 23  0  0  0  0  0  0  0  0999 V2000
   -3.7974   -1.0867    0.5185 C   0  0  0  0  0  0  0  0  0  0  0  0
   -2.3865   -1.0487    0.2287 N   0  0  0  0  0  0  0  0  0  0  0  0
   -1.6601    0.1573    0.5377 C   0  0  0  0  0  0  0  0  0  0  0  0
   -2.5602    1.1953    0.7569 C   0  0  0  0  0  0  0  0  0  0  0  0
   -2.2101    2.5192    0.5017 C   0  0  0  0  0  0  0  0  0  0  0  0
   -1.2390    2.7637   -0.4543 C   0  0  0  0  0  0  0  0  0  0  0  0
   -1.3818    3.9552   -1.7069 Cl  0  0  0  0  0  0  0  0  0  0  0  0
   -0.1941    1.8434   -0.4010 C   0  0  0  0  0  0  0  0  0  0  0  0
   -0.4360    0.5161   -0.0353 C   0  0  0  0  0  0  0  0  0  0  0  0
    0.6637   -0.3702   -0.3720 C   0  0  0  0  0  0  0  0  0  0  0  0
    1.9513    0.2846   -0.1317 C   0  0  0  0  0  0  0  0  0  0  0  0
    3.0373    0.2389   -0.9520 C   0  0  0  0  0  0  0  0  0  0  0  0
    4.3459    0.4104   -0.5188 C   0  0  0  0  0  0  0  0  0  0  0  0
    4.5969   -0.0020    0.7811 C   0  0  0  0  0  0  0  0  0  0  0  0
    3.5443   -0.0757    1.6711 C   0  0  0  0  0  0  0  0  0  0  0  0
    2.2955    0.3542    1.2245 C   0  0  0  0  0  0  0  0  0  0  0  0
    0.4587   -1.4323   -0.9851 N   0  0  0  0  0  0  0  0  0  0  0  0
   -0.3657   -2.7000   -0.4620 C   0  0  1  0  0  0  0  0  0  0  0  0
   -0.2172   -2.3974    1.0451 O   0  0  0  0  0  0  0  0  0  0  0  0
   -1.8613   -2.0413   -0.6225 C   0  0  0  0  0  0  0  0  0  0  0  0
   -2.5842   -3.0841   -0.6237 O   0  0  0  0  0  0  0  0  0  0  0  0
  1  2  1  0
  2  3  1  0
  3  4  2  0
  4  5  1  0
  5  6  2  0
  6  7  1  0
  6  8  1  0
  8  9  2  0
  9 10  1  0
 10 11  1  0
 11 12  2  0
 12 13  1  0
 13 14  2  0
 14 15  1  0
 15 16  2  0
 10 17  2  0
 17 18  1  0
 18 19  1  1
 18 20  1  0
 20 21  2  0
 20  2  1  0
  9  3  1  0
 16 11  1  0
M  END
>  <supplier_code>  (94) 
DB00231

>  <zinc_id>  (94) 
ZINC000000000740

>  <catalog_short_name>  (94) 
dbfda

$$$$

     RDKit          3D

 21 23  0  0  0  0  0  0  0  0999 V2000
   -3.5695    0.0375    0.9715 C   0  0  0  0  0  0  0  0  0  0  0  0
   -2.5031    0.3911    0.1478 N   0  0  0  0  0  0  0  0  0  0  0  0
   -1.7409   -0.7119   -0.3738 C   0  0  0  0  0  0  0  0  0  0  0  0
   -2.4622   -1.9002   -0.3350 C   0  0  0  0  0  0  0  0  0  0  0  0
   -1.7058   -3.0669   -0.3735 C   0  0  0  0  0  0  0  0  0  0  0  0
   -0.3372   -3.0592   -0.1156 C   0  0  0  0  0  0  0  0  0  0  0  0
    0.4134   -4.3036    0.8680 Cl  0  0  0  0  0  0  0  0  0  0  0  0
    0.3429   -1.9294   -0.5530 C   0  0  0  0  0  0  0  0  0  0  0  0
   -0.3691   -0.7354   -0.6323 C   0  0  0  0  0  0  0  0  0  0  0  0
    0.5009    0.4500   -0.7284 C   0  0  0  0  0  0  0  0  0  0  0  0
    1.8678    0.1879   -0.2432 C   0  0  0  0  0  0  0  0  0  0  0  0
    2.8960    0.8284   -0.9222 C   0  0  0  0  0  0  0  0  0  0  0  0
    4.1351    0.9742   -0.3104 C   0  0  0  0  0  0  0  0  0  0  0  0
    4.2597    0.5738    1.0055 C   0  0  0  0  0  0  0  0  0  0  0  0
    3.1183    0.4104    1.7802 C   0  0  0  0  0  0  0  0  0  0  0  0
    1.9971   -0.0797    1.1160 C   0  0  0  0  0  0  0  0  0  0  0  0
    0.2205    1.7082   -0.5443 N   0  0  0  0  0  0  0  0  0  0  0  0
   -1.1974    2.2818   -1.0878 C   0  0  2  0  0  0  0  0  0  0  0  0
   -0.9342    3.6737   -0.4267 O   0  0  0  0  0  0  0  0  0  0  0  0
   -1.9899    1.7308    0.2745 C   0  0  0  0  0  0  0  0  0  0  0  0
   -2.9424    2.5384    0.4827 O   0  0  0  0  0  0  0  0  0  0  0  0
  1  2  1  0
  2  3  1  0
  3  4  2  0
  4  5  1  0
  5  6  2  0
  6  7  1  0
  6  8  1  0
  8  9  2  0
  9 10  1  0
 10 11  1  0
 11 12  2  0
 12 13  1  0
 13 14  2  0
 14 15  1  0
 15 16  2  0
 10 17  2  0
 17 18  1  0
 18 19  1  1
 18 20  1  0
 20 21  2  0
 20  2  1  0
  9  3  1  0
 16 11  1  0
M  END
>  <supplier_code>  (95) 
DB00231

>  <zinc_id>  (95) 
ZINC000000896634

>  <catalog_short_name>  (95) 
dbfda

$$$$

     RDKit          3D

 20 21  0  0  0  0  0  0  0  0999 V2000
   -3.7863   -1.3837    0.8512 C   0  0  0  0  0  0  0  0  0  0  0  0
   -2.9756   -0.3419    0.5680 N   0  0  0  0  0  0  0  0  0  0  0  0
   -2.8999   -0.5191   -1.0042 C   0  0  1  0  0  0  0  0  0  0  0  0
   -4.1765    0.5184   -1.2193 C   0  0  0  0  0  0  0  0  0  0  0  0
   -3.8415    1.9415   -0.2253 Cl  0  0  0  0  0  0  0  0  0  0  0  0
   -1.8567    0.6528   -1.2395 N   0  0  0  0  0  0  0  0  0  0  0  0
   -0.5313    0.1761   -1.0527 C   0  0  0  0  0  0  0  0  0  0  0  0
    0.5147    0.2736   -1.9193 C   0  0  0  0  0  0  0  0  0  0  0  0
    1.8359    0.1842   -1.4928 C   0  0  0  0  0  0  0  0  0  0  0  0
    3.0679   -0.6752   -2.4017 Cl  0  0  0  0  0  0  0  0  0  0  0  0
    2.0528    0.4160   -0.1402 C   0  0  0  0  0  0  0  0  0  0  0  0
    3.6487    0.2863    0.5884 S   0  0  0  0  0  0  0  0  0  0  0  0
    4.8984    0.5296   -0.5599 N   0  0  0  0  0  0  0  0  0  0  0  0
    3.7413   -1.0820    1.2261 O   0  0  0  0  0  0  0  0  0  0  0  0
    3.6699    1.3291    1.6845 O   0  0  0  0  0  0  0  0  0  0  0  0
    0.9857    0.4155    0.7513 C   0  0  0  0  0  0  0  0  0  0  0  0
   -0.2390    0.0421    0.3007 C   0  0  0  0  0  0  0  0  0  0  0  0
   -1.4864   -0.6848    1.2580 S   0  0  0  0  0  0  0  0  0  0  0  0
   -1.1404   -2.1154    1.4374 O   0  0  0  0  0  0  0  0  0  0  0  0
   -1.4820    0.0369    2.5893 O   0  0  0  0  0  0  0  0  0  0  0  0
  1  2  1  0
  2  3  1  0
  3  4  1  6
  4  5  1  0
  3  6  1  0
  6  7  1  0
  7  8  2  0
  8  9  1  0
  9 10  1  0
  9 11  2  0
 11 12  1  0
 12 13  1  0
 12 14  2  0
 12 15  2  0
 11 16  1  0
 16 17  2  0
 17 18  1  0
 18 19  2  0
 18 20  2  0
 18  2  1  0
 17  7  1  0
M  END
>  <supplier_code>  (96) 
DB00232

>  <zinc_id>  (96) 
ZINC000000897229

>  <catalog_short_name>  (96) 
dbfda

$$$$

     RDKit          3D

 20 21  0  0  0  0  0  0  0  0999 V2000
    3.5636    1.2423    0.6551 C   0  0  0  0  0  0  0  0  0  0  0  0
    2.8836    1.0632    0.4079 N   0  0  0  0  0  0  0  0  0  0  0  0
    2.5039   -0.3435    1.0892 C   0  0  2  0  0  0  0  0  0  0  0  0
    4.0754   -0.8978    0.8643 C   0  0  0  0  0  0  0  0  0  0  0  0
    3.9444   -2.5663    0.3911 Cl  0  0  0  0  0  0  0  0  0  0  0  0
    2.0254   -0.9760   -0.3168 N   0  0  0  0  0  0  0  0  0  0  0  0
    0.6061   -0.8124   -0.4300 C   0  0  0  0  0  0  0  0  0  0  0  0
   -0.3124   -1.7634   -0.7280 C   0  0  0  0  0  0  0  0  0  0  0  0
   -1.6685   -1.4542   -0.6463 C   0  0  0  0  0  0  0  0  0  0  0  0
   -2.8222   -2.7565   -0.4959 Cl  0  0  0  0  0  0  0  0  0  0  0  0
   -2.0356   -0.1539   -0.3460 C   0  0  0  0  0  0  0  0  0  0  0  0
   -3.7058    0.2621   -0.0305 S   0  0  0  0  0  0  0  0  0  0  0  0
   -3.8304    0.8137    1.5865 N   0  0  0  0  0  0  0  0  0  0  0  0
   -4.6023   -0.9208   -0.2640 O   0  0  0  0  0  0  0  0  0  0  0  0
   -4.0313    1.3515   -1.0278 O   0  0  0  0  0  0  0  0  0  0  0  0
   -1.1109    0.8776   -0.4143 C   0  0  0  0  0  0  0  0  0  0  0  0
    0.2136    0.5113   -0.2500 C   0  0  0  0  0  0  0  0  0  0  0  0
    1.5001    1.6847   -0.3249 S   0  0  0  0  0  0  0  0  0  0  0  0
    1.0110    2.9678    0.2648 O   0  0  0  0  0  0  0  0  0  0  0  0
    1.7922    1.8706   -1.8007 O   0  0  0  0  0  0  0  0  0  0  0  0
  1  2  1  0
  2  3  1  0
  3  4  1  6
  4  5  1  0
  3  6  1  0
  6  7  1  0
  7  8  2  0
  8  9  1  0
  9 10  1  0
  9 11  2  0
 11 12  1  0
 12 13  1  0
 12 14  2  0
 12 15  2  0
 11 16  1  0
 16 17  2  0
 17 18  1  0
 18 19  2  0
 18 20  2  0
 18  2  1  0
 17  7  1  0
M  END
>  <supplier_code>  (97) 
DB00232

>  <zinc_id>  (97) 
ZINC000000897232

>  <catalog_short_name>  (97) 
dbfda

$$$$

     RDKit          3D

 11 11  0  0  0  0  0  0  0  0999 V2000
    3.2438   -0.5095   -0.9197 N   0  0  0  0  0  0  0  0  0  0  0  0
    2.1249   -0.0405   -0.1605 C   0  0  0  0  0  0  0  0  0  0  0  0
    1.6370   -0.7421    0.9354 C   0  0  0  0  0  0  0  0  0  0  0  0
    0.2730   -0.8440    1.1753 C   0  0  0  0  0  0  0  0  0  0  0  0
   -0.5782   -0.0267    0.4657 C   0  0  0  0  0  0  0  0  0  0  0  0
   -1.9600   -0.4555    0.2311 C   0  0  0  0  0  0  0  0  0  0  0  0
   -2.3619   -1.5689    0.6386 O   0  0  0  0  0  0  0  0  0  0  0  0
   -2.7591    0.1897   -0.7156 O   0  0  0  0  0  0  0  0  0  0  0  0
   -0.0440    0.9846   -0.3220 C   0  0  0  0  0  0  0  0  0  0  0  0
   -0.8879    2.0249   -0.7085 O   0  0  0  0  0  0  0  0  0  0  0  0
    1.3121    0.9882   -0.6198 C   0  0  0  0  0  0  0  0  0  0  0  0
  1  2  1  0
  2  3  2  0
  3  4  1  0
  4  5  2  0
  5  6  1  0
  6  7  2  0
  6  8  1  0
  5  9  1  0
  9 10  1  0
  9 11  2  0
 11  2  1  0
M  END
>  <supplier_code>  (98) 
DB00233

>  <zinc_id>  (98) 
ZINC000000000922

>  <catalog_short_name>  (98) 
dbfda

$$$$

     RDKit          3D

 16 17  0  0  0  0  0  0  0  0999 V2000
    0.4558   -1.8043    2.2507 C   0  0  0  0  0  0  0  0  0  0  0  0
   -0.3354   -1.2229    1.1306 C   0  0  0  0  0  0  0  0  0  0  0  0
   -1.5589   -1.6856    0.7838 N   0  0  0  0  0  0  0  0  0  0  0  0
   -2.3084   -0.9383   -0.0656 C   0  0  0  0  0  0  0  0  0  0  0  0
   -3.2462   -1.4405   -0.7522 O   0  0  0  0  0  0  0  0  0  0  0  0
   -1.9861    0.3926   -0.3073 C   0  0  0  0  0  0  0  0  0  0  0  0
   -3.0041    1.3369   -0.7075 C   0  0  0  0  0  0  0  0  0  0  0  0
   -3.9617    2.0044   -0.6911 N   0  0  0  0  0  0  0  0  0  0  0  0
   -0.7188    0.8425   -0.0381 C   0  0  0  0  0  0  0  0  0  0  0  0
    0.1512   -0.0542    0.5628 C   0  0  0  0  0  0  0  0  0  0  0  0
    1.5988    0.0876    0.3560 C   0  0  0  0  0  0  0  0  0  0  0  0
    2.1566    1.3592    0.4246 C   0  0  0  0  0  0  0  0  0  0  0  0
    3.3741    1.6212   -0.1789 C   0  0  0  0  0  0  0  0  0  0  0  0
    3.7350    0.8349   -1.2216 N   0  0  0  0  0  0  0  0  0  0  0  0
    3.3378   -0.4613   -1.1918 C   0  0  0  0  0  0  0  0  0  0  0  0
    2.3104   -0.8720   -0.3544 C   0  0  0  0  0  0  0  0  0  0  0  0
  1  2  1  0
  2  3  1  0
  3  4  1  0
  4  5  2  0
  4  6  1  0
  6  7  1  0
  7  8  3  0
  6  9  2  0
  9 10  1  0
 10 11  1  0
 11 12  2  0
 12 13  1  0
 13 14  2  0
 14 15  1  0
 15 16  2  0
 10  2  2  0
 16 11  1  0
M  END
>  <supplier_code>  (99) 
DB00235

>  <zinc_id>  (99) 
ZINC000009224016

>  <catalog_short_name>  (99) 
dbfda

$$$$

     RDKit          3D

 15 15  0  0  0  0  0  0  0  0999 V2000
   -3.1527   -0.9824   -0.2205 C   0  0  0  0  0  0  0  0  0  0  0  0
   -2.3614   -0.9984   -0.4006 C   0  0  0  0  0  0  0  0  0  0  0  0
   -1.3925   -0.7462    0.8923 C   0  0  2  0  0  0  0  0  0  0  0  0
   -2.2225    0.5870    1.3486 C   0  0  0  0  0  0  0  0  0  0  0  0
   -0.3107    0.1095    0.0180 C   0  0  0  0  0  0  0  0  0  0  0  0
   -1.0764    1.0857   -0.8010 C   0  0  0  0  0  0  0  0  0  0  0  0
   -0.3820    2.3611   -1.0986 C   0  0  0  0  0  0  0  0  0  0  0  0
    0.5845    0.6898    1.0255 C   0  0  0  0  0  0  0  0  0  0  0  0
    0.1242    1.1306    2.1231 O   0  0  0  0  0  0  0  0  0  0  0  0
    1.9678    0.3181    1.1009 N   0  0  0  0  0  0  0  0  0  0  0  0
    2.5834   -0.2555   -0.0510 C   0  0  0  0  0  0  0  0  0  0  0  0
    3.8163   -0.5239   -0.0560 O   0  0  0  0  0  0  0  0  0  0  0  0
    1.7556   -0.6464   -1.1254 N   0  0  0  0  0  0  0  0  0  0  0  0
    0.3596   -0.8533   -0.8770 C   0  0  0  0  0  0  0  0  0  0  0  0
   -0.2933   -1.2756   -1.8782 O   0  0  0  0  0  0  0  0  0  0  0  0
  1  2  1  0
  3  2  1  6
  3  4  1  0
  3  5  1  0
  5  6  1  0
  6  7  1  0
  5  8  1  0
  8  9  2  0
  8 10  1  0
 10 11  1  0
 11 12  2  0
 11 13  1  0
 13 14  1  0
 14 15  2  0
 14  5  1  0
M  END
>  <supplier_code>  (100) 
DB00237

>  <zinc_id>  (100) 
ZINC000000968345

>  <catalog_short_name>  (100) 
dbfda

$$$$

     RDKit          3D

 15 15  0  0  0  0  0  0  0  0999 V2000
   -2.8032    1.8004    0.9107 C   0  0  0  0  0  0  0  0  0  0  0  0
   -1.5058    1.3055    0.4463 C   0  0  0  0  0  0  0  0  0  0  0  0
   -1.7800   -0.2636    0.0071 C   0  0  1  0  0  0  0  0  0  0  0  0
   -1.8082    0.1405   -1.5945 C   0  0  0  0  0  0  0  0  0  0  0  0
   -0.1840   -0.6609    0.0633 C   0  0  0  0  0  0  0  0  0  0  0  0
   -0.1668   -2.1680    0.3088 C   0  0  0  0  0  0  0  0  0  0  0  0
   -1.0263   -2.9230   -0.6493 C   0  0  0  0  0  0  0  0  0  0  0  0
    0.4807   -0.2931   -1.1469 C   0  0  0  0  0  0  0  0  0  0  0  0
    0.3748   -1.0504   -2.1607 O   0  0  0  0  0  0  0  0  0  0  0  0
    1.5477    0.6528   -1.2190 N   0  0  0  0  0  0  0  0  0  0  0  0
    2.0814    1.1410    0.0126 C   0  0  0  0  0  0  0  0  0  0  0  0
    2.9231    2.0764    0.0617 O   0  0  0  0  0  0  0  0  0  0  0  0
    1.3612    0.8975    1.2046 N   0  0  0  0  0  0  0  0  0  0  0  0
    0.3423   -0.0686    1.3094 C   0  0  0  0  0  0  0  0  0  0  0  0
    0.1629   -0.5864    2.4460 O   0  0  0  0  0  0  0  0  0  0  0  0
  1  2  1  0
  3  2  1  1
  3  4  1  0
  3  5  1  0
  5  6  1  0
  6  7  1  0
  5  8  1  0
  8  9  2  0
  8 10  1  0
 10 11  1  0
 11 12  2  0
 11 13  1  0
 13 14  1  0
 14 15  2  0
 14  5  1  0
M  END
>  <supplier_code>  (101) 
DB00237

>  <zinc_id>  (101) 
ZINC000003651680

>  <catalog_short_name>  (101) 
dbfda

$$$$

     RDKit          3D

 20 23  0  0  0  0  0  0  0  0999 V2000
    3.5311   -2.2090   -0.8140 C   0  0  0  0  0  0  0  0  0  0  0  0
    2.9278   -0.9773   -0.2560 C   0  0  0  0  0  0  0  0  0  0  0  0
    3.7371   -0.1160    0.4757 C   0  0  0  0  0  0  0  0  0  0  0  0
    3.2079    1.1438    0.7245 C   0  0  0  0  0  0  0  0  0  0  0  0
    2.0198    1.5052    0.1984 N   0  0  0  0  0  0  0  0  0  0  0  0
    1.1519    0.6088   -0.3283 C   0  0  0  0  0  0  0  0  0  0  0  0
    1.6078   -0.6630   -0.5552 C   0  0  0  0  0  0  0  0  0  0  0  0
    0.8734   -1.8433   -0.8719 N   0  0  0  0  0  0  0  0  0  0  0  0
   -0.5389   -2.0218   -0.7193 C   0  0  0  0  0  0  0  0  0  0  0  0
   -0.9936   -3.1745   -0.9847 O   0  0  0  0  0  0  0  0  0  0  0  0
   -1.5845   -1.0346   -0.4206 C   0  0  0  0  0  0  0  0  0  0  0  0
   -2.7320   -1.6413    0.0713 C   0  0  0  0  0  0  0  0  0  0  0  0
   -3.5335   -1.0012    0.9963 C   0  0  0  0  0  0  0  0  0  0  0  0
   -3.3085    0.3293    1.2414 C   0  0  0  0  0  0  0  0  0  0  0  0
   -2.3817    1.0020    0.5158 N   0  0  0  0  0  0  0  0  0  0  0  0
   -1.4357    0.3234   -0.1782 C   0  0  0  0  0  0  0  0  0  0  0  0
   -0.2115    1.0404   -0.2596 N   0  0  0  0  0  0  0  0  0  0  0  0
   -0.3449    2.4690   -0.1848 C   0  0  0  0  0  0  0  0  0  0  0  0
   -1.6023    3.1368    0.1887 C   0  0  0  0  0  0  0  0  0  0  0  0
   -0.3897    3.1232    1.1604 C   0  0  0  0  0  0  0  0  0  0  0  0
  1  2  1  0
  2  3  2  0
  3  4  1  0
  4  5  2  0
  5  6  1  0
  6  7  2  0
  7  8  1  0
  8  9  1  0
  9 10  2  0
  9 11  1  0
 11 12  2  0
 12 13  1  0
 13 14  2  0
 14 15  1  0
 15 16  2  0
 16 17  1  0
 17 18  1  0
 18 19  1  0
 19 20  1  0
  7  2  1  0
 16 11  1  0
 20 18  1  0
 17  6  1  0
M  END
>  <supplier_code>  (102) 
DB00238

>  <zinc_id>  (102) 
ZINC000000004778

>  <catalog_short_name>  (102) 
dbfda

$$$$

     RDKit          3D

 26 28  0  0  0  0  0  0  0  0999 V2000
    7.0351    0.1485    1.0018 Cl  0  0  0  0  0  0  0  0  0  0  0  0
    5.6502   -0.3875    0.0525 C   0  0  0  0  0  0  0  0  0  0  0  0
    5.2527    0.3228   -1.0743 C   0  0  0  0  0  0  0  0  0  0  0  0
    3.9089    0.5208   -1.3675 C   0  0  0  0  0  0  0  0  0  0  0  0
    2.9158    0.0010   -0.5464 C   0  0  0  0  0  0  0  0  0  0  0  0
    1.7163    0.8069   -0.1537 C   0  0  0  0  0  0  0  0  0  0  0  0
    0.8194    0.9892   -1.2172 O   0  0  0  0  0  0  0  0  0  0  0  0
   -0.3388    0.2672   -1.2262 N   0  0  0  0  0  0  0  0  0  0  0  0
   -1.2265    0.3063   -0.2887 C   0  0  0  0  0  0  0  0  0  0  0  0
   -1.0416    1.2677    0.8344 C   0  0  0  0  0  0  0  0  0  0  0  0
   -1.8061    2.4757    0.5366 N   0  0  0  0  0  0  0  0  0  0  0  0
   -1.5472    3.4045   -0.4136 C   0  0  0  0  0  0  0  0  0  0  0  0
   -2.5842    4.3192   -0.2932 C   0  0  0  0  0  0  0  0  0  0  0  0
   -2.8546    4.3452    1.0344 N   0  0  0  0  0  0  0  0  0  0  0  0
   -2.5001    3.1347    1.4952 C   0  0  0  0  0  0  0  0  0  0  0  0
   -2.0214   -0.9119   -0.0931 C   0  0  0  0  0  0  0  0  0  0  0  0
   -1.3928   -1.9984    0.4633 C   0  0  0  0  0  0  0  0  0  0  0  0
   -2.0083   -3.2270    0.4835 C   0  0  0  0  0  0  0  0  0  0  0  0
   -3.1749   -3.4373   -0.2291 C   0  0  0  0  0  0  0  0  0  0  0  0
   -4.1729   -4.7898    0.2449 Cl  0  0  0  0  0  0  0  0  0  0  0  0
   -3.6339   -2.4317   -1.0488 C   0  0  0  0  0  0  0  0  0  0  0  0
   -3.1005   -1.1623   -0.9308 C   0  0  0  0  0  0  0  0  0  0  0  0
   -3.9736    0.2511   -1.5159 Cl  0  0  0  0  0  0  0  0  0  0  0  0
    3.3328   -0.9975    0.3256 C   0  0  0  0  0  0  0  0  0  0  0  0
    2.0682   -1.9959    1.0274 Cl  0  0  0  0  0  0  0  0  0  0  0  0
    4.6782   -1.2214    0.5925 C   0  0  0  0  0  0  0  0  0  0  0  0
  1  2  1  0
  2  3  2  0
  3  4  1  0
  4  5  2  0
  5  6  1  0
  6  7  1  0
  7  8  1  0
  8  9  2  0
  9 10  1  0
 10 11  1  0
 11 12  1  0
 12 13  2  0
 13 14  1  0
 14 15  2  0
  9 16  1  0
 16 17  2  0
 17 18  1  0
 18 19  2  0
 19 20  1  0
 19 21  1  0
 21 22  2  0
 22 23  1  0
  5 24  1  0
 24 25  1  0
 24 26  2  0
 26  2  1  0
 15 11  1  0
 22 16  1  0
M  END
>  <supplier_code>  (103) 
DB00239

>  <zinc_id>  (103) 
ZINC000003873295

>  <catalog_short_name>  (103) 
dbfda

$$$$

     RDKit          3D

 26 28  0  0  0  0  0  0  0  0999 V2000
    7.0494    1.2071   -0.4693 Cl  0  0  0  0  0  0  0  0  0  0  0  0
    5.7584    0.2597    0.2673 C   0  0  0  0  0  0  0  0  0  0  0  0
    4.9466    0.7911    1.2636 C   0  0  0  0  0  0  0  0  0  0  0  0
    3.5699    0.5994    1.2602 C   0  0  0  0  0  0  0  0  0  0  0  0
    2.9837   -0.2515    0.3305 C   0  0  0  0  0  0  0  0  0  0  0  0
    1.6800    0.0897   -0.3203 C   0  0  0  0  0  0  0  0  0  0  0  0
    0.5880   -0.0978    0.5426 O   0  0  0  0  0  0  0  0  0  0  0  0
   -0.4962   -0.7779    0.0534 N   0  0  0  0  0  0  0  0  0  0  0  0
   -1.6037   -0.2355   -0.2911 C   0  0  0  0  0  0  0  0  0  0  0  0
   -2.6992   -1.0150   -0.9313 C   0  0  0  0  0  0  0  0  0  0  0  0
   -2.7992   -2.3491   -0.4027 N   0  0  0  0  0  0  0  0  0  0  0  0
   -3.8372   -3.1778   -0.5331 C   0  0  0  0  0  0  0  0  0  0  0  0
   -3.4807   -4.4232   -0.0320 C   0  0  0  0  0  0  0  0  0  0  0  0
   -2.1716   -4.3634    0.2783 N   0  0  0  0  0  0  0  0  0  0  0  0
   -1.7454   -3.1419   -0.1139 C   0  0  0  0  0  0  0  0  0  0  0  0
   -1.7983    1.1846    0.0282 C   0  0  0  0  0  0  0  0  0  0  0  0
   -0.9292    2.1240   -0.5030 C   0  0  0  0  0  0  0  0  0  0  0  0
   -1.2514    3.4753   -0.4598 C   0  0  0  0  0  0  0  0  0  0  0  0
   -2.5095    3.9099   -0.0656 C   0  0  0  0  0  0  0  0  0  0  0  0
   -3.0796    5.4863   -0.5400 Cl  0  0  0  0  0  0  0  0  0  0  0  0
   -3.2543    3.0202    0.6742 C   0  0  0  0  0  0  0  0  0  0  0  0
   -2.9859    1.6625    0.5607 C   0  0  0  0  0  0  0  0  0  0  0  0
   -4.1699    0.4434    1.0089 Cl  0  0  0  0  0  0  0  0  0  0  0  0
    3.8632   -1.1040   -0.3264 C   0  0  0  0  0  0  0  0  0  0  0  0
    3.1424   -2.4613   -1.1868 Cl  0  0  0  0  0  0  0  0  0  0  0  0
    5.2298   -0.8548   -0.3747 C   0  0  0  0  0  0  0  0  0  0  0  0
  1  2  1  0
  2  3  2  0
  3  4  1  0
  4  5  2  0
  5  6  1  0
  6  7  1  0
  7  8  1  0
  8  9  2  0
  9 10  1  0
 10 11  1  0
 11 12  1  0
 12 13  2  0
 13 14  1  0
 14 15  2  0
  9 16  1  0
 16 17  2  0
 17 18  1  0
 18 19  2  0
 19 20  1  0
 19 21  1  0
 21 22  2  0
 22 23  1  0
  5 24  1  0
 24 25  1  0
 24 26  2  0
 26  2  1  0
 15 11  1  0
 22 16  1  0
M  END
>  <supplier_code>  (104) 
DB00239

>  <zinc_id>  (104) 
ZINC000003873296

>  <catalog_short_name>  (104) 
dbfda

$$$$

     RDKit          3D

 28 31  0  0  0  0  0  0  0  0999 V2000
    3.1216   -2.1299   -0.2489 C   0  0  0  0  0  0  0  0  0  0  0  0
    3.3743   -0.7465    0.5770 C   0  0  2  0  0  0  0  0  0  0  0  0
    1.9421   -0.8625    1.3598 C   0  0  0  0  0  0  0  0  0  0  0  0
    1.0568   -0.9714    0.0155 C   0  0  1  0  0  0  0  0  0  0  0  0
   -0.3703   -0.3091    0.6009 C   0  0  2  0  0  0  0  0  0  0  0  0
   -0.7917   -1.5304    1.6203 C   0  0  2  0  0  0  0  0  0  0  0  0
   -0.5079   -3.0090    0.5201 Cl  0  0  0  0  0  0  0  0  0  0  0  0
   -2.3570   -1.5123    1.4110 C   0  0  0  0  0  0  0  0  0  0  0  0
   -2.8335   -0.2809    0.7904 C   0  0  0  0  0  0  0  0  0  0  0  0
   -3.9956    0.2755    1.1445 C   0  0  0  0  0  0  0  0  0  0  0  0
   -5.0313    0.5585    0.1378 C   0  0  0  0  0  0  0  0  0  0  0  0
   -6.1928    0.9483    0.4584 O   0  0  0  0  0  0  0  0  0  0  0  0
   -4.7516   -0.0745   -1.1604 C   0  0  0  0  0  0  0  0  0  0  0  0
   -3.4603   -0.1373   -1.4924 C   0  0  0  0  0  0  0  0  0  0  0  0
   -2.3637    0.1859   -0.5717 C   0  0  1  0  0  0  0  0  0  0  0  0
   -1.9687    1.5457   -0.4081 C   0  0  0  0  0  0  0  0  0  0  0  0
   -1.2154   -0.9142   -0.7067 C   0  0  1  0  0  0  0  0  0  0  0  0
   -0.2343   -0.2957   -1.9611 C   0  0  1  0  0  0  0  0  0  0  0  0
   -1.2853    0.5777   -2.6092 O   0  0  0  0  0  0  0  0  0  0  0  0
    0.4630    0.9650   -1.1871 C   0  0  0  0  0  0  0  0  0  0  0  0
    1.5293    0.5373   -0.3551 C   0  0  1  0  0  0  0  0  0  0  0  0
    1.5163    1.3529    0.9379 C   0  0  0  0  0  0  0  0  0  0  0  0
    2.8702    0.2172   -0.6323 C   0  0  2  0  0  0  0  0  0  0  0  0
    3.2636   -0.3101   -1.8262 O   0  0  0  0  0  0  0  0  0  0  0  0
    3.7416    1.4276   -0.4419 C   0  0  0  0  0  0  0  0  0  0  0  0
    3.6573    2.3421   -1.2624 O   0  0  0  0  0  0  0  0  0  0  0  0
    4.8863    1.4867    0.4885 C   0  0  0  0  0  0  0  0  0  0  0  0
    5.9370    0.6632    0.1502 O   0  0  0  0  0  0  0  0  0  0  0  0
  2  1  1  6
  2  3  1  0
  4  3  1  1
  4  5  1  0
  5  6  1  1
  6  7  1  6
  6  8  1  0
  8  9  1  0
  9 10  2  0
 10 11  1  0
 11 12  2  0
 11 13  1  0
 13 14  2  0
 14 15  1  0
 15 16  1  1
 17 15  1  6
 17 18  1  0
 18 19  1  6
 18 20  1  0
 20 21  1  0
 21 22  1  1
 21 23  1  0
 23 24  1  6
 23 25  1  0
 25 26  2  0
 25 27  1  0
 27 28  1  0
 23  2  1  0
 21  4  1  0
 17  5  1  0
 15  9  1  0
M  END
>  <supplier_code>  (105) 
DB00240

>  <zinc_id>  (105) 
ZINC000030691420

>  <catalog_short_name>  (105) 
dbfda

$$$$

     RDKit          3D

 16 16  0  0  0  0  0  0  0  0999 V2000
    0.1639    3.7481    0.2308 C   0  0  0  0  0  0  0  0  0  0  0  0
   -0.1642    2.7587   -0.6097 C   0  0  0  0  0  0  0  0  0  0  0  0
    0.6409    1.5203   -0.6335 C   0  0  0  0  0  0  0  0  0  0  0  0
   -0.1207    0.2997   -0.1979 C   0  0  0  0  0  0  0  0  0  0  0  0
   -1.6103    0.4647   -0.2464 C   0  0  0  0  0  0  0  0  0  0  0  0
   -2.2177   -0.8864    0.1062 C   0  0  0  0  0  0  0  0  0  0  0  0
   -2.9146   -1.5229   -1.0622 C   0  0  0  0  0  0  0  0  0  0  0  0
   -3.2128   -0.7156    1.2221 C   0  0  0  0  0  0  0  0  0  0  0  0
    0.3246   -0.0174    1.1954 C   0  0  0  0  0  0  0  0  0  0  0  0
   -0.0744    0.7317    2.1374 O   0  0  0  0  0  0  0  0  0  0  0  0
    1.4200   -0.9145    1.4056 N   0  0  0  0  0  0  0  0  0  0  0  0
    2.3035   -1.1632    0.3255 C   0  0  0  0  0  0  0  0  0  0  0  0
    3.4751   -1.5726    0.4433 O   0  0  0  0  0  0  0  0  0  0  0  0
    1.7635   -1.0726   -0.9973 N   0  0  0  0  0  0  0  0  0  0  0  0
    0.3552   -0.8175   -1.0739 C   0  0  0  0  0  0  0  0  0  0  0  0
   -0.1322   -0.8405   -2.2453 O   0  0  0  0  0  0  0  0  0  0  0  0
  1  2  2  0
  2  3  1  0
  3  4  1  0
  4  5  1  0
  5  6  1  0
  6  7  1  0
  6  8  1  0
  4  9  1  0
  9 10  2  0
  9 11  1  0
 11 12  1  0
 12 13  2  0
 12 14  1  0
 14 15  1  0
 15 16  2  0
 15  4  1  0
M  END
>  <supplier_code>  (106) 
DB00241

>  <zinc_id>  (106) 
ZINC000003830347

>  <catalog_short_name>  (106) 
dbfda

$$$$

     RDKit          3D

 19 21  0  0  0  0  0  0  0  0999 V2000
   -4.1887    1.7686    0.1081 N   0  0  0  0  0  0  0  0  0  0  0  0
   -3.3525    0.7313   -0.0406 C   0  0  0  0  0  0  0  0  0  0  0  0
   -3.6063   -0.4386   -0.6701 N   0  0  0  0  0  0  0  0  0  0  0  0
   -2.7975   -1.4950   -0.6058 C   0  0  0  0  0  0  0  0  0  0  0  0
   -3.3769   -3.1464   -0.6871 Cl  0  0  0  0  0  0  0  0  0  0  0  0
   -1.4847   -1.1796   -0.4789 N   0  0  0  0  0  0  0  0  0  0  0  0
   -1.1196   -0.1449    0.2974 C   0  0  0  0  0  0  0  0  0  0  0  0
   -2.1331    0.7476    0.6330 C   0  0  0  0  0  0  0  0  0  0  0  0
   -1.5912    1.4903    1.6219 N   0  0  0  0  0  0  0  0  0  0  0  0
   -0.2791    1.1535    1.7147 C   0  0  0  0  0  0  0  0  0  0  0  0
    0.0671    0.2638    0.8059 N   0  0  0  0  0  0  0  0  0  0  0  0
    1.1687    0.5327   -0.3122 C   0  0  1  0  0  0  0  0  0  0  0  0
    2.2623    1.1276    0.7692 C   0  0  0  0  0  0  0  0  0  0  0  0
    3.5829    0.7979   -0.1380 C   0  0  2  0  0  0  0  0  0  0  0  0
    3.2072    1.8712   -1.1413 O   0  0  0  0  0  0  0  0  0  0  0  0
    2.8312   -0.4003   -1.1171 C   0  0  1  0  0  0  0  0  0  0  0  0
    3.9260   -1.5236   -0.6293 C   0  0  0  0  0  0  0  0  0  0  0  0
    5.0453   -1.3341   -1.4080 O   0  0  0  0  0  0  0  0  0  0  0  0
    1.8388   -0.8220   -0.0639 O   0  0  0  0  0  0  0  0  0  0  0  0
  1  2  1  0
  2  3  2  0
  3  4  1  0
  4  5  1  0
  4  6  2  0
  6  7  1  0
  7  8  2  0
  8  9  1  0
  9 10  2  0
 10 11  1  0
 12 11  1  1
 12 13  1  0
 13 14  1  0
 14 15  1  6
 14 16  1  0
 16 17  1  1
 17 18  1  0
 16 19  1  0
  8  2  1  0
 19 12  1  0
 11  7  1  0
M  END
>  <supplier_code>  (107) 
DB00242

>  <zinc_id>  (107) 
ZINC000003798064

>  <catalog_short_name>  (107) 
dbfda

$$$$

     RDKit          3D

 31 33  0  0  0  0  0  0  0  0999 V2000
   -5.6626    2.8346    1.2950 C   0  0  0  0  0  0  0  0  0  0  0  0
   -5.6741    1.9459    1.0226 O   0  0  0  0  0  0  0  0  0  0  0  0
   -6.1640    0.8769    0.3192 C   0  0  0  0  0  0  0  0  0  0  0  0
   -7.1036    0.9695   -0.6955 C   0  0  0  0  0  0  0  0  0  0  0  0
   -7.3985   -0.1381   -1.4816 C   0  0  0  0  0  0  0  0  0  0  0  0
   -7.1043   -1.4130   -1.0134 C   0  0  0  0  0  0  0  0  0  0  0  0
   -6.1604   -1.4966   -0.0334 C   0  0  0  0  0  0  0  0  0  0  0  0
   -5.5828   -0.3659    0.5275 C   0  0  0  0  0  0  0  0  0  0  0  0
   -4.3040   -0.3851    1.0955 O   0  0  0  0  0  0  0  0  0  0  0  0
   -3.2488   -0.4555    0.1463 C   0  0  0  0  0  0  0  0  0  0  0  0
   -2.2981   -1.6881    0.6912 C   0  0  1  0  0  0  0  0  0  0  0  0
   -3.4016   -2.7161    0.5140 O   0  0  0  0  0  0  0  0  0  0  0  0
   -1.6916   -1.9710   -0.8174 C   0  0  0  0  0  0  0  0  0  0  0  0
   -0.5433   -1.1132   -0.9464 N   0  0  0  0  0  0  0  0  0  0  0  0
    0.6253   -1.8314   -1.3502 C   0  0  0  0  0  0  0  0  0  0  0  0
    1.8335   -1.6972   -0.5228 C   0  0  0  0  0  0  0  0  0  0  0  0
    1.6644   -1.3273    0.8481 N   0  0  0  0  0  0  0  0  0  0  0  0
    2.0172    0.0740    1.0926 C   0  0  0  0  0  0  0  0  0  0  0  0
    3.1263    0.4588    0.2095 C   0  0  0  0  0  0  0  0  0  0  0  0
    2.9107    0.7638   -0.9786 O   0  0  0  0  0  0  0  0  0  0  0  0
    4.4040    0.3880    0.8149 N   0  0  0  0  0  0  0  0  0  0  0  0
    5.5073    0.9211    0.1217 C   0  0  0  0  0  0  0  0  0  0  0  0
    5.3724    2.1746   -0.4367 C   0  0  0  0  0  0  0  0  0  0  0  0
    4.4564    3.1800    0.1898 C   0  0  0  0  0  0  0  0  0  0  0  0
    6.3966    2.5554   -1.2981 C   0  0  0  0  0  0  0  0  0  0  0  0
    7.3338    1.6273   -1.7387 C   0  0  0  0  0  0  0  0  0  0  0  0
    7.3698    0.3406   -1.2144 C   0  0  0  0  0  0  0  0  0  0  0  0
    6.5615    0.0838   -0.1379 C   0  0  0  0  0  0  0  0  0  0  0  0
    6.8326   -0.9898    0.8615 C   0  0  0  0  0  0  0  0  0  0  0  0
    0.2558   -1.2987    1.2466 C   0  0  0  0  0  0  0  0  0  0  0  0
   -0.3302   -0.3075    0.2381 C   0  0  0  0  0  0  0  0  0  0  0  0
  1  2  1  0
  2  3  1  0
  3  4  2  0
  4  5  1  0
  5  6  2  0
  6  7  1  0
  7  8  2  0
  8  9  1  0
  9 10  1  0
 11 10  1  6
 11 12  1  0
 11 13  1  0
 13 14  1  0
 14 15  1  0
 15 16  1  0
 16 17  1  0
 17 18  1  0
 18 19  1  0
 19 20  2  0
 19 21  1  0
 21 22  1  0
 22 23  2  0
 23 24  1  0
 23 25  1  0
 25 26  2  0
 26 27  1  0
 27 28  2  0
 28 29  1  0
 17 30  1  0
 30 31  1  0
  8  3  1  0
 31 14  1  0
 28 22  1  0
M  END
>  <supplier_code>  (108) 
DB00243

>  <zinc_id>  (108) 
ZINC000095619100

>  <catalog_short_name>  (108) 
dbfda

$$$$

     RDKit          3D

 31 33  0  0  0  0  0  0  0  0999 V2000
   -5.9361   -2.7762    0.1936 C   0  0  0  0  0  0  0  0  0  0  0  0
   -6.6834   -1.8390    0.7324 O   0  0  0  0  0  0  0  0  0  0  0  0
   -6.5085   -0.4848    0.4491 C   0  0  0  0  0  0  0  0  0  0  0  0
   -7.5408    0.4367    0.5740 C   0  0  0  0  0  0  0  0  0  0  0  0
   -7.3803    1.7315    0.1644 C   0  0  0  0  0  0  0  0  0  0  0  0
   -6.2769    2.0362   -0.6074 C   0  0  0  0  0  0  0  0  0  0  0  0
   -5.2289    1.1364   -0.7471 C   0  0  0  0  0  0  0  0  0  0  0  0
   -5.2935   -0.0862   -0.0946 C   0  0  0  0  0  0  0  0  0  0  0  0
   -4.1585   -0.7364    0.3429 O   0  0  0  0  0  0  0  0  0  0  0  0
   -2.9158   -0.0975    0.2194 C   0  0  0  0  0  0  0  0  0  0  0  0
   -2.9186    1.0770    1.3970 C   0  0  2  0  0  0  0  0  0  0  0  0
   -2.3777    2.1302    0.4262 O   0  0  0  0  0  0  0  0  0  0  0  0
   -1.3919    0.7099    1.9352 C   0  0  0  0  0  0  0  0  0  0  0  0
   -0.6616    0.1273    0.9178 N   0  0  0  0  0  0  0  0  0  0  0  0
   -0.5373   -1.2834    0.8517 C   0  0  0  0  0  0  0  0  0  0  0  0
    0.1883   -1.6258   -0.4438 C   0  0  0  0  0  0  0  0  0  0  0  0
    1.4689   -0.9279   -0.3728 N   0  0  0  0  0  0  0  0  0  0  0  0
    1.9590   -1.1749    0.9829 C   0  0  0  0  0  0  0  0  0  0  0  0
    3.3282   -0.5782    1.0744 C   0  0  0  0  0  0  0  0  0  0  0  0
    3.3828    0.6188    1.4490 O   0  0  0  0  0  0  0  0  0  0  0  0
    4.2274   -0.9554    0.0307 N   0  0  0  0  0  0  0  0  0  0  0  0
    5.3840   -0.2022   -0.3102 C   0  0  0  0  0  0  0  0  0  0  0  0
    5.3887    0.4898   -1.5151 C   0  0  0  0  0  0  0  0  0  0  0  0
    4.4690    0.1325   -2.6398 C   0  0  0  0  0  0  0  0  0  0  0  0
    6.4384    1.3636   -1.7080 C   0  0  0  0  0  0  0  0  0  0  0  0
    7.6035    1.1911   -0.9880 C   0  0  0  0  0  0  0  0  0  0  0  0
    7.7090    0.1810   -0.0430 C   0  0  0  0  0  0  0  0  0  0  0  0
    6.5552   -0.4738    0.3615 C   0  0  0  0  0  0  0  0  0  0  0  0
    6.6086   -1.5247    1.4116 C   0  0  0  0  0  0  0  0  0  0  0  0
    1.2725    0.5177   -0.4620 C   0  0  0  0  0  0  0  0  0  0  0  0
   -0.1737    0.8866   -0.1563 C   0  0  0  0  0  0  0  0  0  0  0  0
  1  2  1  0
  2  3  1  0
  3  4  2  0
  4  5  1  0
  5  6  2  0
  6  7  1  0
  7  8  2  0
  8  9  1  0
  9 10  1  0
 11 10  1  6
 11 12  1  0
 11 13  1  0
 13 14  1  0
 14 15  1  0
 15 16  1  0
 16 17  1  0
 17 18  1  0
 18 19  1  0
 19 20  2  0
 19 21  1  0
 21 22  1  0
 22 23  2  0
 23 24  1  0
 23 25  1  0
 25 26  2  0
 26 27  1  0
 27 28  2  0
 28 29  1  0
 17 30  1  0
 30 31  1  0
  8  3  1  0
 31 14  1  0
 28 22  1  0
M  END
>  <supplier_code>  (109) 
DB00243

>  <zinc_id>  (109) 
ZINC000095619101

>  <catalog_short_name>  (109) 
dbfda

$$$$

     RDKit          3D

 11 11  0  0  0  0  0  0  0  0999 V2000
    2.9606   -1.3959    0.5833 N   0  0  0  0  0  0  0  0  0  0  0  0
    1.8669   -0.7440   -0.0447 C   0  0  0  0  0  0  0  0  0  0  0  0
    2.0929    0.4668   -0.6879 C   0  0  0  0  0  0  0  0  0  0  0  0
    1.1237    1.4595   -0.6976 C   0  0  0  0  0  0  0  0  0  0  0  0
   -0.1300    1.1447   -0.1879 C   0  0  0  0  0  0  0  0  0  0  0  0
   -0.9610    2.1519    0.3136 O   0  0  0  0  0  0  0  0  0  0  0  0
   -0.4773   -0.1777    0.0622 C   0  0  0  0  0  0  0  0  0  0  0  0
   -1.8802   -0.5414    0.1303 C   0  0  0  0  0  0  0  0  0  0  0  0
   -2.2962   -1.5393    0.7931 O   0  0  0  0  0  0  0  0  0  0  0  0
   -2.8525    0.2755   -0.4230 O   0  0  0  0  0  0  0  0  0  0  0  0
    0.5531   -1.1000    0.1587 C   0  0  0  0  0  0  0  0  0  0  0  0
  1  2  1  0
  2  3  2  0
  3  4  1  0
  4  5  2  0
  5  6  1  0
  5  7  1  0
  7  8  1  0
  8  9  2  0
  8 10  1  0
  7 11  2  0
 11  2  1  0
M  END
>  <supplier_code>  (110) 
DB00244

>  <zinc_id>  (110) 
ZINC000000001688

>  <catalog_short_name>  (110) 
dbfda

$$$$

     RDKit          3D

 23 26  0  0  0  0  0  0  0  0999 V2000
    4.6259    0.6347   -1.1111 C   0  0  0  0  0  0  0  0  0  0  0  0
    3.5045    0.3884   -0.4727 N   0  0  0  0  0  0  0  0  0  0  0  0
    3.6620    0.9318    0.9847 C   0  0  2  0  0  0  0  0  0  0  0  0
    4.6797   -0.2882    1.4390 C   0  0  0  0  0  0  0  0  0  0  0  0
    3.6312   -1.2408    1.3304 C   0  0  0  0  0  0  0  0  0  0  0  0
    3.4150   -1.1609   -0.2917 C   0  0  1  0  0  0  0  0  0  0  0  0
    1.7686   -1.2275   -0.1608 C   0  0  0  0  0  0  0  0  0  0  0  0
    1.4125    0.3507    0.1437 C   0  0  1  0  0  0  0  0  0  0  0  0
    0.0853    0.0052    0.7902 O   0  0  0  0  0  0  0  0  0  0  0  0
   -0.7139    0.1029   -0.3436 C   0  0  0  0  0  0  0  0  0  0  0  0
   -1.7129    1.1900   -0.1204 C   0  0  0  0  0  0  0  0  0  0  0  0
   -1.6586    2.3011   -0.9509 C   0  0  0  0  0  0  0  0  0  0  0  0
   -2.3005    3.4485   -0.5431 C   0  0  0  0  0  0  0  0  0  0  0  0
   -2.7530    3.5652    0.7446 C   0  0  0  0  0  0  0  0  0  0  0  0
   -3.0073    2.3817    1.4284 C   0  0  0  0  0  0  0  0  0  0  0  0
   -2.5881    1.1516    0.9350 C   0  0  0  0  0  0  0  0  0  0  0  0
   -1.4726   -1.1217   -0.6525 C   0  0  0  0  0  0  0  0  0  0  0  0
   -1.9832   -1.3064   -1.9218 C   0  0  0  0  0  0  0  0  0  0  0  0
   -3.1346   -2.0810   -2.0091 C   0  0  0  0  0  0  0  0  0  0  0  0
   -3.4276   -3.0353   -1.0621 C   0  0  0  0  0  0  0  0  0  0  0  0
   -2.5507   -3.1871   -0.0092 C   0  0  0  0  0  0  0  0  0  0  0  0
   -1.7181   -2.1139    0.2805 C   0  0  0  0  0  0  0  0  0  0  0  0
    2.2363    0.3109    1.5725 C   0  0  0  0  0  0  0  0  0  0  0  0
  1  2  1  0
  2  3  1  0
  3  4  1  1
  4  5  1  0
  6  5  1  1
  6  7  1  0
  7  8  1  0
  8  9  1  1
  9 10  1  0
 10 11  1  0
 11 12  2  0
 12 13  1  0
 13 14  2  0
 14 15  1  0
 15 16  2  0
 10 17  1  0
 17 18  2  0
 18 19  1  0
 19 20  2  0
 20 21  1  0
 21 22  2  0
  8 23  1  0
  6  2  1  0
 16 11  1  0
 22 17  1  0
 23  3  1  0
M  END
>  <supplier_code>  (111) 
DB00245

>  <zinc_id>  (111) 
ZINC000100036536

>  <catalog_short_name>  (111) 
dbfda

$$$$

     RDKit          3D

 28 32  0  0  0  0  0  0  0  0999 V2000
    8.2016   -0.6002    2.5736 O   0  0  0  0  0  0  0  0  0  0  0  0
    6.9763   -0.4121    2.3344 C   0  0  0  0  0  0  0  0  0  0  0  0
    5.8595   -1.3960    2.4807 C   0  0  0  0  0  0  0  0  0  0  0  0
    4.8454   -0.8775    1.5099 C   0  0  0  0  0  0  0  0  0  0  0  0
    3.6810   -1.4534    1.0289 C   0  0  0  0  0  0  0  0  0  0  0  0
    2.9726   -0.8184    0.0169 C   0  0  0  0  0  0  0  0  0  0  0  0
    2.0451   -1.6675   -0.7848 C   0  0  0  0  0  0  0  0  0  0  0  0
    1.1681   -0.8370   -1.6786 C   0  0  0  0  0  0  0  0  0  0  0  0
    0.1496   -0.1037   -0.9413 N   0  0  0  0  0  0  0  0  0  0  0  0
   -0.4894   -0.9172    0.0614 C   0  0  0  0  0  0  0  0  0  0  0  0
   -1.8739   -0.4549    0.4163 C   0  0  0  0  0  0  0  0  0  0  0  0
   -2.6912   -0.4176   -0.7945 N   0  0  0  0  0  0  0  0  0  0  0  0
   -3.7799    0.5171   -0.7589 C   0  0  0  0  0  0  0  0  0  0  0  0
   -3.5274    1.8490   -0.6977 N   0  0  0  0  0  0  0  0  0  0  0  0
   -5.0735    2.4811   -0.9974 S   0  0  0  0  0  0  0  0  0  0  0  0
   -5.9928    1.0576   -0.7148 C   0  0  0  0  0  0  0  0  0  0  0  0
   -7.3328    0.6978   -0.6250 C   0  0  0  0  0  0  0  0  0  0  0  0
   -7.7412   -0.4652    0.0165 C   0  0  0  0  0  0  0  0  0  0  0  0
   -6.7753   -1.0824    0.8012 C   0  0  0  0  0  0  0  0  0  0  0  0
   -5.4444   -0.9138    0.4809 C   0  0  0  0  0  0  0  0  0  0  0  0
   -5.0106    0.2290   -0.1832 C   0  0  0  0  0  0  0  0  0  0  0  0
   -1.9320   -0.5454   -2.0368 C   0  0  0  0  0  0  0  0  0  0  0  0
   -0.7784    0.4435   -1.9072 C   0  0  0  0  0  0  0  0  0  0  0  0
    3.4304    0.3719   -0.5255 C   0  0  0  0  0  0  0  0  0  0  0  0
    3.1092    0.8323   -2.1884 Cl  0  0  0  0  0  0  0  0  0  0  0  0
    4.4720    1.0337    0.1122 C   0  0  0  0  0  0  0  0  0  0  0  0
    5.1938    0.4108    1.1231 C   0  0  0  0  0  0  0  0  0  0  0  0
    6.3382    0.7863    1.8780 N   0  0  0  0  0  0  0  0  0  0  0  0
  1  2  2  0
  2  3  1  0
  3  4  1  0
  4  5  2  0
  5  6  1  0
  6  7  1  0
  7  8  1  0
  8  9  1  0
  9 10  1  0
 10 11  1  0
 11 12  1  0
 12 13  1  0
 13 14  2  0
 14 15  1  0
 15 16  1  0
 16 17  2  0
 17 18  1  0
 18 19  2  0
 19 20  1  0
 20 21  2  0
 12 22  1  0
 22 23  1  0
  6 24  2  0
 24 25  1  0
 24 26  1  0
 26 27  2  0
 27 28  1  0
 28  2  1  0
 27  4  1  0
 23  9  1  0
 21 13  1  0
 21 16  1  0
M  END
>  <supplier_code>  (112) 
DB00246

>  <zinc_id>  (112) 
ZINC000000538550

>  <catalog_short_name>  (112) 
dbfda

$$$$

     RDKit          3D

 33 36  0  0  0  0  0  0  0  0999 V2000
   -1.5183    4.3931    0.1253 C   0  0  0  0  0  0  0  0  0  0  0  0
   -1.6488    4.1223    0.4681 C   0  0  0  0  0  0  0  0  0  0  0  0
   -2.3365    3.1614    1.3622 C   0  0  0  0  0  0  0  0  0  0  0  0
   -1.7427    1.8563    1.3820 N   0  0  0  0  0  0  0  0  0  0  0  0
   -0.3472    1.9393    1.0568 C   0  0  0  0  0  0  0  0  0  0  0  0
    0.1880    0.4372    1.5189 C   0  0  2  0  0  0  0  0  0  0  0  0
    1.6551    0.7324    0.8975 C   0  0  0  0  0  0  0  0  0  0  0  0
    2.2063    1.5740    1.6331 O   0  0  0  0  0  0  0  0  0  0  0  0
    2.1576   -0.0031   -0.1367 N   0  0  0  0  0  0  0  0  0  0  0  0
    2.9384    0.7244   -1.1403 C   0  0  0  0  0  0  0  0  0  0  0  0
    3.6413    1.8959   -0.4645 C   0  0  0  0  0  0  0  0  0  0  0  0
    5.1320    1.7110   -0.4057 C   0  0  0  0  0  0  0  0  0  0  0  0
    5.6130    1.3506    0.9083 N   0  0  0  0  0  0  0  0  0  0  0  0
    5.9798    2.4823    1.7170 C   0  0  0  0  0  0  0  0  0  0  0  0
    6.7044    0.4313    0.7821 C   0  0  0  0  0  0  0  0  0  0  0  0
    2.3367   -1.4247   -0.1971 C   0  0  0  0  0  0  0  0  0  0  0  0
    1.7623   -2.0447   -1.1449 O   0  0  0  0  0  0  0  0  0  0  0  0
    3.6549   -1.9187    0.0776 N   0  0  0  0  0  0  0  0  0  0  0  0
    4.1041   -3.2316   -0.3554 C   0  0  0  0  0  0  0  0  0  0  0  0
    4.8328   -3.8780    0.7916 C   0  0  0  0  0  0  0  0  0  0  0  0
   -0.4235   -0.2537    0.1353 C   0  0  0  0  0  0  0  0  0  0  0  0
   -1.9144   -0.4260    0.7963 C   0  0  2  0  0  0  0  0  0  0  0  0
   -2.5146   -1.1876   -0.4885 C   0  0  0  0  0  0  0  0  0  0  0  0
   -1.9823   -2.4360   -0.7374 C   0  0  0  0  0  0  0  0  0  0  0  0
   -2.8408   -3.4317   -1.1905 C   0  0  0  0  0  0  0  0  0  0  0  0
   -4.2216   -3.2998   -1.1373 C   0  0  0  0  0  0  0  0  0  0  0  0
   -4.7662   -2.1228   -0.6546 C   0  0  0  0  0  0  0  0  0  0  0  0
   -6.0245   -1.6469   -0.4839 N   0  0  0  0  0  0  0  0  0  0  0  0
   -5.8994   -0.4500    0.1423 C   0  0  0  0  0  0  0  0  0  0  0  0
   -4.5650   -0.1131    0.2552 C   0  0  0  0  0  0  0  0  0  0  0  0
   -3.8935   -1.0666   -0.4592 C   0  0  0  0  0  0  0  0  0  0  0  0
   -3.8605    1.0194    0.9334 C   0  0  0  0  0  0  0  0  0  0  0  0
   -2.4067    1.1043    0.1611 C   0  0  1  0  0  0  0  0  0  0  0  0
  1  2  2  0
  2  3  1  0
  3  4  1  0
  4  5  1  0
  5  6  1  0
  6  7  1  6
  7  8  2  0
  7  9  1  0
  9 10  1  0
 10 11  1  0
 11 12  1  0
 12 13  1  0
 13 14  1  0
 13 15  1  0
  9 16  1  0
 16 17  2  0
 16 18  1  0
 18 19  1  0
 19 20  1  0
  6 21  1  0
 22 21  1  6
 22 23  1  0
 23 24  2  0
 24 25  1  0
 25 26  2  0
 26 27  1  0
 27 28  1  0
 28 29  1  0
 29 30  2  0
 30 31  1  0
 30 32  1  0
 33 32  1  1
 33  4  1  0
 33 22  1  0
 31 23  1  0
 31 27  2  0
M  END
>  <supplier_code>  (113) 
DB00248

>  <zinc_id>  (113) 
ZINC000003800008

>  <catalog_short_name>  (113) 
dbfda

$$$$

     RDKit          3D

 17 18  0  0  0  0  0  0  0  0999 V2000
   -5.3797   -0.1875    0.9480 N   0  0  0  0  0  0  0  0  0  0  0  0
   -3.9867   -0.0891    1.1718 C   0  0  0  0  0  0  0  0  0  0  0  0
   -3.2966    1.1170    1.1632 C   0  0  0  0  0  0  0  0  0  0  0  0
   -1.9677    1.1573    0.7547 C   0  0  0  0  0  0  0  0  0  0  0  0
   -1.3240    0.0302    0.2556 C   0  0  0  0  0  0  0  0  0  0  0  0
   -0.2128    0.0905   -1.0862 S   0  0  0  0  0  0  0  0  0  0  0  0
   -0.3222    1.4004   -1.8271 O   0  0  0  0  0  0  0  0  0  0  0  0
   -0.5048   -0.9898   -2.1017 O   0  0  0  0  0  0  0  0  0  0  0  0
    1.4469   -0.1735   -0.5721 C   0  0  0  0  0  0  0  0  0  0  0  0
    2.4009   -0.2625   -1.5648 C   0  0  0  0  0  0  0  0  0  0  0  0
    3.7283   -0.0880   -1.2176 C   0  0  0  0  0  0  0  0  0  0  0  0
    4.1010    0.2665    0.0680 C   0  0  0  0  0  0  0  0  0  0  0  0
    5.4672    0.2414    0.4610 N   0  0  0  0  0  0  0  0  0  0  0  0
    3.1120    0.4091    1.0153 C   0  0  0  0  0  0  0  0  0  0  0  0
    1.8264    0.0185    0.7270 C   0  0  0  0  0  0  0  0  0  0  0  0
   -1.9074   -1.1760    0.6248 C   0  0  0  0  0  0  0  0  0  0  0  0
   -3.1807   -1.2208    1.1800 C   0  0  0  0  0  0  0  0  0  0  0  0
  1  2  1  0
  2  3  2  0
  3  4  1  0
  4  5  2  0
  5  6  1  0
  6  7  2  0
  6  8  2  0
  6  9  1  0
  9 10  2  0
 10 11  1  0
 11 12  2  0
 12 13  1  0
 12 14  1  0
 14 15  2  0
  5 16  1  0
 16 17  2  0
 17  2  1  0
 15  9  1  0
M  END
>  <supplier_code>  (114) 
DB00250

>  <zinc_id>  (114) 
ZINC000000006310

>  <catalog_short_name>  (114) 
dbfda

$$$$

     RDKit          3D

 36 40  0  0  0  0  0  0  0  0999 V2000
    9.0340   -1.4656    0.1630 C   0  0  0  0  0  0  0  0  0  0  0  0
    8.7923   -0.0165    0.5630 C   0  0  0  0  0  0  0  0  0  0  0  0
    8.1301   -0.0262    1.9284 C   0  0  0  0  0  0  0  0  0  0  0  0
    8.0149    0.6667   -0.4355 N   0  0  0  0  0  0  0  0  0  0  0  0
    7.2740   -0.3576   -1.1681 C   0  0  0  0  0  0  0  0  0  0  0  0
    6.3302   -0.9802   -0.1461 C   0  0  0  0  0  0  0  0  0  0  0  0
    5.3956    0.0678    0.2373 N   0  0  0  0  0  0  0  0  0  0  0  0
    4.0627   -0.3525    0.5123 C   0  0  0  0  0  0  0  0  0  0  0  0
    3.5243   -1.4300   -0.1768 C   0  0  0  0  0  0  0  0  0  0  0  0
    2.1706   -1.4604   -0.4610 C   0  0  0  0  0  0  0  0  0  0  0  0
    1.3574   -0.5852    0.2007 C   0  0  0  0  0  0  0  0  0  0  0  0
    0.0371   -0.4117   -0.0998 O   0  0  0  0  0  0  0  0  0  0  0  0
   -0.5911   -0.7588   -1.3230 C   0  0  0  0  0  0  0  0  0  0  0  0
   -0.9968    0.8115   -1.7761 C   0  0  1  0  0  0  0  0  0  0  0  0
   -2.1673    0.2888   -2.8613 C   0  0  0  0  0  0  0  0  0  0  0  0
   -2.7501   -0.6587   -2.0866 O   0  0  0  0  0  0  0  0  0  0  0  0
   -2.8793   -0.0667   -0.8653 C   0  0  2  0  0  0  0  0  0  0  0  0
   -2.8984   -1.1944    0.1434 C   0  0  0  0  0  0  0  0  0  0  0  0
   -3.8522   -0.9897    1.2013 N   0  0  0  0  0  0  0  0  0  0  0  0
   -3.8249    0.0260    2.0929 C   0  0  0  0  0  0  0  0  0  0  0  0
   -4.6751   -0.2823    3.1027 N   0  0  0  0  0  0  0  0  0  0  0  0
   -4.7890   -1.6085    3.0544 C   0  0  0  0  0  0  0  0  0  0  0  0
   -4.2587   -2.0404    1.9163 N   0  0  0  0  0  0  0  0  0  0  0  0
   -4.2621    0.5109   -0.8635 C   0  0  0  0  0  0  0  0  0  0  0  0
   -4.4890    1.8680   -0.6800 C   0  0  0  0  0  0  0  0  0  0  0  0
   -5.7767    2.2971   -0.5212 C   0  0  0  0  0  0  0  0  0  0  0  0
   -6.7826    1.3803   -0.3103 C   0  0  0  0  0  0  0  0  0  0  0  0
   -8.1505    1.7000    0.7508 Cl  0  0  0  0  0  0  0  0  0  0  0  0
   -6.5701    0.1095   -0.8193 C   0  0  0  0  0  0  0  0  0  0  0  0
   -5.3168   -0.3460   -1.1326 C   0  0  0  0  0  0  0  0  0  0  0  0
   -4.9930   -1.8172   -2.0005 Cl  0  0  0  0  0  0  0  0  0  0  0  0
   -2.0306    0.9289   -0.6384 O   0  0  0  0  0  0  0  0  0  0  0  0
    1.8700    0.1547    1.2612 C   0  0  0  0  0  0  0  0  0  0  0  0
    3.2420    0.3225    1.4037 C   0  0  0  0  0  0  0  0  0  0  0  0
    5.6784    1.4079   -0.2524 C   0  0  0  0  0  0  0  0  0  0  0  0
    7.1408    1.6773    0.0865 C   0  0  0  0  0  0  0  0  0  0  0  0
  1  2  1  0
  2  3  1  0
  2  4  1  0
  4  5  1  0
  5  6  1  0
  6  7  1  0
  7  8  1  0
  8  9  2  0
  9 10  1  0
 10 11  2  0
 11 12  1  0
 12 13  1  0
 14 13  1  1
 14 15  1  0
 15 16  1  0
 16 17  1  0
 17 18  1  1
 18 19  1  0
 19 20  1  0
 20 21  2  0
 21 22  1  0
 22 23  2  0
 17 24  1  0
 24 25  2  0
 25 26  1  0
 26 27  2  0
 27 28  1  0
 27 29  1  0
 29 30  2  0
 30 31  1  0
 17 32  1  0
 11 33  1  0
 33 34  2  0
  7 35  1  0
 35 36  1  0
 36  4  1  0
 34  8  1  0
 32 14  1  0
 23 19  1  0
 30 24  1  0
M  END
>  <supplier_code>  (115) 
DB00251

>  <zinc_id>  (115) 
ZINC000003873936

>  <catalog_short_name>  (115) 
dbfda

$$$$

     RDKit          3D

 19 21  0  0  0  0  0  0  0  0999 V2000
   -1.7009    3.5507    1.2180 O   0  0  0  0  0  0  0  0  0  0  0  0
   -1.0119    2.7272    0.5430 C   0  0  0  0  0  0  0  0  0  0  0  0
   -0.7334    2.7091   -0.8411 N   0  0  0  0  0  0  0  0  0  0  0  0
   -0.3259    1.4071   -1.2654 C   0  0  0  0  0  0  0  0  0  0  0  0
   -0.5347    0.9554   -2.4315 O   0  0  0  0  0  0  0  0  0  0  0  0
   -0.1809    0.6067   -0.0371 C   0  0  0  0  0  0  0  0  0  0  0  0
    1.2435    0.2550    0.2386 C   0  0  0  0  0  0  0  0  0  0  0  0
    2.3057    0.8321   -0.4014 C   0  0  0  0  0  0  0  0  0  0  0  0
    3.4058    0.0137   -0.6288 C   0  0  0  0  0  0  0  0  0  0  0  0
    3.5499   -1.2009    0.0319 C   0  0  0  0  0  0  0  0  0  0  0  0
    2.7274   -1.3563    1.1417 C   0  0  0  0  0  0  0  0  0  0  0  0
    1.5051   -0.6982    1.2029 C   0  0  0  0  0  0  0  0  0  0  0  0
   -1.0449   -0.6018   -0.0644 C   0  0  0  0  0  0  0  0  0  0  0  0
   -1.0988   -1.4525   -1.1606 C   0  0  0  0  0  0  0  0  0  0  0  0
   -1.4602   -2.7855   -1.0092 C   0  0  0  0  0  0  0  0  0  0  0  0
   -1.9477   -3.2119    0.2198 C   0  0  0  0  0  0  0  0  0  0  0  0
   -2.3531   -2.2177    1.0995 C   0  0  0  0  0  0  0  0  0  0  0  0
   -1.7370   -0.9899    1.0759 C   0  0  0  0  0  0  0  0  0  0  0  0
   -0.6081    1.4580    1.0680 N   0  0  0  0  0  0  0  0  0  0  0  0
  1  2  2  0
  2  3  1  0
  3  4  1  0
  4  5  2  0
  4  6  1  0
  6  7  1  0
  7  8  2  0
  8  9  1  0
  9 10  2  0
 10 11  1  0
 11 12  2  0
  6 13  1  0
 13 14  2  0
 14 15  1  0
 15 16  2  0
 16 17  1  0
 17 18  2  0
  6 19  1  0
 19  2  1  0
 12  7  1  0
 18 13  1  0
M  END
>  <supplier_code>  (116) 
DB00252

>  <zinc_id>  (116) 
ZINC000002510358

>  <catalog_short_name>  (116) 
dbfda

$$$$

     RDKit          3D

 32 35  0  0  0  0  0  0  0  0999 V2000
    2.2987    2.1110   -2.1462 C   0  0  0  0  0  0  0  0  0  0  0  0
    2.1748    0.5559   -1.6442 C   0  0  1  0  0  0  0  0  0  0  0  0
    3.4913    0.6475   -0.7275 C   0  0  0  0  0  0  0  0  0  0  0  0
    4.6100    1.2085   -1.2655 C   0  0  0  0  0  0  0  0  0  0  0  0
    5.7466    1.2099   -0.4632 C   0  0  0  0  0  0  0  0  0  0  0  0
    5.9298    0.0720    0.3153 C   0  0  0  0  0  0  0  0  0  0  0  0
    4.8955   -0.8514    0.4277 C   0  0  0  0  0  0  0  0  0  0  0  0
    4.9554   -1.8587    1.3927 O   0  0  0  0  0  0  0  0  0  0  0  0
    3.6667   -0.6113   -0.1538 C   0  0  0  0  0  0  0  0  0  0  0  0
    2.4242   -1.1618    0.4034 C   0  0  0  0  0  0  0  0  0  0  0  0
    2.4780   -2.2183    1.0549 O   0  0  0  0  0  0  0  0  0  0  0  0
    1.1781   -0.4452    0.3126 C   0  0  0  0  0  0  0  0  0  0  0  0
    0.1146   -0.6936    1.0242 C   0  0  0  0  0  0  0  0  0  0  0  0
    0.2379   -1.7286    1.9588 O   0  0  0  0  0  0  0  0  0  0  0  0
   -1.2674   -0.2327    0.7699 C   0  0  2  0  0  0  0  0  0  0  0  0
   -1.8023   -0.0039    2.0332 O   0  0  0  0  0  0  0  0  0  0  0  0
   -1.9420   -1.2219   -0.0374 C   0  0  0  0  0  0  0  0  0  0  0  0
   -1.5599   -2.4292    0.0544 O   0  0  0  0  0  0  0  0  0  0  0  0
   -3.3811   -0.9660   -0.2091 C   0  0  0  0  0  0  0  0  0  0  0  0
   -4.4113   -1.9927   -0.0095 C   0  0  0  0  0  0  0  0  0  0  0  0
   -5.5363   -1.5617    0.4835 N   0  0  0  0  0  0  0  0  0  0  0  0
   -4.1038   -3.2850    0.4252 O   0  0  0  0  0  0  0  0  0  0  0  0
   -3.5600    0.3234    0.1212 C   0  0  0  0  0  0  0  0  0  0  0  0
   -4.9126    0.6818   -0.0424 O   0  0  0  0  0  0  0  0  0  0  0  0
   -2.6063    1.1746   -0.8869 C   0  0  1  0  0  0  0  0  0  0  0  0
   -3.1409    2.5602   -0.3346 N   0  0  0  0  0  0  0  0  0  0  0  0
   -3.3639    2.4387    1.0593 C   0  0  0  0  0  0  0  0  0  0  0  0
   -2.1410    3.5477   -0.5183 C   0  0  0  0  0  0  0  0  0  0  0  0
   -1.1984    1.2071    0.0842 C   0  0  2  0  0  0  0  0  0  0  0  0
   -0.2483    0.6028   -1.2057 C   0  0  1  0  0  0  0  0  0  0  0  0
   -0.1986    1.9261   -1.9357 O   0  0  0  0  0  0  0  0  0  0  0  0
    1.1725    0.9943   -0.3404 C   0  0  2  0  0  0  0  0  0  0  0  0
  2  1  1  6
  2  3  1  0
  3  4  2  0
  4  5  1  0
  5  6  2  0
  6  7  1  0
  7  8  1  0
  7  9  2  0
  9 10  1  0
 10 11  2  0
 10 12  1  0
 12 13  2  0
 13 14  1  0
 13 15  1  0
 15 16  1  1
 15 17  1  0
 17 18  2  0
 17 19  1  0
 19 20  1  0
 20 21  2  0
 20 22  1  0
 19 23  2  0
 23 24  1  0
 23 25  1  0
 25 26  1  1
 26 27  1  0
 26 28  1  0
 29 25  1  6
 29 30  1  0
 30 31  1  6
 30 32  1  0
 32  2  1  0
  9  3  1  0
 32 12  1  1
 29 15  1  0
M  END
>  <supplier_code>  (117) 
DB00254

>  <zinc_id>  (117) 
ZINC000016052277

>  <catalog_short_name>  (117) 
dbfda

$$$$

     RDKit          3D

 25 28  0  0  0  0  0  0  0  0999 V2000
    0.0226    1.5181   -2.4099 Cl  0  0  0  0  0  0  0  0  0  0  0  0
    1.4000    0.5877   -1.8324 C   0  0  0  0  0  0  0  0  0  0  0  0
    2.5729    0.6299   -2.5765 C   0  0  0  0  0  0  0  0  0  0  0  0
    3.7592    0.1595   -2.0265 C   0  0  0  0  0  0  0  0  0  0  0  0
    3.7623   -0.0482   -0.6548 C   0  0  0  0  0  0  0  0  0  0  0  0
    2.5847   -0.1281    0.0599 C   0  0  0  0  0  0  0  0  0  0  0  0
    1.3589    0.0142   -0.5807 C   0  0  0  0  0  0  0  0  0  0  0  0
    0.1011   -0.1489    0.1683 C   0  0  0  0  0  0  0  0  0  0  0  0
   -0.7208    1.1024    0.1760 C   0  0  0  0  0  0  0  0  0  0  0  0
   -0.2329    2.1192    0.9888 C   0  0  0  0  0  0  0  0  0  0  0  0
   -0.9507    3.2797    1.0912 C   0  0  0  0  0  0  0  0  0  0  0  0
   -2.2455    3.3247    0.6443 C   0  0  0  0  0  0  0  0  0  0  0  0
   -2.9023    2.1582    0.2734 C   0  0  0  0  0  0  0  0  0  0  0  0
   -2.1057    1.0379    0.0967 C   0  0  0  0  0  0  0  0  0  0  0  0
   -0.6866   -1.2607   -0.4104 C   0  0  0  0  0  0  0  0  0  0  0  0
   -0.5267   -1.6983   -1.7199 C   0  0  0  0  0  0  0  0  0  0  0  0
   -1.6409   -2.0683   -2.4561 C   0  0  0  0  0  0  0  0  0  0  0  0
   -2.6816   -2.6508   -1.7489 C   0  0  0  0  0  0  0  0  0  0  0  0
   -2.7325   -2.5725   -0.3655 C   0  0  0  0  0  0  0  0  0  0  0  0
   -1.8341   -1.7009    0.2266 C   0  0  0  0  0  0  0  0  0  0  0  0
    0.3845   -0.4219    1.5755 N   0  0  0  0  0  0  0  0  0  0  0  0
   -0.2308   -1.2984    2.4004 C   0  0  0  0  0  0  0  0  0  0  0  0
    0.7393   -1.6226    3.3403 C   0  0  0  0  0  0  0  0  0  0  0  0
    1.6016   -0.5868    3.3540 N   0  0  0  0  0  0  0  0  0  0  0  0
    1.2040    0.2748    2.3862 C   0  0  0  0  0  0  0  0  0  0  0  0
  1  2  1  0
  2  3  2  0
  3  4  1  0
  4  5  2  0
  5  6  1  0
  6  7  2  0
  7  8  1  0
  8  9  1  0
  9 10  2  0
 10 11  1  0
 11 12  2  0
 12 13  1  0
 13 14  2  0
  8 15  1  0
 15 16  2  0
 16 17  1  0
 17 18  2  0
 18 19  1  0
 19 20  2  0
  8 21  1  0
 21 22  1  0
 22 23  2  0
 23 24  1  0
 24 25  2  0
  7  2  1  0
 14  9  1  0
 20 15  1  0
 25 21  1  0
M  END
>  <supplier_code>  (118) 
DB00257

>  <zinc_id>  (118) 
ZINC000003807804

>  <catalog_short_name>  (118) 
dbfda

$$$$

     RDKit          3D

 11 11  0  0  0  0  0  0  0  0999 V2000
    3.2645    0.0402    1.2831 N   0  0  0  0  0  0  0  0  0  0  0  0
    2.3602   -0.0024    0.1715 C   0  0  0  0  0  0  0  0  0  0  0  0
    1.7695    1.1497   -0.3372 C   0  0  0  0  0  0  0  0  0  0  0  0
    0.3957    1.1902   -0.5539 C   0  0  0  0  0  0  0  0  0  0  0  0
   -0.3659    0.0282   -0.5176 C   0  0  0  0  0  0  0  0  0  0  0  0
   -2.0213    0.0515    0.0661 S   0  0  0  0  0  0  0  0  0  0  0  0
   -2.6106   -1.5706    0.0437 N   0  0  0  0  0  0  0  0  0  0  0  0
   -2.0732    0.5386    1.4859 O   0  0  0  0  0  0  0  0  0  0  0  0
   -2.8183    0.8983   -0.8658 O   0  0  0  0  0  0  0  0  0  0  0  0
    0.3765   -1.1463   -0.5634 C   0  0  0  0  0  0  0  0  0  0  0  0
    1.7226   -1.1774   -0.2126 C   0  0  0  0  0  0  0  0  0  0  0  0
  1  2  1  0
  2  3  2  0
  3  4  1  0
  4  5  2  0
  5  6  1  0
  6  7  1  0
  6  8  2  0
  6  9  2  0
  5 10  1  0
 10 11  2  0
 11  2  1  0
M  END
>  <supplier_code>  (119) 
DB00259

>  <zinc_id>  (119) 
ZINC000000002101

>  <catalog_short_name>  (119) 
dbfda

$$$$

     RDKit          3D

  7  7  0  0  0  0  0  0  0  0999 V2000
    0.1650    1.9290    0.0014 N   0  0  0  0  0  0  0  0  0  0  0  0
   -0.4292    0.6776   -0.7634 C   0  0  2  0  0  0  0  0  0  0  0  0
   -1.3856    0.2673    0.5131 C   0  0  0  0  0  0  0  0  0  0  0  0
   -1.1450   -1.1345    0.5492 O   0  0  0  0  0  0  0  0  0  0  0  0
    0.0661   -1.4289    0.0084 N   0  0  0  0  0  0  0  0  0  0  0  0
    0.7221   -0.3420   -0.2729 C   0  0  0  0  0  0  0  0  0  0  0  0
    2.0067    0.0316   -0.0358 O   0  0  0  0  0  0  0  0  0  0  0  0
  2  1  1  1
  2  3  1  0
  3  4  1  0
  4  5  1  0
  5  6  2  0
  6  7  1  0
  6  2  1  0
M  END
>  <supplier_code>  (120) 
DB00260

>  <zinc_id>  (120) 
ZINC000034676245

>  <catalog_short_name>  (120) 
dbfda

$$$$

     RDKit          3D

 16 18  0  0  0  0  0  0  0  0999 V2000
    4.5393    0.0287    1.2549 O   0  0  0  0  0  0  0  0  0  0  0  0
    3.6523   -0.2111    0.3889 C   0  0  0  0  0  0  0  0  0  0  0  0
    3.0293    0.8535   -0.4605 C   0  0  0  0  0  0  0  0  0  0  0  0
    1.6246    0.4699   -0.3449 N   0  0  0  0  0  0  0  0  0  0  0  0
    0.4451    1.2768   -0.1950 C   0  0  0  0  0  0  0  0  0  0  0  0
   -0.7882    0.4837   -0.3284 C   0  0  0  0  0  0  0  0  0  0  0  0
   -1.9978    0.9812    0.1420 C   0  0  0  0  0  0  0  0  0  0  0  0
   -2.0969    2.4901    1.0298 Cl  0  0  0  0  0  0  0  0  0  0  0  0
   -3.1493    0.2069    0.0705 C   0  0  0  0  0  0  0  0  0  0  0  0
   -4.3575    0.2737    1.3462 Cl  0  0  0  0  0  0  0  0  0  0  0  0
   -3.0885   -0.8306   -0.8460 C   0  0  0  0  0  0  0  0  0  0  0  0
   -1.8762   -1.3964   -1.2246 C   0  0  0  0  0  0  0  0  0  0  0  0
   -0.6804   -0.8037   -0.8341 C   0  0  0  0  0  0  0  0  0  0  0  0
    0.4491   -1.6287   -0.5229 N   0  0  0  0  0  0  0  0  0  0  0  0
    1.5985   -0.9283   -0.0314 C   0  0  0  0  0  0  0  0  0  0  0  0
    2.6966   -1.2656    0.5556 N   0  0  0  0  0  0  0  0  0  0  0  0
  1  2  2  0
  2  3  1  0
  3  4  1  0
  4  5  1  0
  5  6  1  0
  6  7  2  0
  7  8  1  0
  7  9  1  0
  9 10  1  0
  9 11  2  0
 11 12  1  0
 12 13  2  0
 13 14  1  0
 14 15  1  0
 15 16  2  0
 16  2  1  0
 15  4  1  0
 13  6  1  0
M  END
>  <supplier_code>  (121) 
DB00261

>  <zinc_id>  (121) 
ZINC000003871541

>  <catalog_short_name>  (121) 
dbfda

$$$$

     RDKit          3D

 12 11  0  0  0  0  0  0  0  0999 V2000
    1.1308    2.0096   -0.0506 O   0  0  0  0  0  0  0  0  0  0  0  0
    1.1939    1.0764    0.7756 N   0  0  0  0  0  0  0  0  0  0  0  0
    0.8648   -0.2025    0.2844 N   0  0  0  0  0  0  0  0  0  0  0  0
    1.8261   -0.7776   -0.6536 C   0  0  0  0  0  0  0  0  0  0  0  0
    3.1958   -0.9242   -0.0523 C   0  0  0  0  0  0  0  0  0  0  0  0
    4.1171    0.5629   -0.3191 Cl  0  0  0  0  0  0  0  0  0  0  0  0
   -0.5073   -0.4161   -0.0706 C   0  0  0  0  0  0  0  0  0  0  0  0
   -0.8565    0.0031   -1.2054 O   0  0  0  0  0  0  0  0  0  0  0  0
   -1.4149   -1.0279    0.8459 N   0  0  0  0  0  0  0  0  0  0  0  0
   -2.7373   -1.3517    0.3798 C   0  0  0  0  0  0  0  0  0  0  0  0
   -3.7604   -0.2899    0.7192 C   0  0  0  0  0  0  0  0  0  0  0  0
   -3.0520    1.3380    0.6094 Cl  0  0  0  0  0  0  0  0  0  0  0  0
  1  2  2  0
  2  3  1  0
  3  4  1  0
  4  5  1  0
  5  6  1  0
  3  7  1  0
  7  8  2  0
  7  9  1  0
  9 10  1  0
 10 11  1  0
 11 12  1  0
M  END
>  <supplier_code>  (122) 
DB00262

>  <zinc_id>  (122) 
ZINC000003830387

>  <catalog_short_name>  (122) 
dbfda

$$$$

     RDKit          3D

 18 19  0  0  0  0  0  0  0  0999 V2000
    4.8782    2.0780   -0.6472 C   0  0  0  0  0  0  0  0  0  0  0  0
    3.9835    0.8949   -0.4493 C   0  0  0  0  0  0  0  0  0  0  0  0
    4.1677   -0.3539   -0.9427 N   0  0  0  0  0  0  0  0  0  0  0  0
    3.1063   -1.0751   -0.7576 O   0  0  0  0  0  0  0  0  0  0  0  0
    2.1265   -0.3664   -0.2535 C   0  0  0  0  0  0  0  0  0  0  0  0
    0.7363   -0.4946   -0.5749 N   0  0  0  0  0  0  0  0  0  0  0  0
   -0.3411   -1.5292    0.2531 S   0  0  0  0  0  0  0  0  0  0  0  0
    0.1540   -1.9494    1.6009 O   0  0  0  0  0  0  0  0  0  0  0  0
   -0.5499   -2.8003   -0.5410 O   0  0  0  0  0  0  0  0  0  0  0  0
   -1.8804   -0.6847    0.3827 C   0  0  0  0  0  0  0  0  0  0  0  0
   -2.8893   -0.8531   -0.5462 C   0  0  0  0  0  0  0  0  0  0  0  0
   -4.1088   -0.2248   -0.3289 C   0  0  0  0  0  0  0  0  0  0  0  0
   -4.1555    0.9108    0.4638 C   0  0  0  0  0  0  0  0  0  0  0  0
   -5.1100    1.9545    0.2343 N   0  0  0  0  0  0  0  0  0  0  0  0
   -3.0123    1.2268    1.1868 C   0  0  0  0  0  0  0  0  0  0  0  0
   -1.8907    0.4449    1.1704 C   0  0  0  0  0  0  0  0  0  0  0  0
    2.6876    0.8705    0.0420 C   0  0  0  0  0  0  0  0  0  0  0  0
    2.0980    1.9511    0.8678 C   0  0  0  0  0  0  0  0  0  0  0  0
  1  2  1  0
  2  3  2  0
  3  4  1  0
  4  5  1  0
  5  6  1  0
  6  7  1  0
  7  8  2  0
  7  9  2  0
  7 10  1  0
 10 11  2  0
 11 12  1  0
 12 13  2  0
 13 14  1  0
 13 15  1  0
 15 16  2  0
  5 17  2  0
 17 18  1  0
 17  2  1  0
 16 10  1  0
M  END
>  <supplier_code>  (123) 
DB00263

>  <zinc_id>  (123) 
ZINC000096006009

>  <catalog_short_name>  (123) 
dbfda

$$$$

     RDKit          3D

 19 19  0  0  0  0  0  0  0  0999 V2000
   -5.3780    1.9920    0.5865 C   0  0  0  0  0  0  0  0  0  0  0  0
   -5.3988    1.7635    0.6758 O   0  0  0  0  0  0  0  0  0  0  0  0
   -4.8103    0.4956    0.5779 C   0  0  0  0  0  0  0  0  0  0  0  0
   -4.0441    0.4280   -0.7162 C   0  0  0  0  0  0  0  0  0  0  0  0
   -2.5817    0.2778   -0.4387 C   0  0  0  0  0  0  0  0  0  0  0  0
   -1.6716    0.4365   -1.4657 C   0  0  0  0  0  0  0  0  0  0  0  0
   -0.5456   -0.3668   -1.5991 C   0  0  0  0  0  0  0  0  0  0  0  0
   -0.2347   -1.2194   -0.5471 C   0  0  0  0  0  0  0  0  0  0  0  0
    0.5328   -2.3328   -0.7887 O   0  0  0  0  0  0  0  0  0  0  0  0
    1.8100   -2.5538   -0.2342 C   0  0  0  0  0  0  0  0  0  0  0  0
    2.2165   -1.1063    0.4695 C   0  0  1  0  0  0  0  0  0  0  0  0
    3.4290   -1.7313    1.1579 O   0  0  0  0  0  0  0  0  0  0  0  0
    3.1294   -0.6615   -0.8435 C   0  0  0  0  0  0  0  0  0  0  0  0
    4.1777    0.1497   -0.2393 N   0  0  0  0  0  0  0  0  0  0  0  0
    3.8975    1.5636   -0.4766 C   0  0  0  0  0  0  0  0  0  0  0  0
    3.3040    2.0889    0.8237 C   0  0  0  0  0  0  0  0  0  0  0  0
    5.2346    2.2527   -0.7149 C   0  0  0  0  0  0  0  0  0  0  0  0
   -0.9503   -1.1101    0.6311 C   0  0  0  0  0  0  0  0  0  0  0  0
   -2.1167   -0.3661    0.7011 C   0  0  0  0  0  0  0  0  0  0  0  0
  1  2  1  0
  2  3  1  0
  3  4  1  0
  4  5  1  0
  5  6  2  0
  6  7  1  0
  7  8  2  0
  8  9  1  0
  9 10  1  0
 11 10  1  6
 11 12  1  0
 11 13  1  0
 13 14  1  0
 14 15  1  0
 15 16  1  0
 15 17  1  0
  8 18  1  0
 18 19  2  0
 19  5  1  0
M  END
>  <supplier_code>  (124) 
DB00264

>  <zinc_id>  (124) 
ZINC000001530717

>  <catalog_short_name>  (124) 
dbfda

$$$$

     RDKit          3D

 19 19  0  0  0  0  0  0  0  0999 V2000
   -6.0499    2.4209    1.2851 C   0  0  0  0  0  0  0  0  0  0  0  0
   -5.7519    1.3232    0.8748 O   0  0  0  0  0  0  0  0  0  0  0  0
   -4.8823    1.3146   -0.2057 C   0  0  0  0  0  0  0  0  0  0  0  0
   -4.4231   -0.0932   -0.4646 C   0  0  0  0  0  0  0  0  0  0  0  0
   -3.1403   -0.3449    0.2647 C   0  0  0  0  0  0  0  0  0  0  0  0
   -2.1527    0.6229    0.3690 C   0  0  0  0  0  0  0  0  0  0  0  0
   -0.8033    0.3140    0.2589 C   0  0  0  0  0  0  0  0  0  0  0  0
   -0.4338   -1.0077    0.0880 C   0  0  0  0  0  0  0  0  0  0  0  0
    0.6803   -1.3171   -0.6954 O   0  0  0  0  0  0  0  0  0  0  0  0
    1.8058   -0.4736   -0.4624 C   0  0  0  0  0  0  0  0  0  0  0  0
    3.0990   -1.5421   -0.5944 C   0  0  2  0  0  0  0  0  0  0  0  0
    2.4688   -2.5153    0.4291 O   0  0  0  0  0  0  0  0  0  0  0  0
    3.9472   -0.7629    0.6310 C   0  0  0  0  0  0  0  0  0  0  0  0
    3.8320    0.6213    0.3066 N   0  0  0  0  0  0  0  0  0  0  0  0
    4.9578    1.4437    0.5841 C   0  0  0  0  0  0  0  0  0  0  0  0
    4.7105    2.7835   -0.0707 C   0  0  0  0  0  0  0  0  0  0  0  0
    6.2104    0.8132    0.0418 C   0  0  0  0  0  0  0  0  0  0  0  0
   -1.3607   -1.9567    0.4145 C   0  0  0  0  0  0  0  0  0  0  0  0
   -2.7138   -1.6437    0.4372 C   0  0  0  0  0  0  0  0  0  0  0  0
  1  2  1  0
  2  3  1  0
  3  4  1  0
  4  5  1  0
  5  6  2  0
  6  7  1  0
  7  8  2  0
  8  9  1  0
  9 10  1  0
 11 10  1  1
 11 12  1  0
 11 13  1  0
 13 14  1  0
 14 15  1  0
 15 16  1  0
 15 17  1  0
  8 18  1  0
 18 19  2  0
 19  5  1  0
M  END
>  <supplier_code>  (125) 
DB00264

>  <zinc_id>  (125) 
ZINC000001530718

>  <catalog_short_name>  (125) 
dbfda

$$$$

     RDKit          3D

 15 15  0  0  0  0  0  0  0  0999 V2000
    3.8541   -0.7691   -1.6888 C   0  0  0  0  0  0  0  0  0  0  0  0
    2.4892   -0.2050   -1.4394 C   0  0  0  0  0  0  0  0  0  0  0  0
    2.2753    0.8868   -0.7395 C   0  0  0  0  0  0  0  0  0  0  0  0
    1.4747    0.9208    0.4939 C   0  0  0  0  0  0  0  0  0  0  0  0
    2.1398    1.2738    1.5163 O   0  0  0  0  0  0  0  0  0  0  0  0
    0.4120   -0.0288    0.6522 N   0  0  0  0  0  0  0  0  0  0  0  0
    0.0319   -0.4347    2.0041 C   0  0  0  0  0  0  0  0  0  0  0  0
    0.7274   -1.6937    2.4315 C   0  0  0  0  0  0  0  0  0  0  0  0
   -0.6436   -0.1217   -0.3140 C   0  0  0  0  0  0  0  0  0  0  0  0
   -1.1288   -1.3683   -0.6867 C   0  0  0  0  0  0  0  0  0  0  0  0
   -2.4383   -1.5546   -1.1125 C   0  0  0  0  0  0  0  0  0  0  0  0
   -3.3878   -0.6207   -0.7135 C   0  0  0  0  0  0  0  0  0  0  0  0
   -2.9098    0.6844   -0.6587 C   0  0  0  0  0  0  0  0  0  0  0  0
   -1.5959    0.8891   -0.2544 C   0  0  0  0  0  0  0  0  0  0  0  0
   -1.3002    2.1417    0.5095 C   0  0  0  0  0  0  0  0  0  0  0  0
  1  2  1  0
  2  3  2  0
  3  4  1  0
  4  5  2  0
  4  6  1  0
  6  7  1  0
  7  8  1  0
  6  9  1  0
  9 10  2  0
 10 11  1  0
 11 12  2  0
 12 13  1  0
 13 14  2  0
 14 15  1  0
 14  9  1  0
M  END
>  <supplier_code>  (126) 
DB00265

>  <zinc_id>  (126) 
ZINC000000056427

>  <catalog_short_name>  (126) 
dbfda

$$$$

     RDKit          3D

 15 15  0  0  0  0  0  0  0  0999 V2000
    4.0092   -1.1812   -0.1957 C   0  0  0  0  0  0  0  0  0  0  0  0
    3.3478   -0.8399    1.0977 C   0  0  0  0  0  0  0  0  0  0  0  0
    2.2983   -0.0216    1.0448 C   0  0  0  0  0  0  0  0  0  0  0  0
    1.5355    0.0395   -0.2086 C   0  0  0  0  0  0  0  0  0  0  0  0
    2.2294    0.1561   -1.2633 O   0  0  0  0  0  0  0  0  0  0  0  0
    0.3190    0.7926   -0.1231 N   0  0  0  0  0  0  0  0  0  0  0  0
    0.4690    2.2173    0.0340 C   0  0  0  0  0  0  0  0  0  0  0  0
   -0.8177    2.9272    0.3301 C   0  0  0  0  0  0  0  0  0  0  0  0
   -0.8767    0.0789    0.1420 C   0  0  0  0  0  0  0  0  0  0  0  0
   -1.7634    0.3902    1.1442 C   0  0  0  0  0  0  0  0  0  0  0  0
   -3.0062   -0.2283    1.2236 C   0  0  0  0  0  0  0  0  0  0  0  0
   -3.5417   -0.6768    0.0222 C   0  0  0  0  0  0  0  0  0  0  0  0
   -2.6504   -1.1211   -0.9466 C   0  0  0  0  0  0  0  0  0  0  0  0
   -1.2936   -0.8623   -0.7917 C   0  0  0  0  0  0  0  0  0  0  0  0
   -0.2585   -1.6704   -1.5095 C   0  0  0  0  0  0  0  0  0  0  0  0
  1  2  1  0
  2  3  2  0
  3  4  1  0
  4  5  2  0
  4  6  1  0
  6  7  1  0
  7  8  1  0
  6  9  1  0
  9 10  2  0
 10 11  1  0
 11 12  2  0
 12 13  1  0
 13 14  2  0
 14 15  1  0
 14  9  1  0
M  END
>  <supplier_code>  (127) 
DB00265

>  <zinc_id>  (127) 
ZINC000012503076

>  <catalog_short_name>  (127) 
dbfda

$$$$

     RDKit          3D

 19 20  0  0  0  0  0  0  0  0999 V2000
    4.5113   -2.5081    0.3639 C   0  0  0  0  0  0  0  0  0  0  0  0
    4.2557   -1.0212    0.4696 C   0  0  0  0  0  0  0  0  0  0  0  0
    2.8576   -0.6575   -0.0151 C   0  0  0  0  0  0  0  0  0  0  0  0
    2.3591    0.3856    0.8333 N   0  0  0  0  0  0  0  0  0  0  0  0
    3.1412    1.5870    0.8264 C   0  0  0  0  0  0  0  0  0  0  0  0
    3.6282    1.9284   -0.5772 C   0  0  0  0  0  0  0  0  0  0  0  0
    2.7731    3.1013   -1.0417 C   0  0  0  0  0  0  0  0  0  0  0  0
    0.9419    0.5954    0.7417 C   0  0  0  0  0  0  0  0  0  0  0  0
    0.4064    0.5193   -0.6616 C   0  0  0  0  0  0  0  0  0  0  0  0
   -0.7583   -0.4187   -0.6321 C   0  0  0  0  0  0  0  0  0  0  0  0
   -0.5551   -1.7484   -0.9627 C   0  0  0  0  0  0  0  0  0  0  0  0
   -1.4080   -2.7133   -0.4417 C   0  0  0  0  0  0  0  0  0  0  0  0
   -2.6580   -2.3051    0.0003 C   0  0  0  0  0  0  0  0  0  0  0  0
   -2.9686   -0.9665    0.1962 C   0  0  0  0  0  0  0  0  0  0  0  0
   -1.8910   -0.0940    0.1041 C   0  0  0  0  0  0  0  0  0  0  0  0
   -2.4011    1.1942    0.6677 C   0  0  0  0  0  0  0  0  0  0  0  0
   -3.8047    1.1832    0.1497 C   0  0  0  0  0  0  0  0  0  0  0  0
   -4.2542    2.1375   -0.5539 O   0  0  0  0  0  0  0  0  0  0  0  0
   -4.1755   -0.1991    0.1092 N   0  0  0  0  0  0  0  0  0  0  0  0
  1  2  1  0
  2  3  1  0
  3  4  1  0
  4  5  1  0
  5  6  1  0
  6  7  1  0
  4  8  1  0
  8  9  1  0
  9 10  1  0
 10 11  2  0
 11 12  1  0
 12 13  2  0
 13 14  1  0
 14 15  2  0
 15 16  1  0
 16 17  1  0
 17 18  2  0
 17 19  1  0
 15 10  1  0
 19 14  1  0
M  END
>  <supplier_code>  (128) 
DB00268

>  <zinc_id>  (128) 
ZINC000000002041

>  <catalog_short_name>  (128) 
dbfda

$$$$

     RDKit          3D

 27 29  0  0  0  0  0  0  0  0999 V2000
   -0.8938    4.7178   -1.5444 C   0  0  0  0  0  0  0  0  0  0  0  0
   -0.3252    3.5300   -1.1236 O   0  0  0  0  0  0  0  0  0  0  0  0
   -0.9778    2.6213   -0.2820 C   0  0  0  0  0  0  0  0  0  0  0  0
   -1.9906    3.1180    0.3017 O   0  0  0  0  0  0  0  0  0  0  0  0
   -0.1706    1.5916    0.4020 C   0  0  0  0  0  0  0  0  0  0  0  0
    0.8525    2.1141    1.0832 C   0  0  0  0  0  0  0  0  0  0  0  0
    1.1611    3.5565    1.1477 C   0  0  0  0  0  0  0  0  0  0  0  0
    1.6156    1.1796    1.8148 N   0  0  0  0  0  0  0  0  0  0  0  0
    1.4383   -0.1792    1.4744 C   0  0  0  0  0  0  0  0  0  0  0  0
    1.8527   -1.2345    2.4523 C   0  0  0  0  0  0  0  0  0  0  0  0
    0.7789   -0.6161    0.4168 C   0  0  0  0  0  0  0  0  0  0  0  0
    1.4583   -1.7152   -0.2971 C   0  0  0  0  0  0  0  0  0  0  0  0
    1.3412   -2.9228    0.0392 O   0  0  0  0  0  0  0  0  0  0  0  0
    2.4904   -1.4644   -1.2069 O   0  0  0  0  0  0  0  0  0  0  0  0
    3.7019   -2.2168   -1.2140 C   0  0  0  0  0  0  0  0  0  0  0  0
    3.3933   -3.5085   -0.4701 C   0  0  0  0  0  0  0  0  0  0  0  0
    4.6573   -1.4080   -0.3418 C   0  0  0  0  0  0  0  0  0  0  0  0
    0.3903    0.5145   -0.6774 C   0  0  1  0  0  0  0  0  0  0  0  0
   -1.0781   -0.1019   -0.9370 C   0  0  0  0  0  0  0  0  0  0  0  0
   -1.3354   -0.5357   -2.2053 C   0  0  0  0  0  0  0  0  0  0  0  0
   -2.5217   -1.2483   -2.3533 C   0  0  0  0  0  0  0  0  0  0  0  0
   -3.1739   -1.7718   -1.2432 C   0  0  0  0  0  0  0  0  0  0  0  0
   -3.0633   -1.0485   -0.0600 C   0  0  0  0  0  0  0  0  0  0  0  0
   -3.3519   -1.5037    1.1868 N   0  0  0  0  0  0  0  0  0  0  0  0
   -2.6605   -0.8432    2.0726 O   0  0  0  0  0  0  0  0  0  0  0  0
   -1.7627   -0.1818    1.4356 N   0  0  0  0  0  0  0  0  0  0  0  0
   -1.8264   -0.4429    0.1292 C   0  0  0  0  0  0  0  0  0  0  0  0
  1  2  1  0
  2  3  1  0
  3  4  2  0
  3  5  1  0
  5  6  2  0
  6  7  1  0
  6  8  1  0
  8  9  1  0
  9 10  1  0
  9 11  2  0
 11 12  1  0
 12 13  2  0
 12 14  1  0
 14 15  1  0
 15 16  1  0
 15 17  1  0
 11 18  1  0
 18 19  1  6
 19 20  2  0
 20 21  1  0
 21 22  2  0
 22 23  1  0
 23 24  2  0
 24 25  1  0
 25 26  1  0
 26 27  2  0
 18  5  1  0
 27 19  1  0
 27 23  1  0
M  END
>  <supplier_code>  (129) 
DB00270

>  <zinc_id>  (129) 
ZINC000000607939

>  <catalog_short_name>  (129) 
dbfda

$$$$

     RDKit          3D

 27 29  0  0  0  0  0  0  0  0999 V2000
   -2.0472    3.7524    2.0971 C   0  0  0  0  0  0  0  0  0  0  0  0
   -0.9884    3.0716    1.5021 O   0  0  0  0  0  0  0  0  0  0  0  0
   -1.0990    2.3597    0.3073 C   0  0  0  0  0  0  0  0  0  0  0  0
   -2.0737    2.6780   -0.4227 O   0  0  0  0  0  0  0  0  0  0  0  0
    0.0592    1.6987   -0.3206 C   0  0  0  0  0  0  0  0  0  0  0  0
    1.1958    2.3825   -0.1479 C   0  0  0  0  0  0  0  0  0  0  0  0
    1.2516    3.7967    0.2716 C   0  0  0  0  0  0  0  0  0  0  0  0
    2.2994    1.8616   -0.8611 N   0  0  0  0  0  0  0  0  0  0  0  0
    2.1551    0.5414   -1.3613 C   0  0  0  0  0  0  0  0  0  0  0  0
    2.8781    0.1076   -2.6029 C   0  0  0  0  0  0  0  0  0  0  0  0
    1.2541   -0.3039   -0.9569 C   0  0  0  0  0  0  0  0  0  0  0  0
    1.7987   -1.6271   -0.5924 C   0  0  0  0  0  0  0  0  0  0  0  0
    2.2690   -2.3308   -1.5179 O   0  0  0  0  0  0  0  0  0  0  0  0
    2.1495   -1.9790    0.6938 O   0  0  0  0  0  0  0  0  0  0  0  0
    3.3466   -2.6749    1.0320 C   0  0  0  0  0  0  0  0  0  0  0  0
    4.1035   -1.8010    2.0263 C   0  0  0  0  0  0  0  0  0  0  0  0
    4.1464   -2.8712   -0.2450 C   0  0  0  0  0  0  0  0  0  0  0  0
    0.2823    0.1806    0.2640 C   0  0  2  0  0  0  0  0  0  0  0  0
   -1.0885   -0.3453   -0.4537 C   0  0  0  0  0  0  0  0  0  0  0  0
   -0.9826   -1.4095   -1.2959 C   0  0  0  0  0  0  0  0  0  0  0  0
   -2.1672   -1.8825   -1.8482 C   0  0  0  0  0  0  0  0  0  0  0  0
   -3.2061   -2.0494   -0.9544 C   0  0  0  0  0  0  0  0  0  0  0  0
   -3.3016   -1.0998    0.0504 C   0  0  0  0  0  0  0  0  0  0  0  0
   -4.1122   -1.1397    1.1358 N   0  0  0  0  0  0  0  0  0  0  0  0
   -3.6125   -0.3439    2.0236 O   0  0  0  0  0  0  0  0  0  0  0  0
   -2.3401   -0.1879    1.7537 N   0  0  0  0  0  0  0  0  0  0  0  0
   -2.1701   -0.3848    0.4234 C   0  0  0  0  0  0  0  0  0  0  0  0
  1  2  1  0
  2  3  1  0
  3  4  2  0
  3  5  1  0
  5  6  2  0
  6  7  1  0
  6  8  1  0
  8  9  1  0
  9 10  1  0
  9 11  2  0
 11 12  1  0
 12 13  2  0
 12 14  1  0
 14 15  1  0
 15 16  1  0
 15 17  1  0
 11 18  1  0
 18 19  1  6
 19 20  2  0
 20 21  1  0
 21 22  2  0
 22 23  1  0
 23 24  2  0
 24 25  1  0
 25 26  1  0
 26 27  2  0
 18  5  1  0
 27 19  1  0
 27 23  1  0
M  END
>  <supplier_code>  (130) 
DB00270

>  <zinc_id>  (130) 
ZINC000100001918

>  <catalog_short_name>  (130) 
dbfda

$$$$

     RDKit          3D

 20 20  0  0  0  0  0  0  0  0999 V2000
    4.7316   -1.2997   -0.5572 C   0  0  0  0  0  0  0  0  0  0  0  0
    3.4802   -1.1904    0.2426 C   0  0  0  0  0  0  0  0  0  0  0  0
    3.4729   -1.2596    1.5078 O   0  0  0  0  0  0  0  0  0  0  0  0
    2.2127   -1.2951   -0.3857 N   0  0  0  0  0  0  0  0  0  0  0  0
    1.1286   -0.5052    0.1190 C   0  0  0  0  0  0  0  0  0  0  0  0
   -0.0695   -1.1880    0.2912 C   0  0  0  0  0  0  0  0  0  0  0  0
   -0.0027   -3.0414    1.2541 I   0  0  0  0  0  0  0  0  0  0  0  0
   -1.2384   -0.4740    0.2684 C   0  0  0  0  0  0  0  0  0  0  0  0
   -2.4788   -0.9757    0.7804 N   0  0  0  0  0  0  0  0  0  0  0  0
   -3.2910   -1.8783    0.0256 C   0  0  0  0  0  0  0  0  0  0  0  0
   -4.7596   -1.6595   -0.1584 C   0  0  0  0  0  0  0  0  0  0  0  0
   -2.6534   -2.7428   -0.6469 O   0  0  0  0  0  0  0  0  0  0  0  0
   -1.2421    0.8491   -0.1522 C   0  0  0  0  0  0  0  0  0  0  0  0
   -2.9983    1.7902   -0.7809 I   0  0  0  0  0  0  0  0  0  0  0  0
   -0.0686    1.5909   -0.1432 C   0  0  0  0  0  0  0  0  0  0  0  0
   -0.0562    3.0468   -0.0946 C   0  0  0  0  0  0  0  0  0  0  0  0
    0.8275    3.7184   -0.6950 O   0  0  0  0  0  0  0  0  0  0  0  0
   -1.0968    3.7857    0.4620 O   0  0  0  0  0  0  0  0  0  0  0  0
    1.1124    0.8762   -0.0353 C   0  0  0  0  0  0  0  0  0  0  0  0
    2.9892    1.8523   -0.0370 I   0  0  0  0  0  0  0  0  0  0  0  0
  1  2  1  0
  2  3  2  0
  2  4  1  0
  4  5  1  0
  5  6  2  0
  6  7  1  0
  6  8  1  0
  8  9  1  0
  9 10  1  0
 10 11  1  0
 10 12  2  0
  8 13  2  0
 13 14  1  0
 13 15  1  0
 15 16  1  0
 16 17  2  0
 16 18  1  0
 15 19  2  0
 19 20  1  0
 19  5  1  0
M  END
>  <supplier_code>  (131) 
DB00271

>  <zinc_id>  (131) 
ZINC000004097476

>  <catalog_short_name>  (131) 
dbfda

$$$$

     RDKit          3D

 22 24  0  0  0  0  0  0  0  0999 V2000
   -1.4900   -1.8046    1.7799 C   0  0  0  0  0  0  0  0  0  0  0  0
   -2.2664   -1.4304    0.7781 C   0  0  0  0  0  0  0  0  0  0  0  0
   -3.5609   -2.2079    1.0101 C   0  0  0  0  0  0  0  0  0  0  0  0
   -1.7272   -1.8895   -0.3541 O   0  0  0  0  0  0  0  0  0  0  0  0
   -2.2028   -0.9371   -1.4246 C   0  0  2  0  0  0  0  0  0  0  0  0
   -0.6986   -0.9088   -2.0784 C   0  0  0  0  0  0  0  0  0  0  0  0
   -0.2067    0.3234   -2.1215 O   0  0  0  0  0  0  0  0  0  0  0  0
    0.3420    0.8832   -0.9922 C   0  0  1  0  0  0  0  0  0  0  0  0
    1.7799    0.7962   -0.7894 C   0  0  0  0  0  0  0  0  0  0  0  0
    2.1825   -0.5271   -0.7834 O   0  0  0  0  0  0  0  0  0  0  0  0
    3.4438   -0.8617    0.2463 S   0  0  0  0  0  0  0  0  0  0  0  0
    2.8936   -1.9410    1.4927 N   0  0  0  0  0  0  0  0  0  0  0  0
    4.0121    0.3549    0.9021 O   0  0  0  0  0  0  0  0  0  0  0  0
    4.4871   -1.6059   -0.5604 O   0  0  0  0  0  0  0  0  0  0  0  0
   -0.2851    2.0760   -0.8557 O   0  0  0  0  0  0  0  0  0  0  0  0
   -0.4099    2.2048    0.4878 C   0  0  0  0  0  0  0  0  0  0  0  0
   -1.6249    3.0663    0.7882 C   0  0  0  0  0  0  0  0  0  0  0  0
    0.7543    3.0995    0.9169 C   0  0  0  0  0  0  0  0  0  0  0  0
   -0.3932    1.0532    1.1461 O   0  0  0  0  0  0  0  0  0  0  0  0
   -0.4178   -0.0469    0.1210 C   0  0  1  0  0  0  0  0  0  0  0  0
   -1.9577    0.4515   -0.4399 C   0  0  2  0  0  0  0  0  0  0  0  0
   -2.6540   -0.1479    0.7304 O   0  0  0  0  0  0  0  0  0  0  0  0
  1  2  1  0
  2  3  1  0
  2  4  1  0
  5  4  1  1
  5  6  1  0
  6  7  1  0
  7  8  1  0
  8  9  1  6
  9 10  1  0
 10 11  1  0
 11 12  1  0
 11 13  2  0
 11 14  2  0
  8 15  1  0
 15 16  1  0
 16 17  1  0
 16 18  1  0
 16 19  1  0
 20 19  1  1
 20 21  1  0
 21 22  1  1
 22  2  1  0
 21  5  1  0
 20  8  1  0
M  END
>  <supplier_code>  (132) 
DB00273

>  <zinc_id>  (132) 
ZINC000095616603

>  <catalog_short_name>  (132) 
dbfda

$$$$

     RDKit          3D

 33 36  0  0  0  0  0  0  0  0999 V2000
   -3.3729   -4.0513   -1.5686 C   0  0  0  0  0  0  0  0  0  0  0  0
   -3.8982   -3.5740   -0.2249 C   0  0  0  0  0  0  0  0  0  0  0  0
   -2.6922   -3.0412    0.5341 C   0  0  0  0  0  0  0  0  0  0  0  0
   -2.7881   -1.5501    0.6244 C   0  0  0  0  0  0  0  0  0  0  0  0
   -3.2280   -0.8246    1.6709 N   0  0  0  0  0  0  0  0  0  0  0  0
   -3.8669    0.2694    1.1894 C   0  0  0  0  0  0  0  0  0  0  0  0
   -4.2981    1.3892    2.0720 C   0  0  0  0  0  0  0  0  0  0  0  0
   -4.6862    0.8246    3.4335 C   0  0  0  0  0  0  0  0  0  0  0  0
   -5.5110    2.1055    1.5141 C   0  0  0  0  0  0  0  0  0  0  0  0
   -3.2283    2.2653    2.2110 O   0  0  0  0  0  0  0  0  0  0  0  0
   -3.3161    0.4499   -0.0734 C   0  0  0  0  0  0  0  0  0  0  0  0
   -3.7344    1.4592   -1.0478 C   0  0  0  0  0  0  0  0  0  0  0  0
   -3.5645    2.6944   -0.8537 O   0  0  0  0  0  0  0  0  0  0  0  0
   -4.0421    1.0920   -2.3617 O   0  0  0  0  0  0  0  0  0  0  0  0
   -2.6826   -0.6924   -0.4196 N   0  0  0  0  0  0  0  0  0  0  0  0
   -1.7883   -0.8757   -1.5369 C   0  0  0  0  0  0  0  0  0  0  0  0
   -0.3832   -0.5129   -1.2119 C   0  0  0  0  0  0  0  0  0  0  0  0
    0.1591   -0.6202    0.0437 C   0  0  0  0  0  0  0  0  0  0  0  0
    1.3265    0.0638    0.3609 C   0  0  0  0  0  0  0  0  0  0  0  0
    2.1879    0.3597   -0.6602 C   0  0  0  0  0  0  0  0  0  0  0  0
    3.4407    1.1063   -0.4724 C   0  0  0  0  0  0  0  0  0  0  0  0
    3.5540    2.4309   -0.8807 C   0  0  0  0  0  0  0  0  0  0  0  0
    4.7974    3.0177   -1.0881 C   0  0  0  0  0  0  0  0  0  0  0  0
    5.7762    2.1602   -1.5773 C   0  0  0  0  0  0  0  0  0  0  0  0
    5.7184    0.8372   -1.1545 C   0  0  0  0  0  0  0  0  0  0  0  0
    4.5929    0.3280   -0.5144 C   0  0  0  0  0  0  0  0  0  0  0  0
    4.6356   -0.7954    0.4003 C   0  0  0  0  0  0  0  0  0  0  0  0
    3.8951   -1.8960    0.5043 N   0  0  0  0  0  0  0  0  0  0  0  0
    4.1740   -2.3940    1.7088 N   0  0  0  0  0  0  0  0  0  0  0  0
    5.2555   -1.7958    2.2053 N   0  0  0  0  0  0  0  0  0  0  0  0
    5.6701   -0.9873    1.2551 N   0  0  0  0  0  0  0  0  0  0  0  0
    1.6155    0.5146   -1.9182 C   0  0  0  0  0  0  0  0  0  0  0  0
    0.2822    0.2428   -2.1636 C   0  0  0  0  0  0  0  0  0  0  0  0
  1  2  1  0
  2  3  1  0
  3  4  1  0
  4  5  2  0
  5  6  1  0
  6  7  1  0
  7  8  1  0
  7  9  1  0
  7 10  1  0
  6 11  2  0
 11 12  1  0
 12 13  2  0
 12 14  1  0
 11 15  1  0
 15 16  1  0
 16 17  1  0
 17 18  2  0
 18 19  1  0
 19 20  2  0
 20 21  1  0
 21 22  2  0
 22 23  1  0
 23 24  2  0
 24 25  1  0
 25 26  2  0
 26 27  1  0
 27 28  2  0
 28 29  1  0
 29 30  2  0
 30 31  1  0
 20 32  1  0
 32 33  2  0
 15  4  1  0
 33 17  1  0
 26 21  1  0
 31 27  1  0
M  END
>  <supplier_code>  (133) 
DB00275

>  <zinc_id>  (133) 
ZINC000000538621

>  <catalog_short_name>  (133) 
dbfda

$$$$

     RDKit          3D

 13 14  0  0  0  0  0  0  0  0999 V2000
   -0.0026    2.6910    0.6733 C   0  0  0  0  0  0  0  0  0  0  0  0
    0.1249    1.3531    0.1312 N   0  0  0  0  0  0  0  0  0  0  0  0
   -0.9905    0.5849    0.1958 C   0  0  0  0  0  0  0  0  0  0  0  0
   -2.3000    0.8244   -0.0271 N   0  0  0  0  0  0  0  0  0  0  0  0
   -2.8826   -0.3484   -0.3776 C   0  0  0  0  0  0  0  0  0  0  0  0
   -2.0143   -1.3671   -0.1890 N   0  0  0  0  0  0  0  0  0  0  0  0
   -0.8403   -0.7895    0.0758 C   0  0  0  0  0  0  0  0  0  0  0  0
    0.4415   -1.3176    0.1372 C   0  0  0  0  0  0  0  0  0  0  0  0
    0.6163   -2.4582    0.6595 O   0  0  0  0  0  0  0  0  0  0  0  0
    1.4800   -0.5131   -0.1970 N   0  0  0  0  0  0  0  0  0  0  0  0
    2.7857   -1.1033   -0.3614 C   0  0  0  0  0  0  0  0  0  0  0  0
    1.3226    0.8327   -0.2286 C   0  0  0  0  0  0  0  0  0  0  0  0
    2.2593    1.6112   -0.4920 O   0  0  0  0  0  0  0  0  0  0  0  0
  1  2  1  0
  2  3  1  0
  3  4  1  0
  4  5  2  0
  5  6  1  0
  6  7  1  0
  7  8  1  0
  8  9  2  0
  8 10  1  0
 10 11  1  0
 10 12  1  0
 12 13  2  0
 12  2  1  0
  7  3  2  0
M  END
>  <supplier_code>  (134) 
DB00277

>  <zinc_id>  (134) 
ZINC000018043251

>  <catalog_short_name>  (134) 
dbfda

$$$$

     RDKit          3D

 35 37  0  0  0  0  0  0  0  0999 V2000
   -2.1609   -5.3054   -0.9470 C   0  0  0  0  0  0  0  0  0  0  0  0
   -3.1116   -4.0802   -0.4385 C   0  0  2  0  0  0  0  0  0  0  0  0
   -2.4811   -3.1513   -1.6263 C   0  0  0  0  0  0  0  0  0  0  0  0
   -2.8674   -1.8699   -1.1503 C   0  0  0  0  0  0  0  0  0  0  0  0
   -2.2154   -1.3738    0.0823 N   0  0  0  0  0  0  0  0  0  0  0  0
   -2.0930   -0.0845   -0.0213 C   0  0  0  0  0  0  0  0  0  0  0  0
   -3.0097    0.5581   -0.6439 O   0  0  0  0  0  0  0  0  0  0  0  0
   -1.3573    1.1305    0.7173 C   0  0  2  0  0  0  0  0  0  0  0  0
   -0.5696    1.5501   -0.6770 C   0  0  0  0  0  0  0  0  0  0  0  0
   -0.8670    3.0013   -0.8995 C   0  0  0  0  0  0  0  0  0  0  0  0
   -2.2791    3.3113   -1.2792 C   0  0  0  0  0  0  0  0  0  0  0  0
   -2.7367    4.4429   -0.5106 N   0  0  0  0  0  0  0  0  0  0  0  0
   -2.0998    5.6767   -0.8077 C   0  0  0  0  0  0  0  0  0  0  0  0
   -1.9020    5.9869   -2.0471 N   0  0  0  0  0  0  0  0  0  0  0  0
   -2.0485    6.7033    0.1804 N   0  0  0  0  0  0  0  0  0  0  0  0
   -0.1373    0.3357    1.3080 N   0  0  0  0  0  0  0  0  0  0  0  0
    0.8866   -0.3833    0.3224 S   0  0  0  0  0  0  0  0  0  0  0  0
    1.1836   -1.7045    1.0327 O   0  0  0  0  0  0  0  0  0  0  0  0
    0.4777   -0.7937   -1.0566 O   0  0  0  0  0  0  0  0  0  0  0  0
    2.4687    0.3706    0.0322 C   0  0  0  0  0  0  0  0  0  0  0  0
    2.6100    1.2686   -1.0291 C   0  0  0  0  0  0  0  0  0  0  0  0
    3.8208    1.7100   -1.4922 C   0  0  0  0  0  0  0  0  0  0  0  0
    4.9498    1.0241   -1.1110 C   0  0  0  0  0  0  0  0  0  0  0  0
    4.8462   -0.0812   -0.2680 C   0  0  0  0  0  0  0  0  0  0  0  0
    3.5841   -0.4640    0.1316 C   0  0  0  0  0  0  0  0  0  0  0  0
    3.5928   -1.2457    1.3344 N   0  0  0  0  0  0  0  0  0  0  0  0
    4.6939   -1.9313    1.8574 C   0  0  0  0  0  0  0  0  0  0  0  0
    6.0299   -0.9954    1.7788 C   0  0  2  0  0  0  0  0  0  0  0  0
    5.2426    0.4078    2.0799 C   0  0  0  0  0  0  0  0  0  0  0  0
    5.9856   -0.8600    0.1528 C   0  0  0  0  0  0  0  0  0  0  0  0
   -2.6211   -2.2340    1.3406 C   0  0  1  0  0  0  0  0  0  0  0  0
   -4.1672   -2.4426    0.9056 C   0  0  0  0  0  0  0  0  0  0  0  0
   -4.7630   -1.4335    0.5153 O   0  0  0  0  0  0  0  0  0  0  0  0
   -4.8581   -3.4311    1.5646 O   0  0  0  0  0  0  0  0  0  0  0  0
   -2.0266   -3.6127    0.6692 C   0  0  0  0  0  0  0  0  0  0  0  0
  2  1  1  6
  2  3  1  0
  3  4  1  0
  4  5  1  0
  5  6  1  0
  6  7  2  0
  8  6  1  6
  8  9  1  0
  9 10  1  0
 10 11  1  0
 11 12  1  0
 12 13  1  0
 13 14  2  0
 13 15  1  0
  8 16  1  0
 16 17  1  0
 17 18  2  0
 17 19  2  0
 17 20  1  0
 20 21  2  0
 21 22  1  0
 22 23  2  0
 23 24  1  0
 24 25  2  0
 25 26  1  0
 26 27  1  0
 27 28  1  0
 28 29  1  1
 28 30  1  0
  5 31  1  0
 31 32  1  6
 32 33  2  0
 32 34  1  0
 31 35  1  0
 35  2  1  0
 25 20  1  0
 30 24  1  0
M  END
>  <supplier_code>  (135) 
DB00278

>  <zinc_id>  (135) 
ZINC000003807172

>  <catalog_short_name>  (135) 
dbfda

$$$$

     RDKit          3D

 23 24  0  0  0  0  0  0  0  0999 V2000
    5.8677   -0.4859   -0.5493 N   0  0  0  0  0  0  0  0  0  0  0  0
    4.4363    0.2333   -0.6448 C   0  0  1  0  0  0  0  0  0  0  0  0
    3.8297   -0.7290    0.5852 C   0  0  0  0  0  0  0  0  0  0  0  0
    2.4082   -0.9046    0.1454 C   0  0  0  0  0  0  0  0  0  0  0  0
    2.0653   -0.9879   -1.1938 C   0  0  0  0  0  0  0  0  0  0  0  0
    0.7339   -1.1526   -1.5559 C   0  0  0  0  0  0  0  0  0  0  0  0
    0.1528   -1.2832   -3.5615 I   0  0  0  0  0  0  0  0  0  0  0  0
   -0.2483   -1.1828   -0.5916 C   0  0  0  0  0  0  0  0  0  0  0  0
   -1.6126   -1.2046   -0.8990 O   0  0  0  0  0  0  0  0  0  0  0  0
   -2.4967   -0.3969   -0.1904 C   0  0  0  0  0  0  0  0  0  0  0  0
   -2.0618    0.7173    0.5209 C   0  0  0  0  0  0  0  0  0  0  0  0
   -2.9957    1.5848    1.0665 C   0  0  0  0  0  0  0  0  0  0  0  0
   -4.2634    1.6606    0.5136 C   0  0  0  0  0  0  0  0  0  0  0  0
   -4.9100    2.8779    0.2793 O   0  0  0  0  0  0  0  0  0  0  0  0
   -4.7283    0.5282   -0.1242 C   0  0  0  0  0  0  0  0  0  0  0  0
   -6.7920    0.3923   -0.5535 I   0  0  0  0  0  0  0  0  0  0  0  0
   -3.8409   -0.4691   -0.4956 C   0  0  0  0  0  0  0  0  0  0  0  0
    0.1031   -1.3649    0.7385 C   0  0  0  0  0  0  0  0  0  0  0  0
   -1.1844   -2.3175    2.1129 I   0  0  0  0  0  0  0  0  0  0  0  0
    1.4223   -1.0924    1.0853 C   0  0  0  0  0  0  0  0  0  0  0  0
    4.9139    1.4079    0.4028 C   0  0  0  0  0  0  0  0  0  0  0  0
    5.3062    2.3571   -0.3500 O   0  0  0  0  0  0  0  0  0  0  0  0
    3.8949    1.8119    1.2683 O   0  0  0  0  0  0  0  0  0  0  0  0
  2  1  1  1
  2  3  1  0
  3  4  1  0
  4  5  2  0
  5  6  1  0
  6  7  1  0
  6  8  2  0
  8  9  1  0
  9 10  1  0
 10 11  2  0
 11 12  1  0
 12 13  2  0
 13 14  1  0
 13 15  1  0
 15 16  1  0
 15 17  2  0
  8 18  1  0
 18 19  1  0
 18 20  2  0
  2 21  1  0
 21 22  2  0
 21 23  1  0
 20  4  1  0
 17 10  1  0
M  END
>  <supplier_code>  (136) 
DB00279

>  <zinc_id>  (136) 
ZINC000003830999

>  <catalog_short_name>  (136) 
dbfda

$$$$

     RDKit          3D

 25 26  0  0  0  0  0  0  0  0999 V2000
    4.1112   -0.1794   -1.8867 C   0  0  0  0  0  0  0  0  0  0  0  0
    3.6732   -0.6113   -0.5230 C   0  0  0  0  0  0  0  0  0  0  0  0
    3.2643   -2.0546   -0.4622 C   0  0  0  0  0  0  0  0  0  0  0  0
    2.7272    0.2912    0.0746 N   0  0  0  0  0  0  0  0  0  0  0  0
    1.4334   -0.2860    0.3167 C   0  0  0  0  0  0  0  0  0  0  0  0
    0.5780   -0.1197   -0.9333 C   0  0  0  0  0  0  0  0  0  0  0  0
   -0.8929   -0.1045   -0.5556 C   0  0  1  0  0  0  0  0  0  0  0  0
   -1.7537   -0.6243   -1.6427 C   0  0  0  0  0  0  0  0  0  0  0  0
   -1.2971   -0.9340   -2.9434 N   0  0  0  0  0  0  0  0  0  0  0  0
   -2.9245   -0.9891   -1.3281 O   0  0  0  0  0  0  0  0  0  0  0  0
   -1.0644   -1.0394    0.6008 C   0  0  0  0  0  0  0  0  0  0  0  0
   -0.5139   -2.3025    0.4266 C   0  0  0  0  0  0  0  0  0  0  0  0
   -0.9036   -3.4010    1.1430 C   0  0  0  0  0  0  0  0  0  0  0  0
   -2.1201   -3.3159    1.8076 C   0  0  0  0  0  0  0  0  0  0  0  0
   -2.5076   -2.0492    2.2260 C   0  0  0  0  0  0  0  0  0  0  0  0
   -2.1473   -0.9572    1.4472 C   0  0  0  0  0  0  0  0  0  0  0  0
   -1.3071    1.2753   -0.2138 C   0  0  0  0  0  0  0  0  0  0  0  0
   -0.6236    2.3403   -0.7532 C   0  0  0  0  0  0  0  0  0  0  0  0
   -1.1755    3.5911   -0.8392 C   0  0  0  0  0  0  0  0  0  0  0  0
   -2.3540    3.8374   -0.1631 C   0  0  0  0  0  0  0  0  0  0  0  0
   -3.0766    2.7213    0.2302 C   0  0  0  0  0  0  0  0  0  0  0  0
   -2.6154    1.4731    0.0717 N   0  0  0  0  0  0  0  0  0  0  0  0
    3.2664    1.0089    1.2003 C   0  0  0  0  0  0  0  0  0  0  0  0
    3.9689    2.2574    0.6992 C   0  0  0  0  0  0  0  0  0  0  0  0
    4.2547    0.1719    2.0004 C   0  0  0  0  0  0  0  0  0  0  0  0
  1  2  1  0
  2  3  1  0
  2  4  1  0
  4  5  1  0
  5  6  1  0
  7  6  1  6
  7  8  1  0
  8  9  1  0
  8 10  2  0
  7 11  1  0
 11 12  2  0
 12 13  1  0
 13 14  2  0
 14 15  1  0
 15 16  2  0
  7 17  1  0
 17 18  2  0
 18 19  1  0
 19 20  2  0
 20 21  1  0
 21 22  2  0
  4 23  1  0
 23 24  1  0
 23 25  1  0
 16 11  1  0
 22 17  1  0
M  END
>  <supplier_code>  (137) 
DB00280

>  <zinc_id>  (137) 
ZINC000001530617

>  <catalog_short_name>  (137) 
dbfda

$$$$

     RDKit          3D

 25 26  0  0  0  0  0  0  0  0999 V2000
    4.5596    0.4309    1.1362 C   0  0  0  0  0  0  0  0  0  0  0  0
    3.4018   -0.0820    1.3040 C   0  0  0  0  0  0  0  0  0  0  0  0
    3.5294   -1.4664    1.9157 C   0  0  0  0  0  0  0  0  0  0  0  0
    2.6608   -0.1659    0.0445 N   0  0  0  0  0  0  0  0  0  0  0  0
    1.3505   -0.6320    0.3768 C   0  0  0  0  0  0  0  0  0  0  0  0
    0.3998   -0.7277   -0.7692 C   0  0  0  0  0  0  0  0  0  0  0  0
   -0.9014   -0.0124   -0.5566 C   0  0  2  0  0  0  0  0  0  0  0  0
   -1.4185    0.3388   -1.9176 C   0  0  0  0  0  0  0  0  0  0  0  0
   -0.5494    1.0385   -2.7829 N   0  0  0  0  0  0  0  0  0  0  0  0
   -2.6552    0.5721   -1.9901 O   0  0  0  0  0  0  0  0  0  0  0  0
   -0.7073    1.2374    0.1887 C   0  0  0  0  0  0  0  0  0  0  0  0
   -0.1773    2.3298   -0.4882 C   0  0  0  0  0  0  0  0  0  0  0  0
   -0.2796    3.6016    0.0608 C   0  0  0  0  0  0  0  0  0  0  0  0
   -0.9597    3.7955    1.2383 C   0  0  0  0  0  0  0  0  0  0  0  0
   -1.3485    2.6815    1.9392 C   0  0  0  0  0  0  0  0  0  0  0  0
   -0.9450    1.4187    1.5240 C   0  0  0  0  0  0  0  0  0  0  0  0
   -1.8952   -0.9277    0.0333 C   0  0  0  0  0  0  0  0  0  0  0  0
   -2.2784   -0.9439    1.3455 C   0  0  0  0  0  0  0  0  0  0  0  0
   -3.2253   -1.8518    1.7714 C   0  0  0  0  0  0  0  0  0  0  0  0
   -3.5193   -2.9022    0.9413 C   0  0  0  0  0  0  0  0  0  0  0  0
   -3.2457   -2.8108   -0.3969 C   0  0  0  0  0  0  0  0  0  0  0  0
   -2.3709   -1.8876   -0.7984 N   0  0  0  0  0  0  0  0  0  0  0  0
    3.4250   -1.0103   -0.8145 C   0  0  0  0  0  0  0  0  0  0  0  0
    4.5004   -0.2145   -1.5011 C   0  0  0  0  0  0  0  0  0  0  0  0
    2.6494   -1.8094   -1.8043 C   0  0  0  0  0  0  0  0  0  0  0  0
  1  2  1  0
  2  3  1  0
  2  4  1  0
  4  5  1  0
  5  6  1  0
  7  6  1  6
  7  8  1  0
  8  9  1  0
  8 10  2  0
  7 11  1  0
 11 12  2  0
 12 13  1  0
 13 14  2  0
 14 15  1  0
 15 16  2  0
  7 17  1  0
 17 18  2  0
 18 19  1  0
 19 20  2  0
 20 21  1  0
 21 22  2  0
  4 23  1  0
 23 24  1  0
 23 25  1  0
 16 11  1  0
 22 17  1  0
M  END
>  <supplier_code>  (138) 
DB00280

>  <zinc_id>  (138) 
ZINC000001530618

>  <catalog_short_name>  (138) 
dbfda

$$$$

     RDKit          3D

 17 17  0  0  0  0  0  0  0  0999 V2000
    4.4845    1.5459    0.0118 C   0  0  0  0  0  0  0  0  0  0  0  0
    3.4792    0.8343    0.8585 C   0  0  0  0  0  0  0  0  0  0  0  0
    2.9304   -0.3497    0.2987 N   0  0  0  0  0  0  0  0  0  0  0  0
    3.8603   -1.3834   -0.0289 C   0  0  0  0  0  0  0  0  0  0  0  0
    3.2363   -2.6860    0.4615 C   0  0  0  0  0  0  0  0  0  0  0  0
    1.8703   -0.1621   -0.6420 C   0  0  0  0  0  0  0  0  0  0  0  0
    0.5951   -0.1495    0.1346 C   0  0  0  0  0  0  0  0  0  0  0  0
    0.5752    0.5035    1.2165 O   0  0  0  0  0  0  0  0  0  0  0  0
   -0.5489   -0.9053   -0.2432 N   0  0  0  0  0  0  0  0  0  0  0  0
   -1.8188   -0.3138    0.0588 C   0  0  0  0  0  0  0  0  0  0  0  0
   -2.5403    0.3501   -0.9174 C   0  0  0  0  0  0  0  0  0  0  0  0
   -2.2798    0.0249   -2.3452 C   0  0  0  0  0  0  0  0  0  0  0  0
   -3.3436    1.3884   -0.5291 C   0  0  0  0  0  0  0  0  0  0  0  0
   -3.4593    1.7896    0.7948 C   0  0  0  0  0  0  0  0  0  0  0  0
   -3.1055    0.8307    1.7354 C   0  0  0  0  0  0  0  0  0  0  0  0
   -2.1732   -0.1327    1.3859 C   0  0  0  0  0  0  0  0  0  0  0  0
   -1.7619   -1.1849    2.3654 C   0  0  0  0  0  0  0  0  0  0  0  0
  1  2  1  0
  2  3  1  0
  3  4  1  0
  4  5  1  0
  3  6  1  0
  6  7  1  0
  7  8  2  0
  7  9  1  0
  9 10  1  0
 10 11  2  0
 11 12  1  0
 11 13  1  0
 13 14  2  0
 14 15  1  0
 15 16  2  0
 16 17  1  0
 16 10  1  0
M  END
>  <supplier_code>  (139) 
DB00281

>  <zinc_id>  (139) 
ZINC000000020237

>  <catalog_short_name>  (139) 
dbfda

$$$$

     RDKit          3D

 13 12  0  0  0  0  0  0  0  0999 V2000
    3.4162   -0.8230    1.2405 N   0  0  0  0  0  0  0  0  0  0  0  0
    2.3871    0.1359    0.9308 C   0  0  0  0  0  0  0  0  0  0  0  0
    0.9893   -0.4003    1.2068 C   0  0  0  0  0  0  0  0  0  0  0  0
    0.2129   -0.2396   -0.0690 C   0  0  0  0  0  0  0  0  0  0  0  0
    1.0677   -0.6111   -1.1170 O   0  0  0  0  0  0  0  0  0  0  0  0
   -1.3015   -1.2120   -0.1080 P   0  0  0  0  0  0  0  0  0  0  0  0
   -2.4553   -0.3580    0.3936 O   0  0  0  0  0  0  0  0  0  0  0  0
   -1.6243   -1.5484   -1.7427 O   0  0  0  0  0  0  0  0  0  0  0  0
   -1.2161   -2.6122    0.8139 O   0  0  0  0  0  0  0  0  0  0  0  0
   -0.2417    1.4878   -0.3464 P   0  0  0  0  0  0  0  0  0  0  0  0
    0.6161    2.1131   -1.4371 O   0  0  0  0  0  0  0  0  0  0  0  0
    0.0195    2.4250    1.0489 O   0  0  0  0  0  0  0  0  0  0  0  0
   -1.8698    1.6429   -0.8144 O   0  0  0  0  0  0  0  0  0  0  0  0
  1  2  1  0
  2  3  1  0
  3  4  1  0
  4  5  1  0
  4  6  1  0
  6  7  2  0
  6  8  1  0
  6  9  1  0
  4 10  1  0
 10 11  2  0
 10 12  1  0
 10 13  1  0
M  END
>  <supplier_code>  (140) 
DB00282

>  <zinc_id>  (140) 
ZINC000003812862

>  <catalog_short_name>  (140) 
dbfda

$$$$

     RDKit          3D

 24 26  0  0  0  0  0  0  0  0999 V2000
    4.3654    1.7688    1.5859 C   0  0  0  0  0  0  0  0  0  0  0  0
    4.8744    0.7106    0.7252 N   0  0  0  0  0  0  0  0  0  0  0  0
    4.7142    1.0996   -0.6273 C   0  0  0  0  0  0  0  0  0  0  0  0
    4.3382   -0.0792   -1.4520 C   0  0  0  0  0  0  0  0  0  0  0  0
    4.2069   -1.1954   -0.4863 C   0  0  0  0  0  0  0  0  0  0  0  0
    3.7142   -0.3772    0.8811 C   0  0  2  0  0  0  0  0  0  0  0  0
    2.6211    0.5497    0.0235 C   0  0  0  0  0  0  0  0  0  0  0  0
    1.3278    0.2496    0.7393 C   0  0  0  0  0  0  0  0  0  0  0  0
    0.4352   -0.4346   -0.0892 O   0  0  0  0  0  0  0  0  0  0  0  0
   -0.7918   -0.4932    0.5757 C   0  0  2  0  0  0  0  0  0  0  0  0
   -0.5611   -0.6236    2.0765 C   0  0  0  0  0  0  0  0  0  0  0  0
   -1.4847   -1.7334    0.1404 C   0  0  0  0  0  0  0  0  0  0  0  0
   -0.8913   -2.9353    0.5018 C   0  0  0  0  0  0  0  0  0  0  0  0
   -1.5882   -4.1200    0.3083 C   0  0  0  0  0  0  0  0  0  0  0  0
   -2.8023   -4.0778   -0.3618 C   0  0  0  0  0  0  0  0  0  0  0  0
   -3.0283   -2.9639   -1.1584 C   0  0  0  0  0  0  0  0  0  0  0  0
   -2.4275   -1.7463   -0.8791 C   0  0  0  0  0  0  0  0  0  0  0  0
   -1.5966    0.7191    0.3238 C   0  0  0  0  0  0  0  0  0  0  0  0
   -2.7037    0.9571    1.1106 C   0  0  0  0  0  0  0  0  0  0  0  0
   -3.4034    2.1283    0.9722 C   0  0  0  0  0  0  0  0  0  0  0  0
   -2.8503    3.1982    0.2841 C   0  0  0  0  0  0  0  0  0  0  0  0
   -3.8948    4.5281   -0.2076 Cl  0  0  0  0  0  0  0  0  0  0  0  0
   -1.5833    3.0635   -0.2681 C   0  0  0  0  0  0  0  0  0  0  0  0
   -0.9900    1.8074   -0.2898 C   0  0  0  0  0  0  0  0  0  0  0  0
  1  2  1  0
  2  3  1  0
  3  4  1  0
  4  5  1  0
  5  6  1  0
  6  7  1  6
  7  8  1  0
  8  9  1  0
 10  9  1  6
 10 11  1  0
 10 12  1  0
 12 13  2  0
 13 14  1  0
 14 15  2  0
 15 16  1  0
 16 17  2  0
 10 18  1  0
 18 19  2  0
 19 20  1  0
 20 21  2  0
 21 22  1  0
 21 23  1  0
 23 24  2  0
  6  2  1  0
 17 12  1  0
 24 18  1  0
M  END
>  <supplier_code>  (141) 
DB00283

>  <zinc_id>  (141) 
ZINC000000402830

>  <catalog_short_name>  (141) 
dbfda

$$$$

     RDKit          3D

 44 47  0  0  0  0  0  0  0  0999 V2000
    2.7000   -1.5731   -0.3720 C   0  0  0  0  0  0  0  0  0  0  0  0
    2.1295   -0.0496   -0.3874 C   0  0  1  0  0  0  0  0  0  0  0  0
    1.1779   -0.5085    0.6831 O   0  0  0  0  0  0  0  0  0  0  0  0
    0.0772    0.5310    0.7541 C   0  0  2  0  0  0  0  0  0  0  0  0
    0.2531    1.1188   -0.6422 O   0  0  0  0  0  0  0  0  0  0  0  0
   -1.0522    0.5950   -1.2697 C   0  0  1  0  0  0  0  0  0  0  0  0
   -0.7727   -0.9885   -0.7353 C   0  0  2  0  0  0  0  0  0  0  0  0
   -0.8194   -1.4758   -2.1725 O   0  0  0  0  0  0  0  0  0  0  0  0
   -2.3276   -1.5895   -0.5141 C   0  0  1  0  0  0  0  0  0  0  0  0
   -2.3685   -1.0167    0.8708 O   0  0  0  0  0  0  0  0  0  0  0  0
   -3.1939   -0.3360   -1.3319 C   0  0  1  0  0  0  0  0  0  0  0  0
   -4.5329   -1.0454   -1.0131 O   0  0  0  0  0  0  0  0  0  0  0  0
   -5.4700    0.1403   -1.1218 C   0  0  1  0  0  0  0  0  0  0  0  0
   -7.0205   -0.5000   -0.9010 C   0  0  2  0  0  0  0  0  0  0  0  0
   -7.6119    0.4578    0.1418 O   0  0  0  0  0  0  0  0  0  0  0  0
   -6.9938   -1.7008    0.2991 C   0  0  1  0  0  0  0  0  0  0  0  0
   -6.7954   -2.7811   -0.7353 O   0  0  0  0  0  0  0  0  0  0  0  0
   -5.3897   -1.4628    0.8047 C   0  0  2  0  0  0  0  0  0  0  0  0
   -5.5792   -2.1470    2.1540 O   0  0  0  0  0  0  0  0  0  0  0  0
   -5.8556   -0.0934    1.3063 O   0  0  0  0  0  0  0  0  0  0  0  0
   -5.1398    0.8621    0.4158 C   0  0  2  0  0  0  0  0  0  0  0  0
   -6.2612    2.0135    0.0951 C   0  0  0  0  0  0  0  0  0  0  0  0
   -5.6878    3.2401    0.1458 O   0  0  0  0  0  0  0  0  0  0  0  0
   -3.2246    0.6630   -0.2188 O   0  0  0  0  0  0  0  0  0  0  0  0
   -1.8976    1.2188    0.0746 C   0  0  2  0  0  0  0  0  0  0  0  0
   -2.2327    2.6201   -0.7668 C   0  0  0  0  0  0  0  0  0  0  0  0
   -2.1126    3.4902    0.3260 O   0  0  0  0  0  0  0  0  0  0  0  0
    1.0258    1.6274    1.6693 C   0  0  2  0  0  0  0  0  0  0  0  0
    0.2791    2.8770    1.3365 O   0  0  0  0  0  0  0  0  0  0  0  0
    2.2012    1.9618    0.5103 C   0  0  1  0  0  0  0  0  0  0  0  0
    2.9105    2.8228    1.4979 O   0  0  0  0  0  0  0  0  0  0  0  0
    3.1213    0.5601    0.8621 C   0  0  2  0  0  0  0  0  0  0  0  0
    4.3418    1.0911    0.1095 N   0  0  0  0  0  0  0  0  0  0  0  0
    4.9757    0.0029   -0.7805 C   0  0  1  0  0  0  0  0  0  0  0  0
    6.4803    0.5519   -0.5706 C   0  0  0  0  0  0  0  0  0  0  0  0
    7.1762   -0.0882   -1.5348 C   0  0  0  0  0  0  0  0  0  0  0  0
    8.6610   -0.1466   -1.3041 C   0  0  0  0  0  0  0  0  0  0  0  0
    9.1652   -1.3809   -0.9001 O   0  0  0  0  0  0  0  0  0  0  0  0
    6.7120   -1.6474   -1.6624 C   0  0  2  0  0  0  0  0  0  0  0  0
    5.2415   -1.4343   -1.9107 O   0  0  0  0  0  0  0  0  0  0  0  0
    6.6938   -1.7616    0.0529 C   0  0  2  0  0  0  0  0  0  0  0  0
    6.2154   -3.1908   -0.0421 O   0  0  0  0  0  0  0  0  0  0  0  0
    5.1356   -1.2138    0.4217 C   0  0  1  0  0  0  0  0  0  0  0  0
    5.6652   -0.3137    1.5091 O   0  0  0  0  0  0  0  0  0  0  0  0
  2  1  1  1
  2  3  1  0
  3  4  1  0
  4  5  1  6
  6  5  1  1
  6  7  1  0
  7  8  1  6
  7  9  1  0
  9 10  1  1
  9 11  1  0
 11 12  1  1
 13 12  1  1
 13 14  1  0
 14 15  1  1
 14 16  1  0
 16 17  1  6
 16 18  1  0
 18 19  1  1
 18 20  1  0
 20 21  1  0
 21 22  1  6
 22 23  1  0
 11 24  1  0
 24 25  1  0
 25 26  1  6
 26 27  1  0
  4 28  1  0
 28 29  1  6
 28 30  1  0
 30 31  1  1
 30 32  1  0
 32 33  1  6
 34 33  1  1
 34 35  1  0
 35 36  2  0
 36 37  1  0
 37 38  1  0
 36 39  1  0
 39 40  1  1
 39 41  1  0
 41 42  1  6
 41 43  1  0
 43 44  1  1
 32  2  1  0
 43 34  1  0
 25  6  1  0
 21 13  1  0
M  END
>  <supplier_code>  (142) 
DB00284

>  <zinc_id>  (142) 
ZINC000087496092

>  <catalog_short_name>  (142) 
dbfda

$$$$

     RDKit          3D

 44 46  0  0  0  0  0  0  0  0999 V2000
   -2.7844    2.2584   -2.3255 C   0  0  0  0  0  0  0  0  0  0  0  0
   -2.0839    1.2476   -1.2217 C   0  0  1  0  0  0  0  0  0  0  0  0
   -1.4827    2.3587   -0.4664 O   0  0  0  0  0  0  0  0  0  0  0  0
   -0.4600    1.7016    0.4098 C   0  0  2  0  0  0  0  0  0  0  0  0
   -0.0435    0.6786   -0.6533 O   0  0  0  0  0  0  0  0  0  0  0  0
    0.6062   -0.3610    0.3041 C   0  0  1  0  0  0  0  0  0  0  0  0
    1.3565   -0.8581   -1.1097 C   0  0  2  0  0  0  0  0  0  0  0  0
    1.5103   -2.2797   -0.5214 O   0  0  0  0  0  0  0  0  0  0  0  0
    3.0260   -0.7155   -1.1495 C   0  0  1  0  0  0  0  0  0  0  0  0
    2.7813    0.4397   -2.1205 O   0  0  0  0  0  0  0  0  0  0  0  0
    3.4505    0.1962    0.2245 C   0  0  1  0  0  0  0  0  0  0  0  0
    4.3563    1.1345   -0.5525 O   0  0  0  0  0  0  0  0  0  0  0  0
    5.7760    0.7691   -0.3795 C   0  0  2  0  0  0  0  0  0  0  0  0
    5.6953   -0.2442   -1.7549 C   0  0  2  0  0  0  0  0  0  0  0  0
    7.1600   -0.5671   -1.6723 O   0  0  0  0  0  0  0  0  0  0  0  0
    6.0325    1.0373   -2.7243 C   0  0  0  0  0  0  0  0  0  0  0  0
    5.0243    1.9344   -2.5866 O   0  0  0  0  0  0  0  0  0  0  0  0
    5.5403   -0.4535    0.7703 C   0  0  2  0  0  0  0  0  0  0  0  0
    5.3644    0.6602    1.7672 O   0  0  0  0  0  0  0  0  0  0  0  0
    7.1921   -0.5695    1.1956 C   0  0  1  0  0  0  0  0  0  0  0  0
    6.8839   -0.7409    2.6699 O   0  0  0  0  0  0  0  0  0  0  0  0
    7.1349   -2.1724    1.0019 C   0  0  0  0  0  0  0  0  0  0  0  0
    8.1912   -2.6620    0.6487 O   0  0  0  0  0  0  0  0  0  0  0  0
    2.3189    1.1487   -0.0487 O   0  0  0  0  0  0  0  0  0  0  0  0
    1.4030    0.9153    1.0814 C   0  0  2  0  0  0  0  0  0  0  0  0
    2.3077   -0.0107    2.0827 C   0  0  0  0  0  0  0  0  0  0  0  0
    2.0774   -1.2844    2.0562 O   0  0  0  0  0  0  0  0  0  0  0  0
   -1.4065    0.5645    1.2923 C   0  0  2  0  0  0  0  0  0  0  0  0
   -1.6662   -0.4544    0.2305 O   0  0  0  0  0  0  0  0  0  0  0  0
   -2.9274    1.3140    1.3308 C   0  0  1  0  0  0  0  0  0  0  0  0
   -2.4627    2.7545    1.3768 O   0  0  0  0  0  0  0  0  0  0  0  0
   -3.4906    1.3139   -0.2710 C   0  0  2  0  0  0  0  0  0  0  0  0
   -3.6033   -0.2004   -0.4930 N   0  0  0  0  0  0  0  0  0  0  0  0
   -4.6608   -0.8239    0.4285 C   0  0  1  0  0  0  0  0  0  0  0  0
   -5.6021    0.4787    0.4693 C   0  0  0  0  0  0  0  0  0  0  0  0
   -6.7138    0.0715    1.0608 C   0  0  0  0  0  0  0  0  0  0  0  0
   -7.8953    0.7904    0.8792 C   0  0  0  0  0  0  0  0  0  0  0  0
   -8.5964    0.6091   -0.3074 O   0  0  0  0  0  0  0  0  0  0  0  0
   -6.6534   -1.5349    1.1925 C   0  0  1  0  0  0  0  0  0  0  0  0
   -8.1386   -1.6991    1.4373 O   0  0  0  0  0  0  0  0  0  0  0  0
   -6.9031   -1.7324   -0.4880 C   0  0  2  0  0  0  0  0  0  0  0  0
   -6.6686   -3.2121   -0.3553 O   0  0  0  0  0  0  0  0  0  0  0  0
   -5.2989   -1.5399   -0.9969 C   0  0  1  0  0  0  0  0  0  0  0  0
   -5.6467   -0.2609   -1.7118 O   0  0  0  0  0  0  0  0  0  0  0  0
  2  1  1  6
  2  3  1  0
  3  4  1  0
  4  5  1  6
  6  5  1  6
  6  7  1  0
  7  8  1  1
  7  9  1  0
  9 10  1  6
  9 11  1  0
 11 12  1  6
 13 12  1  6
 13 14  1  0
 14 15  1  1
 14 16  1  0
 16 17  1  0
 13 18  1  0
 18 19  1  1
 18 20  1  0
 20 21  1  1
 20 22  1  0
 22 23  2  0
 11 24  1  0
 24 25  1  0
 25 26  1  1
 26 27  1  0
  4 28  1  0
 28 29  1  6
 28 30  1  0
 30 31  1  6
 30 32  1  0
 32 33  1  1
 34 33  1  6
 34 35  1  0
 35 36  2  0
 36 37  1  0
 37 38  1  0
 36 39  1  0
 39 40  1  1
 39 41  1  0
 41 42  1  1
 41 43  1  0
 43 44  1  6
 32  2  1  0
 43 34  1  0
 25  6  1  0
M  END
>  <supplier_code>  (143) 
DB00284

>  <zinc_id>  (143) 
ZINC000096309558

>  <catalog_short_name>  (143) 
dbfda

$$$$

     RDKit          3D

 20 21  0  0  0  0  0  0  0  0999 V2000
    3.8128   -2.0116    1.6875 C   0  0  0  0  0  0  0  0  0  0  0  0
    4.1002   -1.7007    0.4484 O   0  0  0  0  0  0  0  0  0  0  0  0
    3.1429   -1.1300   -0.3975 C   0  0  0  0  0  0  0  0  0  0  0  0
    2.0510   -1.8729   -0.8129 C   0  0  0  0  0  0  0  0  0  0  0  0
    0.8533   -1.2385   -0.9503 C   0  0  0  0  0  0  0  0  0  0  0  0
    0.6067    0.0934   -0.6957 C   0  0  0  0  0  0  0  0  0  0  0  0
   -0.5502    0.3937    0.3825 C   0  0  1  0  0  0  0  0  0  0  0  0
   -0.5781    1.9932    0.0331 C   0  0  0  0  0  0  0  0  0  0  0  0
    0.1887    2.5381    1.1255 N   0  0  0  0  0  0  0  0  0  0  0  0
    0.8338    3.7890    0.8260 C   0  0  0  0  0  0  0  0  0  0  0  0
   -0.5975    2.6038    2.3455 C   0  0  0  0  0  0  0  0  0  0  0  0
   -1.7718    0.0421   -0.6503 C   0  0  0  0  0  0  0  0  0  0  0  0
   -1.5054    0.7259   -1.8224 O   0  0  0  0  0  0  0  0  0  0  0  0
   -1.7472   -1.4064   -0.8720 C   0  0  0  0  0  0  0  0  0  0  0  0
   -2.9300   -2.2280   -0.6944 C   0  0  0  0  0  0  0  0  0  0  0  0
   -3.6824   -1.8280    0.5370 C   0  0  0  0  0  0  0  0  0  0  0  0
   -4.0581   -0.3992    0.3538 C   0  0  0  0  0  0  0  0  0  0  0  0
   -2.9559    0.5443    0.0934 C   0  0  0  0  0  0  0  0  0  0  0  0
    1.7653    0.8387   -0.4860 C   0  0  0  0  0  0  0  0  0  0  0  0
    3.0220    0.2532   -0.4512 C   0  0  0  0  0  0  0  0  0  0  0  0
  1  2  1  0
  2  3  1  0
  3  4  2  0
  4  5  1  0
  5  6  2  0
  7  6  1  6
  7  8  1  0
  8  9  1  0
  9 10  1  0
  9 11  1  0
  7 12  1  0
 12 13  1  0
 12 14  1  0
 14 15  1  0
 15 16  1  0
 16 17  1  0
 17 18  1  0
  6 19  1  0
 19 20  2  0
 20  3  1  0
 18 12  1  0
M  END
>  <supplier_code>  (144) 
DB00285

>  <zinc_id>  (144) 
ZINC000000006016

>  <catalog_short_name>  (144) 
dbfda

$$$$

     RDKit          3D

 20 21  0  0  0  0  0  0  0  0999 V2000
    5.0122    0.2972   -0.4518 C   0  0  0  0  0  0  0  0  0  0  0  0
    4.6204   -0.9320   -0.2381 O   0  0  0  0  0  0  0  0  0  0  0  0
    3.2495   -1.1787   -0.1094 C   0  0  0  0  0  0  0  0  0  0  0  0
    2.5649   -0.9546    1.0741 C   0  0  0  0  0  0  0  0  0  0  0  0
    1.3471   -0.2894    0.9927 C   0  0  0  0  0  0  0  0  0  0  0  0
    0.5036   -0.5293   -0.0284 C   0  0  0  0  0  0  0  0  0  0  0  0
   -0.5369    0.6258   -0.4833 C   0  0  2  0  0  0  0  0  0  0  0  0
   -0.4989    1.4400    0.9593 C   0  0  0  0  0  0  0  0  0  0  0  0
    0.1048    2.6680    0.4584 N   0  0  0  0  0  0  0  0  0  0  0  0
    0.5805    3.5440    1.4734 C   0  0  0  0  0  0  0  0  0  0  0  0
   -0.7403    3.2639   -0.5310 C   0  0  0  0  0  0  0  0  0  0  0  0
   -1.8794   -0.2205   -0.0936 C   0  0  0  0  0  0  0  0  0  0  0  0
   -2.5010   -0.2872   -1.3525 O   0  0  0  0  0  0  0  0  0  0  0  0
   -1.5758   -1.5867    0.3110 C   0  0  0  0  0  0  0  0  0  0  0  0
   -2.9109   -2.3058    0.2083 C   0  0  0  0  0  0  0  0  0  0  0  0
   -4.0192   -1.5955    0.8928 C   0  0  0  0  0  0  0  0  0  0  0  0
   -4.0937   -0.1255    0.7287 C   0  0  0  0  0  0  0  0  0  0  0  0
   -2.7601    0.5870    0.7672 C   0  0  0  0  0  0  0  0  0  0  0  0
    1.0845   -1.0786   -1.1713 C   0  0  0  0  0  0  0  0  0  0  0  0
    2.4488   -1.3420   -1.2336 C   0  0  0  0  0  0  0  0  0  0  0  0
  1  2  1  0
  2  3  1  0
  3  4  2  0
  4  5  1  0
  5  6  2  0
  7  6  1  1
  7  8  1  0
  8  9  1  0
  9 10  1  0
  9 11  1  0
  7 12  1  0
 12 13  1  0
 12 14  1  0
 14 15  1  0
 15 16  1  0
 16 17  1  0
 17 18  1  0
  6 19  1  0
 19 20  2  0
 20  3  1  0
 18 12  1  0
M  END
>  <supplier_code>  (145) 
DB00285

>  <zinc_id>  (145) 
ZINC000000896698

>  <catalog_short_name>  (145) 
dbfda

$$$$

     RDKit          3D

 35 36  0  0  0  0  0  0  0  0999 V2000
   -8.3594    1.8721   -0.2790 C   0  0  0  0  0  0  0  0  0  0  0  0
   -8.2187    1.8035   -0.1787 C   0  0  0  0  0  0  0  0  0  0  0  0
   -7.2356    2.9821   -0.2634 C   0  0  0  0  0  0  0  0  0  0  0  0
   -7.8662    0.8780    0.8338 O   0  0  0  0  0  0  0  0  0  0  0  0
   -7.2796   -0.3272    0.5015 C   0  0  0  0  0  0  0  0  0  0  0  0
   -7.2705   -0.6800   -0.6958 O   0  0  0  0  0  0  0  0  0  0  0  0
   -6.4038   -1.0369    1.4701 C   0  0  0  0  0  0  0  0  0  0  0  0
   -4.9958   -0.5095    1.1903 C   0  0  0  0  0  0  0  0  0  0  0  0
   -4.8051   -0.6958   -0.3134 C   0  0  0  0  0  0  0  0  0  0  0  0
   -3.6407   -1.6343   -0.4325 C   0  0  0  0  0  0  0  0  0  0  0  0
   -2.6025   -1.3622    0.3698 C   0  0  0  0  0  0  0  0  0  0  0  0
   -2.6440   -0.0619    1.0131 C   0  0  0  0  0  0  0  0  0  0  0  0
   -1.6761    0.9668    0.2329 C   0  0  2  0  0  0  0  0  0  0  0  0
   -0.3461   -0.0074    0.3818 C   0  0  1  0  0  0  0  0  0  0  0  0
   -0.1309   -0.0055   -1.1991 C   0  0  0  0  0  0  0  0  0  0  0  0
    0.3194   -0.9676   -1.8325 C   0  0  0  0  0  0  0  0  0  0  0  0
    1.5198   -0.8659   -2.9215 C   0  0  1  0  0  0  0  0  0  0  0  0
    2.2015    0.3439   -2.2828 O   0  0  0  0  0  0  0  0  0  0  0  0
    2.4041   -1.9978   -2.0927 C   0  0  0  0  0  0  0  0  0  0  0  0
    3.2297   -1.4407   -1.2345 O   0  0  0  0  0  0  0  0  0  0  0  0
    4.4579   -1.4954   -0.7189 C   0  0  0  0  0  0  0  0  0  0  0  0
    4.7622   -2.3966    0.2769 C   0  0  0  0  0  0  0  0  0  0  0  0
    6.0866   -2.6159    0.6049 C   0  0  0  0  0  0  0  0  0  0  0  0
    6.9316   -1.5231    0.4418 C   0  0  0  0  0  0  0  0  0  0  0  0
    6.5063   -0.3676   -0.1480 C   0  0  0  0  0  0  0  0  0  0  0  0
    7.3004    0.8756   -0.2947 C   0  0  0  0  0  0  0  0  0  0  0  0
    6.5782    1.8810    0.3087 F   0  0  0  0  0  0  0  0  0  0  0  0
    8.5433    0.8055    0.2843 F   0  0  0  0  0  0  0  0  0  0  0  0
    7.4467    1.2179   -1.6216 F   0  0  0  0  0  0  0  0  0  0  0  0
    5.2785   -0.3708   -0.7874 C   0  0  0  0  0  0  0  0  0  0  0  0
    0.8267    1.2181    0.4908 C   0  0  2  0  0  0  0  0  0  0  0  0
    1.3349    0.8259    1.8774 O   0  0  0  0  0  0  0  0  0  0  0  0
   -0.0786    2.4061    1.0712 C   0  0  0  0  0  0  0  0  0  0  0  0
   -1.3934    1.7383    1.7231 C   0  0  2  0  0  0  0  0  0  0  0  0
   -0.7808    0.5471    2.4543 O   0  0  0  0  0  0  0  0  0  0  0  0
  1  2  1  0
  2  3  1  0
  2  4  1  0
  4  5  1  0
  5  6  2  0
  5  7  1  0
  7  8  1  0
  8  9  1  0
  9 10  1  0
 10 11  2  0
 11 12  1  0
 13 12  1  1
 13 14  1  0
 14 15  1  6
 15 16  2  0
 17 16  1  1
 17 18  1  0
 17 19  1  0
 19 20  1  0
 20 21  1  0
 21 22  2  0
 22 23  1  0
 23 24  2  0
 24 25  1  0
 25 26  1  0
 26 27  1  0
 26 28  1  0
 26 29  1  0
 25 30  2  0
 14 31  1  0
 31 32  1  1
 31 33  1  0
 33 34  1  0
 34 35  1  1
 34 13  1  0
 30 21  1  0
M  END
>  <supplier_code>  (146) 
DB00287

>  <zinc_id>  (146) 
ZINC000004474682

>  <catalog_short_name>  (146) 
dbfda

$$$$

     RDKit          3D

 36 41  0  0  0  0  0  0  0  0999 V2000
   -4.2845    4.1673    1.2438 C   0  0  0  0  0  0  0  0  0  0  0  0
   -4.6496    2.7932    1.6455 C   0  0  0  0  0  0  0  0  0  0  0  0
   -5.8156    2.3340    1.4480 O   0  0  0  0  0  0  0  0  0  0  0  0
   -3.7537    1.8375    2.0725 O   0  0  0  0  0  0  0  0  0  0  0  0
   -3.6780    0.5236    1.5720 C   0  0  0  0  0  0  0  0  0  0  0  0
   -3.3288    0.4456    0.1377 C   0  0  0  0  0  0  0  0  0  0  0  0
   -4.1688    0.9744   -0.5908 O   0  0  0  0  0  0  0  0  0  0  0  0
   -2.1308   -0.2795   -0.4082 C   0  0  1  0  0  0  0  0  0  0  0  0
   -2.5186   -1.5312   -0.7943 O   0  0  0  0  0  0  0  0  0  0  0  0
   -2.0790   -1.7750   -2.0759 C   0  0  0  0  0  0  0  0  0  0  0  0
   -1.2329   -3.0278   -2.0650 C   0  0  0  0  0  0  0  0  0  0  0  0
   -2.1761   -4.1712   -2.4226 C   0  0  0  0  0  0  0  0  0  0  0  0
   -2.9633   -3.5019   -3.5434 C   0  0  0  0  0  0  0  0  0  0  0  0
   -3.1541   -2.0898   -3.0656 C   0  0  0  0  0  0  0  0  0  0  0  0
   -1.2727   -0.7273   -2.4691 O   0  0  0  0  0  0  0  0  0  0  0  0
   -2.0103    0.4566   -1.8750 C   0  0  2  0  0  0  0  0  0  0  0  0
   -0.6321    1.2954   -1.5270 C   0  0  0  0  0  0  0  0  0  0  0  0
    0.1662    0.0310   -0.9329 C   0  0  1  0  0  0  0  0  0  0  0  0
    1.1942    0.8830    0.1091 C   0  0  2  0  0  0  0  0  0  0  0  0
    2.1342    1.4848   -1.0635 C   0  0  0  0  0  0  0  0  0  0  0  0
    3.1761    2.1317   -0.1581 C   0  0  0  0  0  0  0  0  0  0  0  0
    3.5841    1.2318    0.9675 C   0  0  0  0  0  0  0  0  0  0  0  0
    4.7738    1.5302    1.5070 C   0  0  0  0  0  0  0  0  0  0  0  0
    5.8321    0.5127    1.6382 C   0  0  0  0  0  0  0  0  0  0  0  0
    6.9908    0.8061    2.0640 O   0  0  0  0  0  0  0  0  0  0  0  0
    5.7218   -0.5400    0.6153 C   0  0  0  0  0  0  0  0  0  0  0  0
    4.4799   -0.7468    0.1709 C   0  0  0  0  0  0  0  0  0  0  0  0
    3.2926   -0.2500    0.9659 C   0  0  1  0  0  0  0  0  0  0  0  0
    3.6560   -0.6938    2.3386 C   0  0  0  0  0  0  0  0  0  0  0  0
    2.0921   -0.4319    0.3168 C   0  0  2  0  0  0  0  0  0  0  0  0
    2.3653   -0.9286   -0.9700 F   0  0  0  0  0  0  0  0  0  0  0  0
    1.0469   -1.6191    0.7093 C   0  0  1  0  0  0  0  0  0  0  0  0
    1.5551   -1.7930    2.1309 O   0  0  0  0  0  0  0  0  0  0  0  0
   -0.2200   -0.7168    1.2704 C   0  0  0  0  0  0  0  0  0  0  0  0
   -0.9192   -0.0295    0.2627 C   0  0  2  0  0  0  0  0  0  0  0  0
   -1.0731    1.4142    0.7753 C   0  0  0  0  0  0  0  0  0  0  0  0
  1  2  1  0
  2  3  2  0
  2  4  1  0
  4  5  1  0
  5  6  1  0
  6  7  2  0
  8  6  1  1
  8  9  1  0
  9 10  1  0
 10 11  1  0
 11 12  1  0
 12 13  1  0
 13 14  1  0
 10 15  1  0
 16 15  1  6
 16 17  1  0
 18 17  1  6
 18 19  1  0
 19 20  1  6
 20 21  1  0
 21 22  1  0
 22 23  2  0
 23 24  1  0
 24 25  2  0
 24 26  1  0
 26 27  2  0
 27 28  1  0
 28 29  1  1
 28 30  1  0
 30 31  1  6
 30 32  1  0
 32 33  1  1
 32 34  1  0
 34 35  1  0
 35 36  1  1
 16  8  1  0
 35 18  1  0
 35  8  1  0
 14 10  1  0
 30 19  1  0
 28 22  1  0
M  END
>  <supplier_code>  (147) 
DB00288

>  <zinc_id>  (147) 
ZINC000003977777

>  <catalog_short_name>  (147) 
dbfda

$$$$

     RDKit          3D

 19 20  0  0  0  0  0  0  0  0999 V2000
   -2.3928    4.1130    0.1024 C   0  0  0  0  0  0  0  0  0  0  0  0
   -1.9179    3.4451    0.3117 N   0  0  0  0  0  0  0  0  0  0  0  0
   -2.2601    2.0672    0.0654 C   0  0  0  0  0  0  0  0  0  0  0  0
   -1.3865    1.0947    0.8521 C   0  0  0  0  0  0  0  0  0  0  0  0
   -0.5296    0.4394   -0.4258 C   0  0  1  0  0  0  0  0  0  0  0  0
    0.6194   -0.0545    0.5131 O   0  0  0  0  0  0  0  0  0  0  0  0
    1.8550    0.0074   -0.1027 C   0  0  0  0  0  0  0  0  0  0  0  0
    2.3024    1.2200   -0.5832 C   0  0  0  0  0  0  0  0  0  0  0  0
    3.6115    1.5923   -0.6634 C   0  0  0  0  0  0  0  0  0  0  0  0
    4.5464    0.7688   -0.0561 C   0  0  0  0  0  0  0  0  0  0  0  0
    4.1834   -0.5034    0.3238 C   0  0  0  0  0  0  0  0  0  0  0  0
    2.8385   -0.8534    0.3670 C   0  0  0  0  0  0  0  0  0  0  0  0
    2.4829   -2.2299    0.8111 C   0  0  0  0  0  0  0  0  0  0  0  0
   -1.3544   -0.9732   -0.3403 C   0  0  0  0  0  0  0  0  0  0  0  0
   -2.6353   -0.8103   -0.8709 C   0  0  0  0  0  0  0  0  0  0  0  0
   -3.4728   -1.9144   -0.7444 C   0  0  0  0  0  0  0  0  0  0  0  0
   -3.0581   -3.0301   -0.0252 C   0  0  0  0  0  0  0  0  0  0  0  0
   -2.0711   -2.7868    0.9192 C   0  0  0  0  0  0  0  0  0  0  0  0
   -1.3610   -1.5917    0.8759 C   0  0  0  0  0  0  0  0  0  0  0  0
  1  2  1  0
  2  3  1  0
  3  4  1  0
  5  4  1  1
  5  6  1  0
  6  7  1  0
  7  8  2  0
  8  9  1  0
  9 10  2  0
 10 11  1  0
 11 12  2  0
 12 13  1  0
  5 14  1  0
 14 15  2  0
 15 16  1  0
 16 17  2  0
 17 18  1  0
 18 19  2  0
 12  7  1  0
 19 14  1  0
M  END
>  <supplier_code>  (148) 
DB00289

>  <zinc_id>  (148) 
ZINC000001842633

>  <catalog_short_name>  (148) 
dbfda

$$$$

     RDKit          3D

 19 19  0  0  0  0  0  0  0  0999 V2000
    6.2807    0.6323    0.8705 O   0  0  0  0  0  0  0  0  0  0  0  0
    5.2808    0.0907    0.3097 C   0  0  0  0  0  0  0  0  0  0  0  0
    5.2941   -1.2427   -0.0898 O   0  0  0  0  0  0  0  0  0  0  0  0
    4.0992    0.9004   -0.1179 C   0  0  0  0  0  0  0  0  0  0  0  0
    2.9815    0.5750    0.8303 C   0  0  0  0  0  0  0  0  0  0  0  0
    2.6377   -0.9037    0.7717 C   0  0  0  0  0  0  0  0  0  0  0  0
    1.1440   -0.9634    0.6663 C   0  0  0  0  0  0  0  0  0  0  0  0
    0.6437   -0.5736   -0.5719 C   0  0  0  0  0  0  0  0  0  0  0  0
   -0.6737   -0.2316   -0.7299 C   0  0  0  0  0  0  0  0  0  0  0  0
   -1.4272    0.1403    0.3762 C   0  0  0  0  0  0  0  0  0  0  0  0
   -2.8460    0.0244    0.2139 N   0  0  0  0  0  0  0  0  0  0  0  0
   -3.6388    1.1795   -0.1316 C   0  0  0  0  0  0  0  0  0  0  0  0
   -2.6995    2.2466   -0.6830 C   0  0  0  0  0  0  0  0  0  0  0  0
   -2.8994    3.6718    0.3781 Cl  0  0  0  0  0  0  0  0  0  0  0  0
   -3.4746   -1.1711    0.7548 C   0  0  0  0  0  0  0  0  0  0  0  0
   -4.3109   -1.8940   -0.2750 C   0  0  0  0  0  0  0  0  0  0  0  0
   -5.9863   -1.9041    0.3383 Cl  0  0  0  0  0  0  0  0  0  0  0  0
   -0.8760   -0.1398    1.6202 C   0  0  0  0  0  0  0  0  0  0  0  0
    0.4707   -0.4371    1.7638 C   0  0  0  0  0  0  0  0  0  0  0  0
  1  2  2  0
  2  3  1  0
  2  4  1  0
  4  5  1  0
  5  6  1  0
  6  7  1  0
  7  8  2  0
  8  9  1  0
  9 10  2  0
 10 11  1  0
 11 12  1  0
 12 13  1  0
 13 14  1  0
 11 15  1  0
 15 16  1  0
 16 17  1  0
 10 18  1  0
 18 19  2  0
 19  7  1  0
M  END
>  <supplier_code>  (149) 
DB00291

>  <zinc_id>  (149) 
ZINC000000001115

>  <catalog_short_name>  (149) 
dbfda

$$$$

     RDKit          3D

 18 19  0  0  0  0  0  0  0  0999 V2000
    4.0425   -1.3435    1.5703 C   0  0  0  0  0  0  0  0  0  0  0  0
    3.7442   -1.0019    1.7109 C   0  0  0  0  0  0  0  0  0  0  0  0
    3.4283   -0.1400    0.6170 O   0  0  0  0  0  0  0  0  0  0  0  0
    2.2683    0.5610    0.4831 C   0  0  0  0  0  0  0  0  0  0  0  0
    1.6403    0.8255    1.5521 O   0  0  0  0  0  0  0  0  0  0  0  0
    1.4342    0.4837   -0.7226 C   0  0  0  0  0  0  0  0  0  0  0  0
    2.0278    0.4873   -1.9790 C   0  0  0  0  0  0  0  0  0  0  0  0
    1.1277    0.0040   -2.8350 N   0  0  0  0  0  0  0  0  0  0  0  0
    0.0763   -0.4143   -2.0893 C   0  0  0  0  0  0  0  0  0  0  0  0
    0.1874   -0.0338   -0.8610 N   0  0  0  0  0  0  0  0  0  0  0  0
   -0.3872   -0.7158    0.4339 C   0  0  2  0  0  0  0  0  0  0  0  0
   -1.0308   -2.0352   -0.3226 C   0  0  0  0  0  0  0  0  0  0  0  0
   -1.7698    0.1163    0.3753 C   0  0  0  0  0  0  0  0  0  0  0  0
   -2.4537    0.1580   -0.7747 C   0  0  0  0  0  0  0  0  0  0  0  0
   -3.7555    0.6458   -0.7684 C   0  0  0  0  0  0  0  0  0  0  0  0
   -4.4585    0.5461    0.4088 C   0  0  0  0  0  0  0  0  0  0  0  0
   -3.7465    0.4889    1.5932 C   0  0  0  0  0  0  0  0  0  0  0  0
   -2.3751    0.2744    1.6081 C   0  0  0  0  0  0  0  0  0  0  0  0
  1  2  1  0
  2  3  1  0
  3  4  1  0
  4  5  2  0
  4  6  1  0
  6  7  2  0
  7  8  1  0
  8  9  2  0
  9 10  1  0
 11 10  1  6
 11 12  1  0
 11 13  1  0
 13 14  2  0
 14 15  1  0
 15 16  2  0
 16 17  1  0
 17 18  2  0
 10  6  1  0
 18 13  1  0
M  END
>  <supplier_code>  (150) 
DB00292

>  <zinc_id>  (150) 
ZINC000000001408

>  <catalog_short_name>  (150) 
dbfda

$$$$

     RDKit          3D

 24 27  0  0  0  0  0  0  0  0999 V2000
   -3.4104   -0.0308    2.8206 C   0  0  0  0  0  0  0  0  0  0  0  0
   -3.5065    0.0934    1.6413 C   0  0  0  0  0  0  0  0  0  0  0  0
   -3.4180    0.0420    0.1834 C   0  0  2  0  0  0  0  0  0  0  0  0
   -4.4527    0.7499   -0.3811 O   0  0  0  0  0  0  0  0  0  0  0  0
   -3.4848   -1.3957   -0.3248 C   0  0  0  0  0  0  0  0  0  0  0  0
   -2.0584   -1.7724   -0.7178 C   0  0  0  0  0  0  0  0  0  0  0  0
   -1.3515   -0.8478    0.4041 C   0  0  1  0  0  0  0  0  0  0  0  0
    0.0507   -0.6334   -0.4940 C   0  0  2  0  0  0  0  0  0  0  0  0
    0.5715   -2.1001   -0.1003 C   0  0  0  0  0  0  0  0  0  0  0  0
    2.0379   -2.0139   -0.2991 C   0  0  0  0  0  0  0  0  0  0  0  0
    2.4300   -0.6997   -0.8768 C   0  0  0  0  0  0  0  0  0  0  0  0
    3.6346   -0.4906   -1.4260 C   0  0  0  0  0  0  0  0  0  0  0  0
    4.6021    0.3724   -0.7227 C   0  0  0  0  0  0  0  0  0  0  0  0
    5.2062    1.3189   -1.2566 O   0  0  0  0  0  0  0  0  0  0  0  0
    4.5582    0.1782    0.7633 C   0  0  0  0  0  0  0  0  0  0  0  0
    3.1326    0.0045    1.2153 C   0  0  0  0  0  0  0  0  0  0  0  0
    2.1861    0.5911    0.0295 C   0  0  2  0  0  0  0  0  0  0  0  0
    0.7877    0.0779    0.8304 C   0  0  1  0  0  0  0  0  0  0  0  0
    0.0726    1.4686    0.5712 C   0  0  0  0  0  0  0  0  0  0  0  0
    0.7065    2.5604    1.0027 C   0  0  0  0  0  0  0  0  0  0  0  0
   -1.3959    1.5332    0.5174 C   0  0  0  0  0  0  0  0  0  0  0  0
   -2.0540    0.4574   -0.2475 C   0  0  2  0  0  0  0  0  0  0  0  0
   -1.8255    0.4419   -1.7131 C   0  0  0  0  0  0  0  0  0  0  0  0
   -3.0191    0.0947   -2.5468 C   0  0  0  0  0  0  0  0  0  0  0  0
  1  2  3  0
  3  2  1  1
  3  4  1  0
  3  5  1  0
  5  6  1  0
  7  6  1  6
  7  8  1  0
  8  9  1  1
  9 10  1  0
 10 11  1  0
 11 12  2  0
 12 13  1  0
 13 14  2  0
 13 15  1  0
 15 16  1  0
 17 16  1  1
 17 18  1  0
 18 19  1  6
 19 20  2  0
 19 21  1  0
 21 22  1  0
 22 23  1  6
 23 24  1  0
 22  3  1  0
 22  7  1  0
 18  8  1  0
 17 11  1  0
M  END
>  <supplier_code>  (151) 
DB00294

>  <zinc_id>  (151) 
ZINC000011680067

>  <catalog_short_name>  (151) 
dbfda

$$$$

     RDKit          3D

 21 25  0  0  0  0  0  0  0  0999 V2000
    3.9360   -1.0297    0.0513 C   0  0  0  0  0  0  0  0  0  0  0  0
    3.0369   -0.7002   -0.4222 N   0  0  0  0  0  0  0  0  0  0  0  0
    2.6058   -0.2477   -1.6231 C   0  0  0  0  0  0  0  0  0  0  0  0
    1.2759    0.3281   -1.9198 C   0  0  0  0  0  0  0  0  0  0  0  0
    0.3102    0.4038   -0.8282 C   0  0  1  0  0  0  0  0  0  0  0  0
   -0.7190   -0.4850   -0.5896 C   0  0  0  0  0  0  0  0  0  0  0  0
   -1.9173    0.0465   -0.1518 C   0  0  0  0  0  0  0  0  0  0  0  0
   -2.6999   -0.8300    0.6019 C   0  0  0  0  0  0  0  0  0  0  0  0
   -3.3585   -0.3990    1.7651 O   0  0  0  0  0  0  0  0  0  0  0  0
   -2.5237   -2.1940    0.3548 C   0  0  0  0  0  0  0  0  0  0  0  0
   -1.3229   -2.6807   -0.1690 C   0  0  0  0  0  0  0  0  0  0  0  0
   -0.3220   -1.7816   -0.2628 C   0  0  0  0  0  0  0  0  0  0  0  0
    1.0828   -1.8504   -0.5484 C   0  0  0  0  0  0  0  0  0  0  0  0
    1.8785   -1.0052    0.5885 C   0  0  2  0  0  0  0  0  0  0  0  0
    1.3541    0.5981    0.3626 C   0  0  2  0  0  0  0  0  0  0  0  0
    0.2158    0.5227    1.4939 C   0  0  0  0  0  0  0  0  0  0  0  0
   -0.1569    1.8147    1.5663 C   0  0  0  0  0  0  0  0  0  0  0  0
    0.3429    2.6673    0.2858 C   0  0  2  0  0  0  0  0  0  0  0  0
   -0.7803    3.6667    0.4013 O   0  0  0  0  0  0  0  0  0  0  0  0
   -0.5331    1.7831   -0.9233 C   0  0  2  0  0  0  0  0  0  0  0  0
   -1.7057    1.3726   -0.0334 O   0  0  0  0  0  0  0  0  0  0  0  0
  1  2  1  0
  2  3  1  0
  3  4  1  0
  5  4  1  6
  5  6  1  0
  6  7  2  0
  7  8  1  0
  8  9  1  0
  8 10  2  0
 10 11  1  0
 11 12  2  0
 12 13  1  0
 14 13  1  6
 14 15  1  0
 15 16  1  1
 16 17  2  0
 17 18  1  0
 18 19  1  1
 18 20  1  0
 20 21  1  1
 14  2  1  0
 15  5  1  0
 20  5  1  0
 12  6  1  0
 21  7  1  0
M  END
>  <supplier_code>  (152) 
DB00295

>  <zinc_id>  (152) 
ZINC000003812983

>  <catalog_short_name>  (152) 
dbfda

$$$$

     RDKit          3D

 20 21  0  0  0  0  0  0  0  0999 V2000
    3.9695    3.2986   -0.3682 C   0  0  0  0  0  0  0  0  0  0  0  0
    3.5403    1.9731    0.1618 C   0  0  0  0  0  0  0  0  0  0  0  0
    2.4619    1.3720   -0.6777 C   0  0  0  0  0  0  0  0  0  0  0  0
    2.4900   -0.0438   -0.4321 N   0  0  0  0  0  0  0  0  0  0  0  0
    2.3704   -0.4768    0.8789 C   0  0  0  0  0  0  0  0  0  0  0  0
    2.9416   -1.8908    0.9369 C   0  0  0  0  0  0  0  0  0  0  0  0
    2.0992   -2.6619   -0.0295 C   0  0  0  0  0  0  0  0  0  0  0  0
    2.0014   -2.1363   -1.3901 C   0  0  0  0  0  0  0  0  0  0  0  0
    1.2901   -0.6218   -1.3189 C   0  0  1  0  0  0  0  0  0  0  0  0
    0.3132   -1.0063   -0.0441 C   0  0  0  0  0  0  0  0  0  0  0  0
   -0.3634   -2.0490   -0.2960 O   0  0  0  0  0  0  0  0  0  0  0  0
   -0.4204    0.0822    0.4654 N   0  0  0  0  0  0  0  0  0  0  0  0
   -1.8269    0.2795    0.3490 C   0  0  0  0  0  0  0  0  0  0  0  0
   -2.7564   -0.6386    0.7779 C   0  0  0  0  0  0  0  0  0  0  0  0
   -2.3773   -1.4562    1.9638 C   0  0  0  0  0  0  0  0  0  0  0  0
   -4.0819   -0.4474    0.4146 C   0  0  0  0  0  0  0  0  0  0  0  0
   -4.5064    0.7516   -0.1433 C   0  0  0  0  0  0  0  0  0  0  0  0
   -3.6220    1.7864   -0.3010 C   0  0  0  0  0  0  0  0  0  0  0  0
   -2.2732    1.4637   -0.2283 C   0  0  0  0  0  0  0  0  0  0  0  0
   -1.2495    2.4219   -0.7191 C   0  0  0  0  0  0  0  0  0  0  0  0
  1  2  1  0
  2  3  1  0
  3  4  1  0
  4  5  1  0
  5  6  1  0
  6  7  1  0
  7  8  1  0
  8  9  1  0
  9 10  1  1
 10 11  2  0
 10 12  1  0
 12 13  1  0
 13 14  2  0
 14 15  1  0
 14 16  1  0
 16 17  2  0
 17 18  1  0
 18 19  2  0
 19 20  1  0
  9  4  1  0
 19 13  1  0
M  END
>  <supplier_code>  (153) 
DB00296

>  <zinc_id>  (153) 
ZINC000000897002

>  <catalog_short_name>  (153) 
dbfda

$$$$

     RDKit          3D

 21 22  0  0  0  0  0  0  0  0999 V2000
    3.7362    3.2622    0.5889 C   0  0  0  0  0  0  0  0  0  0  0  0
    3.9196    2.3215    0.0040 C   0  0  0  0  0  0  0  0  0  0  0  0
    3.5771    0.9909    0.6186 C   0  0  0  0  0  0  0  0  0  0  0  0
    2.2504    0.4533    0.1562 C   0  0  0  0  0  0  0  0  0  0  0  0
    2.1955   -1.0080    0.2339 N   0  0  0  0  0  0  0  0  0  0  0  0
    3.4363   -1.4615   -0.3967 C   0  0  0  0  0  0  0  0  0  0  0  0
    3.2321   -2.9107   -0.8164 C   0  0  0  0  0  0  0  0  0  0  0  0
    2.1566   -3.4495    0.0804 C   0  0  0  0  0  0  0  0  0  0  0  0
    0.8608   -2.8682   -0.2977 C   0  0  0  0  0  0  0  0  0  0  0  0
    1.0937   -1.3351   -0.8479 C   0  0  1  0  0  0  0  0  0  0  0  0
   -0.0731   -0.6903    0.0531 C   0  0  0  0  0  0  0  0  0  0  0  0
   -0.5608   -1.3257    0.9664 O   0  0  0  0  0  0  0  0  0  0  0  0
   -0.7539    0.4245   -0.4583 N   0  0  0  0  0  0  0  0  0  0  0  0
   -2.1364    0.6645   -0.3277 C   0  0  0  0  0  0  0  0  0  0  0  0
   -2.8586    1.2783   -1.3481 C   0  0  0  0  0  0  0  0  0  0  0  0
   -2.2158    1.7670   -2.5814 C   0  0  0  0  0  0  0  0  0  0  0  0
   -4.2411    1.3990   -1.2165 C   0  0  0  0  0  0  0  0  0  0  0  0
   -4.8482    0.7742   -0.1319 C   0  0  0  0  0  0  0  0  0  0  0  0
   -4.0798    0.2618    0.9075 C   0  0  0  0  0  0  0  0  0  0  0  0
   -2.7034    0.4737    0.9268 C   0  0  0  0  0  0  0  0  0  0  0  0
   -1.9874    0.9781    2.1416 C   0  0  0  0  0  0  0  0  0  0  0  0
  1  2  1  0
  2  3  1  0
  3  4  1  0
  4  5  1  0
  5  6  1  0
  6  7  1  0
  7  8  1  0
  8  9  1  0
  9 10  1  0
 10 11  1  1
 11 12  2  0
 11 13  1  0
 13 14  1  0
 14 15  2  0
 15 16  1  0
 15 17  1  0
 17 18  2  0
 18 19  1  0
 19 20  2  0
 20 21  1  0
 10  5  1  0
 20 14  1  0
M  END
>  <supplier_code>  (154) 
DB00297

>  <zinc_id>  (154) 
ZINC000001530812

>  <catalog_short_name>  (154) 
dbfda

$$$$

     RDKit          3D

 21 22  0  0  0  0  0  0  0  0999 V2000
    4.3929    2.8901    0.2039 C   0  0  0  0  0  0  0  0  0  0  0  0
    3.8871    2.3958    0.4033 C   0  0  0  0  0  0  0  0  0  0  0  0
    3.5363    1.1817   -0.4473 C   0  0  0  0  0  0  0  0  0  0  0  0
    2.7294    0.2674    0.4219 C   0  0  0  0  0  0  0  0  0  0  0  0
    2.2407   -0.7954   -0.4568 N   0  0  0  0  0  0  0  0  0  0  0  0
    3.3614   -1.7264   -0.5391 C   0  0  0  0  0  0  0  0  0  0  0  0
    2.8734   -2.9498   -1.2484 C   0  0  0  0  0  0  0  0  0  0  0  0
    1.5191   -2.7306   -1.8202 C   0  0  0  0  0  0  0  0  0  0  0  0
    0.4719   -2.2430   -0.9242 C   0  0  0  0  0  0  0  0  0  0  0  0
    1.1536   -1.5519    0.3985 C   0  0  2  0  0  0  0  0  0  0  0  0
    0.1568   -0.2814    0.3459 C   0  0  0  0  0  0  0  0  0  0  0  0
    0.4178    0.3838    1.3976 O   0  0  0  0  0  0  0  0  0  0  0  0
   -1.2067   -0.5303    0.5809 N   0  0  0  0  0  0  0  0  0  0  0  0
   -2.2968    0.2284    0.3182 C   0  0  0  0  0  0  0  0  0  0  0  0
   -2.5819    1.5350    0.5476 C   0  0  0  0  0  0  0  0  0  0  0  0
   -1.5248    2.3873    1.0751 C   0  0  0  0  0  0  0  0  0  0  0  0
   -3.6870    2.1968    0.0232 C   0  0  0  0  0  0  0  0  0  0  0  0
   -4.4674    1.5497   -0.9087 C   0  0  0  0  0  0  0  0  0  0  0  0
   -4.3635    0.1849   -0.9469 C   0  0  0  0  0  0  0  0  0  0  0  0
   -3.2674   -0.4486   -0.4297 C   0  0  0  0  0  0  0  0  0  0  0  0
   -3.3447   -1.9438   -0.4402 C   0  0  0  0  0  0  0  0  0  0  0  0
  1  2  1  0
  2  3  1  0
  3  4  1  0
  4  5  1  0
  5  6  1  0
  6  7  1  0
  7  8  1  0
  8  9  1  0
  9 10  1  0
 10 11  1  6
 11 12  2  0
 11 13  1  0
 13 14  1  0
 14 15  2  0
 15 16  1  0
 15 17  1  0
 17 18  2  0
 18 19  1  0
 19 20  2  0
 20 21  1  0
 10  5  1  0
 20 14  1  0
M  END
>  <supplier_code>  (155) 
DB00297

>  <zinc_id>  (155) 
ZINC000001530814

>  <catalog_short_name>  (155) 
dbfda

$$$$

     RDKit          3D

 18 19  0  0  0  0  0  0  0  0999 V2000
   -4.3817   -1.8402    1.2070 N   0  0  0  0  0  0  0  0  0  0  0  0
   -3.3699   -0.8812    0.8850 C   0  0  0  0  0  0  0  0  0  0  0  0
   -2.0528   -1.1895    0.9707 N   0  0  0  0  0  0  0  0  0  0  0  0
   -1.1307   -0.5318    0.2459 C   0  0  0  0  0  0  0  0  0  0  0  0
   -1.5909    0.5373   -0.5086 C   0  0  0  0  0  0  0  0  0  0  0  0
   -0.5751    0.8198   -1.3477 N   0  0  0  0  0  0  0  0  0  0  0  0
    0.5215    0.1486   -0.9230 C   0  0  0  0  0  0  0  0  0  0  0  0
    0.2222   -0.5893    0.1649 N   0  0  0  0  0  0  0  0  0  0  0  0
    1.0902   -0.9768    1.2719 C   0  0  0  0  0  0  0  0  0  0  0  0
    2.2165    0.0222    1.4778 C   0  0  0  0  0  0  0  0  0  0  0  0
    3.1598   -0.0468    0.3122 C   0  0  0  0  0  0  0  0  0  0  0  0
    3.6478    1.2879   -0.1607 C   0  0  0  0  0  0  0  0  0  0  0  0
    3.1758    2.3565    0.5820 O   0  0  0  0  0  0  0  0  0  0  0  0
    4.2747   -1.0475    0.5281 C   0  0  0  0  0  0  0  0  0  0  0  0
    4.3548   -1.7921   -0.6602 O   0  0  0  0  0  0  0  0  0  0  0  0
   -2.8745    1.0468   -0.3709 C   0  0  0  0  0  0  0  0  0  0  0  0
   -3.0122    2.2963   -0.5354 O   0  0  0  0  0  0  0  0  0  0  0  0
   -3.6754    0.3798    0.4953 N   0  0  0  0  0  0  0  0  0  0  0  0
  1  2  1  0
  2  3  2  0
  3  4  1  0
  4  5  2  0
  5  6  1  0
  6  7  2  0
  7  8  1  0
  8  9  1  0
  9 10  1  0
 10 11  1  0
 11 12  1  0
 12 13  1  0
 11 14  1  0
 14 15  1  0
  5 16  1  0
 16 17  2  0
 16 18  1  0
 18  2  1  0
  8  4  1  0
M  END
>  <supplier_code>  (156) 
DB00299

>  <zinc_id>  (156) 
ZINC000000001899

>  <catalog_short_name>  (156) 
dbfda

$$$$

     RDKit          3D

 19 20  0  0  0  0  0  0  0  0999 V2000
    1.6767   -2.7518   -1.1938 C   0  0  0  0  0  0  0  0  0  0  0  0
    1.5666   -1.2069   -0.5392 C   0  0  2  0  0  0  0  0  0  0  0  0
    0.1700   -0.8950   -1.4218 C   0  0  0  0  0  0  0  0  0  0  0  0
   -0.8837   -1.0323   -0.4219 N   0  0  0  0  0  0  0  0  0  0  0  0
   -0.8369   -1.6640    0.7667 C   0  0  0  0  0  0  0  0  0  0  0  0
   -1.7627   -1.1387    1.6075 N   0  0  0  0  0  0  0  0  0  0  0  0
   -2.3897   -0.1438    0.9396 C   0  0  0  0  0  0  0  0  0  0  0  0
   -2.0503   -0.3445   -0.3879 C   0  0  0  0  0  0  0  0  0  0  0  0
   -2.7630    0.3130   -1.3091 N   0  0  0  0  0  0  0  0  0  0  0  0
   -3.9093    0.9345   -0.9352 C   0  0  0  0  0  0  0  0  0  0  0  0
   -3.9236    1.4806    0.3055 N   0  0  0  0  0  0  0  0  0  0  0  0
   -3.2327    0.8988    1.3072 C   0  0  0  0  0  0  0  0  0  0  0  0
   -3.1122    1.4292    2.6041 N   0  0  0  0  0  0  0  0  0  0  0  0
    2.4537   -0.6190   -1.6622 O   0  0  0  0  0  0  0  0  0  0  0  0
    2.5935    0.6865   -1.2291 C   0  0  0  0  0  0  0  0  0  0  0  0
    3.8368    0.9239    0.0351 P   0  0  0  0  0  0  0  0  0  0  0  0
    5.2499    0.7691   -0.4742 O   0  0  0  0  0  0  0  0  0  0  0  0
    3.6524    2.4871    0.6621 O   0  0  0  0  0  0  0  0  0  0  0  0
    3.6644   -0.1266    1.3467 O   0  0  0  0  0  0  0  0  0  0  0  0
  2  1  1  6
  2  3  1  0
  3  4  1  0
  4  5  1  0
  5  6  2  0
  6  7  1  0
  7  8  2  0
  8  9  1  0
  9 10  2  0
 10 11  1  0
 11 12  2  0
 12 13  1  0
  2 14  1  0
 14 15  1  0
 15 16  1  0
 16 17  2  0
 16 18  1  0
 16 19  1  0
  8  4  1  0
 12  7  1  0
M  END
>  <supplier_code>  (157) 
DB00300

>  <zinc_id>  (157) 
ZINC000001543475

>  <catalog_short_name>  (157) 
dbfda

$$$$

     RDKit          3D

 35 36  0  0  0  0  0  0  0  0999 V2000
    6.3241   -5.0115   -0.6202 C   0  0  0  0  0  0  0  0  0  0  0  0
    5.9000   -4.3991   -0.1380 C   0  0  0  0  0  0  0  0  0  0  0  0
    6.8446   -3.4245    0.5547 C   0  0  0  0  0  0  0  0  0  0  0  0
    5.0112   -3.6560   -0.9476 O   0  0  0  0  0  0  0  0  0  0  0  0
    3.9243   -2.9860   -0.4213 C   0  0  0  0  0  0  0  0  0  0  0  0
    3.3580   -3.4889    0.5693 O   0  0  0  0  0  0  0  0  0  0  0  0
    3.5373   -1.7301   -0.8843 O   0  0  0  0  0  0  0  0  0  0  0  0
    2.1366   -1.4614   -0.9041 C   0  0  0  0  0  0  0  0  0  0  0  0
    1.6859   -1.6400    0.3909 O   0  0  0  0  0  0  0  0  0  0  0  0
    1.2864   -0.1208    1.0287 P   0  0  0  0  0  0  0  0  0  0  0  0
    1.4190   -0.1453    2.5242 O   0  0  0  0  0  0  0  0  0  0  0  0
   -0.4363    0.1956    0.6004 C   0  0  0  0  0  0  0  0  0  0  0  0
   -0.8100   -0.5535   -0.5294 O   0  0  0  0  0  0  0  0  0  0  0  0
   -1.0125   -1.9079    0.1777 C   0  0  2  0  0  0  0  0  0  0  0  0
   -1.9201   -2.5150   -1.0933 C   0  0  0  0  0  0  0  0  0  0  0  0
   -2.3494   -1.3349    0.9984 C   0  0  0  0  0  0  0  0  0  0  0  0
   -3.2785   -0.8741    0.0430 N   0  0  0  0  0  0  0  0  0  0  0  0
   -3.2244   -0.1311   -1.0719 C   0  0  0  0  0  0  0  0  0  0  0  0
   -4.3642   -0.3359   -1.7628 N   0  0  0  0  0  0  0  0  0  0  0  0
   -5.2999   -0.5491   -0.8255 C   0  0  0  0  0  0  0  0  0  0  0  0
   -4.6079   -0.9456    0.3124 C   0  0  0  0  0  0  0  0  0  0  0  0
   -5.3400   -0.9680    1.4532 N   0  0  0  0  0  0  0  0  0  0  0  0
   -6.6822   -0.7796    1.4483 C   0  0  0  0  0  0  0  0  0  0  0  0
   -7.3627   -0.7569    0.2937 N   0  0  0  0  0  0  0  0  0  0  0  0
   -6.6737   -0.6970   -0.8689 C   0  0  0  0  0  0  0  0  0  0  0  0
   -7.3219   -0.8756   -2.1173 N   0  0  0  0  0  0  0  0  0  0  0  0
    2.2175    1.0767    0.3023 O   0  0  0  0  0  0  0  0  0  0  0  0
    2.5981    2.0647    1.1868 C   0  0  0  0  0  0  0  0  0  0  0  0
    1.6927    3.1667    1.2066 O   0  0  0  0  0  0  0  0  0  0  0  0
    1.7901    4.2310    0.3177 C   0  0  0  0  0  0  0  0  0  0  0  0
    2.2018    3.9374   -0.8429 O   0  0  0  0  0  0  0  0  0  0  0  0
    1.5780    5.5558    0.6950 O   0  0  0  0  0  0  0  0  0  0  0  0
    2.0803    6.5736   -0.1394 C   0  0  0  0  0  0  0  0  0  0  0  0
    1.5133    7.9261    0.1605 C   0  0  0  0  0  0  0  0  0  0  0  0
    3.5844    6.5603   -0.2449 C   0  0  0  0  0  0  0  0  0  0  0  0
  1  2  1  0
  2  3  1  0
  2  4  1  0
  4  5  1  0
  5  6  2  0
  5  7  1  0
  7  8  1  0
  8  9  1  0
  9 10  1  0
 10 11  2  0
 10 12  1  0
 12 13  1  0
 14 13  1  6
 14 15  1  0
 14 16  1  0
 16 17  1  0
 17 18  1  0
 18 19  2  0
 19 20  1  0
 20 21  2  0
 21 22  1  0
 22 23  2  0
 23 24  1  0
 24 25  2  0
 25 26  1  0
 10 27  1  0
 27 28  1  0
 28 29  1  0
 29 30  1  0
 30 31  2  0
 30 32  1  0
 32 33  1  0
 33 34  1  0
 33 35  1  0
 21 17  1  0
 25 20  1  0
M  END
>  <supplier_code>  (158) 
DB00300

>  <zinc_id>  (158) 
ZINC000003929022

>  <catalog_short_name>  (158) 
dbfda

$$$$

     RDKit          3D

 11 11  0  0  0  0  0  0  0  0999 V2000
    3.8329   -0.0409    0.2667 N   0  0  0  0  0  0  0  0  0  0  0  0
    2.4829   -0.0907    0.7496 C   0  0  0  0  0  0  0  0  0  0  0  0
    1.6810    0.6801   -0.4448 C   0  0  1  0  0  0  0  0  0  0  0  0
    1.1010   -0.7144   -1.0667 C   0  0  0  0  0  0  0  0  0  0  0  0
   -0.3383   -0.3228   -1.3991 C   0  0  0  0  0  0  0  0  0  0  0  0
   -1.1427   -0.9651   -0.1237 C   0  0  2  0  0  0  0  0  0  0  0  0
   -2.1340    0.2935    0.0196 C   0  0  0  0  0  0  0  0  0  0  0  0
   -2.4925    0.3776    1.2406 O   0  0  0  0  0  0  0  0  0  0  0  0
   -3.2830    0.0441   -0.7514 O   0  0  0  0  0  0  0  0  0  0  0  0
   -0.0921   -0.3871    0.9938 C   0  0  0  0  0  0  0  0  0  0  0  0
    0.3847    0.9325    0.5155 C   0  0  0  0  0  0  0  0  0  0  0  0
  1  2  1  0
  3  2  1  1
  3  4  1  0
  4  5  1  0
  5  6  1  0
  6  7  1  1
  7  8  2  0
  7  9  1  0
  6 10  1  0
 10 11  1  0
 11  3  1  0
M  END
>  <supplier_code>  (159) 
DB00302

>  <zinc_id>  (159) 
ZINC000100007011

>  <catalog_short_name>  (159) 
dbfda

$$$$

     RDKit          3D

 11 11  0  0  0  0  0  0  0  0999 V2000
    3.1901    0.7811    0.1889 N   0  0  0  0  0  0  0  0  0  0  0  0
    3.0569   -0.5498   -0.0526 C   0  0  0  0  0  0  0  0  0  0  0  0
    1.4712   -0.8769   -0.3739 C   0  0  1  0  0  0  0  0  0  0  0  0
    0.9654   -0.2439    1.0725 C   0  0  0  0  0  0  0  0  0  0  0  0
   -0.5425   -0.4221    1.0695 C   0  0  0  0  0  0  0  0  0  0  0  0
   -0.9319   -0.5541   -0.5436 C   0  0  1  0  0  0  0  0  0  0  0  0
   -2.3944    0.1285   -0.3502 C   0  0  0  0  0  0  0  0  0  0  0  0
   -2.4617    1.1373    0.3464 O   0  0  0  0  0  0  0  0  0  0  0  0
   -3.3811   -0.8673   -0.3362 O   0  0  0  0  0  0  0  0  0  0  0  0
   -0.2122    0.9064   -0.8880 C   0  0  0  0  0  0  0  0  0  0  0  0
    1.2401    0.5609   -1.1658 C   0  0  0  0  0  0  0  0  0  0  0  0
  1  2  1  0
  3  2  1  1
  3  4  1  0
  4  5  1  0
  5  6  1  0
  6  7  1  1
  7  8  2  0
  7  9  1  0
  6 10  1  0
 10 11  1  0
 11  3  1  0
M  END
>  <supplier_code>  (160) 
DB00302

>  <zinc_id>  (160) 
ZINC000100071256

>  <catalog_short_name>  (160) 
dbfda

$$$$

     RDKit          3D

 33 36  0  0  0  0  0  0  0  0999 V2000
   -7.6420    2.1838   -0.3855 C   0  0  0  0  0  0  0  0  0  0  0  0
   -7.0448    1.0530    0.6462 C   0  0  1  0  0  0  0  0  0  0  0  0
   -8.3400    0.2772    0.6544 O   0  0  0  0  0  0  0  0  0  0  0  0
   -6.4133    0.1113   -0.6384 C   0  0  1  0  0  0  0  0  0  0  0  0
   -5.3612    1.2494   -0.9407 C   0  0  0  0  0  0  0  0  0  0  0  0
   -5.3039    2.1821   -1.7337 O   0  0  0  0  0  0  0  0  0  0  0  0
   -4.3340    0.5896   -0.2511 N   0  0  0  0  0  0  0  0  0  0  0  0
   -3.1177   -0.0382    0.1390 C   0  0  0  0  0  0  0  0  0  0  0  0
   -2.0156    0.7492    0.6930 C   0  0  0  0  0  0  0  0  0  0  0  0
   -1.7114    0.7995    1.9237 O   0  0  0  0  0  0  0  0  0  0  0  0
   -1.5899    1.8470   -0.0539 O   0  0  0  0  0  0  0  0  0  0  0  0
   -3.0990   -1.2998   -0.2275 C   0  0  0  0  0  0  0  0  0  0  0  0
   -1.6528   -2.2704   -0.5941 S   0  0  0  0  0  0  0  0  0  0  0  0
   -0.2933   -0.9420   -0.7725 C   0  0  2  0  0  0  0  0  0  0  0  0
    0.7202   -1.6658   -1.7513 C   0  0  0  0  0  0  0  0  0  0  0  0
    2.0307   -1.1982   -1.2981 N   0  0  0  0  0  0  0  0  0  0  0  0
    1.6148   -0.2180   -0.1305 C   0  0  2  0  0  0  0  0  0  0  0  0
    2.7940   -0.5773    0.9047 C   0  0  0  0  0  0  0  0  0  0  0  0
    3.2251    0.5283    1.3664 O   0  0  0  0  0  0  0  0  0  0  0  0
    3.7124   -1.5609    0.7098 N   0  0  0  0  0  0  0  0  0  0  0  0
    5.1455   -1.3441    0.6464 C   0  0  0  0  0  0  0  0  0  0  0  0
    5.7317   -1.9884   -0.4410 C   0  0  0  0  0  0  0  0  0  0  0  0
    6.4221   -1.3099   -1.4353 C   0  0  0  0  0  0  0  0  0  0  0  0
    6.9611   -0.0847   -1.1320 C   0  0  0  0  0  0  0  0  0  0  0  0
    6.6048    0.5093    0.0685 C   0  0  0  0  0  0  0  0  0  0  0  0
    6.9635    1.9306    0.2069 C   0  0  0  0  0  0  0  0  0  0  0  0
    6.0791    2.7867   -0.0748 O   0  0  0  0  0  0  0  0  0  0  0  0
    8.1018    2.3492    0.8621 O   0  0  0  0  0  0  0  0  0  0  0  0
    5.6710   -0.0832    0.9127 C   0  0  0  0  0  0  0  0  0  0  0  0
    0.6052   -1.3862    0.4690 C   0  0  0  0  0  0  0  0  0  0  0  0
   -4.6009   -1.7281   -0.5348 C   0  0  2  0  0  0  0  0  0  0  0  0
   -4.6172   -0.9801   -1.9749 C   0  0  0  0  0  0  0  0  0  0  0  0
   -5.2457   -0.4710    0.4151 C   0  0  2  0  0  0  0  0  0  0  0  0
  2  1  1  6
  2  3  1  0
  2  4  1  0
  4  5  1  6
  5  6  2  0
  5  7  1  0
  7  8  1  0
  8  9  1  0
  9 10  2  0
  9 11  1  0
  8 12  2  0
 12 13  1  0
 14 13  1  1
 14 15  1  0
 15 16  1  0
 16 17  1  0
 17 18  1  1
 18 19  2  0
 18 20  1  0
 20 21  1  0
 21 22  2  0
 22 23  1  0
 23 24  2  0
 24 25  1  0
 25 26  1  0
 26 27  2  0
 26 28  1  0
 25 29  2  0
 17 30  1  0
 12 31  1  0
 31 32  1  6
 31 33  1  0
 33  4  1  0
 33  7  1  6
 30 14  1  0
 29 21  1  0
M  END
>  <supplier_code>  (161) 
DB00303

>  <zinc_id>  (161) 
ZINC000003918453

>  <catalog_short_name>  (161) 
dbfda

$$$$

     RDKit          3D

 23 26  0  0  0  0  0  0  0  0999 V2000
   -2.8711    3.0841    0.6539 C   0  0  0  0  0  0  0  0  0  0  0  0
   -2.9988    1.8953    0.6623 C   0  0  0  0  0  0  0  0  0  0  0  0
   -3.0622    0.4580    0.4521 C   0  0  2  0  0  0  0  0  0  0  0  0
   -4.2980    0.1542   -0.0790 O   0  0  0  0  0  0  0  0  0  0  0  0
   -2.9806   -0.2977    1.7767 C   0  0  0  0  0  0  0  0  0  0  0  0
   -1.7221   -1.1632    1.6748 C   0  0  0  0  0  0  0  0  0  0  0  0
   -0.8831    0.0662    0.9837 C   0  0  1  0  0  0  0  0  0  0  0  0
    0.2556   -0.9585    0.2305 C   0  0  2  0  0  0  0  0  0  0  0  0
    1.0822   -1.1767    1.6058 C   0  0  0  0  0  0  0  0  0  0  0  0
    2.2417   -1.9992    1.0420 C   0  0  0  0  0  0  0  0  0  0  0  0
    3.0089   -1.0640    0.1821 C   0  0  0  0  0  0  0  0  0  0  0  0
    4.3290   -1.0092    0.1117 C   0  0  0  0  0  0  0  0  0  0  0  0
    4.9097    0.3748    0.2551 C   0  0  0  0  0  0  0  0  0  0  0  0
    3.6804    1.2447   -0.0294 C   0  0  0  0  0  0  0  0  0  0  0  0
    3.2321    0.7601   -1.3689 C   0  0  0  0  0  0  0  0  0  0  0  0
    2.2308   -0.5267   -1.1354 C   0  0  2  0  0  0  0  0  0  0  0  0
    1.1509    0.4182   -0.1910 C   0  0  1  0  0  0  0  0  0  0  0  0
    0.2161    0.7152   -1.4539 C   0  0  0  0  0  0  0  0  0  0  0  0
    0.8098    1.6706   -2.1880 C   0  0  0  0  0  0  0  0  0  0  0  0
   -1.2261    0.9332   -1.2270 C   0  0  0  0  0  0  0  0  0  0  0  0
   -1.8863   -0.0128   -0.3177 C   0  0  2  0  0  0  0  0  0  0  0  0
   -1.9729   -1.4284   -0.7267 C   0  0  0  0  0  0  0  0  0  0  0  0
   -3.2459   -2.1381   -0.3464 C   0  0  0  0  0  0  0  0  0  0  0  0
  1  2  3  0
  3  2  1  1
  3  4  1  0
  3  5  1  0
  5  6  1  0
  7  6  1  1
  7  8  1  0
  8  9  1  1
  9 10  1  0
 10 11  1  0
 11 12  2  0
 12 13  1  0
 13 14  1  0
 14 15  1  0
 16 15  1  6
 16 17  1  0
 17 18  1  6
 18 19  2  0
 18 20  1  0
 20 21  1  0
 21 22  1  6
 22 23  1  0
 21  3  1  0
 21  7  1  0
 17  8  1  0
 16 11  1  0
M  END
>  <supplier_code>  (162) 
DB00304

>  <zinc_id>  (162) 
ZINC000004097416

>  <catalog_short_name>  (162) 
dbfda

$$$$

     RDKit          3D

 24 27  0  0  0  0  0  0  0  0999 V2000
    1.8488    1.9441    1.8072 C   0  0  0  0  0  0  0  0  0  0  0  0
    1.1422    1.8204    1.4129 O   0  0  0  0  0  0  0  0  0  0  0  0
    0.8324    1.4013    0.1162 C   0  0  2  0  0  0  0  0  0  0  0  0
    1.7950    2.1931   -0.9021 C   0  0  1  0  0  0  0  0  0  0  0  0
    0.6486    2.6347   -2.0762 N   0  0  0  0  0  0  0  0  0  0  0  0
    0.9099    3.6172   -0.7252 C   0  0  1  0  0  0  0  0  0  0  0  0
   -0.3861    3.0271    0.0803 C   0  0  0  0  0  0  0  0  0  0  0  0
   -0.4565    1.6399   -0.3266 N   0  0  0  0  0  0  0  0  0  0  0  0
   -1.1869    0.4741   -0.0116 C   0  0  0  0  0  0  0  0  0  0  0  0
   -0.4083   -0.5318   -0.3436 C   0  0  0  0  0  0  0  0  0  0  0  0
   -1.0000   -1.8949   -0.0306 C   0  0  0  0  0  0  0  0  0  0  0  0
   -0.3448   -2.9089   -0.2371 O   0  0  0  0  0  0  0  0  0  0  0  0
   -2.4487   -2.0744    0.0881 C   0  0  0  0  0  0  0  0  0  0  0  0
   -3.0354   -3.2400   -0.5004 N   0  0  0  0  0  0  0  0  0  0  0  0
   -3.1834   -1.0516    0.4915 C   0  0  0  0  0  0  0  0  0  0  0  0
   -4.6525   -1.1709    0.5440 C   0  0  0  0  0  0  0  0  0  0  0  0
   -2.4638    0.2222    0.7005 C   0  0  0  0  0  0  0  0  0  0  0  0
   -3.1122    1.1397    1.2290 O   0  0  0  0  0  0  0  0  0  0  0  0
    1.1072   -0.1628    0.0593 C   0  0  1  0  0  0  0  0  0  0  0  0
    1.6581   -0.1896   -1.4855 C   0  0  0  0  0  0  0  0  0  0  0  0
    2.4833   -1.3616   -1.4617 O   0  0  0  0  0  0  0  0  0  0  0  0
    3.2504   -1.5298   -0.2862 C   0  0  0  0  0  0  0  0  0  0  0  0
    4.4827   -2.2215   -0.2587 N   0  0  0  0  0  0  0  0  0  0  0  0
    2.5200   -1.7761    0.7370 O   0  0  0  0  0  0  0  0  0  0  0  0
  1  2  1  0
  3  2  1  1
  3  4  1  0
  4  5  1  6
  6  5  1  6
  6  7  1  0
  7  8  1  0
  8  9  1  0
  9 10  2  0
 10 11  1  0
 11 12  2  0
 11 13  1  0
 13 14  1  0
 13 15  2  0
 15 16  1  0
 15 17  1  0
 17 18  2  0
 10 19  1  0
 19 20  1  6
 20 21  1  0
 21 22  1  0
 22 23  1  0
 22 24  2  0
  8  3  1  0
 17  9  1  0
 19  3  1  0
  6  4  1  0
M  END
>  <supplier_code>  (163) 
DB00305

>  <zinc_id>  (163) 
ZINC000030726187

>  <catalog_short_name>  (163) 
dbfda

$$$$

     RDKit          3D

 26 28  0  0  0  0  0  0  0  0999 V2000
    1.2582   -2.1665    1.8140 C   0  0  0  0  0  0  0  0  0  0  0  0
    1.1224   -1.8029    0.5410 C   0  0  0  0  0  0  0  0  0  0  0  0
    2.3181   -1.4374   -0.2281 C   0  0  0  0  0  0  0  0  0  0  0  0
    2.2139   -0.6801   -1.3894 C   0  0  0  0  0  0  0  0  0  0  0  0
    3.1593    0.2877   -1.7106 C   0  0  0  0  0  0  0  0  0  0  0  0
    4.1823    0.5891   -0.8206 C   0  0  0  0  0  0  0  0  0  0  0  0
    4.5960    1.9727   -0.5488 C   0  0  0  0  0  0  0  0  0  0  0  0
    3.8839    2.6253    0.2739 O   0  0  0  0  0  0  0  0  0  0  0  0
    5.9742    2.1480   -0.3824 O   0  0  0  0  0  0  0  0  0  0  0  0
    4.5134   -0.4446    0.0476 C   0  0  0  0  0  0  0  0  0  0  0  0
    3.5805   -1.4293    0.3540 C   0  0  0  0  0  0  0  0  0  0  0  0
   -0.2034   -1.2888    0.1756 C   0  0  0  0  0  0  0  0  0  0  0  0
   -0.4833    0.0655    0.2734 C   0  0  0  0  0  0  0  0  0  0  0  0
   -1.8055    0.4942    0.2305 C   0  0  0  0  0  0  0  0  0  0  0  0
   -2.8076   -0.4220   -0.0533 C   0  0  0  0  0  0  0  0  0  0  0  0
   -2.4857   -1.7621   -0.1545 C   0  0  0  0  0  0  0  0  0  0  0  0
   -1.2058   -2.2404    0.0361 C   0  0  0  0  0  0  0  0  0  0  0  0
   -1.0147   -3.5947    0.6107 C   0  0  0  0  0  0  0  0  0  0  0  0
   -4.0351    0.0853   -0.7275 C   0  0  0  0  0  0  0  0  0  0  0  0
   -4.1688   -0.5543   -2.0971 C   0  0  0  0  0  0  0  0  0  0  0  0
   -5.2282   -0.2240    0.1520 C   0  0  0  0  0  0  0  0  0  0  0  0
   -3.9142    1.5845   -0.9281 C   0  0  0  0  0  0  0  0  0  0  0  0
   -3.5003    2.2886    0.3351 C   0  0  0  0  0  0  0  0  0  0  0  0
   -2.2322    1.7456    0.9316 C   0  0  0  0  0  0  0  0  0  0  0  0
   -1.1654    2.8059    0.8962 C   0  0  0  0  0  0  0  0  0  0  0  0
   -2.5521    1.3548    2.3690 C   0  0  0  0  0  0  0  0  0  0  0  0
  1  2  2  0
  2  3  1  0
  3  4  2  0
  4  5  1  0
  5  6  2  0
  6  7  1  0
  7  8  2  0
  7  9  1  0
  6 10  1  0
 10 11  2  0
  2 12  1  0
 12 13  2  0
 13 14  1  0
 14 15  2  0
 15 16  1  0
 16 17  2  0
 17 18  1  0
 15 19  1  0
 19 20  1  0
 19 21  1  0
 19 22  1  0
 22 23  1  0
 23 24  1  0
 24 25  1  0
 24 26  1  0
 11  3  1  0
 17 12  1  0
 24 14  1  0
M  END
>  <supplier_code>  (164) 
DB00307

>  <zinc_id>  (164) 
ZINC000001539579

>  <catalog_short_name>  (164) 
dbfda

$$$$

     RDKit          3D

 26 26  0  0  0  0  0  0  0  0999 V2000
    7.7823   -2.4851    0.4944 C   0  0  0  0  0  0  0  0  0  0  0  0
    6.8327   -1.3178    0.3827 C   0  0  0  0  0  0  0  0  0  0  0  0
    7.6019   -0.0291    0.3739 C   0  0  0  0  0  0  0  0  0  0  0  0
    6.7108    1.1427    0.0247 C   0  0  0  0  0  0  0  0  0  0  0  0
    5.2872    0.6357   -0.1507 C   0  0  0  0  0  0  0  0  0  0  0  0
    4.6589    0.2327    1.1502 C   0  0  0  0  0  0  0  0  0  0  0  0
    3.1521    0.4241    1.1669 C   0  0  0  0  0  0  0  0  0  0  0  0
    2.6619   -0.3392    0.0573 N   0  0  0  0  0  0  0  0  0  0  0  0
    3.0047   -1.7219    0.0824 C   0  0  0  0  0  0  0  0  0  0  0  0
    2.2805   -2.3565    1.2539 C   0  0  0  0  0  0  0  0  0  0  0  0
    1.3151   -0.1401   -0.3034 C   0  0  0  0  0  0  0  0  0  0  0  0
    0.5224    0.7777    0.5765 C   0  0  0  0  0  0  0  0  0  0  0  0
    0.0803    1.9988   -0.2271 C   0  0  0  0  0  0  0  0  0  0  0  0
   -1.3236    2.3688    0.5675 C   0  0  1  0  0  0  0  0  0  0  0  0
   -1.2994    3.8004    0.0499 O   0  0  0  0  0  0  0  0  0  0  0  0
   -2.2746    1.8409   -0.6538 C   0  0  0  0  0  0  0  0  0  0  0  0
   -3.6041    1.9639   -0.2550 C   0  0  0  0  0  0  0  0  0  0  0  0
   -4.5714    1.0013   -0.4813 C   0  0  0  0  0  0  0  0  0  0  0  0
   -4.1816   -0.2435   -0.9030 C   0  0  0  0  0  0  0  0  0  0  0  0
   -5.0229   -1.3934   -0.7426 N   0  0  0  0  0  0  0  0  0  0  0  0
   -6.0531   -1.5346    0.6267 S   0  0  0  0  0  0  0  0  0  0  0  0
   -5.1808   -0.9092    2.0211 C   0  0  0  0  0  0  0  0  0  0  0  0
   -7.3103   -0.7998    0.3340 O   0  0  0  0  0  0  0  0  0  0  0  0
   -6.2687   -2.9966    0.8312 O   0  0  0  0  0  0  0  0  0  0  0  0
   -2.8529   -0.4585   -1.2362 C   0  0  0  0  0  0  0  0  0  0  0  0
   -1.9474    0.5385   -1.0289 C   0  0  0  0  0  0  0  0  0  0  0  0
  1  2  1  0
  2  3  1  0
  3  4  1  0
  4  5  1  0
  5  6  1  0
  6  7  1  0
  7  8  1  0
  8  9  1  0
  9 10  1  0
  8 11  1  0
 11 12  1  0
 12 13  1  0
 14 13  1  6
 14 15  1  0
 14 16  1  0
 16 17  2  0
 17 18  1  0
 18 19  2  0
 19 20  1  0
 20 21  1  0
 21 22  1  0
 21 23  2  0
 21 24  2  0
 19 25  1  0
 25 26  2  0
 26 16  1  0
M  END
>  <supplier_code>  (165) 
DB00308

>  <zinc_id>  (165) 
ZINC000008214402

>  <catalog_short_name>  (165) 
dbfda

$$$$

     RDKit          3D

 26 26  0  0  0  0  0  0  0  0999 V2000
    7.8076   -0.4356   -1.0104 C   0  0  0  0  0  0  0  0  0  0  0  0
    7.5984   -0.5517   -0.6369 C   0  0  0  0  0  0  0  0  0  0  0  0
    7.3793   -0.5885    0.8716 C   0  0  0  0  0  0  0  0  0  0  0  0
    6.3064   -1.5921    1.2294 C   0  0  0  0  0  0  0  0  0  0  0  0
    5.1146   -0.7802    1.7235 C   0  0  0  0  0  0  0  0  0  0  0  0
    5.0483    0.4510    0.8301 C   0  0  0  0  0  0  0  0  0  0  0  0
    4.2878    0.0711   -0.4027 C   0  0  0  0  0  0  0  0  0  0  0  0
    2.8742    0.1466   -0.2963 N   0  0  0  0  0  0  0  0  0  0  0  0
    2.3168    1.3836    0.0995 C   0  0  0  0  0  0  0  0  0  0  0  0
    2.8415    1.9673    1.3692 C   0  0  0  0  0  0  0  0  0  0  0  0
    2.2027   -1.0365    0.1080 C   0  0  0  0  0  0  0  0  0  0  0  0
    1.1814   -0.8512    1.1950 C   0  0  0  0  0  0  0  0  0  0  0  0
    0.0683   -0.0175    0.6487 C   0  0  0  0  0  0  0  0  0  0  0  0
   -1.3363   -0.7936    1.0333 C   0  0  2  0  0  0  0  0  0  0  0  0
   -0.8212   -2.1164    0.4853 O   0  0  0  0  0  0  0  0  0  0  0  0
   -1.9961   -0.4008   -0.3948 C   0  0  0  0  0  0  0  0  0  0  0  0
   -2.9900   -1.2278   -0.8207 C   0  0  0  0  0  0  0  0  0  0  0  0
   -4.1504   -0.6738   -1.3464 C   0  0  0  0  0  0  0  0  0  0  0  0
   -4.3526    0.7011   -1.3916 C   0  0  0  0  0  0  0  0  0  0  0  0
   -5.6427    1.2778   -1.1548 N   0  0  0  0  0  0  0  0  0  0  0  0
   -6.8513    0.4672   -0.2190 S   0  0  0  0  0  0  0  0  0  0  0  0
   -7.7440   -0.6135   -1.3004 C   0  0  0  0  0  0  0  0  0  0  0  0
   -7.7720    1.4201    0.4649 O   0  0  0  0  0  0  0  0  0  0  0  0
   -6.1058   -0.3051    0.8472 O   0  0  0  0  0  0  0  0  0  0  0  0
   -3.1905    1.4579   -1.2943 C   0  0  0  0  0  0  0  0  0  0  0  0
   -2.0745    0.9578   -0.6374 C   0  0  0  0  0  0  0  0  0  0  0  0
  1  2  1  0
  2  3  1  0
  3  4  1  0
  4  5  1  0
  5  6  1  0
  6  7  1  0
  7  8  1  0
  8  9  1  0
  9 10  1  0
  8 11  1  0
 11 12  1  0
 12 13  1  0
 14 13  1  6
 14 15  1  0
 14 16  1  0
 16 17  2  0
 17 18  1  0
 18 19  2  0
 19 20  1  0
 20 21  1  0
 21 22  1  0
 21 23  2  0
 21 24  2  0
 19 25  1  0
 25 26  2  0
 26 16  1  0
M  END
>  <supplier_code>  (166) 
DB00308

>  <zinc_id>  (166) 
ZINC000008220878

>  <catalog_short_name>  (166) 
dbfda

$$$$

     RDKit          3D

 22 24  0  0  0  0  0  0  0  0999 V2000
   -4.8907   -0.0038    0.1032 N   0  0  0  0  0  0  0  0  0  0  0  0
   -3.9951   -0.3279    0.8193 S   0  0  0  0  0  0  0  0  0  0  0  0
   -4.2350   -1.6826    1.4501 O   0  0  0  0  0  0  0  0  0  0  0  0
   -3.8155    0.6132    1.9910 O   0  0  0  0  0  0  0  0  0  0  0  0
   -2.4570   -0.3932   -0.0316 C   0  0  0  0  0  0  0  0  0  0  0  0
   -1.3226   -0.9521    0.5116 C   0  0  0  0  0  0  0  0  0  0  0  0
   -0.1434   -0.9884   -0.2250 C   0  0  0  0  0  0  0  0  0  0  0  0
    1.1967   -0.8856    0.4341 C   0  0  2  0  0  0  0  0  0  0  0  0
    1.7209   -2.1386    0.7304 O   0  0  0  0  0  0  0  0  0  0  0  0
    1.1683   -0.0261    1.5900 N   0  0  0  0  0  0  0  0  0  0  0  0
    2.1065    1.0407    1.4493 C   0  0  0  0  0  0  0  0  0  0  0  0
    2.2250    2.0759    2.1717 O   0  0  0  0  0  0  0  0  0  0  0  0
    2.8832    0.7447    0.2592 C   0  0  0  0  0  0  0  0  0  0  0  0
    4.1248    1.1881   -0.1776 C   0  0  0  0  0  0  0  0  0  0  0  0
    4.3916    1.1027   -1.5367 C   0  0  0  0  0  0  0  0  0  0  0  0
    3.7153    0.1591   -2.2840 C   0  0  0  0  0  0  0  0  0  0  0  0
    2.5939   -0.4535   -1.7421 C   0  0  0  0  0  0  0  0  0  0  0  0
    2.1872   -0.2017   -0.4411 C   0  0  0  0  0  0  0  0  0  0  0  0
   -0.2833   -0.7545   -1.5879 C   0  0  0  0  0  0  0  0  0  0  0  0
   -1.3951   -0.1115   -2.1166 C   0  0  0  0  0  0  0  0  0  0  0  0
   -2.4151    0.2678   -1.2527 C   0  0  0  0  0  0  0  0  0  0  0  0
   -3.3605    1.7273   -1.5323 Cl  0  0  0  0  0  0  0  0  0  0  0  0
  1  2  1  0
  2  3  2  0
  2  4  2  0
  2  5  1  0
  5  6  2  0
  6  7  1  0
  8  7  1  6
  8  9  1  0
  8 10  1  0
 10 11  1  0
 11 12  2  0
 11 13  1  0
 13 14  2  0
 14 15  1  0
 15 16  2  0
 16 17  1  0
 17 18  2  0
  7 19  2  0
 19 20  1  0
 20 21  2  0
 21 22  1  0
 21  5  1  0
 18  8  1  0
 18 13  1  0
M  END
>  <supplier_code>  (167) 
DB00310

>  <zinc_id>  (167) 
ZINC000000020253

>  <catalog_short_name>  (167) 
dbfda

$$$$

     RDKit          3D

 22 24  0  0  0  0  0  0  0  0999 V2000
    2.5623    1.5644    1.7946 N   0  0  0  0  0  0  0  0  0  0  0  0
    3.1266    1.2705    1.0516 S   0  0  0  0  0  0  0  0  0  0  0  0
    4.3053    0.4287    1.4993 O   0  0  0  0  0  0  0  0  0  0  0  0
    3.7505    2.4133    0.2761 O   0  0  0  0  0  0  0  0  0  0  0  0
    2.2791    0.2857   -0.1407 C   0  0  0  0  0  0  0  0  0  0  0  0
    0.9012    0.1814   -0.0819 C   0  0  0  0  0  0  0  0  0  0  0  0
    0.2158   -0.9660   -0.4180 C   0  0  0  0  0  0  0  0  0  0  0  0
   -1.2497   -0.8998   -0.6333 C   0  0  1  0  0  0  0  0  0  0  0  0
   -1.5807   -0.6808   -1.9739 O   0  0  0  0  0  0  0  0  0  0  0  0
   -1.9200   -2.0524   -0.0875 N   0  0  0  0  0  0  0  0  0  0  0  0
   -3.0507   -1.5940    0.6377 C   0  0  0  0  0  0  0  0  0  0  0  0
   -4.0671   -2.2672    0.9576 O   0  0  0  0  0  0  0  0  0  0  0  0
   -2.9784   -0.1494    0.7747 C   0  0  0  0  0  0  0  0  0  0  0  0
   -3.9173    0.8481    0.9964 C   0  0  0  0  0  0  0  0  0  0  0  0
   -3.6274    2.1778    0.7917 C   0  0  0  0  0  0  0  0  0  0  0  0
   -2.2905    2.5263    0.6749 C   0  0  0  0  0  0  0  0  0  0  0  0
   -1.4346    1.5544    0.2180 C   0  0  0  0  0  0  0  0  0  0  0  0
   -1.7707    0.2147    0.2165 C   0  0  0  0  0  0  0  0  0  0  0  0
    0.9100   -1.8996   -1.1771 C   0  0  0  0  0  0  0  0  0  0  0  0
    2.2433   -1.7152   -1.5025 C   0  0  0  0  0  0  0  0  0  0  0  0
    2.9302   -0.6785   -0.8825 C   0  0  0  0  0  0  0  0  0  0  0  0
    4.6627   -0.5623   -1.0096 Cl  0  0  0  0  0  0  0  0  0  0  0  0
  1  2  1  0
  2  3  2  0
  2  4  2  0
  2  5  1  0
  5  6  2  0
  6  7  1  0
  8  7  1  6
  8  9  1  0
  8 10  1  0
 10 11  1  0
 11 12  2  0
 11 13  1  0
 13 14  2  0
 14 15  1  0
 15 16  2  0
 16 17  1  0
 17 18  2  0
  7 19  2  0
 19 20  1  0
 20 21  2  0
 21 22  1  0
 21  5  1  0
 18  8  1  0
 18 13  1  0
M  END
>  <supplier_code>  (168) 
DB00310

>  <zinc_id>  (168) 
ZINC000000057255

>  <catalog_short_name>  (168) 
dbfda

$$$$

     RDKit          3D

 16 16  0  0  0  0  0  0  0  0999 V2000
    3.4309   -1.5497   -0.2612 C   0  0  0  0  0  0  0  0  0  0  0  0
    2.0962   -2.1861   -0.5976 C   0  0  0  0  0  0  0  0  0  0  0  0
    1.0120   -1.1446   -0.6946 C   0  0  0  0  0  0  0  0  0  0  0  0
    1.5435    0.1019    0.2555 C   0  0  1  0  0  0  0  0  0  0  0  0
    1.8422    1.0532   -1.0654 C   0  0  0  0  0  0  0  0  0  0  0  0
    0.0179    0.7095    0.4493 C   0  0  0  0  0  0  0  0  0  0  0  0
    0.2011    2.0439    1.1031 C   0  0  0  0  0  0  0  0  0  0  0  0
    0.6455    3.1386    0.1874 C   0  0  0  0  0  0  0  0  0  0  0  0
   -0.6035    0.7391   -0.8634 C   0  0  0  0  0  0  0  0  0  0  0  0
   -0.7563    1.8364   -1.4828 O   0  0  0  0  0  0  0  0  0  0  0  0
   -1.5017   -0.3114   -1.2360 N   0  0  0  0  0  0  0  0  0  0  0  0
   -2.2408   -1.0569   -0.2603 C   0  0  0  0  0  0  0  0  0  0  0  0
   -2.8253   -2.1162   -0.6437 O   0  0  0  0  0  0  0  0  0  0  0  0
   -1.6327   -1.1370    1.0337 N   0  0  0  0  0  0  0  0  0  0  0  0
   -0.6143   -0.2069    1.4205 C   0  0  0  0  0  0  0  0  0  0  0  0
   -0.6148    0.0863    2.6557 O   0  0  0  0  0  0  0  0  0  0  0  0
  1  2  1  0
  2  3  1  0
  4  3  1  6
  4  5  1  0
  4  6  1  0
  6  7  1  0
  7  8  1  0
  6  9  1  0
  9 10  2  0
  9 11  1  0
 11 12  1  0
 12 13  2  0
 12 14  1  0
 14 15  1  0
 15 16  2  0
 15  6  1  0
M  END
>  <supplier_code>  (169) 
DB00312

>  <zinc_id>  (169) 
ZINC000013545634

>  <catalog_short_name>  (169) 
dbfda

$$$$

     RDKit          3D

 16 16  0  0  0  0  0  0  0  0999 V2000
    3.7618    0.7771   -1.2660 C   0  0  0  0  0  0  0  0  0  0  0  0
    2.5084    1.1745   -1.4128 C   0  0  0  0  0  0  0  0  0  0  0  0
    1.5040    0.0534   -1.2242 C   0  0  0  0  0  0  0  0  0  0  0  0
    1.0234    0.3417    0.3092 C   0  0  2  0  0  0  0  0  0  0  0  0
    2.0712   -0.7439    0.9317 C   0  0  0  0  0  0  0  0  0  0  0  0
   -0.2147   -0.7067    0.1909 C   0  0  0  0  0  0  0  0  0  0  0  0
    0.2600   -2.0377   -0.0608 C   0  0  0  0  0  0  0  0  0  0  0  0
   -0.5416   -3.1855    0.4049 C   0  0  0  0  0  0  0  0  0  0  0  0
   -1.0229   -0.3938    1.3628 C   0  0  0  0  0  0  0  0  0  0  0  0
   -0.8832   -0.9217    2.5077 O   0  0  0  0  0  0  0  0  0  0  0  0
   -1.4730    0.9728    1.4035 N   0  0  0  0  0  0  0  0  0  0  0  0
   -1.3344    1.8322    0.2630 C   0  0  0  0  0  0  0  0  0  0  0  0
   -1.7002    3.0311    0.2593 O   0  0  0  0  0  0  0  0  0  0  0  0
   -1.3472    1.1463   -0.9971 N   0  0  0  0  0  0  0  0  0  0  0  0
   -0.9949   -0.2344   -0.9981 C   0  0  0  0  0  0  0  0  0  0  0  0
   -1.6167   -1.1053   -1.6739 O   0  0  0  0  0  0  0  0  0  0  0  0
  1  2  1  0
  2  3  1  0
  4  3  1  6
  4  5  1  0
  4  6  1  0
  6  7  1  0
  7  8  1  0
  6  9  1  0
  9 10  2  0
  9 11  1  0
 11 12  1  0
 12 13  2  0
 12 14  1  0
 14 15  1  0
 15 16  2  0
 15  6  1  0
M  END
>  <supplier_code>  (170) 
DB00312

>  <zinc_id>  (170) 
ZINC000013545636

>  <catalog_short_name>  (170) 
dbfda

$$$$

     RDKit          3D

 10  9  0  0  0  0  0  0  0  0999 V2000
   -1.0104    3.2318   -0.1101 C   0  0  0  0  0  0  0  0  0  0  0  0
   -1.4933    1.7857   -0.0851 C   0  0  0  0  0  0  0  0  0  0  0  0
   -0.5091    1.0426    0.8107 C   0  0  0  0  0  0  0  0  0  0  0  0
   -0.0250   -0.1456    0.1145 C   0  0  0  0  0  0  0  0  0  0  0  0
    1.1313   -0.0874   -0.7617 C   0  0  0  0  0  0  0  0  0  0  0  0
    2.2553   -0.9701   -0.2951 C   0  0  0  0  0  0  0  0  0  0  0  0
    3.3055   -0.1560    0.4516 C   0  0  0  0  0  0  0  0  0  0  0  0
   -0.8223   -1.3562    0.1633 C   0  0  0  0  0  0  0  0  0  0  0  0
   -1.8459   -1.3920   -0.5860 O   0  0  0  0  0  0  0  0  0  0  0  0
   -0.9862   -1.9528    1.4188 O   0  0  0  0  0  0  0  0  0  0  0  0
  1  2  1  0
  2  3  1  0
  3  4  1  0
  4  5  1  0
  5  6  1  0
  6  7  1  0
  4  8  1  0
  8  9  2  0
  8 10  1  0
M  END
>  <supplier_code>  (171) 
DB00313

>  <zinc_id>  (171) 
ZINC000003008621

>  <catalog_short_name>  (171) 
dbfda

$$$$

     RDKit          3D

 47 48  0  0  0  0  0  0  0  0999 V2000
    9.2749    0.6269    0.8107 N   0  0  0  0  0  0  0  0  0  0  0  0
    8.2930    0.4453    0.3285 C   0  0  0  0  0  0  0  0  0  0  0  0
    8.1675   -0.5599   -0.7985 C   0  0  0  0  0  0  0  0  0  0  0  0
    7.6706    0.1006   -2.0497 C   0  0  0  0  0  0  0  0  0  0  0  0
    6.1134   -0.4129   -2.1240 C   0  0  2  0  0  0  0  0  0  0  0  0
    5.8740    0.3477   -3.4804 N   0  0  0  0  0  0  0  0  0  0  0  0
    5.5623    0.8577   -1.2407 C   0  0  0  0  0  0  0  0  0  0  0  0
    4.3476    0.3222   -0.5718 C   0  0  0  0  0  0  0  0  0  0  0  0
    4.4737   -0.3221    0.4895 O   0  0  0  0  0  0  0  0  0  0  0  0
    3.0185    0.6992   -0.9175 N   0  0  0  0  0  0  0  0  0  0  0  0
    2.0574   -0.3157   -1.0251 C   0  0  0  0  0  0  0  0  0  0  0  0
    0.5486    0.3150   -0.7475 C   0  0  2  0  0  0  0  0  0  0  0  0
    1.0805    1.2811    0.3355 N   0  0  0  0  0  0  0  0  0  0  0  0
   -0.0774    1.6077    1.0332 C   0  0  0  0  0  0  0  0  0  0  0  0
   -0.7759    2.6722    0.8902 O   0  0  0  0  0  0  0  0  0  0  0  0
    0.8850    1.9767    2.2314 C   0  0  2  0  0  0  0  0  0  0  0  0
    1.5468    0.5388    2.6684 C   0  0  0  0  0  0  0  0  0  0  0  0
    2.6924    0.9542    3.2900 O   0  0  0  0  0  0  0  0  0  0  0  0
   -0.2631    1.9210    3.3187 N   0  0  0  0  0  0  0  0  0  0  0  0
   -0.5948    0.7609    4.0234 C   0  0  0  0  0  0  0  0  0  0  0  0
   -1.1723    0.8680    5.1126 O   0  0  0  0  0  0  0  0  0  0  0  0
   -1.3209   -0.0516    2.8395 C   0  0  1  0  0  0  0  0  0  0  0  0
   -0.6107   -1.4280    3.1887 N   0  0  0  0  0  0  0  0  0  0  0  0
   -2.6627   -0.5650    3.6415 C   0  0  0  0  0  0  0  0  0  0  0  0
   -3.1945   -1.6287    2.7911 N   0  0  0  0  0  0  0  0  0  0  0  0
   -3.3480   -1.5911    1.3597 C   0  0  0  0  0  0  0  0  0  0  0  0
   -4.2754   -1.9723    0.6950 O   0  0  0  0  0  0  0  0  0  0  0  0
   -2.5850   -0.2240    0.9725 C   0  0  2  0  0  0  0  0  0  0  0  0
   -4.1060    0.5900    1.1350 C   0  0  1  0  0  0  0  0  0  0  0  0
   -3.5464    2.0552    0.6926 C   0  0  0  0  0  0  0  0  0  0  0  0
   -4.8343    2.8664    0.7390 C   0  0  0  0  0  0  0  0  0  0  0  0
   -5.9574    2.1424    0.1718 N   0  0  0  0  0  0  0  0  0  0  0  0
   -5.7069    1.1846   -0.6546 C   0  0  0  0  0  0  0  0  0  0  0  0
   -6.7088    0.8514   -1.6086 N   0  0  0  0  0  0  0  0  0  0  0  0
   -4.6810    0.2924   -0.2830 N   0  0  0  0  0  0  0  0  0  0  0  0
   -2.5363   -0.2008   -0.5326 N   0  0  0  0  0  0  0  0  0  0  0  0
   -1.8411   -0.3121   -1.6199 C   0  0  0  0  0  0  0  0  0  0  0  0
   -2.3179    0.0516   -2.7431 O   0  0  0  0  0  0  0  0  0  0  0  0
   -1.5015   -1.7284   -1.5001 C   0  0  0  0  0  0  0  0  0  0  0  0
   -1.7602   -2.6806   -2.3970 C   0  0  0  0  0  0  0  0  0  0  0  0
   -2.1398   -2.2505   -3.6931 N   0  0  0  0  0  0  0  0  0  0  0  0
   -1.3197   -2.7282   -4.7428 C   0  0  0  0  0  0  0  0  0  0  0  0
   -1.8571   -2.6196   -6.0442 N   0  0  0  0  0  0  0  0  0  0  0  0
   -0.0848   -2.8477   -4.4922 O   0  0  0  0  0  0  0  0  0  0  0  0
   -0.8773   -1.8601   -0.2724 N   0  0  0  0  0  0  0  0  0  0  0  0
    0.0824   -0.9476    0.1204 C   0  0  0  0  0  0  0  0  0  0  0  0
    0.9684   -1.6843    0.6599 O   0  0  0  0  0  0  0  0  0  0  0  0
  1  2  1  0
  2  3  1  0
  3  4  1  0
  5  4  1  1
  5  6  1  0
  5  7  1  0
  7  8  1  0
  8  9  2  0
  8 10  1  0
 10 11  1  0
 12 11  1  6
 12 13  1  0
 13 14  1  0
 14 15  2  0
 14 16  1  0
 16 17  1  1
 17 18  1  0
 16 19  1  0
 19 20  1  0
 20 21  2  0
 20 22  1  0
 22 23  1  1
 22 24  1  0
 24 25  1  0
 25 26  1  0
 26 27  2  0
 28 26  1  6
 28 29  1  0
 29 30  1  6
 30 31  1  0
 31 32  1  0
 32 33  2  0
 33 34  1  0
 33 35  1  0
 28 36  1  0
 36 37  1  0
 37 38  2  0
 37 39  1  0
 39 40  2  0
 40 41  1  0
 41 42  1  0
 42 43  1  0
 42 44  2  0
 39 45  1  0
 45 46  1  0
 46 47  2  0
 46 12  1  0
 35 29  1  0
M  END
>  <supplier_code>  (172) 
DB00314

>  <zinc_id>  (172) 
ZINC000150338698

>  <catalog_short_name>  (172) 
dbfda

$$$$

     RDKit          3D

 21 23  0  0  0  0  0  0  0  0999 V2000
    5.1822    1.3096    0.5676 C   0  0  0  0  0  0  0  0  0  0  0  0
    4.3518    1.7066    0.6239 N   0  0  0  0  0  0  0  0  0  0  0  0
    3.8287    1.8944    1.9548 C   0  0  0  0  0  0  0  0  0  0  0  0
    3.2757    1.1055   -0.1615 C   0  0  0  0  0  0  0  0  0  0  0  0
    3.5588   -0.3478   -0.2694 C   0  0  0  0  0  0  0  0  0  0  0  0
    2.4754   -1.2347    0.1761 C   0  0  0  0  0  0  0  0  0  0  0  0
    2.6639   -2.6109    0.2329 C   0  0  0  0  0  0  0  0  0  0  0  0
    1.5090   -3.2416   -0.0856 N   0  0  0  0  0  0  0  0  0  0  0  0
    0.5529   -2.2819   -0.0995 C   0  0  0  0  0  0  0  0  0  0  0  0
   -0.8224   -2.4033   -0.1849 C   0  0  0  0  0  0  0  0  0  0  0  0
   -1.5414   -1.3307    0.3282 C   0  0  0  0  0  0  0  0  0  0  0  0
   -1.0192   -0.0490    0.1990 C   0  0  0  0  0  0  0  0  0  0  0  0
   -1.9684    1.0675    0.4641 C   0  0  0  0  0  0  0  0  0  0  0  0
   -2.5283    1.4080   -1.0442 C   0  0  1  0  0  0  0  0  0  0  0  0
   -3.4708    0.0651   -1.0804 C   0  0  0  0  0  0  0  0  0  0  0  0
   -4.1851    0.1947    0.1109 O   0  0  0  0  0  0  0  0  0  0  0  0
   -4.3029    1.5003    0.5243 C   0  0  0  0  0  0  0  0  0  0  0  0
   -5.3349    1.8980    1.1464 O   0  0  0  0  0  0  0  0  0  0  0  0
   -3.7108    2.2812   -0.4880 N   0  0  0  0  0  0  0  0  0  0  0  0
    0.3618    0.1127    0.2166 C   0  0  0  0  0  0  0  0  0  0  0  0
    1.1239   -1.0437    0.1647 C   0  0  0  0  0  0  0  0  0  0  0  0
  1  2  1  0
  2  3  1  0
  2  4  1  0
  4  5  1  0
  5  6  1  0
  6  7  2  0
  7  8  1  0
  8  9  1  0
  9 10  2  0
 10 11  1  0
 11 12  2  0
 12 13  1  0
 14 13  1  1
 14 15  1  0
 15 16  1  0
 16 17  1  0
 17 18  2  0
 17 19  1  0
 12 20  1  0
 20 21  2  0
 21  6  1  0
 21  9  1  0
 19 14  1  0
M  END
>  <supplier_code>  (173) 
DB00315

>  <zinc_id>  (173) 
ZINC000000015515

>  <catalog_short_name>  (173) 
dbfda

$$$$

     RDKit          3D

 11 11  0  0  0  0  0  0  0  0999 V2000
    2.7270   -1.1745    0.6455 C   0  0  0  0  0  0  0  0  0  0  0  0
    2.5422    0.1806    0.0628 C   0  0  0  0  0  0  0  0  0  0  0  0
    3.5161    1.1776    0.1790 O   0  0  0  0  0  0  0  0  0  0  0  0
    1.5105    0.3471   -0.7099 N   0  0  0  0  0  0  0  0  0  0  0  0
    0.2737   -0.2561   -0.3144 C   0  0  0  0  0  0  0  0  0  0  0  0
   -0.6501   -0.6479   -1.2758 C   0  0  0  0  0  0  0  0  0  0  0  0
   -2.0052   -0.5866   -1.0027 C   0  0  0  0  0  0  0  0  0  0  0  0
   -2.4788    0.0454    0.1416 C   0  0  0  0  0  0  0  0  0  0  0  0
   -3.6170    0.8567    0.1111 O   0  0  0  0  0  0  0  0  0  0  0  0
   -1.5803    0.1681    1.1939 C   0  0  0  0  0  0  0  0  0  0  0  0
   -0.2380   -0.1103    0.9691 C   0  0  0  0  0  0  0  0  0  0  0  0
  1  2  1  0
  2  3  1  0
  2  4  2  0
  4  5  1  0
  5  6  2  0
  6  7  1  0
  7  8  2  0
  8  9  1  0
  8 10  1  0
 10 11  2  0
 11  5  1  0
M  END
>  <supplier_code>  (174) 
DB00316

>  <zinc_id>  (174) 
ZINC000013550868

>  <catalog_short_name>  (174) 
dbfda

$$$$

     RDKit          3D

 31 34  0  0  0  0  0  0  0  0999 V2000
    2.4290    1.5617    3.3848 C   0  0  0  0  0  0  0  0  0  0  0  0
    2.0004    0.3635    2.7427 O   0  0  0  0  0  0  0  0  0  0  0  0
    1.0957    0.4120    1.6773 C   0  0  0  0  0  0  0  0  0  0  0  0
    0.1524    1.4276    1.5745 C   0  0  0  0  0  0  0  0  0  0  0  0
   -0.7369    1.4046    0.5075 C   0  0  0  0  0  0  0  0  0  0  0  0
   -1.0920    2.5427   -0.1352 N   0  0  0  0  0  0  0  0  0  0  0  0
   -1.8967    2.4551   -1.2196 C   0  0  0  0  0  0  0  0  0  0  0  0
   -2.4115    1.2572   -1.5878 N   0  0  0  0  0  0  0  0  0  0  0  0
   -2.0063    0.1193   -1.0124 C   0  0  0  0  0  0  0  0  0  0  0  0
   -2.5900   -1.1523   -1.2796 N   0  0  0  0  0  0  0  0  0  0  0  0
   -3.9458   -1.3280   -0.8970 C   0  0  0  0  0  0  0  0  0  0  0  0
   -4.6983   -2.2795   -1.5376 C   0  0  0  0  0  0  0  0  0  0  0  0
   -6.0802   -2.1598   -1.5868 C   0  0  0  0  0  0  0  0  0  0  0  0
   -6.7377   -1.1485   -0.9267 C   0  0  0  0  0  0  0  0  0  0  0  0
   -7.9468   -0.6733   -1.2724 F   0  0  0  0  0  0  0  0  0  0  0  0
   -5.9763   -0.3884   -0.0479 C   0  0  0  0  0  0  0  0  0  0  0  0
   -6.7223    0.8301    0.9598 Cl  0  0  0  0  0  0  0  0  0  0  0  0
   -4.6028   -0.4446   -0.0648 C   0  0  0  0  0  0  0  0  0  0  0  0
   -1.0336    0.1569   -0.0272 C   0  0  0  0  0  0  0  0  0  0  0  0
   -0.1498   -0.9062    0.1078 C   0  0  0  0  0  0  0  0  0  0  0  0
    0.9418   -0.7646    0.9541 C   0  0  0  0  0  0  0  0  0  0  0  0
    2.0678   -1.5379    0.6519 O   0  0  0  0  0  0  0  0  0  0  0  0
    3.1420   -0.8745    0.0393 C   0  0  0  0  0  0  0  0  0  0  0  0
    3.4609   -1.4276   -1.3409 C   0  0  0  0  0  0  0  0  0  0  0  0
    4.8993   -1.1078   -1.7287 C   0  0  0  0  0  0  0  0  0  0  0  0
    5.5206   -0.4771   -0.5968 N   0  0  0  0  0  0  0  0  0  0  0  0
    6.1385   -1.4027    0.3175 C   0  0  0  0  0  0  0  0  0  0  0  0
    6.4011   -0.6323    1.6065 C   0  0  0  0  0  0  0  0  0  0  0  0
    7.2700    0.3968    1.2901 O   0  0  0  0  0  0  0  0  0  0  0  0
    6.7470    1.3046    0.3821 C   0  0  0  0  0  0  0  0  0  0  0  0
    6.3602    0.6403   -0.9346 C   0  0  0  0  0  0  0  0  0  0  0  0
  1  2  1  0
  2  3  1  0
  3  4  2  0
  4  5  1  0
  5  6  2  0
  6  7  1  0
  7  8  2  0
  8  9  1  0
  9 10  1  0
 10 11  1  0
 11 12  2  0
 12 13  1  0
 13 14  2  0
 14 15  1  0
 14 16  1  0
 16 17  1  0
 16 18  2  0
  9 19  2  0
 19 20  1  0
 20 21  2  0
 21 22  1  0
 22 23  1  0
 23 24  1  0
 24 25  1  0
 25 26  1  0
 26 27  1  0
 27 28  1  0
 28 29  1  0
 29 30  1  0
 30 31  1  0
 21  3  1  0
 31 26  1  0
 19  5  1  0
 18 11  1  0
M  END
>  <supplier_code>  (175) 
DB00317

>  <zinc_id>  (175) 
ZINC000019632614

>  <catalog_short_name>  (175) 
dbfda

$$$$

     RDKit          3D

 22 26  0  0  0  0  0  0  0  0999 V2000
    4.0165   -0.6415    1.4129 C   0  0  0  0  0  0  0  0  0  0  0  0
    3.8391    0.2099    0.3104 O   0  0  0  0  0  0  0  0  0  0  0  0
    2.6591    0.1499   -0.4318 C   0  0  0  0  0  0  0  0  0  0  0  0
    2.5890   -0.8072   -1.4478 C   0  0  0  0  0  0  0  0  0  0  0  0
    1.3552   -1.2477   -1.9337 C   0  0  0  0  0  0  0  0  0  0  0  0
    0.1643   -0.7900   -1.3831 C   0  0  0  0  0  0  0  0  0  0  0  0
    0.3534    0.0374   -0.3104 C   0  0  0  0  0  0  0  0  0  0  0  0
    1.4846    0.5810    0.1828 C   0  0  0  0  0  0  0  0  0  0  0  0
    1.1634    1.5594    1.0367 O   0  0  0  0  0  0  0  0  0  0  0  0
   -0.2780    1.4026    1.5354 C   0  0  1  0  0  0  0  0  0  0  0  0
   -0.9686    2.7190    0.6357 C   0  0  1  0  0  0  0  0  0  0  0  0
    0.3116    3.5265    0.5058 O   0  0  0  0  0  0  0  0  0  0  0  0
   -0.7954    2.1454   -0.8495 C   0  0  0  0  0  0  0  0  0  0  0  0
   -1.7732    1.3053   -1.1244 C   0  0  0  0  0  0  0  0  0  0  0  0
   -2.1475    0.3539    0.1166 C   0  0  1  0  0  0  0  0  0  0  0  0
   -2.3233   -0.9996   -0.9161 C   0  0  1  0  0  0  0  0  0  0  0  0
   -0.8721   -1.6958   -0.9316 C   0  0  0  0  0  0  0  0  0  0  0  0
   -2.7645   -1.9229    0.2790 N   0  0  0  0  0  0  0  0  0  0  0  0
   -2.5638   -3.2865   -0.2275 C   0  0  0  0  0  0  0  0  0  0  0  0
   -1.9875   -1.7807    1.3850 C   0  0  0  0  0  0  0  0  0  0  0  0
   -0.8115   -0.9769    1.5709 C   0  0  0  0  0  0  0  0  0  0  0  0
   -0.6509    0.1584    0.5847 C   0  0  1  0  0  0  0  0  0  0  0  0
  1  2  1  0
  2  3  1  0
  3  4  2  0
  4  5  1  0
  5  6  2  0
  6  7  1  0
  7  8  2  0
  8  9  1  0
 10  9  1  6
 10 11  1  0
 11 12  1  6
 11 13  1  0
 13 14  2  0
 15 14  1  6
 15 16  1  0
 16 17  1  1
 16 18  1  0
 18 19  1  0
 18 20  1  0
 20 21  1  0
 22 21  1  1
  8  3  1  0
 22 10  1  0
 17  6  1  0
 22  7  1  0
 22 15  1  0
M  END
>  <supplier_code>  (176) 
DB00318

>  <zinc_id>  (176) 
ZINC000003806721

>  <catalog_short_name>  (176) 
dbfda

$$$$

     RDKit          3D

 36 39  0  0  0  0  0  0  0  0999 V2000
   -5.6602    3.2227    2.2128 C   0  0  0  0  0  0  0  0  0  0  0  0
   -6.1090    2.4426    1.1771 C   0  0  0  0  0  0  0  0  0  0  0  0
   -5.0715    1.7737    0.4253 N   0  0  0  0  0  0  0  0  0  0  0  0
   -4.0037    0.9928    1.0385 C   0  0  0  0  0  0  0  0  0  0  0  0
   -2.7015    1.2472    0.3063 C   0  0  0  0  0  0  0  0  0  0  0  0
   -2.8000    0.9269   -1.1089 N   0  0  0  0  0  0  0  0  0  0  0  0
   -1.9201   -0.0741   -1.6444 C   0  0  0  0  0  0  0  0  0  0  0  0
   -1.9797   -0.4259   -2.8536 O   0  0  0  0  0  0  0  0  0  0  0  0
   -1.6740   -1.1394   -0.7452 N   0  0  0  0  0  0  0  0  0  0  0  0
   -0.4479   -2.0706   -1.0931 C   0  0  1  0  0  0  0  0  0  0  0  0
    0.4960   -1.4337    0.0509 C   0  0  0  0  0  0  0  0  0  0  0  0
    0.0135   -1.2543    1.1663 O   0  0  0  0  0  0  0  0  0  0  0  0
    1.7826   -0.9693   -0.3932 N   0  0  0  0  0  0  0  0  0  0  0  0
    2.5209   -0.4798    0.9130 C   0  0  2  0  0  0  0  0  0  0  0  0
    2.2393    1.0768    0.6550 C   0  0  0  0  0  0  0  0  0  0  0  0
    1.1802    1.7016    0.6198 O   0  0  0  0  0  0  0  0  0  0  0  0
    3.6397    1.1761    0.9633 N   0  0  0  0  0  0  0  0  0  0  0  0
    4.0261   -0.1072    0.2653 C   0  0  2  0  0  0  0  0  0  0  0  0
    3.6018    0.8093   -1.3551 S   0  0  0  0  0  0  0  0  0  0  0  0
    5.0401    1.8177   -0.8965 C   0  0  0  0  0  0  0  0  0  0  0  0
    6.2886    1.0675   -1.0248 C   0  0  0  0  0  0  0  0  0  0  0  0
    5.1151    3.1205   -1.6162 C   0  0  0  0  0  0  0  0  0  0  0  0
    4.7633    2.2207    0.6724 C   0  0  2  0  0  0  0  0  0  0  0  0
    5.9623    1.3486    1.3160 C   0  0  0  0  0  0  0  0  0  0  0  0
    5.7505    0.3330    1.9545 O   0  0  0  0  0  0  0  0  0  0  0  0
    6.7240    2.2889    2.0348 O   0  0  0  0  0  0  0  0  0  0  0  0
   -0.9828   -3.2738   -0.1607 C   0  0  0  0  0  0  0  0  0  0  0  0
   -1.6779   -3.0521    0.9515 C   0  0  0  0  0  0  0  0  0  0  0  0
   -1.7711   -3.9924    1.9514 C   0  0  0  0  0  0  0  0  0  0  0  0
   -1.5143   -5.2911    1.5882 C   0  0  0  0  0  0  0  0  0  0  0  0
   -0.8511   -5.5524    0.4076 C   0  0  0  0  0  0  0  0  0  0  0  0
   -0.4610   -4.5069   -0.4208 C   0  0  0  0  0  0  0  0  0  0  0  0
   -4.0088    1.3049   -1.7567 C   0  0  0  0  0  0  0  0  0  0  0  0
   -4.0363    1.2089   -3.0070 O   0  0  0  0  0  0  0  0  0  0  0  0
   -5.2257    1.5933   -0.9863 C   0  0  0  0  0  0  0  0  0  0  0  0
   -6.2474    1.9495   -1.6075 O   0  0  0  0  0  0  0  0  0  0  0  0
  1  2  1  0
  2  3  1  0
  3  4  1  0
  4  5  1  0
  5  6  1  0
  6  7  1  0
  7  8  2  0
  7  9  1  0
 10  9  1  1
 10 11  1  0
 11 12  2  0
 11 13  1  0
 14 13  1  6
 14 15  1  0
 15 16  2  0
 15 17  1  0
 17 18  1  0
 18 19  1  6
 19 20  1  0
 20 21  1  0
 20 22  1  0
 20 23  1  0
 23 24  1  1
 24 25  2  0
 24 26  1  0
 10 27  1  0
 27 28  2  0
 28 29  1  0
 29 30  2  0
 30 31  1  0
 31 32  2  0
  6 33  1  0
 33 34  2  0
 33 35  1  0
 35 36  2  0
 35  3  1  0
 18 14  1  0
 32 27  1  0
 23 17  1  0
M  END
>  <supplier_code>  (177) 
DB00319

>  <zinc_id>  (177) 
ZINC000003913937

>  <catalog_short_name>  (177) 
dbfda

$$$$

     RDKit          3D

 43 50  0  0  0  0  0  0  0  0999 V2000
    2.2869   -0.3693   -1.6893 C   0  0  0  0  0  0  0  0  0  0  0  0
    2.5383   -0.7646   -1.0856 N   0  0  0  0  0  0  0  0  0  0  0  0
    2.9903   -2.0680   -1.0062 C   0  0  0  0  0  0  0  0  0  0  0  0
    2.8543   -2.6500    0.5308 C   0  0  2  0  0  0  0  0  0  0  0  0
    1.5596   -1.7388    0.8971 C   0  0  0  0  0  0  0  0  0  0  0  0
    1.1679   -1.9137    2.0927 O   0  0  0  0  0  0  0  0  0  0  0  0
    0.5267   -1.8931   -0.0113 N   0  0  0  0  0  0  0  0  0  0  0  0
   -0.8546   -1.9082    0.0685 C   0  0  2  0  0  0  0  0  0  0  0  0
   -1.2945   -3.3590   -0.1002 C   0  0  0  0  0  0  0  0  0  0  0  0
   -1.2615   -1.1295   -1.0314 O   0  0  0  0  0  0  0  0  0  0  0  0
   -2.4994   -0.6375   -0.7872 C   0  0  1  0  0  0  0  0  0  0  0  0
   -2.8739    0.4039   -1.5341 O   0  0  0  0  0  0  0  0  0  0  0  0
   -3.4060   -1.9713   -1.1603 C   0  0  2  0  0  0  0  0  0  0  0  0
   -3.9494   -1.3792   -2.6124 C   0  0  0  0  0  0  0  0  0  0  0  0
   -5.3028   -2.0388   -2.6363 C   0  0  0  0  0  0  0  0  0  0  0  0
   -5.6779   -2.2533   -1.1743 C   0  0  0  0  0  0  0  0  0  0  0  0
   -4.7077   -1.4652   -0.4138 N   0  0  0  0  0  0  0  0  0  0  0  0
   -4.7699   -0.1558    0.0408 C   0  0  0  0  0  0  0  0  0  0  0  0
   -5.9165    0.2872    0.3543 O   0  0  0  0  0  0  0  0  0  0  0  0
   -3.7721    0.1759    1.2940 C   0  0  2  0  0  0  0  0  0  0  0  0
   -3.3649    1.6552    0.6485 C   0  0  0  0  0  0  0  0  0  0  0  0
   -4.6123    2.4423    0.6931 C   0  0  0  0  0  0  0  0  0  0  0  0
   -4.9679    3.1508   -0.4471 C   0  0  0  0  0  0  0  0  0  0  0  0
   -6.1279    3.9105   -0.5126 C   0  0  0  0  0  0  0  0  0  0  0  0
   -6.9795    3.8021    0.5801 C   0  0  0  0  0  0  0  0  0  0  0  0
   -6.3653    3.6103    1.8023 C   0  0  0  0  0  0  0  0  0  0  0  0
   -5.1667    2.9105    1.8778 C   0  0  0  0  0  0  0  0  0  0  0  0
   -2.5210   -0.5151    0.6162 N   0  0  0  0  0  0  0  0  0  0  0  0
   -1.5050   -1.2772    1.2368 C   0  0  0  0  0  0  0  0  0  0  0  0
   -1.7039   -1.9131    2.3182 O   0  0  0  0  0  0  0  0  0  0  0  0
    3.8950   -1.5820    1.2389 C   0  0  0  0  0  0  0  0  0  0  0  0
    4.6883   -0.9923   -0.0560 C   0  0  2  0  0  0  0  0  0  0  0  0
    5.5958   -0.0088    0.8252 C   0  0  0  0  0  0  0  0  0  0  0  0
    6.7053   -0.6857    1.3303 C   0  0  0  0  0  0  0  0  0  0  0  0
    7.9769   -0.1224    1.3207 C   0  0  0  0  0  0  0  0  0  0  0  0
    8.2027    1.1286    0.7558 C   0  0  0  0  0  0  0  0  0  0  0  0
    7.1297    1.7540    0.1385 C   0  0  0  0  0  0  0  0  0  0  0  0
    6.9512    2.9173   -0.5332 N   0  0  0  0  0  0  0  0  0  0  0  0
    5.7831    2.8677   -1.2216 C   0  0  0  0  0  0  0  0  0  0  0  0
    5.2162    1.6288   -0.9453 C   0  0  0  0  0  0  0  0  0  0  0  0
    5.9040    1.1618    0.1510 C   0  0  0  0  0  0  0  0  0  0  0  0
    4.1705    0.7875   -1.6111 C   0  0  0  0  0  0  0  0  0  0  0  0
    3.4579    0.1977   -0.2531 C   0  0  1  0  0  0  0  0  0  0  0  0
  1  2  1  0
  2  3  1  0
  3  4  1  0
  4  5  1  1
  5  6  2  0
  5  7  1  0
  8  7  1  1
  8  9  1  0
  8 10  1  0
 10 11  1  0
 11 12  1  6
 11 13  1  0
 13 14  1  6
 14 15  1  0
 15 16  1  0
 16 17  1  0
 17 18  1  0
 18 19  2  0
 18 20  1  0
 20 21  1  6
 21 22  1  0
 22 23  2  0
 23 24  1  0
 24 25  2  0
 25 26  1  0
 26 27  2  0
 20 28  1  0
 28 29  1  0
 29 30  2  0
  4 31  1  0
 32 31  1  1
 32 33  1  0
 33 34  2  0
 34 35  1  0
 35 36  2  0
 36 37  1  0
 37 38  1  0
 38 39  1  0
 39 40  2  0
 40 41  1  0
 40 42  1  0
 43 42  1  6
 43  2  1  0
 29  8  1  0
 43 32  1  0
 28 11  1  0
 41 33  1  0
 17 13  1  0
 27 22  1  0
 41 37  2  0
M  END
>  <supplier_code>  (178) 
DB00320

>  <zinc_id>  (178) 
ZINC000003978005

>  <catalog_short_name>  (178) 
dbfda

$$$$

     RDKit          3D

 21 23  0  0  0  0  0  0  0  0999 V2000
    4.8882   -0.8278    1.5827 C   0  0  0  0  0  0  0  0  0  0  0  0
    4.5813   -0.6939    0.1669 N   0  0  0  0  0  0  0  0  0  0  0  0
    4.7953    0.6876   -0.2143 C   0  0  0  0  0  0  0  0  0  0  0  0
    3.2232   -1.0510   -0.1458 C   0  0  0  0  0  0  0  0  0  0  0  0
    2.2257    0.0282    0.1644 C   0  0  0  0  0  0  0  0  0  0  0  0
    1.0173   -0.6106    0.7210 C   0  0  0  0  0  0  0  0  0  0  0  0
   -0.2167   -0.2101    0.4833 C   0  0  0  0  0  0  0  0  0  0  0  0
   -0.3583    1.2469    0.3650 C   0  0  0  0  0  0  0  0  0  0  0  0
    0.8068    1.8491   -0.0943 C   0  0  0  0  0  0  0  0  0  0  0  0
    0.7409    3.0309   -0.8229 C   0  0  0  0  0  0  0  0  0  0  0  0
   -0.4912    3.5761   -1.1610 C   0  0  0  0  0  0  0  0  0  0  0  0
   -1.6174    3.1235   -0.4885 C   0  0  0  0  0  0  0  0  0  0  0  0
   -1.5656    1.9101    0.1867 C   0  0  0  0  0  0  0  0  0  0  0  0
   -2.9171    1.3956    0.5654 C   0  0  0  0  0  0  0  0  0  0  0  0
   -3.3097    0.2069   -0.2617 C   0  0  0  0  0  0  0  0  0  0  0  0
   -2.5852   -1.0379    0.1282 C   0  0  0  0  0  0  0  0  0  0  0  0
   -3.3103   -2.1646   -0.2397 C   0  0  0  0  0  0  0  0  0  0  0  0
   -2.6884   -3.2923   -0.7640 C   0  0  0  0  0  0  0  0  0  0  0  0
   -1.3082   -3.4094   -0.7019 C   0  0  0  0  0  0  0  0  0  0  0  0
   -0.6702   -2.4967    0.1313 C   0  0  0  0  0  0  0  0  0  0  0  0
   -1.2403   -1.2607    0.3991 C   0  0  0  0  0  0  0  0  0  0  0  0
  1  2  1  0
  2  3  1  0
  2  4  1  0
  4  5  1  0
  5  6  1  0
  6  7  2  3
  7  8  1  0
  8  9  2  0
  9 10  1  0
 10 11  2  0
 11 12  1  0
 12 13  2  0
 13 14  1  0
 14 15  1  0
 15 16  1  0
 16 17  2  0
 17 18  1  0
 18 19  2  0
 19 20  1  0
 20 21  2  0
 21  7  1  0
 13  8  1  0
 21 16  1  0
M  END
>  <supplier_code>  (179) 
DB00321

>  <zinc_id>  (179) 
ZINC000000968257

>  <catalog_short_name>  (179) 
dbfda

$$$$

     RDKit          3D

 17 18  0  0  0  0  0  0  0  0999 V2000
    4.2745   -0.0015   -0.7875 O   0  0  0  0  0  0  0  0  0  0  0  0
    3.3551   -0.2223   -0.2411 C   0  0  0  0  0  0  0  0  0  0  0  0
    2.6288   -1.3690   -0.2950 N   0  0  0  0  0  0  0  0  0  0  0  0
    1.3199   -1.3980    0.0711 C   0  0  0  0  0  0  0  0  0  0  0  0
    0.6817   -2.4945    0.1985 O   0  0  0  0  0  0  0  0  0  0  0  0
    0.5516   -0.2826   -0.0556 N   0  0  0  0  0  0  0  0  0  0  0  0
   -0.6680   -0.1843    0.9700 C   0  0  1  0  0  0  0  0  0  0  0  0
   -0.9920    1.3740    0.5023 C   0  0  0  0  0  0  0  0  0  0  0  0
   -2.2058    1.1304   -0.5402 C   0  0  2  0  0  0  0  0  0  0  0  0
   -3.0008    2.2778    0.0473 O   0  0  0  0  0  0  0  0  0  0  0  0
   -2.7931   -0.0011    0.6139 C   0  0  1  0  0  0  0  0  0  0  0  0
   -3.9188   -0.5969   -0.4234 C   0  0  0  0  0  0  0  0  0  0  0  0
   -4.7482   -1.1706    0.5596 O   0  0  0  0  0  0  0  0  0  0  0  0
   -1.6807   -0.8566    0.0504 O   0  0  0  0  0  0  0  0  0  0  0  0
    1.3214    0.7920    0.2874 C   0  0  0  0  0  0  0  0  0  0  0  0
    2.6647    0.8952    0.1338 C   0  0  0  0  0  0  0  0  0  0  0  0
    3.2098    2.1082    0.3290 F   0  0  0  0  0  0  0  0  0  0  0  0
  1  2  2  0
  2  3  1  0
  3  4  1  0
  4  5  2  0
  4  6  1  0
  7  6  1  6
  7  8  1  0
  8  9  1  0
  9 10  1  1
  9 11  1  0
 11 12  1  6
 12 13  1  0
 11 14  1  0
  6 15  1  0
 15 16  2  0
 16 17  1  0
 16  2  1  0
 14  7  1  0
M  END
>  <supplier_code>  (180) 
DB00322

>  <zinc_id>  (180) 
ZINC000003813010

>  <catalog_short_name>  (180) 
dbfda

$$$$

     RDKit          3D

 20 21  0  0  0  0  0  0  0  0999 V2000
    6.1572    0.0080    0.5410 C   0  0  0  0  0  0  0  0  0  0  0  0
    4.7978   -0.4211    0.9977 C   0  0  0  0  0  0  0  0  0  0  0  0
    4.1547   -1.4505    0.3209 C   0  0  0  0  0  0  0  0  0  0  0  0
    2.7852   -1.3998    0.0885 C   0  0  0  0  0  0  0  0  0  0  0  0
    2.0287   -0.2989    0.4732 C   0  0  0  0  0  0  0  0  0  0  0  0
    0.9911    0.2247   -0.4233 C   0  0  0  0  0  0  0  0  0  0  0  0
    1.3436    0.9860   -1.3717 O   0  0  0  0  0  0  0  0  0  0  0  0
   -0.4132   -0.0876   -0.2906 C   0  0  0  0  0  0  0  0  0  0  0  0
   -0.9540   -1.3425   -0.4954 C   0  0  0  0  0  0  0  0  0  0  0  0
   -2.2411   -1.5807   -0.0315 C   0  0  0  0  0  0  0  0  0  0  0  0
   -2.7917   -2.8554   -0.1064 O   0  0  0  0  0  0  0  0  0  0  0  0
   -3.0398   -0.4864    0.2650 C   0  0  0  0  0  0  0  0  0  0  0  0
   -4.2278   -0.6930    0.9660 O   0  0  0  0  0  0  0  0  0  0  0  0
   -2.6305    0.8174    0.0214 C   0  0  0  0  0  0  0  0  0  0  0  0
   -3.6241    1.8126   -0.2384 N   0  0  0  0  0  0  0  0  0  0  0  0
   -4.2040    1.7487   -1.3515 O   0  0  0  0  0  0  0  0  0  0  0  0
   -3.3978    3.0680    0.2811 O   0  0  0  0  0  0  0  0  0  0  0  0
   -1.3081    0.9732   -0.3365 C   0  0  0  0  0  0  0  0  0  0  0  0
    2.6079    0.5361    1.4208 C   0  0  0  0  0  0  0  0  0  0  0  0
    3.9659    0.4411    1.7013 C   0  0  0  0  0  0  0  0  0  0  0  0
  1  2  1  0
  2  3  2  0
  3  4  1  0
  4  5  2  0
  5  6  1  0
  6  7  2  0
  6  8  1  0
  8  9  2  0
  9 10  1  0
 10 11  1  0
 10 12  2  0
 12 13  1  0
 12 14  1  0
 14 15  1  0
 15 16  2  0
 15 17  1  0
 14 18  2  0
  5 19  1  0
 19 20  2  0
 20  2  1  0
 18  8  1  0
M  CHG  2  15   1  17  -1
M  END
>  <supplier_code>  (181) 
DB00323

>  <zinc_id>  (181) 
ZINC000035342789

>  <catalog_short_name>  (181) 
dbfda

$$$$

     RDKit          3D

 27 30  0  0  0  0  0  0  0  0999 V2000
    5.4910    0.2976    0.6102 C   0  0  0  0  0  0  0  0  0  0  0  0
    4.7728   -0.1812    0.2415 C   0  0  0  0  0  0  0  0  0  0  0  0
    5.0186   -0.6167   -0.8807 O   0  0  0  0  0  0  0  0  0  0  0  0
    3.4094    0.3849    0.5432 C   0  0  1  0  0  0  0  0  0  0  0  0
    3.3702    0.7555    1.8765 O   0  0  0  0  0  0  0  0  0  0  0  0
    3.3935    1.6072   -0.3886 C   0  0  0  0  0  0  0  0  0  0  0  0
    2.2068    1.3722   -1.3352 C   0  0  0  0  0  0  0  0  0  0  0  0
    1.2922    0.8629   -0.1077 C   0  0  1  0  0  0  0  0  0  0  0  0
    0.2019   -0.1172   -0.9498 C   0  0  2  0  0  0  0  0  0  0  0  0
   -0.6212    1.1360   -1.5773 C   0  0  0  0  0  0  0  0  0  0  0  0
   -1.8836    0.2944   -2.1833 C   0  0  2  0  0  0  0  0  0  0  0  0
   -2.6827    1.6628   -2.5869 C   0  0  0  0  0  0  0  0  0  0  0  0
   -2.6490    0.1563   -0.7813 C   0  0  0  0  0  0  0  0  0  0  0  0
   -3.9781    0.0755   -0.9109 C   0  0  0  0  0  0  0  0  0  0  0  0
   -4.7352   -0.1522    0.3285 C   0  0  0  0  0  0  0  0  0  0  0  0
   -5.9839   -0.1436    0.3037 O   0  0  0  0  0  0  0  0  0  0  0  0
   -3.9625   -0.0217    1.5631 C   0  0  0  0  0  0  0  0  0  0  0  0
   -2.7004   -0.3353    1.4964 C   0  0  0  0  0  0  0  0  0  0  0  0
   -1.9878   -0.7523    0.2329 C   0  0  1  0  0  0  0  0  0  0  0  0
   -2.4912   -2.1249    0.0125 C   0  0  0  0  0  0  0  0  0  0  0  0
   -0.7220   -0.2335    0.3483 C   0  0  2  0  0  0  0  0  0  0  0  0
   -0.8962    1.1089    0.7813 F   0  0  0  0  0  0  0  0  0  0  0  0
    0.2477   -0.5229    1.6248 C   0  0  1  0  0  0  0  0  0  0  0  0
   -0.4304   -1.8206    2.0290 O   0  0  0  0  0  0  0  0  0  0  0  0
    1.4905   -1.3218    0.8789 C   0  0  0  0  0  0  0  0  0  0  0  0
    2.2806   -0.4043    0.1021 C   0  0  2  0  0  0  0  0  0  0  0  0
    2.5488   -0.9657   -1.2711 C   0  0  0  0  0  0  0  0  0  0  0  0
  1  2  1  0
  2  3  2  0
  4  2  1  1
  4  5  1  0
  4  6  1  0
  6  7  1  0
  8  7  1  6
  8  9  1  0
  9 10  1  6
 10 11  1  0
 11 12  1  6
 11 13  1  0
 13 14  2  0
 14 15  1  0
 15 16  2  0
 15 17  1  0
 17 18  2  0
 18 19  1  0
 19 20  1  6
 19 21  1  0
 21 22  1  1
 21 23  1  0
 23 24  1  1
 23 25  1  0
 25 26  1  0
 26 27  1  6
 26  4  1  0
 26  8  1  0
 21  9  1  0
 19 13  1  0
M  END
>  <supplier_code>  (182) 
DB00324

>  <zinc_id>  (182) 
ZINC000118912517

>  <catalog_short_name>  (182) 
dbfda

$$$$

     RDKit          3D

 21 25  0  0  0  0  0  0  0  0999 V2000
    4.0349    0.4840    0.8095 C   0  0  0  0  0  0  0  0  0  0  0  0
    2.5971    0.8001    0.5923 N   0  0  0  0  0  0  0  0  0  0  0  0
    1.9657    0.2590    1.6388 C   0  0  0  0  0  0  0  0  0  0  0  0
    0.5297    0.1972    1.5020 C   0  0  0  0  0  0  0  0  0  0  0  0
    0.1147   -0.4788    0.2076 C   0  0  1  0  0  0  0  0  0  0  0  0
   -0.6461    0.3149   -0.5733 C   0  0  0  0  0  0  0  0  0  0  0  0
   -1.7343    0.5444    0.2879 C   0  0  0  0  0  0  0  0  0  0  0  0
   -2.3106    1.8225    0.3129 C   0  0  0  0  0  0  0  0  0  0  0  0
   -3.0276    2.1142    1.4990 O   0  0  0  0  0  0  0  0  0  0  0  0
   -1.6322    2.8688   -0.3232 C   0  0  0  0  0  0  0  0  0  0  0  0
   -0.4720    2.6332   -1.0691 C   0  0  0  0  0  0  0  0  0  0  0  0
    0.1624    1.4056   -0.9078 C   0  0  0  0  0  0  0  0  0  0  0  0
    1.3346    1.0551   -1.3848 C   0  0  0  0  0  0  0  0  0  0  0  0
    2.3965    0.0293   -0.7669 C   0  0  2  0  0  0  0  0  0  0  0  0
    1.4099   -1.2505   -0.1832 C   0  0  2  0  0  0  0  0  0  0  0  0
    0.9039   -1.6573   -1.6844 C   0  0  0  0  0  0  0  0  0  0  0  0
    0.0420   -2.8034   -1.2345 C   0  0  0  0  0  0  0  0  0  0  0  0
   -1.0708   -2.5132   -0.3699 C   0  0  0  0  0  0  0  0  0  0  0  0
   -1.5828   -3.5391    0.1074 O   0  0  0  0  0  0  0  0  0  0  0  0
   -0.8684   -1.5545    0.9304 C   0  0  2  0  0  0  0  0  0  0  0  0
   -2.1467   -0.7316    0.6094 O   0  0  0  0  0  0  0  0  0  0  0  0
  1  2  1  0
  2  3  1  0
  3  4  1  0
  5  4  1  1
  5  6  1  0
  6  7  2  0
  7  8  1  0
  8  9  1  0
  8 10  2  0
 10 11  1  0
 11 12  2  0
 12 13  1  0
 14 13  1  6
 14 15  1  0
 15 16  1  6
 16 17  1  0
 17 18  1  0
 18 19  2  0
 20 18  1  6
 20 21  1  0
 14  2  1  0
 15  5  1  0
 20  5  1  0
 12  6  1  0
 21  7  1  0
M  END
>  <supplier_code>  (183) 
DB00327

>  <zinc_id>  (183) 
ZINC000000402954

>  <catalog_short_name>  (183) 
dbfda

$$$$

     RDKit          3D

 25 27  0  0  0  0  0  0  0  0999 V2000
   -3.5298   -3.7992    1.2930 C   0  0  0  0  0  0  0  0  0  0  0  0
   -2.4635   -3.7011    0.3745 O   0  0  0  0  0  0  0  0  0  0  0  0
   -2.1175   -2.5171   -0.2716 C   0  0  0  0  0  0  0  0  0  0  0  0
   -1.3552   -2.6328   -1.4269 C   0  0  0  0  0  0  0  0  0  0  0  0
   -0.4547   -1.6492   -1.8023 C   0  0  0  0  0  0  0  0  0  0  0  0
   -0.5393   -0.4317   -1.1399 C   0  0  0  0  0  0  0  0  0  0  0  0
   -1.5739   -0.1954   -0.2462 C   0  0  0  0  0  0  0  0  0  0  0  0
   -2.2074   -1.2783    0.3515 C   0  0  0  0  0  0  0  0  0  0  0  0
   -1.5615    1.1545    0.0843 C   0  0  0  0  0  0  0  0  0  0  0  0
   -1.9368    1.7836    1.3902 C   0  0  0  0  0  0  0  0  0  0  0  0
   -3.3643    1.5699    1.6840 C   0  0  0  0  0  0  0  0  0  0  0  0
   -4.1925    2.2235    0.9801 O   0  0  0  0  0  0  0  0  0  0  0  0
   -3.7100    1.4563    3.0354 O   0  0  0  0  0  0  0  0  0  0  0  0
   -0.5977    1.6944   -0.7596 C   0  0  0  0  0  0  0  0  0  0  0  0
   -0.3834    3.1485   -1.0382 C   0  0  0  0  0  0  0  0  0  0  0  0
    0.1776    0.7116   -1.2629 N   0  0  0  0  0  0  0  0  0  0  0  0
    1.5202    0.7997   -1.7605 C   0  0  0  0  0  0  0  0  0  0  0  0
    1.7133    0.3844   -2.9430 O   0  0  0  0  0  0  0  0  0  0  0  0
    2.5552    0.5637   -0.7438 C   0  0  0  0  0  0  0  0  0  0  0  0
    2.3764   -0.5455    0.0737 C   0  0  0  0  0  0  0  0  0  0  0  0
    3.4030   -0.8608    0.9339 C   0  0  0  0  0  0  0  0  0  0  0  0
    4.4856   -0.0256    1.1625 C   0  0  0  0  0  0  0  0  0  0  0  0
    6.0464   -0.6833    1.6457 Cl  0  0  0  0  0  0  0  0  0  0  0  0
    4.3837    1.2453    0.6108 C   0  0  0  0  0  0  0  0  0  0  0  0
    3.3263    1.5845   -0.2247 C   0  0  0  0  0  0  0  0  0  0  0  0
  1  2  1  0
  2  3  1  0
  3  4  2  0
  4  5  1  0
  5  6  2  0
  6  7  1  0
  7  8  2  0
  7  9  1  0
  9 10  1  0
 10 11  1  0
 11 12  2  0
 11 13  1  0
  9 14  2  0
 14 15  1  0
 14 16  1  0
 16 17  1  0
 17 18  2  0
 17 19  1  0
 19 20  2  0
 20 21  1  0
 21 22  2  0
 22 23  1  0
 22 24  1  0
 24 25  2  0
  8  3  1  0
 25 19  1  0
 16  6  1  0
M  END
>  <supplier_code>  (184) 
DB00328

>  <zinc_id>  (184) 
ZINC000000601283

>  <catalog_short_name>  (184) 
dbfda

$$$$

     RDKit          3D

 14 13  0  0  0  0  0  0  0  0999 V2000
    2.2045    1.2318    0.1514 C   0  0  0  0  0  0  0  0  0  0  0  0
    1.9660    0.6407    0.0306 C   0  0  0  0  0  0  0  0  0  0  0  0
    2.5871   -0.4436   -1.0707 C   0  0  1  0  0  0  0  0  0  0  0  0
    3.6067   -1.0914    0.0747 C   0  0  0  0  0  0  0  0  0  0  0  0
    4.3351   -0.0180    0.5367 O   0  0  0  0  0  0  0  0  0  0  0  0
    1.4665   -1.5272   -0.7314 N   0  0  0  0  0  0  0  0  0  0  0  0
    0.2213   -0.8182   -0.7663 C   0  0  0  0  0  0  0  0  0  0  0  0
   -0.6910   -1.3986    0.2685 C   0  0  0  0  0  0  0  0  0  0  0  0
   -2.0457   -0.9508    0.2083 N   0  0  0  0  0  0  0  0  0  0  0  0
   -2.0695    0.4448    0.9864 C   0  0  1  0  0  0  0  0  0  0  0  0
   -1.9139    1.2812   -0.4449 C   0  0  0  0  0  0  0  0  0  0  0  0
   -1.7010    2.7017   -0.0370 C   0  0  0  0  0  0  0  0  0  0  0  0
   -3.7247    0.6022    0.9212 C   0  0  0  0  0  0  0  0  0  0  0  0
   -4.2414   -0.6545    1.0434 O   0  0  0  0  0  0  0  0  0  0  0  0
  1  2  1  0
  3  2  1  1
  3  4  1  0
  4  5  1  0
  3  6  1  0
  6  7  1  0
  7  8  1  0
  8  9  1  0
 10  9  1  6
 10 11  1  0
 11 12  1  0
 10 13  1  0
 13 14  1  0
M  END
>  <supplier_code>  (185) 
DB00330

>  <zinc_id>  (185) 
ZINC000019364219

>  <catalog_short_name>  (185) 
dbfda

$$$$

     RDKit          3D

  9  8  0  0  0  0  0  0  0  0999 V2000
   -2.7847   -1.1449    0.1224 C   0  0  0  0  0  0  0  0  0  0  0  0
   -1.8028   -0.1386   -0.1854 N   0  0  0  0  0  0  0  0  0  0  0  0
   -2.1356    1.0175   -1.0139 C   0  0  0  0  0  0  0  0  0  0  0  0
   -0.5308   -0.0881    0.4765 C   0  0  0  0  0  0  0  0  0  0  0  0
   -0.3134    0.9545    1.1968 N   0  0  0  0  0  0  0  0  0  0  0  0
    0.5764   -0.6650   -0.2001 N   0  0  0  0  0  0  0  0  0  0  0  0
    1.8934   -0.1349   -0.1573 C   0  0  0  0  0  0  0  0  0  0  0  0
    2.0498    1.0863    0.2658 N   0  0  0  0  0  0  0  0  0  0  0  0
    3.0476   -0.8867   -0.5048 N   0  0  0  0  0  0  0  0  0  0  0  0
  1  2  1  0
  2  3  1  0
  2  4  1  0
  4  5  2  0
  4  6  1  0
  6  7  1  0
  7  8  2  0
  7  9  1  0
M  END
>  <supplier_code>  (186) 
DB00331

>  <zinc_id>  (186) 
ZINC000012859773

>  <catalog_short_name>  (186) 
dbfda

$$$$

     RDKit          3D

 24 26  0  0  0  0  0  0  0  0999 V2000
    5.0730    0.3109    2.0977 C   0  0  0  0  0  0  0  0  0  0  0  0
    4.7606   -0.3289    0.8339 C   0  0  0  0  0  0  0  0  0  0  0  0
    5.7407   -0.7904   -0.0714 C   0  0  0  0  0  0  0  0  0  0  0  0
    3.3715   -0.1429    0.5311 N   0  0  0  0  0  0  0  0  0  0  0  0
    3.1546    1.1829    0.7689 C   0  0  0  0  0  0  0  0  0  0  0  0
    2.8252   -1.1536    1.5547 C   0  0  2  0  0  0  0  0  0  0  0  0
    2.6355   -2.4268    0.5312 C   0  0  0  0  0  0  0  0  0  0  0  0
    3.5783   -2.1732   -0.5490 C   0  0  0  0  0  0  0  0  0  0  0  0
    3.0691   -0.6448   -0.8836 C   0  0  1  0  0  0  0  0  0  0  0  0
    1.4746   -1.0436   -0.7398 C   0  0  0  0  0  0  0  0  0  0  0  0
    0.9488    0.1370    0.2598 C   0  0  1  0  0  0  0  0  0  0  0  0
   -0.5127   -0.3506    0.1636 O   0  0  0  0  0  0  0  0  0  0  0  0
   -1.2320    0.1041   -0.9270 C   0  0  0  0  0  0  0  0  0  0  0  0
   -0.5568    0.2234   -1.9816 O   0  0  0  0  0  0  0  0  0  0  0  0
   -2.2597    1.3128   -0.6386 C   0  0  1  0  0  0  0  0  0  0  0  0
   -2.9572    1.2235   -2.1180 C   0  0  0  0  0  0  0  0  0  0  0  0
   -3.1455   -0.0936   -2.4202 O   0  0  0  0  0  0  0  0  0  0  0  0
   -3.3827    0.4048    0.0504 C   0  0  0  0  0  0  0  0  0  0  0  0
   -4.3717    1.1531    0.6183 C   0  0  0  0  0  0  0  0  0  0  0  0
   -5.5795    0.5310    0.8670 C   0  0  0  0  0  0  0  0  0  0  0  0
   -5.7696   -0.7684    0.4086 C   0  0  0  0  0  0  0  0  0  0  0  0
   -4.6579   -1.5531    0.1212 C   0  0  0  0  0  0  0  0  0  0  0  0
   -3.4326   -0.9152   -0.0534 C   0  0  0  0  0  0  0  0  0  0  0  0
    1.2260   -0.7764    1.5761 C   0  0  0  0  0  0  0  0  0  0  0  0
  1  2  1  0
  2  3  1  0
  2  4  1  0
  4  5  1  0
  4  6  1  0
  6  7  1  6
  7  8  1  0
  9  8  1  1
  9 10  1  0
 10 11  1  0
 11 12  1  6
 12 13  1  0
 13 14  2  0
 15 13  1  6
 15 16  1  0
 16 17  1  0
 15 18  1  0
 18 19  2  0
 19 20  1  0
 20 21  2  0
 21 22  1  0
 22 23  2  0
 11 24  1  0
  9  4  1  0
 23 18  1  0
 24  6  1  0
M  CHG  1   4   1
M  END
>  <supplier_code>  (187) 
DB00332

>  <zinc_id>  (187) 
ZINC000100015775

>  <catalog_short_name>  (187) 
dbfda

$$$$

     RDKit          3D

 24 26  0  0  0  0  0  0  0  0999 V2000
    5.2131    0.9424    1.2468 C   0  0  0  0  0  0  0  0  0  0  0  0
    4.5066    0.5936    0.1789 C   0  0  0  0  0  0  0  0  0  0  0  0
    5.3624    0.5473   -1.0958 C   0  0  0  0  0  0  0  0  0  0  0  0
    3.7701   -0.4983    0.0966 N   0  0  0  0  0  0  0  0  0  0  0  0
    4.4583   -1.6714    0.4576 C   0  0  0  0  0  0  0  0  0  0  0  0
    2.4788   -0.5638    0.9733 C   0  0  2  0  0  0  0  0  0  0  0  0
    1.9092   -1.7920    0.0396 C   0  0  0  0  0  0  0  0  0  0  0  0
    2.9919   -2.1858   -0.9748 C   0  0  0  0  0  0  0  0  0  0  0  0
    3.1109   -0.5710   -1.3377 C   0  0  1  0  0  0  0  0  0  0  0  0
    1.4663   -0.5912   -1.1301 C   0  0  0  0  0  0  0  0  0  0  0  0
    0.9852    0.9047   -0.8096 C   0  0  1  0  0  0  0  0  0  0  0  0
   -0.0917    0.6478    0.2837 O   0  0  0  0  0  0  0  0  0  0  0  0
   -1.3080    0.2566    0.0557 C   0  0  0  0  0  0  0  0  0  0  0  0
   -1.2746   -0.8298   -0.5947 O   0  0  0  0  0  0  0  0  0  0  0  0
   -2.4705    1.1380   -0.6350 C   0  0  2  0  0  0  0  0  0  0  0  0
   -2.5404    2.2879    0.5363 C   0  0  0  0  0  0  0  0  0  0  0  0
   -1.3679    2.4331    1.1380 O   0  0  0  0  0  0  0  0  0  0  0  0
   -3.6554    0.3043    0.0770 C   0  0  0  0  0  0  0  0  0  0  0  0
   -3.7637   -1.0176   -0.2435 C   0  0  0  0  0  0  0  0  0  0  0  0
   -4.9563   -1.6930   -0.2203 C   0  0  0  0  0  0  0  0  0  0  0  0
   -6.0798   -0.9499   -0.5600 C   0  0  0  0  0  0  0  0  0  0  0  0
   -6.0564    0.3891   -0.2138 C   0  0  0  0  0  0  0  0  0  0  0  0
   -4.8398    1.0279   -0.0131 C   0  0  0  0  0  0  0  0  0  0  0  0
    2.1517    0.8914    0.3018 C   0  0  0  0  0  0  0  0  0  0  0  0
  1  2  1  0
  2  3  1  0
  2  4  1  0
  4  5  1  0
  4  6  1  0
  6  7  1  6
  7  8  1  0
  9  8  1  1
  9 10  1  0
 10 11  1  0
 11 12  1  1
 12 13  1  0
 13 14  2  0
 15 13  1  1
 15 16  1  0
 16 17  1  0
 15 18  1  0
 18 19  2  0
 19 20  1  0
 20 21  2  0
 21 22  1  0
 22 23  2  0
 11 24  1  0
  9  4  1  0
 23 18  1  0
 24  6  1  0
M  CHG  1   4   1
M  END
>  <supplier_code>  (188) 
DB00332

>  <zinc_id>  (188) 
ZINC000100015780

>  <catalog_short_name>  (188) 
dbfda

$$$$

     RDKit          3D

 24 26  0  0  0  0  0  0  0  0999 V2000
   -3.7712    0.8059    1.5188 C   0  0  0  0  0  0  0  0  0  0  0  0
   -3.7533    0.7707    1.2811 C   0  0  0  0  0  0  0  0  0  0  0  0
   -3.4088    2.2076    0.8720 C   0  0  0  0  0  0  0  0  0  0  0  0
   -3.7236   -0.1572    0.2695 N   0  0  1  0  0  0  0  0  0  0  0  0
   -4.7878   -0.0978   -0.5267 C   0  0  0  0  0  0  0  0  0  0  0  0
   -2.4557    0.0389   -0.6432 C   0  0  2  0  0  0  0  0  0  0  0  0
   -2.8026   -1.4088   -1.3576 C   0  0  0  0  0  0  0  0  0  0  0  0
   -4.0341   -2.0395   -0.6206 C   0  0  0  0  0  0  0  0  0  0  0  0
   -3.3520   -1.6039    0.8306 C   0  0  1  0  0  0  0  0  0  0  0  0
   -1.9272   -2.0694    0.0803 C   0  0  0  0  0  0  0  0  0  0  0  0
   -0.7342   -1.3891    0.9313 C   0  0  1  0  0  0  0  0  0  0  0  0
    0.1627   -0.7531   -0.1899 O   0  0  0  0  0  0  0  0  0  0  0  0
    1.3841   -0.5628    0.4037 C   0  0  0  0  0  0  0  0  0  0  0  0
    1.8882   -1.4083    1.1516 O   0  0  0  0  0  0  0  0  0  0  0  0
    1.9614    0.8977    0.7725 C   0  0  2  0  0  0  0  0  0  0  0  0
    1.4824    1.5826   -0.6488 C   0  0  0  0  0  0  0  0  0  0  0  0
    1.6085    2.9353   -0.4015 O   0  0  0  0  0  0  0  0  0  0  0  0
    3.4445    0.5500    0.2257 C   0  0  0  0  0  0  0  0  0  0  0  0
    4.4564    1.3010    0.7464 C   0  0  0  0  0  0  0  0  0  0  0  0
    5.7400    0.8363    0.4968 C   0  0  0  0  0  0  0  0  0  0  0  0
    5.9326    0.0619   -0.6403 C   0  0  0  0  0  0  0  0  0  0  0  0
    4.8501   -0.3131   -1.3995 C   0  0  0  0  0  0  0  0  0  0  0  0
    3.5643   -0.0482   -0.9515 C   0  0  0  0  0  0  0  0  0  0  0  0
   -1.7248   -0.1367    0.8242 C   0  0  0  0  0  0  0  0  0  0  0  0
  1  2  1  0
  2  3  1  0
  4  2  1  1
  4  5  1  0
  4  6  1  0
  6  7  1  6
  7  8  1  0
  9  8  1  6
  9 10  1  0
 10 11  1  0
 11 12  1  6
 12 13  1  0
 13 14  2  0
 15 13  1  6
 15 16  1  0
 16 17  1  0
 15 18  1  0
 18 19  2  0
 19 20  1  0
 20 21  2  0
 21 22  1  0
 22 23  2  0
 11 24  1  0
  9  4  1  0
 23 18  1  0
 24  6  1  0
M  CHG  1   4   1
M  END
>  <supplier_code>  (189) 
DB00332

>  <zinc_id>  (189) 
ZINC000253476025

>  <catalog_short_name>  (189) 
dbfda

$$$$

     RDKit          3D

 24 26  0  0  0  0  0  0  0  0999 V2000
    3.0257    2.1237   -0.7348 C   0  0  0  0  0  0  0  0  0  0  0  0
    3.2087    1.0071   -1.1636 C   0  0  0  0  0  0  0  0  0  0  0  0
    4.1149    1.0750   -2.2715 C   0  0  0  0  0  0  0  0  0  0  0  0
    3.3093    0.2438   -0.0932 N   0  0  1  0  0  0  0  0  0  0  0  0
    4.4358    0.7276    0.7243 C   0  0  0  0  0  0  0  0  0  0  0  0
    2.1986    0.4951    0.9455 C   0  0  2  0  0  0  0  0  0  0  0  0
    2.1051   -1.0153    1.5889 C   0  0  0  0  0  0  0  0  0  0  0  0
    3.5297   -1.3327    1.5145 C   0  0  0  0  0  0  0  0  0  0  0  0
    3.6095   -1.2517   -0.1345 C   0  0  1  0  0  0  0  0  0  0  0  0
    2.0917   -1.8584   -0.3339 C   0  0  0  0  0  0  0  0  0  0  0  0
    1.3722   -0.7353   -1.2722 C   0  0  1  0  0  0  0  0  0  0  0  0
    0.0378   -1.5158   -1.1606 O   0  0  0  0  0  0  0  0  0  0  0  0
   -1.0732   -0.7051   -0.8729 C   0  0  0  0  0  0  0  0  0  0  0  0
   -0.9122    0.3678   -1.5345 O   0  0  0  0  0  0  0  0  0  0  0  0
   -2.4939   -1.4312   -1.0221 C   0  0  1  0  0  0  0  0  0  0  0  0
   -2.5627   -1.8234    0.5771 C   0  0  0  0  0  0  0  0  0  0  0  0
   -2.3052   -0.6685    1.2754 O   0  0  0  0  0  0  0  0  0  0  0  0
   -3.3665   -0.1006   -0.8205 C   0  0  0  0  0  0  0  0  0  0  0  0
   -4.6639   -0.2416   -0.3946 C   0  0  0  0  0  0  0  0  0  0  0  0
   -5.2322    0.9604    0.0362 C   0  0  0  0  0  0  0  0  0  0  0  0
   -4.6528    2.1841   -0.2921 C   0  0  0  0  0  0  0  0  0  0  0  0
   -3.5774    2.2290   -1.1731 C   0  0  0  0  0  0  0  0  0  0  0  0
   -3.1440    0.9821   -1.5842 C   0  0  0  0  0  0  0  0  0  0  0  0
    0.9449    0.2840   -0.0725 C   0  0  0  0  0  0  0  0  0  0  0  0
  1  2  1  0
  2  3  1  0
  4  2  1  6
  4  5  1  0
  4  6  1  0
  6  7  1  1
  7  8  1  0
  9  8  1  1
  9 10  1  0
 10 11  1  0
 11 12  1  1
 12 13  1  0
 13 14  2  0
 15 13  1  1
 15 16  1  0
 16 17  1  0
 15 18  1  0
 18 19  2  0
 19 20  1  0
 20 21  2  0
 21 22  1  0
 22 23  2  0
 11 24  1  0
  9  4  1  0
 23 18  1  0
 24  6  1  0
M  CHG  1   4   1
M  END
>  <supplier_code>  (190) 
DB00332

>  <zinc_id>  (190) 
ZINC000253476027

>  <catalog_short_name>  (190) 
dbfda

$$$$

     RDKit          3D

 23 24  0  0  0  0  0  0  0  0999 V2000
    0.5797    0.8266    3.7458 C   0  0  0  0  0  0  0  0  0  0  0  0
    0.6082    0.7373    2.7326 C   0  0  0  0  0  0  0  0  0  0  0  0
   -0.4158    0.0618    1.8821 C   0  0  0  0  0  0  0  0  0  0  0  0
   -1.6095    0.0861    2.1669 O   0  0  0  0  0  0  0  0  0  0  0  0
   -0.0227   -0.1125    0.4382 C   0  0  0  0  0  0  0  0  0  0  0  0
    1.2795   -0.7458    0.4180 C   0  0  0  0  0  0  0  0  0  0  0  0
    2.3757    0.2444   -0.3465 C   0  0  1  0  0  0  0  0  0  0  0  0
    3.4774    0.0770    0.8993 C   0  0  0  0  0  0  0  0  0  0  0  0
    3.0196   -0.9823   -1.1479 N   0  0  0  0  0  0  0  0  0  0  0  0
    3.1874   -2.0327   -0.1964 C   0  0  0  0  0  0  0  0  0  0  0  0
    4.2950   -0.4315   -1.5510 C   0  0  0  0  0  0  0  0  0  0  0  0
   -1.0315   -1.0756   -0.1148 C   0  0  0  0  0  0  0  0  0  0  0  0
   -1.5814   -2.0617    0.6579 C   0  0  0  0  0  0  0  0  0  0  0  0
   -2.4693   -2.9621    0.1272 C   0  0  0  0  0  0  0  0  0  0  0  0
   -2.9769   -2.7135   -1.1328 C   0  0  0  0  0  0  0  0  0  0  0  0
   -2.4275   -1.7648   -1.9610 C   0  0  0  0  0  0  0  0  0  0  0  0
   -1.4736   -0.9255   -1.3999 C   0  0  0  0  0  0  0  0  0  0  0  0
   -0.2670    1.1626   -0.1972 C   0  0  0  0  0  0  0  0  0  0  0  0
    0.3343    1.7143   -1.2942 C   0  0  0  0  0  0  0  0  0  0  0  0
   -0.0334    2.9716   -1.7596 C   0  0  0  0  0  0  0  0  0  0  0  0
   -1.2187    3.5546   -1.3261 C   0  0  0  0  0  0  0  0  0  0  0  0
   -2.0966    2.6792   -0.7042 C   0  0  0  0  0  0  0  0  0  0  0  0
   -1.5327    1.6926    0.0636 C   0  0  0  0  0  0  0  0  0  0  0  0
  1  2  1  0
  2  3  1  0
  3  4  2  0
  3  5  1  0
  5  6  1  0
  7  6  1  1
  7  8  1  0
  7  9  1  0
  9 10  1  0
  9 11  1  0
  5 12  1  0
 12 13  2  0
 13 14  1  0
 14 15  2  0
 15 16  1  0
 16 17  2  0
  5 18  1  0
 18 19  2  0
 19 20  1  0
 20 21  2  0
 21 22  1  0
 22 23  2  0
 17 12  1  0
 23 18  1  0
M  END
>  <supplier_code>  (191) 
DB00333

>  <zinc_id>  (191) 
ZINC000001530706

>  <catalog_short_name>  (191) 
dbfda

$$$$

     RDKit          3D

 23 24  0  0  0  0  0  0  0  0999 V2000
   -1.3512   -0.5127    3.6648 C   0  0  0  0  0  0  0  0  0  0  0  0
   -1.3939   -0.1360    2.2518 C   0  0  0  0  0  0  0  0  0  0  0  0
   -0.1045   -0.4780    1.5612 C   0  0  0  0  0  0  0  0  0  0  0  0
    0.8638   -0.3883    2.3195 O   0  0  0  0  0  0  0  0  0  0  0  0
    0.0637   -0.1018    0.1055 C   0  0  0  0  0  0  0  0  0  0  0  0
    1.4191   -0.0248   -0.1707 C   0  0  0  0  0  0  0  0  0  0  0  0
    2.1491   -1.0534   -1.1873 C   0  0  2  0  0  0  0  0  0  0  0  0
    1.8165   -2.3865   -0.2851 C   0  0  0  0  0  0  0  0  0  0  0  0
    3.5421   -0.7912   -0.4996 N   0  0  0  0  0  0  0  0  0  0  0  0
    4.5226   -0.7106   -1.5353 C   0  0  0  0  0  0  0  0  0  0  0  0
    3.8836   -1.7867    0.4041 C   0  0  0  0  0  0  0  0  0  0  0  0
   -1.0073   -0.7430   -0.6219 C   0  0  0  0  0  0  0  0  0  0  0  0
   -1.1589   -2.1020   -0.8936 C   0  0  0  0  0  0  0  0  0  0  0  0
   -2.2042   -2.5972   -1.6451 C   0  0  0  0  0  0  0  0  0  0  0  0
   -3.3278   -1.7884   -1.7655 C   0  0  0  0  0  0  0  0  0  0  0  0
   -3.4298   -0.7154   -0.9058 C   0  0  0  0  0  0  0  0  0  0  0  0
   -2.2919   -0.2808   -0.2943 C   0  0  0  0  0  0  0  0  0  0  0  0
   -0.3189    1.3702    0.1391 C   0  0  0  0  0  0  0  0  0  0  0  0
    0.4304    2.2316    0.9220 C   0  0  0  0  0  0  0  0  0  0  0  0
    0.1612    3.5940    0.8722 C   0  0  0  0  0  0  0  0  0  0  0  0
   -0.4356    4.1485   -0.2521 C   0  0  0  0  0  0  0  0  0  0  0  0
   -0.8934    3.2980   -1.2212 C   0  0  0  0  0  0  0  0  0  0  0  0
   -0.9347    1.9545   -0.9626 C   0  0  0  0  0  0  0  0  0  0  0  0
  1  2  1  0
  2  3  1  0
  3  4  2  0
  3  5  1  0
  5  6  1  0
  7  6  1  1
  7  8  1  0
  7  9  1  0
  9 10  1  0
  9 11  1  0
  5 12  1  0
 12 13  2  0
 13 14  1  0
 14 15  2  0
 15 16  1  0
 16 17  2  0
  5 18  1  0
 18 19  2  0
 19 20  1  0
 20 21  2  0
 21 22  1  0
 22 23  2  0
 17 12  1  0
 23 18  1  0
M  END
>  <supplier_code>  (192) 
DB00333

>  <zinc_id>  (192) 
ZINC000001530707

>  <catalog_short_name>  (192) 
dbfda

$$$$

     RDKit          3D

 22 25  0  0  0  0  0  0  0  0999 V2000
    1.9552    4.2387    0.9801 C   0  0  0  0  0  0  0  0  0  0  0  0
    0.9663    3.2798    0.4044 C   0  0  0  0  0  0  0  0  0  0  0  0
    1.1838    1.9896   -0.0653 C   0  0  0  0  0  0  0  0  0  0  0  0
    0.0504    1.2071    0.1234 C   0  0  0  0  0  0  0  0  0  0  0  0
   -1.0674    1.8515   -0.3954 C   0  0  0  0  0  0  0  0  0  0  0  0
   -0.6639    3.4912   -0.0902 S   0  0  0  0  0  0  0  0  0  0  0  0
   -2.2948    1.3039   -0.8864 N   0  0  0  0  0  0  0  0  0  0  0  0
   -2.8181   -0.0198   -0.7178 C   0  0  0  0  0  0  0  0  0  0  0  0
   -4.1612   -0.1303   -0.9755 C   0  0  0  0  0  0  0  0  0  0  0  0
   -4.7825   -1.3275   -0.6589 C   0  0  0  0  0  0  0  0  0  0  0  0
   -4.1937   -2.2164    0.2304 C   0  0  0  0  0  0  0  0  0  0  0  0
   -2.8280   -2.1509    0.3634 C   0  0  0  0  0  0  0  0  0  0  0  0
   -2.1205   -1.0607   -0.1305 C   0  0  0  0  0  0  0  0  0  0  0  0
   -0.7161   -1.1683    0.0917 N   0  0  0  0  0  0  0  0  0  0  0  0
    0.2042   -0.2545    0.1329 C   0  0  0  0  0  0  0  0  0  0  0  0
    1.4822   -0.7827    0.5061 N   0  0  0  0  0  0  0  0  0  0  0  0
    1.8264   -2.0645   -0.1047 C   0  0  0  0  0  0  0  0  0  0  0  0
    2.7830   -1.7222   -1.2398 C   0  0  0  0  0  0  0  0  0  0  0  0
    4.0504   -1.3896   -0.6174 N   0  0  0  0  0  0  0  0  0  0  0  0
    4.6411   -2.6524   -0.1912 C   0  0  0  0  0  0  0  0  0  0  0  0
    3.9068   -0.5743    0.5609 C   0  0  0  0  0  0  0  0  0  0  0  0
    2.5961    0.1525    0.6393 C   0  0  0  0  0  0  0  0  0  0  0  0
  1  2  1  0
  2  3  2  0
  3  4  1  0
  4  5  2  0
  5  6  1  0
  5  7  1  0
  7  8  1  0
  8  9  2  0
  9 10  1  0
 10 11  2  0
 11 12  1  0
 12 13  2  0
 13 14  1  0
 14 15  2  0
 15 16  1  0
 16 17  1  0
 17 18  1  0
 18 19  1  0
 19 20  1  0
 19 21  1  0
 21 22  1  0
  6  2  1  0
 13  8  1  0
 22 16  1  0
 15  4  1  0
M  END
>  <supplier_code>  (193) 
DB00334

>  <zinc_id>  (193) 
ZINC000052957434

>  <catalog_short_name>  (193) 
dbfda

$$$$

     RDKit          3D

 19 19  0  0  0  0  0  0  0  0999 V2000
   -4.8157    1.2750   -0.1840 C   0  0  0  0  0  0  0  0  0  0  0  0
   -5.0198    1.3518    0.3125 C   0  0  0  0  0  0  0  0  0  0  0  0
   -6.2266    0.7529    1.0342 C   0  0  0  0  0  0  0  0  0  0  0  0
   -3.8356    1.1877    1.1720 N   0  0  0  0  0  0  0  0  0  0  0  0
   -2.8879    0.5580    0.2590 C   0  0  0  0  0  0  0  0  0  0  0  0
   -3.0014   -1.0311    0.6947 C   0  0  1  0  0  0  0  0  0  0  0  0
   -3.9416   -1.3377   -0.4619 O   0  0  0  0  0  0  0  0  0  0  0  0
   -1.6731   -1.4343   -0.1998 C   0  0  0  0  0  0  0  0  0  0  0  0
   -0.7082   -0.5953    0.3710 O   0  0  0  0  0  0  0  0  0  0  0  0
    0.5739   -0.4363   -0.1085 C   0  0  0  0  0  0  0  0  0  0  0  0
    0.8810   -0.3146   -1.4539 C   0  0  0  0  0  0  0  0  0  0  0  0
    2.1953   -0.1738   -1.8855 C   0  0  0  0  0  0  0  0  0  0  0  0
    3.1958   -0.2503   -0.9535 C   0  0  0  0  0  0  0  0  0  0  0  0
    4.4819    0.4842   -1.1394 C   0  0  0  0  0  0  0  0  0  0  0  0
    5.2862    0.4691    0.0986 C   0  0  0  0  0  0  0  0  0  0  0  0
    5.5904    1.7156    0.7228 N   0  0  0  0  0  0  0  0  0  0  0  0
    5.4219   -0.6409    0.6857 O   0  0  0  0  0  0  0  0  0  0  0  0
    2.8863   -0.6910    0.3090 C   0  0  0  0  0  0  0  0  0  0  0  0
    1.5971   -0.8892    0.7168 C   0  0  0  0  0  0  0  0  0  0  0  0
  1  2  1  0
  2  3  1  0
  2  4  1  0
  4  5  1  0
  6  5  1  6
  6  7  1  0
  6  8  1  0
  8  9  1  0
  9 10  1  0
 10 11  2  0
 11 12  1  0
 12 13  2  0
 13 14  1  0
 14 15  1  0
 15 16  1  0
 15 17  2  0
 13 18  1  0
 18 19  2  0
 19 10  1  0
M  END
>  <supplier_code>  (194) 
DB00335

>  <zinc_id>  (194) 
ZINC000000014007

>  <catalog_short_name>  (194) 
dbfda

$$$$

     RDKit          3D

 19 19  0  0  0  0  0  0  0  0999 V2000
   -5.4724    0.7652    0.6451 C   0  0  0  0  0  0  0  0  0  0  0  0
   -5.2255   -0.2992    0.5812 C   0  0  0  0  0  0  0  0  0  0  0  0
   -6.2446   -1.1646   -0.1506 C   0  0  0  0  0  0  0  0  0  0  0  0
   -3.9685   -0.4799   -0.1403 N   0  0  0  0  0  0  0  0  0  0  0  0
   -3.8739    0.6363   -1.0783 C   0  0  0  0  0  0  0  0  0  0  0  0
   -2.4596    1.3611   -0.5288 C   0  0  2  0  0  0  0  0  0  0  0  0
   -2.2090    1.9992   -1.9164 O   0  0  0  0  0  0  0  0  0  0  0  0
   -1.5554    0.0057   -0.9444 C   0  0  0  0  0  0  0  0  0  0  0  0
   -0.9714   -0.2471    0.3338 O   0  0  0  0  0  0  0  0  0  0  0  0
    0.4246   -0.2976    0.3566 C   0  0  0  0  0  0  0  0  0  0  0  0
    1.1511    0.8474    0.1301 C   0  0  0  0  0  0  0  0  0  0  0  0
    2.5028    0.7379   -0.1385 C   0  0  0  0  0  0  0  0  0  0  0  0
    3.0302   -0.4980   -0.4307 C   0  0  0  0  0  0  0  0  0  0  0  0
    4.2101   -0.6824   -1.3295 C   0  0  0  0  0  0  0  0  0  0  0  0
    5.3903   -0.0120   -0.7518 C   0  0  0  0  0  0  0  0  0  0  0  0
    5.9009    1.1636   -1.3621 N   0  0  0  0  0  0  0  0  0  0  0  0
    6.0854   -0.6386    0.0719 O   0  0  0  0  0  0  0  0  0  0  0  0
    2.3124   -1.6265   -0.1127 C   0  0  0  0  0  0  0  0  0  0  0  0
    0.9725   -1.5704    0.2486 C   0  0  0  0  0  0  0  0  0  0  0  0
  1  2  1  0
  2  3  1  0
  2  4  1  0
  4  5  1  0
  6  5  1  6
  6  7  1  0
  6  8  1  0
  8  9  1  0
  9 10  1  0
 10 11  2  0
 11 12  1  0
 12 13  2  0
 13 14  1  0
 14 15  1  0
 15 16  1  0
 15 17  2  0
 13 18  1  0
 18 19  2  0
 19 10  1  0
M  END
>  <supplier_code>  (195) 
DB00335

>  <zinc_id>  (195) 
ZINC000000113415

>  <catalog_short_name>  (195) 
dbfda

$$$$

     RDKit          3D

 56 59  0  0  0  0  0  0  0  0999 V2000
   -1.4157    6.1314    2.1395 C   0  0  0  0  0  0  0  0  0  0  0  0
   -0.4641    5.6488    1.3517 C   0  0  0  0  0  0  0  0  0  0  0  0
   -1.1366    5.5212   -0.1407 C   0  0  2  0  0  0  0  0  0  0  0  0
   -2.4474    4.8204    0.4675 C   0  0  0  0  0  0  0  0  0  0  0  0
   -3.4357    4.4167   -0.2442 C   0  0  0  0  0  0  0  0  0  0  0  0
   -4.6307    5.2156   -0.7055 C   0  0  0  0  0  0  0  0  0  0  0  0
   -3.8808    3.0437    0.2247 C   0  0  0  0  0  0  0  0  0  0  0  0
   -3.0693    2.2132   -0.9242 C   0  0  2  0  0  0  0  0  0  0  0  0
   -4.4385    1.5184   -1.4675 C   0  0  0  0  0  0  0  0  0  0  0  0
   -2.5668    1.0422    0.0846 C   0  0  0  0  0  0  0  0  0  0  0  0
   -3.9300    0.3987    0.6856 C   0  0  2  0  0  0  0  0  0  0  0  0
   -3.1967   -0.3890    1.7476 O   0  0  0  0  0  0  0  0  0  0  0  0
   -3.6751    0.2407    2.9080 C   0  0  0  0  0  0  0  0  0  0  0  0
   -3.8785   -0.8028   -0.5349 C   0  0  1  0  0  0  0  0  0  0  0  0
   -2.5757   -1.4473   -0.1817 O   0  0  0  0  0  0  0  0  0  0  0  0
   -2.3640   -2.3299   -1.0909 C   0  0  1  0  0  0  0  0  0  0  0  0
   -2.8777   -1.7421   -2.2839 O   0  0  0  0  0  0  0  0  0  0  0  0
   -1.3436   -3.1422   -1.5724 C   0  0  0  0  0  0  0  0  0  0  0  0
   -1.2156   -3.4645   -2.8045 O   0  0  0  0  0  0  0  0  0  0  0  0
   -0.7262   -4.0941   -0.6398 C   0  0  0  0  0  0  0  0  0  0  0  0
   -0.3309   -5.2711   -0.8918 O   0  0  0  0  0  0  0  0  0  0  0  0
   -0.1265   -3.4618    0.4978 N   0  0  0  0  0  0  0  0  0  0  0  0
   -0.1355   -4.0990    1.7126 C   0  0  0  0  0  0  0  0  0  0  0  0
    0.8925   -3.7944    2.7351 C   0  0  0  0  0  0  0  0  0  0  0  0
    1.7077   -2.7111    2.0276 C   0  0  0  0  0  0  0  0  0  0  0  0
    0.6638   -1.6835    1.7573 C   0  0  0  0  0  0  0  0  0  0  0  0
    0.0315   -1.9253    0.2628 C   0  0  1  0  0  0  0  0  0  0  0  0
    1.4535   -2.1281   -0.4716 C   0  0  0  0  0  0  0  0  0  0  0  0
    1.6481   -3.2208   -1.1011 O   0  0  0  0  0  0  0  0  0  0  0  0
    1.0323   -1.0145   -1.1572 O   0  0  0  0  0  0  0  0  0  0  0  0
    1.8408    0.2666   -1.1502 C   0  0  2  0  0  0  0  0  0  0  0  0
    3.1877   -0.3704   -0.5695 C   0  0  0  0  0  0  0  0  0  0  0  0
    3.5942   -0.9405   -1.9229 C   0  0  0  0  0  0  0  0  0  0  0  0
    4.0525   -0.1918    0.2703 C   0  0  0  0  0  0  0  0  0  0  0  0
    5.3919   -1.0529   -0.1279 C   0  0  2  0  0  0  0  0  0  0  0  0
    6.1225   -1.0792    1.3199 C   0  0  0  0  0  0  0  0  0  0  0  0
    7.4567   -0.6516    1.3886 C   0  0  0  0  0  0  0  0  0  0  0  0
    7.9609    0.4563    0.4150 C   0  0  2  0  0  0  0  0  0  0  0  0
    8.7459    1.5891    1.6694 Cl  0  0  0  0  0  0  0  0  0  0  0  0
    6.5716    1.3843    0.1803 C   0  0  2  0  0  0  0  0  0  0  0  0
    5.8529    1.0415    1.4646 O   0  0  0  0  0  0  0  0  0  0  0  0
    5.9989    2.2883    2.1699 C   0  0  0  0  0  0  0  0  0  0  0  0
    6.0372    0.2384   -0.8292 C   0  0  0  0  0  0  0  0  0  0  0  0
    1.2121    1.0407    0.2206 C   0  0  2  0  0  0  0  0  0  0  0  0
   -0.2975    1.1146   -0.3215 C   0  0  0  0  0  0  0  0  0  0  0  0
    1.6090    2.6171   -0.3261 C   0  0  1  0  0  0  0  0  0  0  0  0
    0.9656    2.4318   -1.6780 O   0  0  0  0  0  0  0  0  0  0  0  0
    0.3150    3.3531    0.3368 C   0  0  0  0  0  0  0  0  0  0  0  0
   -0.3932    4.1589   -0.5728 C   0  0  0  0  0  0  0  0  0  0  0  0
   -0.2858    4.3501   -1.7853 O   0  0  0  0  0  0  0  0  0  0  0  0
   -3.4352   -3.5614   -0.7979 C   0  0  2  0  0  0  0  0  0  0  0  0
   -3.5353   -4.0707   -2.3485 C   0  0  0  0  0  0  0  0  0  0  0  0
   -4.8548   -2.7927   -0.9632 C   0  0  0  0  0  0  0  0  0  0  0  0
   -4.7267   -1.9329    0.4214 C   0  0  2  0  0  0  0  0  0  0  0  0
   -6.0401   -1.2370    0.1702 O   0  0  0  0  0  0  0  0  0  0  0  0
   -6.9148   -1.9398    0.9753 C   0  0  0  0  0  0  0  0  0  0  0  0
  1  2  1  0
  3  2  1  1
  3  4  1  0
  4  5  2  0
  5  6  1  0
  5  7  1  0
  7  8  1  0
  8  9  1  6
  8 10  1  0
 10 11  1  0
 11 12  1  1
 12 13  1  0
 11 14  1  0
 14 15  1  1
 15 16  1  0
 16 17  1  6
 16 18  1  0
 18 19  2  0
 18 20  1  0
 20 21  2  0
 20 22  1  0
 22 23  1  0
 23 24  1  0
 24 25  1  0
 25 26  1  0
 27 26  1  1
 27 28  1  0
 28 29  2  0
 28 30  1  0
 30 31  1  0
 31 32  1  1
 32 33  1  0
 32 34  2  0
 35 34  1  1
 35 36  1  0
 36 37  1  0
 37 38  1  0
 38 39  1  1
 38 40  1  0
 40 41  1  1
 41 42  1  0
 40 43  1  0
 31 44  1  0
 44 45  1  6
 44 46  1  0
 46 47  1  6
 46 48  1  0
 48 49  1  0
 49 50  2  0
 16 51  1  0
 51 52  1  6
 51 53  1  0
 53 54  1  0
 54 55  1  6
 55 56  1  0
 49  3  1  0
 54 14  1  0
 27 22  1  0
 43 35  1  0
M  END
>  <supplier_code>  (196) 
DB00337

>  <zinc_id>  (196) 
ZINC000085536990

>  <catalog_short_name>  (196) 
dbfda

$$$$

     RDKit          3D

 56 59  0  0  0  0  0  0  0  0999 V2000
   -2.1836    6.0165    0.6331 C   0  0  0  0  0  0  0  0  0  0  0  0
   -2.4985    5.9953   -0.1900 C   0  0  0  0  0  0  0  0  0  0  0  0
   -2.5142    4.4265   -0.6682 C   0  0  2  0  0  0  0  0  0  0  0  0
   -2.8195    3.9281    0.8270 C   0  0  0  0  0  0  0  0  0  0  0  0
   -3.9263    3.1691    0.9776 C   0  0  0  0  0  0  0  0  0  0  0  0
   -4.0174    2.9911    2.4771 C   0  0  0  0  0  0  0  0  0  0  0  0
   -3.9066    2.1409   -0.0239 C   0  0  0  0  0  0  0  0  0  0  0  0
   -5.2880    1.3119   -0.1527 C   0  0  2  0  0  0  0  0  0  0  0  0
   -5.8259    1.5908    1.3571 C   0  0  0  0  0  0  0  0  0  0  0  0
   -4.5279   -0.0903    0.2599 C   0  0  0  0  0  0  0  0  0  0  0  0
   -4.4341   -0.4366   -1.3443 C   0  0  2  0  0  0  0  0  0  0  0  0
   -5.7950   -1.0853   -1.4086 O   0  0  0  0  0  0  0  0  0  0  0  0
   -6.4262   -1.1252   -0.2209 C   0  0  0  0  0  0  0  0  0  0  0  0
   -3.4832   -1.8661   -1.2722 C   0  0  1  0  0  0  0  0  0  0  0  0
   -2.9528   -1.7178    0.1288 O   0  0  0  0  0  0  0  0  0  0  0  0
   -2.1259   -2.7987    0.1711 C   0  0  1  0  0  0  0  0  0  0  0  0
   -1.7145   -3.2776   -1.0755 O   0  0  0  0  0  0  0  0  0  0  0  0
   -1.2765   -3.1105    1.3051 C   0  0  0  0  0  0  0  0  0  0  0  0
   -1.6237   -3.4497    2.4839 O   0  0  0  0  0  0  0  0  0  0  0  0
   -0.0023   -3.7268    0.8593 C   0  0  0  0  0  0  0  0  0  0  0  0
    0.4880   -4.8130    1.2918 O   0  0  0  0  0  0  0  0  0  0  0  0
    0.5060   -2.9649   -0.2543 N   0  0  0  0  0  0  0  0  0  0  0  0
    1.7322   -3.3909   -0.8306 C   0  0  0  0  0  0  0  0  0  0  0  0
    2.8073   -2.9200    0.0884 C   0  0  0  0  0  0  0  0  0  0  0  0
    2.3506   -2.1265    1.1993 C   0  0  0  0  0  0  0  0  0  0  0  0
    1.0967   -1.4672    1.3615 C   0  0  0  0  0  0  0  0  0  0  0  0
    0.1735   -1.4371   -0.0094 C   0  0  1  0  0  0  0  0  0  0  0  0
    1.2758   -0.9620   -1.0768 C   0  0  0  0  0  0  0  0  0  0  0  0
    1.1614   -1.3566   -2.2323 O   0  0  0  0  0  0  0  0  0  0  0  0
    1.8712   -0.0277   -0.3978 O   0  0  0  0  0  0  0  0  0  0  0  0
    1.3796    1.4062   -0.3820 C   0  0  2  0  0  0  0  0  0  0  0  0
    2.8945    1.9649   -0.2484 C   0  0  0  0  0  0  0  0  0  0  0  0
    3.3542    2.9459   -1.2955 C   0  0  0  0  0  0  0  0  0  0  0  0
    3.8839    1.1032   -0.2859 C   0  0  0  0  0  0  0  0  0  0  0  0
    5.2432    1.5065    0.4459 C   0  0  2  0  0  0  0  0  0  0  0  0
    5.8963    2.2040   -0.8828 C   0  0  0  0  0  0  0  0  0  0  0  0
    7.3637    1.7815   -0.8266 C   0  0  0  0  0  0  0  0  0  0  0  0
    7.6384    1.6456    0.7238 C   0  0  2  0  0  0  0  0  0  0  0  0
    9.4739    1.4110    0.6354 Cl  0  0  0  0  0  0  0  0  0  0  0  0
    7.2626    0.0093    0.9537 C   0  0  2  0  0  0  0  0  0  0  0  0
    8.0593   -0.4698   -0.2496 O   0  0  0  0  0  0  0  0  0  0  0  0
    7.4120   -1.6376   -0.6716 C   0  0  0  0  0  0  0  0  0  0  0  0
    5.8790    0.0489    0.0685 C   0  0  0  0  0  0  0  0  0  0  0  0
    0.9720    1.4587    1.2669 C   0  0  1  0  0  0  0  0  0  0  0  0
    2.3188    2.0358    1.9130 C   0  0  0  0  0  0  0  0  0  0  0  0
    0.1877    2.9685    1.2449 C   0  0  1  0  0  0  0  0  0  0  0  0
    1.3394    3.7717    0.6821 O   0  0  0  0  0  0  0  0  0  0  0  0
   -0.5181    2.8231   -0.2351 C   0  0  0  0  0  0  0  0  0  0  0  0
   -0.9221    4.2539   -0.4622 C   0  0  0  0  0  0  0  0  0  0  0  0
   -0.2490    5.0440   -1.1099 O   0  0  0  0  0  0  0  0  0  0  0  0
   -3.3182   -3.8057    0.6676 C   0  0  2  0  0  0  0  0  0  0  0  0
   -2.4343   -5.1707    0.8010 C   0  0  0  0  0  0  0  0  0  0  0  0
   -3.7908   -4.2235   -0.8359 C   0  0  0  0  0  0  0  0  0  0  0  0
   -4.7740   -2.9288   -0.8950 C   0  0  2  0  0  0  0  0  0  0  0  0
   -5.0342   -3.1605   -2.3662 O   0  0  0  0  0  0  0  0  0  0  0  0
   -5.6383   -4.4059   -2.3416 C   0  0  0  0  0  0  0  0  0  0  0  0
  1  2  1  0
  3  2  1  1
  3  4  1  0
  4  5  2  0
  5  6  1  0
  5  7  1  0
  7  8  1  0
  8  9  1  1
  8 10  1  0
 10 11  1  0
 11 12  1  1
 12 13  1  0
 11 14  1  0
 14 15  1  1
 15 16  1  0
 16 17  1  6
 16 18  1  0
 18 19  2  0
 18 20  1  0
 20 21  2  0
 20 22  1  0
 22 23  1  0
 23 24  1  0
 24 25  1  0
 25 26  1  0
 27 26  1  1
 27 28  1  0
 28 29  2  0
 28 30  1  0
 30 31  1  0
 31 32  1  1
 32 33  1  0
 32 34  2  0
 35 34  1  6
 35 36  1  0
 36 37  1  0
 37 38  1  0
 38 39  1  6
 38 40  1  0
 40 41  1  6
 41 42  1  0
 40 43  1  0
 31 44  1  0
 44 45  1  1
 44 46  1  0
 46 47  1  6
 46 48  1  0
 48 49  1  0
 49 50  2  0
 16 51  1  0
 51 52  1  1
 51 53  1  0
 53 54  1  0
 54 55  1  6
 55 56  1  0
 49  3  1  0
 54 14  1  0
 27 22  1  0
 43 35  1  0
M  END
>  <supplier_code>  (197) 
DB00337

>  <zinc_id>  (197) 
ZINC000095617678

>  <catalog_short_name>  (197) 
dbfda

$$$$

     RDKit          3D

 24 26  0  0  0  0  0  0  0  0999 V2000
    6.8400   -1.4071    0.7607 C   0  0  0  0  0  0  0  0  0  0  0  0
    6.6703   -0.2751    1.3638 O   0  0  0  0  0  0  0  0  0  0  0  0
    5.4348    0.3663    1.2323 C   0  0  0  0  0  0  0  0  0  0  0  0
    4.7730    0.8156    2.3679 C   0  0  0  0  0  0  0  0  0  0  0  0
    3.3881    0.8428    2.4181 C   0  0  0  0  0  0  0  0  0  0  0  0
    2.6785    0.4339    1.3172 C   0  0  0  0  0  0  0  0  0  0  0  0
    1.3607    0.5090    1.0344 N   0  0  0  0  0  0  0  0  0  0  0  0
    1.1302    0.4891   -0.2691 C   0  0  0  0  0  0  0  0  0  0  0  0
   -0.2386    1.2225   -1.2078 S   0  0  0  0  0  0  0  0  0  0  0  0
   -1.2690    1.5046   -0.0694 O   0  0  0  0  0  0  0  0  0  0  0  0
   -0.9147   -0.3226   -1.9507 C   0  0  0  0  0  0  0  0  0  0  0  0
   -2.2563   -0.6301   -1.4602 C   0  0  0  0  0  0  0  0  0  0  0  0
   -2.4701   -1.6560   -0.6006 N   0  0  0  0  0  0  0  0  0  0  0  0
   -3.5793   -1.7227    0.1748 C   0  0  0  0  0  0  0  0  0  0  0  0
   -4.3784   -0.5904    0.2714 C   0  0  0  0  0  0  0  0  0  0  0  0
   -5.1153   -0.2336    1.5046 C   0  0  0  0  0  0  0  0  0  0  0  0
   -4.3794    0.2900   -0.7928 C   0  0  0  0  0  0  0  0  0  0  0  0
   -5.2858    1.3474   -0.8949 O   0  0  0  0  0  0  0  0  0  0  0  0
   -6.0327    1.8347    0.1936 C   0  0  0  0  0  0  0  0  0  0  0  0
   -3.3555    0.1764   -1.7211 C   0  0  0  0  0  0  0  0  0  0  0  0
   -3.3162    1.0055   -2.9648 C   0  0  0  0  0  0  0  0  0  0  0  0
    2.3355    0.3338   -0.8631 N   0  0  0  0  0  0  0  0  0  0  0  0
    3.3049    0.4480    0.0772 C   0  0  0  0  0  0  0  0  0  0  0  0
    4.6753    0.2210    0.0782 C   0  0  0  0  0  0  0  0  0  0  0  0
  1  2  1  0
  2  3  1  0
  3  4  2  0
  4  5  1  0
  5  6  2  0
  6  7  1  0
  7  8  2  0
  9  8  1  1
  9 10  2  0
  9 11  1  0
 11 12  1  0
 12 13  2  0
 13 14  1  0
 14 15  2  0
 15 16  1  0
 15 17  1  0
 17 18  1  0
 18 19  1  0
 17 20  2  0
 20 21  1  0
  8 22  1  0
 22 23  1  0
 23 24  2  0
 24  3  1  0
 23  6  1  0
 20 12  1  0
M  END
>  <supplier_code>  (198) 
DB00338

>  <zinc_id>  (198) 
ZINC000004693574

>  <catalog_short_name>  (198) 
dbfda

$$$$

     RDKit          3D

 24 26  0  0  0  0  0  0  0  0999 V2000
    7.4544   -0.5041    1.3118 C   0  0  0  0  0  0  0  0  0  0  0  0
    6.9088   -0.3735    1.1497 O   0  0  0  0  0  0  0  0  0  0  0  0
    5.5989   -0.0686    0.7655 C   0  0  0  0  0  0  0  0  0  0  0  0
    5.2697    1.2148    0.4081 C   0  0  0  0  0  0  0  0  0  0  0  0
    4.0657    1.4017   -0.2571 C   0  0  0  0  0  0  0  0  0  0  0  0
    3.2853    0.2968   -0.5748 C   0  0  0  0  0  0  0  0  0  0  0  0
    2.0169    0.1995   -1.0388 N   0  0  0  0  0  0  0  0  0  0  0  0
    1.3829   -0.8002   -0.3941 C   0  0  0  0  0  0  0  0  0  0  0  0
   -0.3301   -1.3213   -0.6697 S   0  0  0  0  0  0  0  0  0  0  0  0
   -0.6843   -1.8556    0.7490 O   0  0  0  0  0  0  0  0  0  0  0  0
   -1.1850    0.3086   -0.6233 C   0  0  0  0  0  0  0  0  0  0  0  0
   -2.6223    0.0086   -0.3699 C   0  0  0  0  0  0  0  0  0  0  0  0
   -3.1968   -1.0133   -1.0096 N   0  0  0  0  0  0  0  0  0  0  0  0
   -4.5214   -1.1818   -0.9050 C   0  0  0  0  0  0  0  0  0  0  0  0
   -5.2593   -0.4056   -0.0201 C   0  0  0  0  0  0  0  0  0  0  0  0
   -6.6312   -0.7860    0.3784 C   0  0  0  0  0  0  0  0  0  0  0  0
   -4.7298    0.7647    0.4735 C   0  0  0  0  0  0  0  0  0  0  0  0
   -5.5727    1.8522    0.7149 O   0  0  0  0  0  0  0  0  0  0  0  0
   -5.7464    2.8114   -0.2996 C   0  0  0  0  0  0  0  0  0  0  0  0
   -3.3693    0.9463    0.3296 C   0  0  0  0  0  0  0  0  0  0  0  0
   -2.7636    2.1223    0.9977 C   0  0  0  0  0  0  0  0  0  0  0  0
    2.3570   -1.5668    0.1168 N   0  0  0  0  0  0  0  0  0  0  0  0
    3.5199   -0.9064    0.0577 C   0  0  0  0  0  0  0  0  0  0  0  0
    4.7528   -1.1437    0.6016 C   0  0  0  0  0  0  0  0  0  0  0  0
  1  2  1  0
  2  3  1  0
  3  4  2  0
  4  5  1  0
  5  6  2  0
  6  7  1  0
  7  8  2  0
  9  8  1  1
  9 10  2  0
  9 11  1  0
 11 12  1  0
 12 13  2  0
 13 14  1  0
 14 15  2  0
 15 16  1  0
 15 17  1  0
 17 18  1  0
 18 19  1  0
 17 20  2  0
 20 21  1  0
  8 22  1  0
 22 23  1  0
 23 24  2  0
 24  3  1  0
 23  6  1  0
 20 12  1  0
M  END
>  <supplier_code>  (199) 
DB00338

>  <zinc_id>  (199) 
ZINC000004693575

>  <catalog_short_name>  (199) 
dbfda

$$$$

     RDKit          3D

  9  9  0  0  0  0  0  0  0  0999 V2000
    2.5951    0.4465   -0.8285 N   0  0  0  0  0  0  0  0  0  0  0  0
    1.7168    0.0005   -0.0081 C   0  0  0  0  0  0  0  0  0  0  0  0
    2.0541   -0.4748    1.2617 O   0  0  0  0  0  0  0  0  0  0  0  0
    0.3030    0.0561   -0.3296 C   0  0  0  0  0  0  0  0  0  0  0  0
   -0.4676   -1.0739   -0.5450 C   0  0  0  0  0  0  0  0  0  0  0  0
   -1.7831   -1.1285   -0.2486 N   0  0  0  0  0  0  0  0  0  0  0  0
   -2.3207   -0.1189    0.4813 C   0  0  0  0  0  0  0  0  0  0  0  0
   -1.6749    1.1061    0.3639 C   0  0  0  0  0  0  0  0  0  0  0  0
   -0.4227    1.1869   -0.1470 N   0  0  0  0  0  0  0  0  0  0  0  0
  1  2  2  0
  2  3  1  0
  2  4  1  0
  4  5  2  0
  5  6  1  0
  6  7  2  0
  7  8  1  0
  8  9  2  0
  9  4  1  0
M  END
>  <supplier_code>  (200) 
DB00339

>  <zinc_id>  (200) 
ZINC000000002005

>  <catalog_short_name>  (200) 
dbfda

$$$$

     RDKit          3D

 27 29  0  0  0  0  0  0  0  0999 V2000
    7.2054   -0.8508    0.3187 O   0  0  0  0  0  0  0  0  0  0  0  0
    6.6400   -0.1292   -0.0733 C   0  0  0  0  0  0  0  0  0  0  0  0
    6.8429    0.3627   -1.3692 O   0  0  0  0  0  0  0  0  0  0  0  0
    5.3223    0.1910    0.5586 C   0  0  0  0  0  0  0  0  0  0  0  0
    4.5795   -0.9959    0.4670 O   0  0  0  0  0  0  0  0  0  0  0  0
    4.1429   -1.2048   -0.8506 C   0  0  0  0  0  0  0  0  0  0  0  0
    2.9509   -0.2753   -1.0396 C   0  0  0  0  0  0  0  0  0  0  0  0
    2.1313   -0.3965    0.1406 N   0  0  0  0  0  0  0  0  0  0  0  0
    1.4673    0.8932    0.3219 C   0  0  0  0  0  0  0  0  0  0  0  0
    0.6244    1.1003   -0.8848 C   0  0  0  0  0  0  0  0  0  0  0  0
   -0.5107    0.2350   -1.0092 N   0  0  0  0  0  0  0  0  0  0  0  0
   -1.1604    0.0704    0.4208 C   0  0  1  0  0  0  0  0  0  0  0  0
   -1.8965    1.5049    0.4154 C   0  0  0  0  0  0  0  0  0  0  0  0
   -1.3852    2.5725   -0.1710 C   0  0  0  0  0  0  0  0  0  0  0  0
   -1.8906    3.8165    0.1226 C   0  0  0  0  0  0  0  0  0  0  0  0
   -3.0098    3.8803    0.9451 C   0  0  0  0  0  0  0  0  0  0  0  0
   -3.3776    2.7677    1.6935 C   0  0  0  0  0  0  0  0  0  0  0  0
   -2.4673    1.7155    1.6717 C   0  0  0  0  0  0  0  0  0  0  0  0
   -2.4735   -0.6619   -0.1862 C   0  0  0  0  0  0  0  0  0  0  0  0
   -2.3119   -2.0322   -0.4289 C   0  0  0  0  0  0  0  0  0  0  0  0
   -3.4584   -2.7774   -0.6838 C   0  0  0  0  0  0  0  0  0  0  0  0
   -4.6912   -2.3547   -0.2363 C   0  0  0  0  0  0  0  0  0  0  0  0
   -6.0357   -3.4475    0.0667 Cl  0  0  0  0  0  0  0  0  0  0  0  0
   -4.7929   -1.1245    0.3902 C   0  0  0  0  0  0  0  0  0  0  0  0
   -3.6386   -0.4137    0.5345 C   0  0  0  0  0  0  0  0  0  0  0  0
    0.1227   -1.0847   -1.1255 C   0  0  0  0  0  0  0  0  0  0  0  0
    1.0707   -1.3607    0.0099 C   0  0  0  0  0  0  0  0  0  0  0  0
  1  2  2  0
  2  3  1  0
  2  4  1  0
  4  5  1  0
  5  6  1  0
  6  7  1  0
  7  8  1  0
  8  9  1  0
  9 10  1  0
 10 11  1  0
 12 11  1  6
 12 13  1  0
 13 14  2  0
 14 15  1  0
 15 16  2  0
 16 17  1  0
 17 18  2  0
 12 19  1  0
 19 20  2  0
 20 21  1  0
 21 22  2  0
 22 23  1  0
 22 24  1  0
 24 25  2  0
 11 26  1  0
 26 27  1  0
 27  8  1  0
 18 13  1  0
 25 19  1  0
M  END
>  <supplier_code>  (201) 
DB00341

>  <zinc_id>  (201) 
ZINC000019364229

>  <catalog_short_name>  (201) 
dbfda

$$$$

     RDKit          3D

 27 29  0  0  0  0  0  0  0  0999 V2000
    6.6794    0.8305    0.0573 O   0  0  0  0  0  0  0  0  0  0  0  0
    6.3466    0.9186    0.3090 C   0  0  0  0  0  0  0  0  0  0  0  0
    5.9916    2.2246    0.4285 O   0  0  0  0  0  0  0  0  0  0  0  0
    5.6856   -0.2213    0.9506 C   0  0  0  0  0  0  0  0  0  0  0  0
    5.5086   -1.1977   -0.0355 O   0  0  0  0  0  0  0  0  0  0  0  0
    4.1294   -1.3126   -0.2407 C   0  0  0  0  0  0  0  0  0  0  0  0
    3.4579   -0.0158    0.1905 C   0  0  0  0  0  0  0  0  0  0  0  0
    2.0551   -0.2527    0.1384 N   0  0  0  0  0  0  0  0  0  0  0  0
    1.3859    0.2023   -1.0381 C   0  0  0  0  0  0  0  0  0  0  0  0
   -0.0849   -0.1036   -0.8877 C   0  0  0  0  0  0  0  0  0  0  0  0
   -0.6430    0.6029    0.1753 N   0  0  0  0  0  0  0  0  0  0  0  0
   -1.7292   -0.2904    0.9078 C   0  0  2  0  0  0  0  0  0  0  0  0
   -1.8809   -1.4214   -0.2652 C   0  0  0  0  0  0  0  0  0  0  0  0
   -0.9960   -2.4311    0.1174 C   0  0  0  0  0  0  0  0  0  0  0  0
   -1.1768   -3.7587   -0.1311 C   0  0  0  0  0  0  0  0  0  0  0  0
   -2.4604   -4.1994   -0.2657 C   0  0  0  0  0  0  0  0  0  0  0  0
   -3.4592   -3.2664   -0.4851 C   0  0  0  0  0  0  0  0  0  0  0  0
   -3.1785   -1.9148   -0.3592 C   0  0  0  0  0  0  0  0  0  0  0  0
   -2.9979    0.5771    0.4028 C   0  0  0  0  0  0  0  0  0  0  0  0
   -2.9039    1.2287   -0.7731 C   0  0  0  0  0  0  0  0  0  0  0  0
   -3.8220    2.2443   -1.0224 C   0  0  0  0  0  0  0  0  0  0  0  0
   -4.4097    2.8963    0.0489 C   0  0  0  0  0  0  0  0  0  0  0  0
   -4.6449    4.6410    0.0868 Cl  0  0  0  0  0  0  0  0  0  0  0  0
   -4.5964    2.1494    1.2061 C   0  0  0  0  0  0  0  0  0  0  0  0
   -3.8391    1.0019    1.4138 C   0  0  0  0  0  0  0  0  0  0  0  0
    0.2409    0.9437    1.2591 C   0  0  0  0  0  0  0  0  0  0  0  0
    1.3416   -0.0754    1.3589 C   0  0  0  0  0  0  0  0  0  0  0  0
  1  2  2  0
  2  3  1  0
  2  4  1  0
  4  5  1  0
  5  6  1  0
  6  7  1  0
  7  8  1  0
  8  9  1  0
  9 10  1  0
 10 11  1  0
 12 11  1  6
 12 13  1  0
 13 14  2  0
 14 15  1  0
 15 16  2  0
 16 17  1  0
 17 18  2  0
 12 19  1  0
 19 20  2  0
 20 21  1  0
 21 22  2  0
 22 23  1  0
 22 24  1  0
 24 25  2  0
 11 26  1  0
 26 27  1  0
 27  8  1  0
 18 13  1  0
 25 19  1  0
M  END
>  <supplier_code>  (202) 
DB00341

>  <zinc_id>  (202) 
ZINC000019364230

>  <catalog_short_name>  (202) 
dbfda

$$$$

     RDKit          3D

 29 31  0  0  0  0  0  0  0  0999 V2000
    5.7080   -2.9826    0.9297 C   0  0  0  0  0  0  0  0  0  0  0  0
    5.8766   -2.2605    0.5521 O   0  0  0  0  0  0  0  0  0  0  0  0
    5.0777   -1.1576    0.2272 C   0  0  0  0  0  0  0  0  0  0  0  0
    4.5028   -0.3650    1.2109 C   0  0  0  0  0  0  0  0  0  0  0  0
    3.1738    0.0137    1.0636 C   0  0  0  0  0  0  0  0  0  0  0  0
    2.4437   -0.1930   -0.0675 C   0  0  0  0  0  0  0  0  0  0  0  0
    0.9557   -0.6279   -0.0081 C   0  0  2  0  0  0  0  0  0  0  0  0
    0.4113    0.4645   -1.4386 S   0  0  0  0  0  0  0  0  0  0  0  0
   -1.3486    0.7569   -1.3387 C   0  0  0  0  0  0  0  0  0  0  0  0
   -1.6305    1.8502   -2.1502 C   0  0  0  0  0  0  0  0  0  0  0  0
   -2.6145    2.7753   -1.8366 C   0  0  0  0  0  0  0  0  0  0  0  0
   -3.5415    2.4778   -0.8774 C   0  0  0  0  0  0  0  0  0  0  0  0
   -3.4222    1.2421   -0.2502 C   0  0  0  0  0  0  0  0  0  0  0  0
   -2.2459    0.5035   -0.3081 C   0  0  0  0  0  0  0  0  0  0  0  0
   -2.0168   -0.3110    0.8484 N   0  0  0  0  0  0  0  0  0  0  0  0
   -3.2519   -0.5569    1.5914 C   0  0  0  0  0  0  0  0  0  0  0  0
   -3.8986   -1.8510    1.3041 C   0  0  0  0  0  0  0  0  0  0  0  0
   -4.1625   -2.1328   -0.0786 N   0  0  0  0  0  0  0  0  0  0  0  0
   -3.8798   -3.5585   -0.2457 C   0  0  0  0  0  0  0  0  0  0  0  0
   -5.5814   -1.9802   -0.3962 C   0  0  0  0  0  0  0  0  0  0  0  0
   -0.8299   -0.4618    1.5513 C   0  0  0  0  0  0  0  0  0  0  0  0
   -0.8900   -0.9370    2.7259 O   0  0  0  0  0  0  0  0  0  0  0  0
    0.5909    0.2763    1.3691 C   0  0  2  0  0  0  0  0  0  0  0  0
    0.0265    1.5212    0.6616 O   0  0  0  0  0  0  0  0  0  0  0  0
    0.7736    2.6494    0.9021 C   0  0  0  0  0  0  0  0  0  0  0  0
    1.1302    3.5954   -0.1785 C   0  0  0  0  0  0  0  0  0  0  0  0
    0.9681    2.9239    2.1248 O   0  0  0  0  0  0  0  0  0  0  0  0
    3.1766   -0.6330   -1.1667 C   0  0  0  0  0  0  0  0  0  0  0  0
    4.4987   -1.0415   -1.0311 C   0  0  0  0  0  0  0  0  0  0  0  0
  1  2  1  0
  2  3  1  0
  3  4  2  0
  4  5  1  0
  5  6  2  0
  7  6  1  6
  7  8  1  0
  8  9  1  0
  9 10  2  0
 10 11  1  0
 11 12  2  0
 12 13  1  0
 13 14  2  0
 14 15  1  0
 15 16  1  0
 16 17  1  0
 17 18  1  0
 18 19  1  0
 18 20  1  0
 15 21  1  0
 21 22  2  0
 21 23  1  0
 23 24  1  6
 24 25  1  0
 25 26  1  0
 25 27  2  0
  6 28  1  0
 28 29  2  0
 29  3  1  0
 23  7  1  0
 14  9  1  0
M  END
>  <supplier_code>  (203) 
DB00343

>  <zinc_id>  (203) 
ZINC000000621893

>  <catalog_short_name>  (203) 
dbfda

$$$$

     RDKit          3D

 20 22  0  0  0  0  0  0  0  0999 V2000
    5.0791    0.3901    1.4437 C   0  0  0  0  0  0  0  0  0  0  0  0
    4.9850   -0.0460    0.0612 N   0  0  0  0  0  0  0  0  0  0  0  0
    3.9179   -0.9944   -0.1520 C   0  0  0  0  0  0  0  0  0  0  0  0
    2.6044   -0.5252    0.4451 C   0  0  0  0  0  0  0  0  0  0  0  0
    1.5852   -0.2131   -0.6470 C   0  0  0  0  0  0  0  0  0  0  0  0
    0.2711   -0.0772    0.0403 C   0  0  0  0  0  0  0  0  0  0  0  0
   -0.4011    1.2165   -0.1678 C   0  0  0  0  0  0  0  0  0  0  0  0
    0.3925    2.2090   -0.7090 C   0  0  0  0  0  0  0  0  0  0  0  0
   -0.1268    3.4802   -0.9229 C   0  0  0  0  0  0  0  0  0  0  0  0
   -1.4970    3.6581   -0.7679 C   0  0  0  0  0  0  0  0  0  0  0  0
   -2.1079    2.8236    0.1542 C   0  0  0  0  0  0  0  0  0  0  0  0
   -1.5122    1.6336    0.5568 C   0  0  0  0  0  0  0  0  0  0  0  0
   -2.3592    0.8487    1.4651 C   0  0  0  0  0  0  0  0  0  0  0  0
   -2.4993   -0.4781    1.4260 C   0  0  0  0  0  0  0  0  0  0  0  0
   -1.7219   -1.4934    0.7023 C   0  0  0  0  0  0  0  0  0  0  0  0
   -2.3790   -2.6855    0.5320 C   0  0  0  0  0  0  0  0  0  0  0  0
   -2.0007   -3.5117   -0.5196 C   0  0  0  0  0  0  0  0  0  0  0  0
   -1.2267   -3.0295   -1.5680 C   0  0  0  0  0  0  0  0  0  0  0  0
   -0.3605   -1.9923   -1.2441 C   0  0  0  0  0  0  0  0  0  0  0  0
   -0.6428   -1.2132   -0.1285 C   0  0  0  0  0  0  0  0  0  0  0  0
  1  2  1  0
  2  3  1  0
  3  4  1  0
  4  5  1  0
  5  6  1  0
  6  7  1  0
  7  8  2  0
  8  9  1  0
  9 10  2  0
 10 11  1  0
 11 12  2  0
 12 13  1  0
 13 14  2  0
 14 15  1  0
 15 16  2  0
 16 17  1  0
 17 18  2  0
 18 19  1  0
 19 20  2  0
 20  6  1  0
 12  7  1  0
 20 15  1  0
M  END
>  <supplier_code>  (204) 
DB00344

>  <zinc_id>  (204) 
ZINC000001530764

>  <catalog_short_name>  (204) 
dbfda

$$$$

     RDKit          3D

 14 14  0  0  0  0  0  0  0  0999 V2000
    4.9285   -0.7080   -0.3352 N   0  0  0  0  0  0  0  0  0  0  0  0
    3.5458   -0.3491   -0.3329 C   0  0  0  0  0  0  0  0  0  0  0  0
    3.0045    0.5246   -1.2618 C   0  0  0  0  0  0  0  0  0  0  0  0
    1.6464    0.8018   -1.1849 C   0  0  0  0  0  0  0  0  0  0  0  0
    0.7590   -0.1162   -0.6493 C   0  0  0  0  0  0  0  0  0  0  0  0
   -0.6396    0.2510   -0.3948 C   0  0  0  0  0  0  0  0  0  0  0  0
   -0.9444    1.4775   -0.4995 O   0  0  0  0  0  0  0  0  0  0  0  0
   -1.4730   -0.5306    0.4355 N   0  0  0  0  0  0  0  0  0  0  0  0
   -2.3744    0.0189    1.4296 C   0  0  0  0  0  0  0  0  0  0  0  0
   -3.7925   -0.0654    1.0349 C   0  0  0  0  0  0  0  0  0  0  0  0
   -4.6171   -0.6749    1.7742 O   0  0  0  0  0  0  0  0  0  0  0  0
   -4.0666    0.0663   -0.3292 O   0  0  0  0  0  0  0  0  0  0  0  0
    1.3484   -1.2117   -0.0292 C   0  0  0  0  0  0  0  0  0  0  0  0
    2.6751   -1.1753    0.3425 C   0  0  0  0  0  0  0  0  0  0  0  0
  1  2  1  0
  2  3  2  0
  3  4  1  0
  4  5  2  0
  5  6  1  0
  6  7  2  0
  6  8  1  0
  8  9  1  0
  9 10  1  0
 10 11  2  0
 10 12  1  0
  5 13  1  0
 13 14  2  0
 14  2  1  0
M  END
>  <supplier_code>  (205) 
DB00345

>  <zinc_id>  (205) 
ZINC000000119344

>  <catalog_short_name>  (205) 
dbfda

$$$$

     RDKit          3D

 28 30  0  0  0  0  0  0  0  0999 V2000
   -6.4427   -1.5676   -1.4350 C   0  0  0  0  0  0  0  0  0  0  0  0
   -6.1286   -1.2095   -1.2785 O   0  0  0  0  0  0  0  0  0  0  0  0
   -4.9764   -0.5403   -0.8728 C   0  0  0  0  0  0  0  0  0  0  0  0
   -3.7502   -1.0897   -1.2038 C   0  0  0  0  0  0  0  0  0  0  0  0
   -2.6719   -0.6463   -0.4654 C   0  0  0  0  0  0  0  0  0  0  0  0
   -1.4123   -1.0182   -0.7189 N   0  0  0  0  0  0  0  0  0  0  0  0
   -0.3797   -0.5697    0.0002 C   0  0  0  0  0  0  0  0  0  0  0  0
    0.9706   -0.8954   -0.3507 N   0  0  0  0  0  0  0  0  0  0  0  0
    1.3925   -2.2518   -0.0646 C   0  0  0  0  0  0  0  0  0  0  0  0
    1.9244    0.1928   -0.2735 C   0  0  0  0  0  0  0  0  0  0  0  0
    2.4584    0.5228   -1.6426 C   0  0  0  0  0  0  0  0  0  0  0  0
    3.6313   -0.3317   -2.0438 C   0  0  0  0  0  0  0  0  0  0  0  0
    4.4906   -0.5516   -0.8812 N   0  0  0  0  0  0  0  0  0  0  0  0
    5.1006    0.5458   -0.1844 C   0  0  0  0  0  0  0  0  0  0  0  0
    5.0920    1.6739   -0.7672 O   0  0  0  0  0  0  0  0  0  0  0  0
    6.6990    0.2198    0.0338 C   0  0  2  0  0  0  0  0  0  0  0  0
    6.3743   -1.0140    1.1111 C   0  0  0  0  0  0  0  0  0  0  0  0
    5.5434   -0.3084    2.1158 C   0  0  0  0  0  0  0  0  0  0  0  0
    5.6490    1.1462    1.7982 C   0  0  0  0  0  0  0  0  0  0  0  0
    6.8529    1.2389    1.1754 O   0  0  0  0  0  0  0  0  0  0  0  0
   -0.6285    0.1243    1.1366 N   0  0  0  0  0  0  0  0  0  0  0  0
   -1.8667    0.4901    1.4730 C   0  0  0  0  0  0  0  0  0  0  0  0
   -2.1616    1.1207    2.6989 N   0  0  0  0  0  0  0  0  0  0  0  0
   -2.8375    0.3483    0.4910 C   0  0  0  0  0  0  0  0  0  0  0  0
   -4.0169    1.0329    0.5765 C   0  0  0  0  0  0  0  0  0  0  0  0
   -5.1237    0.6105   -0.1435 C   0  0  0  0  0  0  0  0  0  0  0  0
   -6.2369    1.4027   -0.3191 O   0  0  0  0  0  0  0  0  0  0  0  0
   -7.5455    0.9601    0.0346 C   0  0  0  0  0  0  0  0  0  0  0  0
  1  2  1  0
  2  3  1  0
  3  4  2  0
  4  5  1  0
  5  6  2  0
  6  7  1  0
  7  8  1  0
  8  9  1  0
  8 10  1  0
 10 11  1  0
 11 12  1  0
 12 13  1  0
 13 14  1  0
 14 15  2  0
 16 14  1  6
 16 17  1  0
 17 18  1  0
 18 19  1  0
 19 20  1  0
  7 21  2  0
 21 22  1  0
 22 23  1  0
 22 24  2  0
 24 25  1  0
 25 26  2  0
 26 27  1  0
 27 28  1  0
 26  3  1  0
 24  5  1  0
 20 16  1  0
M  END
>  <supplier_code>  (206) 
DB00346

>  <zinc_id>  (206) 
ZINC000001542392

>  <catalog_short_name>  (206) 
dbfda

$$$$

     RDKit          3D

 28 30  0  0  0  0  0  0  0  0999 V2000
   -5.2479    3.6462   -0.2830 C   0  0  0  0  0  0  0  0  0  0  0  0
   -5.4877    2.5082    0.5159 O   0  0  0  0  0  0  0  0  0  0  0  0
   -4.6339    1.4296    0.4504 C   0  0  0  0  0  0  0  0  0  0  0  0
   -3.2576    1.6007    0.5382 C   0  0  0  0  0  0  0  0  0  0  0  0
   -2.4216    0.5731    0.1189 C   0  0  0  0  0  0  0  0  0  0  0  0
   -1.1824    0.4285    0.6350 N   0  0  0  0  0  0  0  0  0  0  0  0
   -0.6142   -0.8005    0.7384 C   0  0  0  0  0  0  0  0  0  0  0  0
    0.7708   -0.7371    1.1125 N   0  0  0  0  0  0  0  0  0  0  0  0
    1.0764   -0.3204    2.4782 C   0  0  0  0  0  0  0  0  0  0  0  0
    1.6052   -0.3579   -0.0256 C   0  0  0  0  0  0  0  0  0  0  0  0
    2.2972   -1.5773   -0.5826 C   0  0  0  0  0  0  0  0  0  0  0  0
    3.1203   -2.1915    0.5444 C   0  0  0  0  0  0  0  0  0  0  0  0
    4.5003   -1.7968    0.2648 N   0  0  0  0  0  0  0  0  0  0  0  0
    4.6735   -0.3881    0.1459 C   0  0  0  0  0  0  0  0  0  0  0  0
    4.2883    0.3549    1.0534 O   0  0  0  0  0  0  0  0  0  0  0  0
    6.0137    0.0624   -0.6468 C   0  0  1  0  0  0  0  0  0  0  0  0
    5.3937    1.5627   -0.9495 C   0  0  0  0  0  0  0  0  0  0  0  0
    6.0772    2.4293    0.0172 C   0  0  0  0  0  0  0  0  0  0  0  0
    7.3554    1.6268    0.2430 C   0  0  0  0  0  0  0  0  0  0  0  0
    6.7223    0.4717    0.6370 O   0  0  0  0  0  0  0  0  0  0  0  0
   -0.8944   -1.6352   -0.2951 N   0  0  0  0  0  0  0  0  0  0  0  0
   -2.1162   -1.5712   -0.8822 C   0  0  0  0  0  0  0  0  0  0  0  0
   -2.5372   -2.4837   -1.8778 N   0  0  0  0  0  0  0  0  0  0  0  0
   -2.9695   -0.5411   -0.5050 C   0  0  0  0  0  0  0  0  0  0  0  0
   -4.3418   -0.7609   -0.5429 C   0  0  0  0  0  0  0  0  0  0  0  0
   -5.1263    0.1721    0.1241 C   0  0  0  0  0  0  0  0  0  0  0  0
   -6.3803   -0.1767    0.5716 O   0  0  0  0  0  0  0  0  0  0  0  0
   -6.6833   -1.5277    0.8373 C   0  0  0  0  0  0  0  0  0  0  0  0
  1  2  1  0
  2  3  1  0
  3  4  2  0
  4  5  1  0
  5  6  2  0
  6  7  1  0
  7  8  1  0
  8  9  1  0
  8 10  1  0
 10 11  1  0
 11 12  1  0
 12 13  1  0
 13 14  1  0
 14 15  2  0
 16 14  1  1
 16 17  1  0
 17 18  1  0
 18 19  1  0
 19 20  1  0
  7 21  2  0
 21 22  1  0
 22 23  1  0
 22 24  2  0
 24 25  1  0
 25 26  2  0
 26 27  1  0
 27 28  1  0
 26  3  1  0
 24  5  1  0
 20 16  1  0
M  END
>  <supplier_code>  (207) 
DB00346

>  <zinc_id>  (207) 
ZINC000001843099

>  <catalog_short_name>  (207) 
dbfda

$$$$

     RDKit          3D

 10 10  0  0  0  0  0  0  0  0999 V2000
    2.0670    1.4956    0.3882 C   0  0  0  0  0  0  0  0  0  0  0  0
    0.9608    0.5457    0.3372 N   0  0  0  0  0  0  0  0  0  0  0  0
    1.1201   -0.8406    0.0139 C   0  0  0  0  0  0  0  0  0  0  0  0
    2.2008   -1.4498   -0.2523 O   0  0  0  0  0  0  0  0  0  0  0  0
   -0.1514   -1.3791   -0.1572 O   0  0  0  0  0  0  0  0  0  0  0  0
   -1.1212   -0.3582    0.0168 C   0  0  0  0  0  0  0  0  0  0  0  0
   -2.1715   -0.4209   -1.0598 C   0  0  0  0  0  0  0  0  0  0  0  0
   -1.7904   -0.5130    1.3775 C   0  0  0  0  0  0  0  0  0  0  0  0
   -0.3681    0.9351   -0.0304 C   0  0  0  0  0  0  0  0  0  0  0  0
   -0.7461    1.9853   -0.6338 O   0  0  0  0  0  0  0  0  0  0  0  0
  1  2  1  0
  2  3  1  0
  3  4  2  0
  3  5  1  0
  5  6  1  0
  6  7  1  0
  6  8  1  0
  6  9  1  0
  9 10  2  0
  9  2  1  0
M  END
>  <supplier_code>  (208) 
DB00347

>  <zinc_id>  (208) 
ZINC000001530710

>  <catalog_short_name>  (208) 
dbfda

$$$$

     RDKit          3D

 23 24  0  0  0  0  0  0  0  0999 V2000
    1.5758    1.7637    0.8510 O   0  0  0  0  0  0  0  0  0  0  0  0
    1.1233    0.6964    0.3335 C   0  0  0  0  0  0  0  0  0  0  0  0
   -0.2615    0.3284    0.5487 C   0  0  0  0  0  0  0  0  0  0  0  0
   -1.0323    1.0400    1.4314 C   0  0  0  0  0  0  0  0  0  0  0  0
   -2.4138    1.0098    1.3815 C   0  0  0  0  0  0  0  0  0  0  0  0
   -3.0176    0.4084    0.2963 C   0  0  0  0  0  0  0  0  0  0  0  0
   -4.4808    0.3812    0.0918 C   0  0  0  0  0  0  0  0  0  0  0  0
   -4.8153    1.5509   -0.5646 F   0  0  0  0  0  0  0  0  0  0  0  0
   -5.1491    0.3045    1.3075 F   0  0  0  0  0  0  0  0  0  0  0  0
   -4.8679   -0.7122   -0.6719 F   0  0  0  0  0  0  0  0  0  0  0  0
   -2.2492   -0.4689   -0.4563 C   0  0  0  0  0  0  0  0  0  0  0  0
   -0.8673   -0.4727   -0.4069 C   0  0  0  0  0  0  0  0  0  0  0  0
   -0.1368   -1.6524   -0.7680 N   0  0  0  0  0  0  0  0  0  0  0  0
   -0.4249   -2.6603   -0.0728 O   0  0  0  0  0  0  0  0  0  0  0  0
   -0.0072   -1.8778   -2.1283 O   0  0  0  0  0  0  0  0  0  0  0  0
    2.0838   -0.0683   -0.4835 C   0  0  0  0  0  0  0  0  0  0  0  0
    3.1455    0.8395   -1.0325 C   0  0  0  0  0  0  0  0  0  0  0  0
    2.8186    1.5921   -1.9481 O   0  0  0  0  0  0  0  0  0  0  0  0
    4.2910    1.2876   -0.1981 C   0  0  0  0  0  0  0  0  0  0  0  0
    4.7838    0.2384    0.7515 C   0  0  0  0  0  0  0  0  0  0  0  0
    3.6510   -0.5061    1.4446 C   0  0  0  0  0  0  0  0  0  0  0  0
    2.8326   -1.0866    0.3282 C   0  0  0  0  0  0  0  0  0  0  0  0
    3.4184   -1.9356   -0.3426 O   0  0  0  0  0  0  0  0  0  0  0  0
  1  2  2  0
  2  3  1  0
  3  4  2  0
  4  5  1  0
  5  6  2  0
  6  7  1  0
  7  8  1  0
  7  9  1  0
  7 10  1  0
  6 11  1  0
 11 12  2  0
 12 13  1  0
 13 14  2  0
 13 15  1  0
  2 16  1  0
 16 17  1  0
 17 18  2  0
 17 19  1  0
 19 20  1  0
 20 21  1  0
 21 22  1  0
 22 23  2  0
 12  3  1  0
 22 16  1  0
M  CHG  2  13   1  15  -1
M  END
>  <supplier_code>  (209) 
DB00348

>  <zinc_id>  (209) 
ZINC000100014475

>  <catalog_short_name>  (209) 
dbfda

$$$$

     RDKit          3D

 21 23  0  0  0  0  0  0  0  0999 V2000
   -3.3964   -0.9083    1.5562 C   0  0  0  0  0  0  0  0  0  0  0  0
   -2.5411   -0.8832    0.3719 N   0  0  0  0  0  0  0  0  0  0  0  0
   -1.8059    0.3253    0.1468 C   0  0  0  0  0  0  0  0  0  0  0  0
   -2.5773    1.3758    0.6039 C   0  0  0  0  0  0  0  0  0  0  0  0
   -2.0153    2.6388    0.4635 C   0  0  0  0  0  0  0  0  0  0  0  0
   -0.8113    2.8373   -0.1958 C   0  0  0  0  0  0  0  0  0  0  0  0
   -0.3996    4.3887   -0.9198 Cl  0  0  0  0  0  0  0  0  0  0  0  0
    0.0645    1.7634   -0.2703 C   0  0  0  0  0  0  0  0  0  0  0  0
   -0.4921    0.5074   -0.2679 C   0  0  0  0  0  0  0  0  0  0  0  0
    0.4652   -0.4580   -0.7164 N   0  0  0  0  0  0  0  0  0  0  0  0
    1.7954   -0.1845   -0.2541 C   0  0  0  0  0  0  0  0  0  0  0  0
    2.5779    0.8136   -0.7763 C   0  0  0  0  0  0  0  0  0  0  0  0
    3.8433    0.9937   -0.2408 C   0  0  0  0  0  0  0  0  0  0  0  0
    4.0442    0.5411    1.0579 C   0  0  0  0  0  0  0  0  0  0  0  0
    3.3719   -0.5651    1.5360 C   0  0  0  0  0  0  0  0  0  0  0  0
    2.2185   -0.9183    0.8475 C   0  0  0  0  0  0  0  0  0  0  0  0
    0.2107   -1.8470   -0.9388 C   0  0  0  0  0  0  0  0  0  0  0  0
    1.1964   -2.5164   -1.3662 O   0  0  0  0  0  0  0  0  0  0  0  0
   -1.0970   -2.5425   -1.1084 C   0  0  0  0  0  0  0  0  0  0  0  0
   -2.0558   -2.1703   -0.0223 C   0  0  0  0  0  0  0  0  0  0  0  0
   -2.5962   -3.1913    0.4935 O   0  0  0  0  0  0  0  0  0  0  0  0
  1  2  1  0
  2  3  1  0
  3  4  2  0
  4  5  1  0
  5  6  2  0
  6  7  1  0
  6  8  1  0
  8  9  2  0
  9 10  1  0
 10 11  1  0
 11 12  2  0
 12 13  1  0
 13 14  2  0
 14 15  1  0
 15 16  2  0
 10 17  1  0
 17 18  2  0
 17 19  1  0
 19 20  1  0
 20 21  2  0
 20  2  1  0
  9  3  1  0
 16 11  1  0
M  END
>  <supplier_code>  (210) 
DB00349

>  <zinc_id>  (210) 
ZINC000000001175

>  <catalog_short_name>  (210) 
dbfda

$$$$

     RDKit          3D

 15 16  0  0  0  0  0  0  0  0999 V2000
   -2.1524    2.4677   -0.4370 N   0  0  0  0  0  0  0  0  0  0  0  0
   -1.7219    1.1127   -0.6230 C   0  0  0  0  0  0  0  0  0  0  0  0
   -0.3678    0.8611   -0.8188 C   0  0  0  0  0  0  0  0  0  0  0  0
    0.1358   -0.4179   -0.6073 C   0  0  0  0  0  0  0  0  0  0  0  0
    1.4401   -0.5892   -0.0399 N   0  0  0  0  0  0  0  0  0  0  0  0
    2.5935   -0.7916   -0.9118 C   0  0  0  0  0  0  0  0  0  0  0  0
    3.8167   -0.5550   -0.0332 C   0  0  0  0  0  0  0  0  0  0  0  0
    3.8212    0.8468    0.5219 C   0  0  0  0  0  0  0  0  0  0  0  0
    2.5551    1.1675    1.2735 C   0  0  0  0  0  0  0  0  0  0  0  0
    1.7262   -0.1071    1.3074 C   0  0  0  0  0  0  0  0  0  0  0  0
   -0.8111   -1.3833   -0.5330 N   0  0  0  0  0  0  0  0  0  0  0  0
   -2.0797   -1.1066   -0.1456 C   0  0  0  0  0  0  0  0  0  0  0  0
   -2.9971   -2.1565    0.1854 N   0  0  0  0  0  0  0  0  0  0  0  0
   -2.5210    0.1723   -0.0646 N   0  0  0  0  0  0  0  0  0  0  0  0
   -3.4377    0.4791    0.9259 O   0  0  0  0  0  0  0  0  0  0  0  0
  1  2  1  0
  2  3  2  0
  3  4  1  0
  4  5  1  0
  5  6  1  0
  6  7  1  0
  7  8  1  0
  8  9  1  0
  9 10  1  0
  4 11  2  0
 11 12  1  0
 12 13  1  0
 12 14  2  0
 14 15  1  0
 14  2  1  0
 10  5  1  0
M  CHG  2  14   1  15  -1
M  END
>  <supplier_code>  (211) 
DB00350

>  <zinc_id>  (211) 
ZINC000000001735

>  <catalog_short_name>  (211) 
dbfda

$$$$

     RDKit          3D

 27 30  0  0  0  0  0  0  0  0999 V2000
   -5.6015   -0.4539    1.6593 C   0  0  0  0  0  0  0  0  0  0  0  0
   -4.4999   -0.6993    0.7766 C   0  0  0  0  0  0  0  0  0  0  0  0
   -4.6304   -1.5872   -0.1205 O   0  0  0  0  0  0  0  0  0  0  0  0
   -3.2853   -0.0004    0.7831 O   0  0  0  0  0  0  0  0  0  0  0  0
   -2.7431    0.2381   -0.4806 C   0  0  2  0  0  0  0  0  0  0  0  0
   -3.4803    1.3253   -1.1298 C   0  0  0  0  0  0  0  0  0  0  0  0
   -4.2941    1.2236   -2.3524 C   0  0  0  0  0  0  0  0  0  0  0  0
   -3.2943    2.4443   -0.6541 O   0  0  0  0  0  0  0  0  0  0  0  0
   -2.8406   -1.0968   -1.2107 C   0  0  0  0  0  0  0  0  0  0  0  0
   -1.5300   -1.8253   -0.9381 C   0  0  0  0  0  0  0  0  0  0  0  0
   -0.8273   -0.8792    0.1700 C   0  0  1  0  0  0  0  0  0  0  0  0
    0.6679   -0.9056   -0.6127 C   0  0  2  0  0  0  0  0  0  0  0  0
    1.2083   -2.0547    0.3268 C   0  0  0  0  0  0  0  0  0  0  0  0
    2.5189   -2.0986    0.5311 C   0  0  0  0  0  0  0  0  0  0  0  0
    3.3314   -0.8762    0.5786 C   0  0  0  0  0  0  0  0  0  0  0  0
    4.5729   -0.8309    0.9731 C   0  0  0  0  0  0  0  0  0  0  0  0
    5.3934    0.3617    0.7962 C   0  0  0  0  0  0  0  0  0  0  0  0
    6.3760    0.6495    1.5092 O   0  0  0  0  0  0  0  0  0  0  0  0
    4.9249    1.3196   -0.2474 C   0  0  0  0  0  0  0  0  0  0  0  0
    3.4428    1.5403   -0.0271 C   0  0  0  0  0  0  0  0  0  0  0  0
    2.7681    0.2288   -0.2561 C   0  0  1  0  0  0  0  0  0  0  0  0
    2.7236   -0.0665   -1.6918 C   0  0  0  0  0  0  0  0  0  0  0  0
    1.2889    0.3021    0.3875 C   0  0  1  0  0  0  0  0  0  0  0  0
    0.7943    1.4908   -0.5978 C   0  0  0  0  0  0  0  0  0  0  0  0
   -0.6459    1.6231   -0.0903 C   0  0  0  0  0  0  0  0  0  0  0  0
   -1.3106    0.4382   -0.6256 C   0  0  2  0  0  0  0  0  0  0  0  0
   -1.0281    0.1892   -2.1055 C   0  0  0  0  0  0  0  0  0  0  0  0
  1  2  1  0
  2  3  2  0
  2  4  1  0
  5  4  1  1
  5  6  1  0
  6  7  1  0
  6  8  2  0
  5  9  1  0
  9 10  1  0
 11 10  1  6
 11 12  1  0
 12 13  1  1
 13 14  2  0
 14 15  1  0
 15 16  2  0
 16 17  1  0
 17 18  2  0
 17 19  1  0
 19 20  1  0
 20 21  1  0
 21 22  1  6
 21 23  1  0
 23 24  1  6
 24 25  1  0
 25 26  1  0
 26 27  1  6
 26  5  1  0
 26 11  1  0
 23 12  1  0
 21 15  1  0
M  END
>  <supplier_code>  (212) 
DB00351

>  <zinc_id>  (212) 
ZINC000003881640

>  <catalog_short_name>  (212) 
dbfda

$$$$

     RDKit          3D

 28 31  0  0  0  0  0  0  0  0999 V2000
    5.6516    1.9021    1.2432 C   0  0  0  0  0  0  0  0  0  0  0  0
    4.8169    0.8277    0.6748 C   0  0  0  0  0  0  0  0  0  0  0  0
    5.3373    0.1637   -0.2735 O   0  0  0  0  0  0  0  0  0  0  0  0
    3.4725    0.6654    1.0373 O   0  0  0  0  0  0  0  0  0  0  0  0
    2.8043   -0.3180    0.3154 C   0  0  2  0  0  0  0  0  0  0  0  0
    3.4616   -1.6383    0.5829 C   0  0  0  0  0  0  0  0  0  0  0  0
    3.5916   -2.5713   -0.5682 C   0  0  0  0  0  0  0  0  0  0  0  0
    3.8046   -2.0156    1.6703 O   0  0  0  0  0  0  0  0  0  0  0  0
    2.9848    0.0499   -1.1561 C   0  0  0  0  0  0  0  0  0  0  0  0
    1.6234    0.4385   -1.6676 C   0  0  0  0  0  0  0  0  0  0  0  0
    0.9176    0.9277   -0.2800 C   0  0  1  0  0  0  0  0  0  0  0  0
   -0.5890    0.3040   -0.7637 C   0  0  2  0  0  0  0  0  0  0  0  0
   -0.9941    1.6910   -1.4212 C   0  0  0  0  0  0  0  0  0  0  0  0
   -2.3046    1.7253   -1.6695 C   0  0  0  0  0  0  0  0  0  0  0  0
   -2.8936    2.3897   -2.8483 C   0  0  0  0  0  0  0  0  0  0  0  0
   -3.0341    0.5697   -1.1331 C   0  0  0  0  0  0  0  0  0  0  0  0
   -4.1580    0.1291   -1.6781 C   0  0  0  0  0  0  0  0  0  0  0  0
   -5.0728   -0.5273   -0.7339 C   0  0  0  0  0  0  0  0  0  0  0  0
   -5.8096   -1.4826   -1.1060 O   0  0  0  0  0  0  0  0  0  0  0  0
   -5.1020   -0.1245    0.6854 C   0  0  0  0  0  0  0  0  0  0  0  0
   -3.8450    0.6223    1.1148 C   0  0  0  0  0  0  0  0  0  0  0  0
   -2.7576    0.0382    0.2281 C   0  0  1  0  0  0  0  0  0  0  0  0
   -2.7848   -1.4094    0.3581 C   0  0  0  0  0  0  0  0  0  0  0  0
   -1.3526    0.6940    0.7080 C   0  0  1  0  0  0  0  0  0  0  0  0
   -0.7763   -0.6517    1.4416 C   0  0  0  0  0  0  0  0  0  0  0  0
    0.6923   -0.3464    1.7440 C   0  0  0  0  0  0  0  0  0  0  0  0
    1.3680   -0.4567    0.4493 C   0  0  2  0  0  0  0  0  0  0  0  0
    0.9474   -1.5966   -0.4273 C   0  0  0  0  0  0  0  0  0  0  0  0
  1  2  1  0
  2  3  2  0
  2  4  1  0
  5  4  1  1
  5  6  1  0
  6  7  1  0
  6  8  2  0
  5  9  1  0
  9 10  1  0
 11 10  1  6
 11 12  1  0
 12 13  1  6
 13 14  2  0
 14 15  1  0
 14 16  1  0
 16 17  2  0
 17 18  1  0
 18 19  2  0
 18 20  1  0
 20 21  1  0
 21 22  1  0
 22 23  1  6
 22 24  1  0
 24 25  1  1
 25 26  1  0
 26 27  1  0
 27 28  1  6
 27  5  1  0
 27 11  1  0
 24 12  1  0
 22 16  1  0
M  END
>  <supplier_code>  (213) 
DB00351

>  <zinc_id>  (213) 
ZINC000004097467

>  <catalog_short_name>  (213) 
dbfda

$$$$

     RDKit          3D

 11 12  0  0  0  0  0  0  0  0999 V2000
   -2.6997   -1.6952    0.4637 N   0  0  0  0  0  0  0  0  0  0  0  0
   -1.6565   -0.8764   -0.0676 C   0  0  0  0  0  0  0  0  0  0  0  0
   -0.5145   -1.3895   -0.5738 N   0  0  0  0  0  0  0  0  0  0  0  0
    0.6693   -0.7526   -0.4304 C   0  0  0  0  0  0  0  0  0  0  0  0
    1.9605   -1.0998   -0.4131 N   0  0  0  0  0  0  0  0  0  0  0  0
    2.6598   -0.1439    0.2479 C   0  0  0  0  0  0  0  0  0  0  0  0
    1.8568    0.9121    0.4801 N   0  0  0  0  0  0  0  0  0  0  0  0
    0.6288    0.5361    0.0884 C   0  0  0  0  0  0  0  0  0  0  0  0
   -0.5789    1.2121   -0.0465 C   0  0  0  0  0  0  0  0  0  0  0  0
   -0.6118    2.8219    0.2785 S   0  0  0  0  0  0  0  0  0  0  0  0
   -1.7137    0.4751   -0.0272 N   0  0  0  0  0  0  0  0  0  0  0  0
  1  2  1  0
  2  3  2  0
  3  4  1  0
  4  5  1  0
  5  6  2  0
  6  7  1  0
  7  8  1  0
  8  9  1  0
  9 10  2  0
  9 11  1  0
 11  2  1  0
  8  4  2  0
M  END
>  <supplier_code>  (214) 
DB00352

>  <zinc_id>  (214) 
ZINC000006382803

>  <catalog_short_name>  (214) 
dbfda

$$$$

     RDKit          3D

 25 28  0  0  0  0  0  0  0  0999 V2000
    5.2411   -1.3683    0.4101 C   0  0  0  0  0  0  0  0  0  0  0  0
    5.5300   -0.4520    0.3702 C   0  0  0  0  0  0  0  0  0  0  0  0
    4.4167    0.5960    0.9752 C   0  0  1  0  0  0  0  0  0  0  0  0
    4.3006    1.3576   -0.4736 C   0  0  0  0  0  0  0  0  0  0  0  0
    4.3817    2.7038   -0.1808 O   0  0  0  0  0  0  0  0  0  0  0  0
    3.2530   -0.4165    0.7101 N   0  0  0  0  0  0  0  0  0  0  0  0
    2.0739    0.0308    0.0294 C   0  0  0  0  0  0  0  0  0  0  0  0
    2.4559    0.5818   -1.0594 O   0  0  0  0  0  0  0  0  0  0  0  0
    1.3420   -1.3460   -0.4132 C   0  0  2  0  0  0  0  0  0  0  0  0
    0.2569   -0.6279   -1.3544 C   0  0  0  0  0  0  0  0  0  0  0  0
   -0.6631    0.1122   -0.8637 C   0  0  0  0  0  0  0  0  0  0  0  0
   -2.0312    0.0966   -1.2075 C   0  0  0  0  0  0  0  0  0  0  0  0
   -2.4294   -0.4998   -2.3926 C   0  0  0  0  0  0  0  0  0  0  0  0
   -3.7598   -0.9067   -2.4981 C   0  0  0  0  0  0  0  0  0  0  0  0
   -4.5514   -1.1018   -1.3661 C   0  0  0  0  0  0  0  0  0  0  0  0
   -4.2185   -0.3855   -0.2226 C   0  0  0  0  0  0  0  0  0  0  0  0
   -4.6416   -0.1984    1.0247 N   0  0  0  0  0  0  0  0  0  0  0  0
   -3.7067    0.4559    1.7658 C   0  0  0  0  0  0  0  0  0  0  0  0
   -2.5242    0.4910    1.0331 C   0  0  0  0  0  0  0  0  0  0  0  0
   -2.9625    0.1081   -0.2099 C   0  0  0  0  0  0  0  0  0  0  0  0
   -1.5207    1.5749    0.9308 C   0  0  0  0  0  0  0  0  0  0  0  0
   -0.1083    0.9060    0.4225 C   0  0  1  0  0  0  0  0  0  0  0  0
   -0.2690   -0.3767    1.3119 N   0  0  0  0  0  0  0  0  0  0  0  0
   -0.2315    0.1084    2.6400 C   0  0  0  0  0  0  0  0  0  0  0  0
    0.3661   -1.4434    0.8813 C   0  0  0  0  0  0  0  0  0  0  0  0
  1  2  1  0
  3  2  1  6
  3  4  1  0
  4  5  1  0
  3  6  1  0
  6  7  1  0
  7  8  2  0
  9  7  1  1
  9 10  1  0
 10 11  2  0
 11 12  1  0
 12 13  2  0
 13 14  1  0
 14 15  2  0
 15 16  1  0
 16 17  1  0
 17 18  1  0
 18 19  2  0
 19 20  1  0
 19 21  1  0
 22 21  1  1
 22 23  1  0
 23 24  1  0
 23 25  1  0
 25  9  1  0
 22 11  1  0
 20 12  1  0
 20 16  2  0
M  END
>  <supplier_code>  (215) 
DB00353

>  <zinc_id>  (215) 
ZINC000095619105

>  <catalog_short_name>  (215) 
dbfda

$$$$

     RDKit          3D

 28 29  0  0  0  0  0  0  0  0999 V2000
   -4.4401   -1.8734    0.1591 C   0  0  0  0  0  0  0  0  0  0  0  0
   -3.0478   -1.0934    0.6261 C   0  0  1  0  0  0  0  0  0  0  0  0
   -2.3113   -1.3362   -0.9254 C   0  0  2  0  0  0  0  0  0  0  0  0
   -1.1256   -0.3199   -0.5737 N   0  0  0  0  0  0  0  0  0  0  0  0
    0.0733   -1.0775   -0.3446 C   0  0  0  0  0  0  0  0  0  0  0  0
    0.0875   -2.3233   -0.2402 O   0  0  0  0  0  0  0  0  0  0  0  0
    1.2986   -0.4312    0.1533 C   0  0  0  0  0  0  0  0  0  0  0  0
    2.3246   -0.5331   -0.6403 N   0  0  0  0  0  0  0  0  0  0  0  0
    2.1807   -0.3516   -1.9777 O   0  0  0  0  0  0  0  0  0  0  0  0
    2.6596    0.8609   -2.5500 C   0  0  0  0  0  0  0  0  0  0  0  0
    1.4588    1.7596   -2.7543 C   0  0  0  0  0  0  0  0  0  0  0  0
    3.2611    0.4928   -3.8973 C   0  0  0  0  0  0  0  0  0  0  0  0
    3.6489    1.5388   -1.6845 C   0  0  0  0  0  0  0  0  0  0  0  0
    3.8417    2.7777   -1.8760 O   0  0  0  0  0  0  0  0  0  0  0  0
    4.6883    0.8663   -1.0404 O   0  0  0  0  0  0  0  0  0  0  0  0
    1.6137   -0.6081    1.5814 C   0  0  0  0  0  0  0  0  0  0  0  0
    1.0348    0.2073    2.5499 C   0  0  0  0  0  0  0  0  0  0  0  0
    2.0405   -0.1753    3.8904 S   0  0  0  0  0  0  0  0  0  0  0  0
    2.7734   -1.5786    3.2298 C   0  0  0  0  0  0  0  0  0  0  0  0
    3.5520   -2.5868    3.8871 N   0  0  0  0  0  0  0  0  0  0  0  0
    2.0644   -1.7450    2.1052 N   0  0  0  0  0  0  0  0  0  0  0  0
   -3.3191   -0.1392   -1.3585 C   0  0  0  0  0  0  0  0  0  0  0  0
   -4.1480   -0.1775   -2.3226 O   0  0  0  0  0  0  0  0  0  0  0  0
   -3.4954    0.2640   -0.0372 N   0  0  0  0  0  0  0  0  0  0  0  0
   -4.0306    1.6353    0.8065 S   0  0  0  0  0  0  0  0  0  0  0  0
   -2.8708    2.2468    1.5343 O   0  0  0  0  0  0  0  0  0  0  0  0
   -4.5898    2.5965   -0.1813 O   0  0  0  0  0  0  0  0  0  0  0  0
   -5.2234    1.1043    1.8808 O   0  0  0  0  0  0  0  0  0  0  0  0
  2  1  1  6
  2  3  1  0
  3  4  1  1
  4  5  1  0
  5  6  2  0
  5  7  1  0
  7  8  2  0
  8  9  1  0
  9 10  1  0
 10 11  1  0
 10 12  1  0
 10 13  1  0
 13 14  2  0
 13 15  1  0
  7 16  1  0
 16 17  2  0
 17 18  1  0
 18 19  1  0
 19 20  1  0
 19 21  2  0
  3 22  1  0
 22 23  2  0
 22 24  1  0
 24 25  1  0
 25 26  2  0
 25 27  2  0
 25 28  1  0
 24  2  1  0
 21 16  1  0
M  END
>  <supplier_code>  (216) 
DB00355

>  <zinc_id>  (216) 
ZINC000003830264

>  <catalog_short_name>  (216) 
dbfda

$$$$

     RDKit          3D

 11 12  0  0  0  0  0  0  0  0999 V2000
   -3.2201    1.0679   -0.3380 O   0  0  0  0  0  0  0  0  0  0  0  0
   -2.2503    0.3023   -0.0462 C   0  0  0  0  0  0  0  0  0  0  0  0
   -1.5012    0.3021    1.0853 N   0  0  0  0  0  0  0  0  0  0  0  0
   -0.2453    0.0091    0.7045 C   0  0  0  0  0  0  0  0  0  0  0  0
    1.0382    0.3387    1.1222 C   0  0  0  0  0  0  0  0  0  0  0  0
    2.1357    0.1282    0.2943 C   0  0  0  0  0  0  0  0  0  0  0  0
    3.3805    1.3562    0.0764 Cl  0  0  0  0  0  0  0  0  0  0  0  0
    1.9684   -0.8760   -0.6520 C   0  0  0  0  0  0  0  0  0  0  0  0
    0.7197   -1.3735   -0.9484 C   0  0  0  0  0  0  0  0  0  0  0  0
   -0.4280   -0.8052   -0.4069 C   0  0  0  0  0  0  0  0  0  0  0  0
   -1.5976   -0.4497   -0.8914 O   0  0  0  0  0  0  0  0  0  0  0  0
  1  2  2  0
  2  3  1  0
  3  4  1  0
  4  5  2  0
  5  6  1  0
  6  7  1  0
  6  8  2  0
  8  9  1  0
  9 10  2  0
 10 11  1  0
 11  2  1  0
 10  4  1  0
M  END
>  <supplier_code>  (217) 
DB00356

>  <zinc_id>  (217) 
ZINC000084843283

>  <catalog_short_name>  (217) 
dbfda

$$$$

     RDKit          3D

 26 28  0  0  0  0  0  0  0  0999 V2000
    1.8583    0.1027    1.6035 O   0  0  0  0  0  0  0  0  0  0  0  0
    2.1977    0.9100    0.3310 C   0  0  2  0  0  0  0  0  0  0  0  0
    0.6425    0.8855   -0.1845 C   0  0  0  0  0  0  0  0  0  0  0  0
   -0.0805    1.7900    0.5895 C   0  0  0  0  0  0  0  0  0  0  0  0
   -1.4693    1.6949    0.5232 C   0  0  0  0  0  0  0  0  0  0  0  0
   -2.3053    2.8068    1.0705 C   0  0  0  0  0  0  0  0  0  0  0  0
   -1.6990    3.4555    2.1227 F   0  0  0  0  0  0  0  0  0  0  0  0
   -3.5431    2.3358    1.4170 F   0  0  0  0  0  0  0  0  0  0  0  0
   -2.3900    3.7134    0.0234 F   0  0  0  0  0  0  0  0  0  0  0  0
   -1.9296    0.4266    0.3944 N   0  0  0  0  0  0  0  0  0  0  0  0
   -1.2962   -0.4197   -0.4545 C   0  0  0  0  0  0  0  0  0  0  0  0
    0.0886   -0.3377   -0.3532 C   0  0  0  0  0  0  0  0  0  0  0  0
    0.8039   -1.1049   -1.2625 C   0  0  0  0  0  0  0  0  0  0  0  0
    0.1579   -2.1148   -1.9546 C   0  0  0  0  0  0  0  0  0  0  0  0
   -1.0770   -2.5317   -1.4746 C   0  0  0  0  0  0  0  0  0  0  0  0
   -1.8033   -1.6945   -0.6502 C   0  0  0  0  0  0  0  0  0  0  0  0
   -3.0795   -2.1510   -0.0689 C   0  0  0  0  0  0  0  0  0  0  0  0
   -2.8801   -3.3879    0.4947 F   0  0  0  0  0  0  0  0  0  0  0  0
   -3.5762   -1.2527    0.8356 F   0  0  0  0  0  0  0  0  0  0  0  0
   -3.9416   -2.3341   -1.1396 F   0  0  0  0  0  0  0  0  0  0  0  0
    2.6768   -0.5330   -0.5477 C   0  0  1  0  0  0  0  0  0  0  0  0
    3.7654    0.3113   -1.4552 C   0  0  0  0  0  0  0  0  0  0  0  0
    4.5346    1.1725   -0.5097 C   0  0  0  0  0  0  0  0  0  0  0  0
    5.6222    0.2951    0.1130 C   0  0  0  0  0  0  0  0  0  0  0  0
    5.0013   -1.0977   -0.0228 C   0  0  0  0  0  0  0  0  0  0  0  0
    3.7215   -0.9404    0.5597 N   0  0  0  0  0  0  0  0  0  0  0  0
  2  1  1  1
  2  3  1  0
  3  4  2  0
  4  5  1  0
  5  6  1  0
  6  7  1  0
  6  8  1  0
  6  9  1  0
  5 10  2  0
 10 11  1  0
 11 12  2  0
 12 13  1  0
 13 14  2  0
 14 15  1  0
 15 16  2  0
 16 17  1  0
 17 18  1  0
 17 19  1  0
 17 20  1  0
  2 21  1  0
 21 22  1  6
 22 23  1  0
 23 24  1  0
 24 25  1  0
 25 26  1  0
 12  3  1  0
 26 21  1  0
 16 11  1  0
M  END
>  <supplier_code>  (218) 
DB00358

>  <zinc_id>  (218) 
ZINC000000537964

>  <catalog_short_name>  (218) 
dbfda

$$$$

     RDKit          3D

 26 28  0  0  0  0  0  0  0  0999 V2000
    1.7214    0.5418    2.3094 O   0  0  0  0  0  0  0  0  0  0  0  0
    1.9822   -0.4615    1.1645 C   0  0  1  0  0  0  0  0  0  0  0  0
    0.7610    0.0932    0.2255 C   0  0  0  0  0  0  0  0  0  0  0  0
    0.4200    1.3818    0.2894 C   0  0  0  0  0  0  0  0  0  0  0  0
   -0.8455    1.7081   -0.1950 C   0  0  0  0  0  0  0  0  0  0  0  0
   -1.1860    3.0572   -0.6698 C   0  0  0  0  0  0  0  0  0  0  0  0
   -1.7746    2.9499   -1.9261 F   0  0  0  0  0  0  0  0  0  0  0  0
   -2.0997    3.6969    0.1432 F   0  0  0  0  0  0  0  0  0  0  0  0
   -0.0543    3.8284   -0.8389 F   0  0  0  0  0  0  0  0  0  0  0  0
   -1.8352    0.7915   -0.0691 N   0  0  0  0  0  0  0  0  0  0  0  0
   -1.5040   -0.5097   -0.0778 C   0  0  0  0  0  0  0  0  0  0  0  0
   -0.1696   -0.8759   -0.0815 C   0  0  0  0  0  0  0  0  0  0  0  0
    0.2413   -2.1352   -0.4205 C   0  0  0  0  0  0  0  0  0  0  0  0
   -0.7063   -2.9819   -0.9716 C   0  0  0  0  0  0  0  0  0  0  0  0
   -2.0483   -2.7121   -0.7301 C   0  0  0  0  0  0  0  0  0  0  0  0
   -2.4536   -1.5180   -0.1899 C   0  0  0  0  0  0  0  0  0  0  0  0
   -3.8225   -1.2322    0.2857 C   0  0  0  0  0  0  0  0  0  0  0  0
   -4.5394   -2.4172    0.1432 F   0  0  0  0  0  0  0  0  0  0  0  0
   -3.8069   -0.9704    1.6531 F   0  0  0  0  0  0  0  0  0  0  0  0
   -4.3847   -0.2037   -0.4333 F   0  0  0  0  0  0  0  0  0  0  0  0
    3.1410    0.6264    0.4153 C   0  0  1  0  0  0  0  0  0  0  0  0
    4.3534    0.0516    1.3644 C   0  0  0  0  0  0  0  0  0  0  0  0
    4.8181   -1.2556    0.9059 C   0  0  0  0  0  0  0  0  0  0  0  0
    5.6347   -1.0183   -0.3656 C   0  0  0  0  0  0  0  0  0  0  0  0
    4.7634   -0.0477   -1.1605 C   0  0  0  0  0  0  0  0  0  0  0  0
    3.3941   -0.3876   -0.7699 N   0  0  0  0  0  0  0  0  0  0  0  0
  2  1  1  1
  2  3  1  0
  3  4  2  0
  4  5  1  0
  5  6  1  0
  6  7  1  0
  6  8  1  0
  6  9  1  0
  5 10  2  0
 10 11  1  0
 11 12  2  0
 12 13  1  0
 13 14  2  0
 14 15  1  0
 15 16  2  0
 16 17  1  0
 17 18  1  0
 17 19  1  0
 17 20  1  0
  2 21  1  0
 21 22  1  1
 22 23  1  0
 23 24  1  0
 24 25  1  0
 25 26  1  0
 12  3  1  0
 26 21  1  0
 16 11  1  0
M  END
>  <supplier_code>  (219) 
DB00358

>  <zinc_id>  (219) 
ZINC000000897085

>  <catalog_short_name>  (219) 
dbfda

$$$$

     RDKit          3D

 26 28  0  0  0  0  0  0  0  0999 V2000
    2.2533    0.3996   -1.9880 O   0  0  0  0  0  0  0  0  0  0  0  0
    2.1356   -0.4847   -0.7475 C   0  0  2  0  0  0  0  0  0  0  0  0
    0.6959    0.1064   -0.3193 C   0  0  0  0  0  0  0  0  0  0  0  0
    0.2982    1.3226   -0.7248 C   0  0  0  0  0  0  0  0  0  0  0  0
   -1.0227    1.6603   -0.4421 C   0  0  0  0  0  0  0  0  0  0  0  0
   -1.3601    3.0835   -0.1322 C   0  0  0  0  0  0  0  0  0  0  0  0
   -1.9381    3.7047   -1.2017 F   0  0  0  0  0  0  0  0  0  0  0  0
   -2.2262    3.1151    0.9267 F   0  0  0  0  0  0  0  0  0  0  0  0
   -0.2345    3.7966    0.2258 F   0  0  0  0  0  0  0  0  0  0  0  0
   -1.9261    0.6560   -0.3257 N   0  0  0  0  0  0  0  0  0  0  0  0
   -1.5011   -0.5782    0.0475 C   0  0  0  0  0  0  0  0  0  0  0  0
   -0.1462   -0.8316    0.2094 C   0  0  0  0  0  0  0  0  0  0  0  0
    0.3222   -1.7291    1.1295 C   0  0  0  0  0  0  0  0  0  0  0  0
   -0.6285   -2.3789    1.9094 C   0  0  0  0  0  0  0  0  0  0  0  0
   -1.9853   -2.3137    1.6108 C   0  0  0  0  0  0  0  0  0  0  0  0
   -2.4118   -1.4213    0.6489 C   0  0  0  0  0  0  0  0  0  0  0  0
   -3.7236   -1.5651   -0.0553 C   0  0  0  0  0  0  0  0  0  0  0  0
   -3.8523   -0.6804   -1.0797 F   0  0  0  0  0  0  0  0  0  0  0  0
   -4.7780   -1.4278    0.8285 F   0  0  0  0  0  0  0  0  0  0  0  0
   -3.7038   -2.8491   -0.5938 F   0  0  0  0  0  0  0  0  0  0  0  0
    2.9938    0.6479    0.2534 C   0  0  2  0  0  0  0  0  0  0  0  0
    4.2657    0.7573   -0.7693 C   0  0  0  0  0  0  0  0  0  0  0  0
    4.5255   -0.6158   -1.3101 C   0  0  0  0  0  0  0  0  0  0  0  0
    5.3548   -1.3160   -0.2373 C   0  0  0  0  0  0  0  0  0  0  0  0
    5.0021   -0.5388    1.0311 C   0  0  0  0  0  0  0  0  0  0  0  0
    3.5913   -0.5195    1.1056 N   0  0  0  0  0  0  0  0  0  0  0  0
  2  1  1  6
  2  3  1  0
  3  4  2  0
  4  5  1  0
  5  6  1  0
  6  7  1  0
  6  8  1  0
  6  9  1  0
  5 10  2  0
 10 11  1  0
 11 12  2  0
 12 13  1  0
 13 14  2  0
 14 15  1  0
 15 16  2  0
 16 17  1  0
 17 18  1  0
 17 19  1  0
 17 20  1  0
  2 21  1  0
 21 22  1  6
 22 23  1  0
 23 24  1  0
 24 25  1  0
 25 26  1  0
 12  3  1  0
 26 21  1  0
 16 11  1  0
M  END
>  <supplier_code>  (220) 
DB00358

>  <zinc_id>  (220) 
ZINC000000897089

>  <catalog_short_name>  (220) 
dbfda

$$$$

     RDKit          3D

 26 28  0  0  0  0  0  0  0  0999 V2000
    2.5021   -0.2972   -1.3613 O   0  0  0  0  0  0  0  0  0  0  0  0
    2.2130    0.7764   -0.2997 C   0  0  1  0  0  0  0  0  0  0  0  0
    0.8157    0.0789    0.1650 C   0  0  0  0  0  0  0  0  0  0  0  0
    0.7394   -1.2632    0.2090 C   0  0  0  0  0  0  0  0  0  0  0  0
   -0.5341   -1.8289    0.2239 C   0  0  0  0  0  0  0  0  0  0  0  0
   -0.6499   -3.3119    0.0588 C   0  0  0  0  0  0  0  0  0  0  0  0
   -0.1032   -3.8585    1.2193 F   0  0  0  0  0  0  0  0  0  0  0  0
   -1.9826   -3.6591    0.0091 F   0  0  0  0  0  0  0  0  0  0  0  0
    0.0138   -3.7758   -1.0458 F   0  0  0  0  0  0  0  0  0  0  0  0
   -1.6078   -1.0554   -0.0717 N   0  0  0  0  0  0  0  0  0  0  0  0
   -1.5382    0.2907    0.0742 C   0  0  0  0  0  0  0  0  0  0  0  0
   -0.2837    0.8878    0.0687 C   0  0  0  0  0  0  0  0  0  0  0  0
   -0.1820    2.1723    0.5238 C   0  0  0  0  0  0  0  0  0  0  0  0
   -1.3043    2.8409    0.9981 C   0  0  0  0  0  0  0  0  0  0  0  0
   -2.5555    2.2996    0.7255 C   0  0  0  0  0  0  0  0  0  0  0  0
   -2.6819    1.0618    0.1116 C   0  0  0  0  0  0  0  0  0  0  0  0
   -3.9008    0.5858   -0.5560 C   0  0  0  0  0  0  0  0  0  0  0  0
   -4.5955   -0.2516    0.2989 F   0  0  0  0  0  0  0  0  0  0  0  0
   -4.7153    1.6591   -0.8764 F   0  0  0  0  0  0  0  0  0  0  0  0
   -3.6562   -0.1475   -1.6981 F   0  0  0  0  0  0  0  0  0  0  0  0
    3.1309   -0.0855    0.9187 C   0  0  2  0  0  0  0  0  0  0  0  0
    3.5661    1.2615    1.7540 C   0  0  0  0  0  0  0  0  0  0  0  0
    3.6355    2.4135    0.8646 C   0  0  0  0  0  0  0  0  0  0  0  0
    4.6479    2.3435   -0.2389 C   0  0  0  0  0  0  0  0  0  0  0  0
    4.5559    0.9642   -0.7785 C   0  0  0  0  0  0  0  0  0  0  0  0
    4.4707   -0.1014    0.0956 N   0  0  0  0  0  0  0  0  0  0  0  0
  2  1  1  6
  2  3  1  0
  3  4  2  0
  4  5  1  0
  5  6  1  0
  6  7  1  0
  6  8  1  0
  6  9  1  0
  5 10  2  0
 10 11  1  0
 11 12  2  0
 12 13  1  0
 13 14  2  0
 14 15  1  0
 15 16  2  0
 16 17  1  0
 17 18  1  0
 17 19  1  0
 17 20  1  0
  2 21  1  0
 21 22  1  1
 22 23  1  0
 23 24  1  0
 24 25  1  0
 25 26  1  0
 12  3  1  0
 26 21  1  0
 16 11  1  0
M  END
>  <supplier_code>  (221) 
DB00358

>  <zinc_id>  (221) 
ZINC000003874185

>  <catalog_short_name>  (221) 
dbfda

$$$$

     RDKit          3D

 17 18  0  0  0  0  0  0  0  0999 V2000
   -3.9649    2.2176    0.9937 N   0  0  0  0  0  0  0  0  0  0  0  0
   -3.0022    1.2253    0.6343 C   0  0  0  0  0  0  0  0  0  0  0  0
   -2.7937    1.0237   -0.7180 C   0  0  0  0  0  0  0  0  0  0  0  0
   -2.0156   -0.0645   -1.0955 C   0  0  0  0  0  0  0  0  0  0  0  0
   -1.2154   -0.6482   -0.1174 C   0  0  0  0  0  0  0  0  0  0  0  0
   -0.0902   -1.8988   -0.5902 S   0  0  0  0  0  0  0  0  0  0  0  0
   -0.2916   -3.1282    0.2695 O   0  0  0  0  0  0  0  0  0  0  0  0
   -0.3845   -2.3268   -2.0116 O   0  0  0  0  0  0  0  0  0  0  0  0
    1.5416   -1.4400   -0.4162 N   0  0  0  0  0  0  0  0  0  0  0  0
    1.9908   -0.0858   -0.2811 C   0  0  0  0  0  0  0  0  0  0  0  0
    1.9510    0.3905    0.9886 N   0  0  0  0  0  0  0  0  0  0  0  0
    2.5387    1.5804    1.2196 C   0  0  0  0  0  0  0  0  0  0  0  0
    3.3648    2.1313    0.2703 C   0  0  0  0  0  0  0  0  0  0  0  0
    3.7329    1.3851   -0.8429 C   0  0  0  0  0  0  0  0  0  0  0  0
    3.1433    0.1849   -0.9436 N   0  0  0  0  0  0  0  0  0  0  0  0
   -1.8578   -0.8017    1.1064 C   0  0  0  0  0  0  0  0  0  0  0  0
   -2.6470    0.2551    1.5341 C   0  0  0  0  0  0  0  0  0  0  0  0
  1  2  1  0
  2  3  2  0
  3  4  1  0
  4  5  2  0
  5  6  1  0
  6  7  2  0
  6  8  2  0
  6  9  1  0
  9 10  1  0
 10 11  2  0
 11 12  1  0
 12 13  2  0
 13 14  1  0
 14 15  2  0
  5 16  1  0
 16 17  2  0
 17  2  1  0
 15 10  1  0
M  END
>  <supplier_code>  (222) 
DB00359

>  <zinc_id>  (222) 
ZINC000000120319

>  <catalog_short_name>  (222) 
dbfda

$$$$

     RDKit          3D

 17 18  0  0  0  0  0  0  0  0999 V2000
    3.5261    0.8493   -1.1037 C   0  0  0  0  0  0  0  0  0  0  0  0
    3.9051   -0.1206    0.1947 C   0  0  1  0  0  0  0  0  0  0  0  0
    3.7874    1.0828    1.1527 O   0  0  0  0  0  0  0  0  0  0  0  0
    2.2808   -0.6227    0.5849 C   0  0  2  0  0  0  0  0  0  0  0  0
    2.6004   -2.0156    0.0790 O   0  0  0  0  0  0  0  0  0  0  0  0
    1.5875   -0.2119   -0.9456 C   0  0  2  0  0  0  0  0  0  0  0  0
    1.0673    1.2493   -0.3532 C   0  0  0  0  0  0  0  0  0  0  0  0
    0.2984    0.9723    0.8296 N   0  0  0  0  0  0  0  0  0  0  0  0
   -1.0286    0.5021    0.5329 C   0  0  0  0  0  0  0  0  0  0  0  0
   -2.1690    1.0823    0.9076 N   0  0  0  0  0  0  0  0  0  0  0  0
   -3.3247    0.6976    0.2994 C   0  0  0  0  0  0  0  0  0  0  0  0
   -4.3590    1.6691    0.0911 N   0  0  0  0  0  0  0  0  0  0  0  0
   -3.2589   -0.3731   -0.5267 N   0  0  0  0  0  0  0  0  0  0  0  0
   -2.1289   -1.0827   -0.7433 C   0  0  0  0  0  0  0  0  0  0  0  0
   -2.1281   -2.2662   -1.1847 O   0  0  0  0  0  0  0  0  0  0  0  0
   -0.9441   -0.3776   -0.5530 C   0  0  0  0  0  0  0  0  0  0  0  0
    0.2883   -1.0345   -0.5829 N   0  0  0  0  0  0  0  0  0  0  0  0
  2  1  1  6
  2  3  1  0
  2  4  1  0
  4  5  1  6
  4  6  1  0
  6  7  1  1
  7  8  1  0
  8  9  1  0
  9 10  1  0
 10 11  1  0
 11 12  1  0
 11 13  2  0
 13 14  1  0
 14 15  2  0
 14 16  1  0
 16 17  1  0
 17  6  1  0
 16  9  2  0
M  END
>  <supplier_code>  (223) 
DB00360

>  <zinc_id>  (223) 
ZINC000000895154

>  <catalog_short_name>  (223) 
dbfda

$$$$

     RDKit          3D

 17 18  0  0  0  0  0  0  0  0999 V2000
   -4.8745   -0.6880   -0.9096 C   0  0  0  0  0  0  0  0  0  0  0  0
   -3.7560   -0.1978    0.2273 C   0  0  2  0  0  0  0  0  0  0  0  0
   -3.7350    1.2275   -0.3472 O   0  0  0  0  0  0  0  0  0  0  0  0
   -2.4385   -0.6911   -0.8075 C   0  0  2  0  0  0  0  0  0  0  0  0
   -2.7713   -2.1496   -0.6005 O   0  0  0  0  0  0  0  0  0  0  0  0
   -1.3694   -0.6861    0.5586 C   0  0  2  0  0  0  0  0  0  0  0  0
   -1.3291    0.9681    0.5512 C   0  0  0  0  0  0  0  0  0  0  0  0
   -0.1662    1.3226    1.3350 N   0  0  0  0  0  0  0  0  0  0  0  0
    1.0748    0.9854    0.6981 C   0  0  0  0  0  0  0  0  0  0  0  0
    2.2400    1.5644    0.9933 N   0  0  0  0  0  0  0  0  0  0  0  0
    3.4264    0.9658    0.7992 C   0  0  0  0  0  0  0  0  0  0  0  0
    4.5950    1.7784    0.8267 N   0  0  0  0  0  0  0  0  0  0  0  0
    3.4276   -0.1710    0.0858 N   0  0  0  0  0  0  0  0  0  0  0  0
    2.3232   -0.9520    0.0964 C   0  0  0  0  0  0  0  0  0  0  0  0
    2.3362   -2.1670   -0.2025 O   0  0  0  0  0  0  0  0  0  0  0  0
    1.1134   -0.3241    0.2312 C   0  0  0  0  0  0  0  0  0  0  0  0
   -0.0966   -0.7853   -0.3815 N   0  0  0  0  0  0  0  0  0  0  0  0
  2  1  1  6
  2  3  1  0
  2  4  1  0
  4  5  1  1
  4  6  1  0
  6  7  1  6
  7  8  1  0
  8  9  1  0
  9 10  1  0
 10 11  1  0
 11 12  1  0
 11 13  2  0
 13 14  1  0
 14 15  2  0
 14 16  1  0
 16 17  1  0
 17  6  1  0
 16  9  2  0
M  END
>  <supplier_code>  (224) 
DB00360

>  <zinc_id>  (224) 
ZINC000002539827

>  <catalog_short_name>  (224) 
dbfda

$$$$

     RDKit          3D

 17 18  0  0  0  0  0  0  0  0999 V2000
    3.9027    1.2739   -0.7501 C   0  0  0  0  0  0  0  0  0  0  0  0
    2.3668    0.8051   -0.4007 C   0  0  2  0  0  0  0  0  0  0  0  0
    2.3728    1.6084    0.8752 O   0  0  0  0  0  0  0  0  0  0  0  0
    2.9478   -0.6785    0.2403 C   0  0  1  0  0  0  0  0  0  0  0  0
    2.7332   -0.4040    1.6941 O   0  0  0  0  0  0  0  0  0  0  0  0
    1.4499   -1.5023    0.1226 C   0  0  2  0  0  0  0  0  0  0  0  0
    1.2291   -1.0765   -1.4337 C   0  0  0  0  0  0  0  0  0  0  0  0
   -0.1672   -1.2718   -1.7301 N   0  0  0  0  0  0  0  0  0  0  0  0
   -1.2068   -0.7284   -0.9071 C   0  0  0  0  0  0  0  0  0  0  0  0
   -2.2906   -0.1022   -1.4316 N   0  0  0  0  0  0  0  0  0  0  0  0
   -3.0905    0.6559   -0.6386 C   0  0  0  0  0  0  0  0  0  0  0  0
   -3.6720    1.8715   -1.1301 N   0  0  0  0  0  0  0  0  0  0  0  0
   -2.9530    0.4308    0.6914 N   0  0  0  0  0  0  0  0  0  0  0  0
   -1.8139   -0.0244    1.2443 C   0  0  0  0  0  0  0  0  0  0  0  0
   -1.5540   -0.0025    2.4619 O   0  0  0  0  0  0  0  0  0  0  0  0
   -0.8237   -0.5171    0.4139 C   0  0  0  0  0  0  0  0  0  0  0  0
    0.5692   -0.3380    0.6782 N   0  0  0  0  0  0  0  0  0  0  0  0
  2  1  1  6
  2  3  1  0
  2  4  1  0
  4  5  1  1
  4  6  1  0
  6  7  1  6
  7  8  1  0
  8  9  1  0
  9 10  1  0
 10 11  2  0
 11 12  1  0
 11 13  1  0
 13 14  1  0
 14 15  2  0
 14 16  1  0
 16 17  1  0
 17  6  1  0
 16  9  2  0
M  END
>  <supplier_code>  (225) 
DB00360

>  <zinc_id>  (225) 
ZINC000004228257

>  <catalog_short_name>  (225) 
dbfda

$$$$

     RDKit          3D

 17 18  0  0  0  0  0  0  0  0999 V2000
   -3.6828   -1.2216    0.1517 C   0  0  0  0  0  0  0  0  0  0  0  0
   -3.5816    0.1302   -0.7759 C   0  0  1  0  0  0  0  0  0  0  0  0
   -4.8105    0.7454   -0.1471 O   0  0  0  0  0  0  0  0  0  0  0  0
   -2.5171    1.0051    0.2561 C   0  0  1  0  0  0  0  0  0  0  0  0
   -3.1581    0.6092    1.5490 O   0  0  0  0  0  0  0  0  0  0  0  0
   -1.4068   -0.2828    0.3548 C   0  0  2  0  0  0  0  0  0  0  0  0
   -0.6877    0.3774    1.6604 C   0  0  0  0  0  0  0  0  0  0  0  0
    0.4357   -0.5298    1.8433 N   0  0  0  0  0  0  0  0  0  0  0  0
    1.3376   -0.5707    0.7496 C   0  0  0  0  0  0  0  0  0  0  0  0
    2.6601   -0.8159    0.8952 N   0  0  0  0  0  0  0  0  0  0  0  0
    3.5121   -0.6818   -0.1438 C   0  0  0  0  0  0  0  0  0  0  0  0
    4.6601   -1.5247   -0.2258 N   0  0  0  0  0  0  0  0  0  0  0  0
    3.2055    0.2350   -1.0946 N   0  0  0  0  0  0  0  0  0  0  0  0
    1.9047    0.5359   -1.3264 C   0  0  0  0  0  0  0  0  0  0  0  0
    1.6022    1.5377   -2.0471 O   0  0  0  0  0  0  0  0  0  0  0  0
    0.9485    0.0379   -0.4396 C   0  0  0  0  0  0  0  0  0  0  0  0
   -0.4221    0.4136   -0.6360 N   0  0  0  0  0  0  0  0  0  0  0  0
  2  1  1  1
  2  3  1  0
  2  4  1  0
  4  5  1  1
  4  6  1  0
  6  7  1  1
  7  8  1  0
  8  9  1  0
  9 10  1  0
 10 11  1  0
 11 12  1  0
 11 13  2  0
 13 14  1  0
 14 15  2  0
 14 16  1  0
 16 17  1  0
 17  6  1  0
 16  9  2  0
M  END
>  <supplier_code>  (226) 
DB00360

>  <zinc_id>  (226) 
ZINC000004228258

>  <catalog_short_name>  (226) 
dbfda

$$$$

     RDKit          3D

 17 18  0  0  0  0  0  0  0  0999 V2000
    4.1876    1.3525    0.2593 C   0  0  0  0  0  0  0  0  0  0  0  0
    2.7108    0.7442    0.6567 C   0  0  2  0  0  0  0  0  0  0  0  0
    3.3287   -0.2646    1.6008 O   0  0  0  0  0  0  0  0  0  0  0  0
    2.6904   -0.4376   -0.5910 C   0  0  2  0  0  0  0  0  0  0  0  0
    3.0389    0.5522   -1.6609 O   0  0  0  0  0  0  0  0  0  0  0  0
    1.0328   -0.2062   -0.9297 C   0  0  1  0  0  0  0  0  0  0  0  0
    0.8128   -1.7962   -1.2350 C   0  0  0  0  0  0  0  0  0  0  0  0
   -0.6514   -1.8319   -1.2768 N   0  0  0  0  0  0  0  0  0  0  0  0
   -1.4783   -1.0087   -0.4814 C   0  0  0  0  0  0  0  0  0  0  0  0
   -2.7189   -0.5725   -0.7755 N   0  0  0  0  0  0  0  0  0  0  0  0
   -3.1859    0.6289   -0.3472 C   0  0  0  0  0  0  0  0  0  0  0  0
   -3.7523    1.6163   -1.1986 N   0  0  0  0  0  0  0  0  0  0  0  0
   -2.8816    0.8419    0.9578 N   0  0  0  0  0  0  0  0  0  0  0  0
   -1.6734    0.3855    1.3841 C   0  0  0  0  0  0  0  0  0  0  0  0
   -1.1131    0.8685    2.4158 O   0  0  0  0  0  0  0  0  0  0  0  0
   -0.8880   -0.4968    0.6687 C   0  0  0  0  0  0  0  0  0  0  0  0
    0.5411   -0.3755    0.5530 N   0  0  0  0  0  0  0  0  0  0  0  0
  2  1  1  6
  2  3  1  0
  2  4  1  0
  4  5  1  6
  4  6  1  0
  6  7  1  6
  7  8  1  0
  8  9  1  0
  9 10  1  0
 10 11  2  0
 11 12  1  0
 11 13  1  0
 13 14  1  0
 14 15  2  0
 14 16  1  0
 16 17  1  0
 17  6  1  0
 16  9  2  0
M  END
>  <supplier_code>  (227) 
DB00360

>  <zinc_id>  (227) 
ZINC000013585233

>  <catalog_short_name>  (227) 
dbfda

$$$$

     RDKit          3D

 57 65  0  0  0  0  0  0  0  0999 V2000
   -5.1950    5.5642    0.6055 C   0  0  0  0  0  0  0  0  0  0  0  0
   -4.9740    4.4548    0.8717 C   0  0  0  0  0  0  0  0  0  0  0  0
   -4.8234    3.4157   -0.1617 C   0  0  0  0  0  0  0  0  0  0  0  0
   -3.8258    2.5201   -0.1553 C   0  0  0  0  0  0  0  0  0  0  0  0
   -3.5713    2.0456   -1.6721 C   0  0  2  0  0  0  0  0  0  0  0  0
   -4.8406    1.0206   -1.7142 C   0  0  0  0  0  0  0  0  0  0  0  0
   -5.9017    1.4994   -0.9240 N   0  0  0  0  0  0  0  0  0  0  0  0
   -6.0708    2.8864   -0.7962 C   0  0  0  0  0  0  0  0  0  0  0  0
   -5.8821    0.7428    0.3291 C   0  0  0  0  0  0  0  0  0  0  0  0
   -5.0100   -0.4727    0.1989 C   0  0  0  0  0  0  0  0  0  0  0  0
   -5.7468   -1.6442    0.1209 C   0  0  0  0  0  0  0  0  0  0  0  0
   -6.7339   -2.1483    0.9617 C   0  0  0  0  0  0  0  0  0  0  0  0
   -6.9360   -3.5272    0.9486 C   0  0  0  0  0  0  0  0  0  0  0  0
   -6.3601   -4.3048   -0.0545 C   0  0  0  0  0  0  0  0  0  0  0  0
   -5.4716   -3.7504   -0.9650 C   0  0  0  0  0  0  0  0  0  0  0  0
   -5.0792   -2.4339   -0.8019 C   0  0  0  0  0  0  0  0  0  0  0  0
   -3.8873   -1.8279   -1.0353 N   0  0  0  0  0  0  0  0  0  0  0  0
   -3.7019   -0.8152   -0.1483 C   0  0  0  0  0  0  0  0  0  0  0  0
   -2.5688    0.1016   -0.1787 C   0  0  1  0  0  0  0  0  0  0  0  0
   -2.4597    0.7468    1.1777 C   0  0  0  0  0  0  0  0  0  0  0  0
   -3.0497    0.2032    2.1631 O   0  0  0  0  0  0  0  0  0  0  0  0
   -1.4084    1.6181    1.4940 O   0  0  0  0  0  0  0  0  0  0  0  0
   -1.1310    2.0836    2.7885 C   0  0  0  0  0  0  0  0  0  0  0  0
   -1.2297   -0.5941   -0.2179 C   0  0  0  0  0  0  0  0  0  0  0  0
   -0.0515    0.1458   -0.0546 C   0  0  0  0  0  0  0  0  0  0  0  0
    1.1941   -0.4760    0.0213 C   0  0  0  0  0  0  0  0  0  0  0  0
    1.2054   -1.6359   -0.7709 C   0  0  0  0  0  0  0  0  0  0  0  0
    0.0220   -2.3832   -0.9266 C   0  0  0  0  0  0  0  0  0  0  0  0
   -1.1590   -1.9860   -0.3028 C   0  0  0  0  0  0  0  0  0  0  0  0
   -1.8593   -2.6299    0.6703 O   0  0  0  0  0  0  0  0  0  0  0  0
   -1.4058   -3.4815    1.6742 C   0  0  0  0  0  0  0  0  0  0  0  0
    2.5059   -1.8239   -1.2360 N   0  0  0  0  0  0  0  0  0  0  0  0
    2.9996   -3.1153   -1.7151 C   0  0  0  0  0  0  0  0  0  0  0  0
    3.5190   -1.1180   -0.2622 C   0  0  2  0  0  0  0  0  0  0  0  0
    2.3626   -0.6660    0.7690 C   0  0  2  0  0  0  0  0  0  0  0  0
    2.2017   -1.7603    1.7747 C   0  0  0  0  0  0  0  0  0  0  0  0
    3.4572   -1.5562    2.5108 C   0  0  0  0  0  0  0  0  0  0  0  0
    3.3369   -0.2306    2.8984 N   0  0  0  0  0  0  0  0  0  0  0  0
    4.5417    0.3189    3.4030 C   0  0  0  0  0  0  0  0  0  0  0  0
    5.6443   -0.3760    2.6378 C   0  0  0  0  0  0  0  0  0  0  0  0
    5.3501   -0.2270    1.3302 C   0  0  0  0  0  0  0  0  0  0  0  0
    4.4111    0.6771    1.0691 C   0  0  2  0  0  0  0  0  0  0  0  0
    4.7454    1.9730    1.8422 C   0  0  0  0  0  0  0  0  0  0  0  0
    3.6247    2.9894    1.6486 C   0  0  0  0  0  0  0  0  0  0  0  0
    2.8919    0.5863    1.6217 C   0  0  1  0  0  0  0  0  0  0  0  0
    4.2984    1.3959   -0.3726 C   0  0  1  0  0  0  0  0  0  0  0  0
    5.7622    1.0092   -0.7145 O   0  0  0  0  0  0  0  0  0  0  0  0
    6.6283    2.0582   -0.3951 C   0  0  0  0  0  0  0  0  0  0  0  0
    8.0648    1.8176   -0.0388 C   0  0  0  0  0  0  0  0  0  0  0  0
    6.3547    3.2536   -0.7260 O   0  0  0  0  0  0  0  0  0  0  0  0
    3.6077    0.1866   -1.2124 C   0  0  2  0  0  0  0  0  0  0  0  0
    2.4725    0.5737   -1.7505 O   0  0  0  0  0  0  0  0  0  0  0  0
    4.5153   -0.2224   -2.2921 C   0  0  0  0  0  0  0  0  0  0  0  0
    4.8156    0.7196   -3.0911 O   0  0  0  0  0  0  0  0  0  0  0  0
    5.5434   -1.1391   -2.0461 O   0  0  0  0  0  0  0  0  0  0  0  0
    6.7206   -1.1852   -2.8461 C   0  0  0  0  0  0  0  0  0  0  0  0
   -2.4627    0.9231   -1.3274 C   0  0  0  0  0  0  0  0  0  0  0  0
  1  2  1  0
  2  3  1  0
  3  4  2  0
  5  4  1  1
  5  6  1  0
  6  7  1  0
  7  8  1  0
  7  9  1  0
  9 10  1  0
 10 11  1  0
 11 12  2  0
 12 13  1  0
 13 14  2  0
 14 15  1  0
 15 16  2  0
 16 17  1  0
 17 18  1  0
 18 19  1  0
 19 20  1  1
 20 21  2  0
 20 22  1  0
 22 23  1  0
 19 24  1  0
 24 25  2  0
 25 26  1  0
 26 27  2  0
 27 28  1  0
 28 29  2  0
 29 30  1  0
 30 31  1  0
 27 32  1  0
 32 33  1  0
 34 32  1  6
 34 35  1  0
 35 36  1  1
 36 37  1  0
 37 38  1  0
 38 39  1  0
 39 40  1  0
 40 41  2  0
 41 42  1  0
 42 43  1  1
 43 44  1  0
 42 45  1  0
 42 46  1  0
 46 47  1  6
 47 48  1  0
 48 49  1  0
 48 50  2  0
 46 51  1  0
 51 52  1  6
 51 53  1  0
 53 54  2  0
 53 55  1  0
 55 56  1  0
 19 57  1  0
  8  3  1  0
 18 10  2  0
 29 24  1  0
 51 34  1  0
 57  5  1  0
 16 11  1  0
 35 26  1  0
 45 38  1  1
 45 35  1  0
M  END
>  <supplier_code>  (228) 
DB00361

>  <zinc_id>  (228) 
ZINC000087496429

>  <catalog_short_name>  (228) 
dbfda

$$$$

     RDKit          3D

 23 26  0  0  0  0  0  0  0  0999 V2000
    5.3837    1.7389    0.6295 C   0  0  0  0  0  0  0  0  0  0  0  0
    4.6225    0.6548    0.0923 N   0  0  0  0  0  0  0  0  0  0  0  0
    4.0219    0.8740   -1.1678 C   0  0  0  0  0  0  0  0  0  0  0  0
    2.5260    0.9004   -1.1873 C   0  0  0  0  0  0  0  0  0  0  0  0
    1.9358   -0.0541   -0.2537 N   0  0  0  0  0  0  0  0  0  0  0  0
    0.5139   -0.2028   -0.3466 C   0  0  0  0  0  0  0  0  0  0  0  0
   -0.1137    0.9191   -0.1512 N   0  0  0  0  0  0  0  0  0  0  0  0
   -1.5163    1.1767   -0.2940 C   0  0  0  0  0  0  0  0  0  0  0  0
   -1.8693    2.4574    0.0967 C   0  0  0  0  0  0  0  0  0  0  0  0
   -3.2208    2.7617    0.1906 C   0  0  0  0  0  0  0  0  0  0  0  0
   -3.8014    4.0471    1.2264 Cl  0  0  0  0  0  0  0  0  0  0  0  0
   -4.0633    2.0187   -0.6222 C   0  0  0  0  0  0  0  0  0  0  0  0
   -3.7236    0.7286   -1.0034 C   0  0  0  0  0  0  0  0  0  0  0  0
   -2.4766    0.2345   -0.6413 C   0  0  0  0  0  0  0  0  0  0  0  0
   -2.4430   -1.1918   -0.5522 N   0  0  0  0  0  0  0  0  0  0  0  0
   -1.3238   -1.9566   -0.0908 C   0  0  0  0  0  0  0  0  0  0  0  0
   -1.7219   -3.1636    0.4712 C   0  0  0  0  0  0  0  0  0  0  0  0
   -0.7049   -4.0079    0.8610 C   0  0  0  0  0  0  0  0  0  0  0  0
    0.5934   -3.7822    0.4316 C   0  0  0  0  0  0  0  0  0  0  0  0
    0.9806   -2.4746    0.1790 C   0  0  0  0  0  0  0  0  0  0  0  0
   -0.0089   -1.5225    0.0256 C   0  0  0  0  0  0  0  0  0  0  0  0
    2.4650    0.0034    1.1063 C   0  0  0  0  0  0  0  0  0  0  0  0
    3.9446   -0.1593    1.0246 C   0  0  0  0  0  0  0  0  0  0  0  0
  1  2  1  0
  2  3  1  0
  3  4  1  0
  4  5  1  0
  5  6  1  0
  6  7  2  0
  7  8  1  0
  8  9  2  0
  9 10  1  0
 10 11  1  0
 10 12  2  0
 12 13  1  0
 13 14  2  0
 14 15  1  0
 15 16  1  0
 16 17  2  0
 17 18  1  0
 18 19  2  0
 19 20  1  0
 20 21  2  0
  5 22  1  0
 22 23  1  0
 23  2  1  0
 21  6  1  0
 14  8  1  0
 21 16  1  0
M  END
>  <supplier_code>  (229) 
DB00363

>  <zinc_id>  (229) 
ZINC000019796155

>  <catalog_short_name>  (229) 
dbfda

$$$$

     RDKit          3D

 20 21  0  0  0  0  0  0  0  0999 V2000
    4.5108   -0.0437    0.3128 C   0  0  0  0  0  0  0  0  0  0  0  0
    4.0666    1.3292    0.3436 N   0  0  0  0  0  0  0  0  0  0  0  0
    4.1155    1.9448   -0.9764 C   0  0  0  0  0  0  0  0  0  0  0  0
    2.6952    1.3836    0.8264 C   0  0  0  0  0  0  0  0  0  0  0  0
    1.9152    0.1421    0.4894 C   0  0  0  0  0  0  0  0  0  0  0  0
    0.5709    0.4121    0.7477 O   0  0  0  0  0  0  0  0  0  0  0  0
   -0.2292    0.0242   -0.3156 C   0  0  1  0  0  0  0  0  0  0  0  0
    0.5660    0.2056   -1.5823 C   0  0  0  0  0  0  0  0  0  0  0  0
   -0.6012   -1.3971   -0.1594 C   0  0  0  0  0  0  0  0  0  0  0  0
   -1.2611   -1.7971    0.9924 C   0  0  0  0  0  0  0  0  0  0  0  0
   -1.1652   -3.1305    1.3679 C   0  0  0  0  0  0  0  0  0  0  0  0
   -0.4934   -4.0475    0.5824 C   0  0  0  0  0  0  0  0  0  0  0  0
   -0.1943   -3.6917   -0.7204 C   0  0  0  0  0  0  0  0  0  0  0  0
   -0.1429   -2.3558   -1.0368 C   0  0  0  0  0  0  0  0  0  0  0  0
   -1.4204    0.8954   -0.3709 C   0  0  0  0  0  0  0  0  0  0  0  0
   -2.3811    0.7082    0.6128 C   0  0  0  0  0  0  0  0  0  0  0  0
   -3.2771    1.7354    0.8728 C   0  0  0  0  0  0  0  0  0  0  0  0
   -3.3917    2.7787   -0.0252 C   0  0  0  0  0  0  0  0  0  0  0  0
   -2.4695    2.8612   -1.0589 C   0  0  0  0  0  0  0  0  0  0  0  0
   -1.4132    2.0428   -1.0839 N   0  0  0  0  0  0  0  0  0  0  0  0
  1  2  1  0
  2  3  1  0
  2  4  1  0
  4  5  1  0
  5  6  1  0
  7  6  1  1
  7  8  1  0
  7  9  1  0
  9 10  2  0
 10 11  1  0
 11 12  2  0
 12 13  1  0
 13 14  2  0
  7 15  1  0
 15 16  2  0
 16 17  1  0
 17 18  2  0
 18 19  1  0
 19 20  2  0
 14  9  1  0
 20 15  1  0
M  END
>  <supplier_code>  (230) 
DB00366

>  <zinc_id>  (230) 
ZINC000000000242

>  <catalog_short_name>  (230) 
dbfda

$$$$

     RDKit          3D

 20 21  0  0  0  0  0  0  0  0999 V2000
    4.1660   -0.6587    1.5252 C   0  0  0  0  0  0  0  0  0  0  0  0
    4.0148   -1.0542    0.1466 N   0  0  0  0  0  0  0  0  0  0  0  0
    3.8985    0.0964   -0.7316 C   0  0  0  0  0  0  0  0  0  0  0  0
    2.8623   -1.9024   -0.0261 C   0  0  0  0  0  0  0  0  0  0  0  0
    1.7890   -1.2149   -0.8362 C   0  0  0  0  0  0  0  0  0  0  0  0
    0.6702   -0.9848   -0.0207 O   0  0  0  0  0  0  0  0  0  0  0  0
   -0.2345   -0.2640   -0.7912 C   0  0  2  0  0  0  0  0  0  0  0  0
   -0.0614   -0.5933   -2.2486 C   0  0  0  0  0  0  0  0  0  0  0  0
   -0.1426    1.1936   -0.5414 C   0  0  0  0  0  0  0  0  0  0  0  0
    0.5529    1.6267    0.5524 C   0  0  0  0  0  0  0  0  0  0  0  0
    0.2495    2.8158    1.1981 C   0  0  0  0  0  0  0  0  0  0  0  0
   -0.6548    3.6507    0.5641 C   0  0  0  0  0  0  0  0  0  0  0  0
   -1.1758    3.3000   -0.6683 C   0  0  0  0  0  0  0  0  0  0  0  0
   -1.0822    2.0000   -1.1468 C   0  0  0  0  0  0  0  0  0  0  0  0
   -1.6010   -0.6790   -0.3556 C   0  0  0  0  0  0  0  0  0  0  0  0
   -2.1116   -0.0932    0.7943 C   0  0  0  0  0  0  0  0  0  0  0  0
   -2.8599   -0.7788    1.7196 C   0  0  0  0  0  0  0  0  0  0  0  0
   -3.1975   -2.0778    1.4236 C   0  0  0  0  0  0  0  0  0  0  0  0
   -3.0018   -2.4926    0.1154 C   0  0  0  0  0  0  0  0  0  0  0  0
   -2.0803   -1.8893   -0.6729 N   0  0  0  0  0  0  0  0  0  0  0  0
  1  2  1  0
  2  3  1  0
  2  4  1  0
  4  5  1  0
  5  6  1  0
  7  6  1  1
  7  8  1  0
  7  9  1  0
  9 10  2  0
 10 11  1  0
 11 12  2  0
 12 13  1  0
 13 14  2  0
  7 15  1  0
 15 16  2  0
 16 17  1  0
 17 18  2  0
 18 19  1  0
 19 20  2  0
 14  9  1  0
 20 15  1  0
M  END
>  <supplier_code>  (231) 
DB00366

>  <zinc_id>  (231) 
ZINC000007997952

>  <catalog_short_name>  (231) 
dbfda

$$$$

     RDKit          3D

 23 26  0  0  0  0  0  0  0  0999 V2000
   -4.0646   -1.2181   -2.5396 C   0  0  0  0  0  0  0  0  0  0  0  0
   -3.6760   -0.8598   -1.5382 C   0  0  0  0  0  0  0  0  0  0  0  0
   -3.4855   -0.3160   -0.1977 C   0  0  2  0  0  0  0  0  0  0  0  0
   -4.3204   -0.9386    0.7377 O   0  0  0  0  0  0  0  0  0  0  0  0
   -3.7006    1.1927   -0.1844 C   0  0  0  0  0  0  0  0  0  0  0  0
   -2.3122    1.8210   -0.1731 C   0  0  0  0  0  0  0  0  0  0  0  0
   -1.4549    0.5907   -0.8443 C   0  0  1  0  0  0  0  0  0  0  0  0
   -0.0816    0.9036    0.1258 C   0  0  2  0  0  0  0  0  0  0  0  0
    0.5060    1.9571   -0.9553 C   0  0  0  0  0  0  0  0  0  0  0  0
    1.9429    2.2391   -0.5452 C   0  0  0  0  0  0  0  0  0  0  0  0
    2.7106    0.9662   -0.4994 C   0  0  0  0  0  0  0  0  0  0  0  0
    4.0159    1.0794   -0.3046 C   0  0  0  0  0  0  0  0  0  0  0  0
    4.8826   -0.0087    0.0887 C   0  0  0  0  0  0  0  0  0  0  0  0
    6.0472   -0.1618   -0.3935 O   0  0  0  0  0  0  0  0  0  0  0  0
    4.2172   -1.2825    0.5091 C   0  0  0  0  0  0  0  0  0  0  0  0
    2.9242   -1.3623   -0.2557 C   0  0  0  0  0  0  0  0  0  0  0  0
    2.0682   -0.1549    0.4767 C   0  0  2  0  0  0  0  0  0  0  0  0
    0.7416   -0.3936   -0.5818 C   0  0  1  0  0  0  0  0  0  0  0  0
    0.0792   -1.4731    0.4248 C   0  0  0  0  0  0  0  0  0  0  0  0
   -1.3544   -1.6713    0.0211 C   0  0  0  0  0  0  0  0  0  0  0  0
   -2.0872   -0.4331    0.2714 C   0  0  2  0  0  0  0  0  0  0  0  0
   -1.9473    0.2192    1.5940 C   0  0  0  0  0  0  0  0  0  0  0  0
   -1.6508   -0.6950    2.7365 C   0  0  0  0  0  0  0  0  0  0  0  0
  1  2  3  0
  3  2  1  6
  3  4  1  0
  3  5  1  0
  5  6  1  0
  7  6  1  1
  7  8  1  0
  8  9  1  6
  9 10  1  0
 10 11  1  0
 11 12  2  0
 12 13  1  0
 13 14  2  0
 13 15  1  0
 15 16  1  0
 17 16  1  6
 17 18  1  0
 18 19  1  1
 19 20  1  0
 20 21  1  0
 21 22  1  1
 22 23  1  0
 21  3  1  0
 21  7  1  0
 18  8  1  0
 17 11  1  0
M  END
>  <supplier_code>  (232) 
DB00367

>  <zinc_id>  (232) 
ZINC000003814395

>  <catalog_short_name>  (232) 
dbfda

$$$$

     RDKit          3D

 12 12  0  0  0  0  0  0  0  0999 V2000
    2.7148    1.2441    1.4550 N   0  0  0  0  0  0  0  0  0  0  0  0
    2.5122    0.9579    0.4123 C   0  0  0  0  0  0  0  0  0  0  0  0
    1.8951   -0.5904    0.6890 C   0  0  2  0  0  0  0  0  0  0  0  0
    2.8259   -1.1897   -0.4003 O   0  0  0  0  0  0  0  0  0  0  0  0
    0.6783   -0.3745   -0.4190 C   0  0  0  0  0  0  0  0  0  0  0  0
   -0.0858   -1.5387   -0.4278 C   0  0  0  0  0  0  0  0  0  0  0  0
   -1.4687   -1.5262   -0.3587 C   0  0  0  0  0  0  0  0  0  0  0  0
   -2.1447   -0.3291   -0.1687 C   0  0  0  0  0  0  0  0  0  0  0  0
   -3.4029   -0.2517    0.3951 O   0  0  0  0  0  0  0  0  0  0  0  0
   -1.3977    0.8132   -0.4261 C   0  0  0  0  0  0  0  0  0  0  0  0
   -2.0819    2.0105   -0.5811 O   0  0  0  0  0  0  0  0  0  0  0  0
   -0.0445    0.7746   -0.1696 C   0  0  0  0  0  0  0  0  0  0  0  0
  1  2  1  0
  3  2  1  6
  3  4  1  0
  3  5  1  0
  5  6  2  0
  6  7  1  0
  7  8  2  0
  8  9  1  0
  8 10  1  0
 10 11  1  0
 10 12  2  0
 12  5  1  0
M  END
>  <supplier_code>  (233) 
DB00368

>  <zinc_id>  (233) 
ZINC000000057624

>  <catalog_short_name>  (233) 
dbfda

$$$$

     RDKit          3D

 18 18  0  0  0  0  0  0  0  0999 V2000
   -4.3754    1.2575    2.0485 N   0  0  0  0  0  0  0  0  0  0  0  0
   -3.2467    0.8866    1.4429 C   0  0  0  0  0  0  0  0  0  0  0  0
   -2.6481    1.7733    0.5545 C   0  0  0  0  0  0  0  0  0  0  0  0
   -1.6085    1.3072   -0.2414 C   0  0  0  0  0  0  0  0  0  0  0  0
   -1.5827   -0.0285   -0.4684 N   0  0  0  0  0  0  0  0  0  0  0  0
   -0.8601   -0.5390   -1.6083 C   0  0  0  0  0  0  0  0  0  0  0  0
    0.5119   -1.1363   -0.8434 C   0  0  1  0  0  0  0  0  0  0  0  0
    1.3531   -1.1407   -2.2994 C   0  0  0  0  0  0  0  0  0  0  0  0
    0.7710   -2.2333   -2.9138 O   0  0  0  0  0  0  0  0  0  0  0  0
    0.9993    0.2918   -0.4978 O   0  0  0  0  0  0  0  0  0  0  0  0
    2.3368    0.2917   -0.7865 C   0  0  0  0  0  0  0  0  0  0  0  0
    3.4784    0.5550    0.5362 P   0  0  0  0  0  0  0  0  0  0  0  0
    4.5282   -0.5475    0.5714 O   0  0  0  0  0  0  0  0  0  0  0  0
    2.8045    0.6354    2.0676 O   0  0  0  0  0  0  0  0  0  0  0  0
    4.2788    2.0317    0.2557 O   0  0  0  0  0  0  0  0  0  0  0  0
   -2.1599   -0.9118    0.3606 C   0  0  0  0  0  0  0  0  0  0  0  0
   -1.7305   -2.0935    0.4180 O   0  0  0  0  0  0  0  0  0  0  0  0
   -2.8501   -0.3996    1.4037 N   0  0  0  0  0  0  0  0  0  0  0  0
  1  2  1  0
  2  3  1  0
  3  4  2  0
  4  5  1  0
  5  6  1  0
  7  6  1  6
  7  8  1  0
  8  9  1  0
  7 10  1  0
 10 11  1  0
 11 12  1  0
 12 13  2  0
 12 14  1  0
 12 15  1  0
  5 16  1  0
 16 17  2  0
 16 18  1  0
 18  2  2  0
M  END
>  <supplier_code>  (234) 
DB00369

>  <zinc_id>  (234) 
ZINC000001530600

>  <catalog_short_name>  (234) 
dbfda

$$$$

     RDKit          3D

 20 23  0  0  0  0  0  0  0  0999 V2000
   -1.9285    3.4796    0.0428 C   0  0  0  0  0  0  0  0  0  0  0  0
   -1.5588    3.0244   -0.2281 N   0  0  0  0  0  0  0  0  0  0  0  0
   -0.1390    3.2271    0.0399 C   0  0  0  0  0  0  0  0  0  0  0  0
    0.7331    2.2712   -0.7204 C   0  0  0  0  0  0  0  0  0  0  0  0
    0.3796    0.8796   -0.4515 N   0  0  0  0  0  0  0  0  0  0  0  0
    1.5749    0.1736   -0.1089 C   0  0  0  0  0  0  0  0  0  0  0  0
    2.6243    0.7682   -0.7140 N   0  0  0  0  0  0  0  0  0  0  0  0
    3.8035    0.1751   -0.9113 C   0  0  0  0  0  0  0  0  0  0  0  0
    4.0073   -1.1162   -0.4504 C   0  0  0  0  0  0  0  0  0  0  0  0
    2.9885   -1.7038    0.2615 C   0  0  0  0  0  0  0  0  0  0  0  0
    1.7297   -1.1256    0.3277 C   0  0  0  0  0  0  0  0  0  0  0  0
    0.7287   -2.0078    0.9515 C   0  0  0  0  0  0  0  0  0  0  0  0
   -0.6468   -1.7833    0.4571 C   0  0  0  0  0  0  0  0  0  0  0  0
   -1.4148   -2.8881    0.8045 C   0  0  0  0  0  0  0  0  0  0  0  0
   -2.7803   -2.8055    1.0144 C   0  0  0  0  0  0  0  0  0  0  0  0
   -3.4353   -1.7326    0.4441 C   0  0  0  0  0  0  0  0  0  0  0  0
   -2.6892   -0.6257    0.1214 C   0  0  0  0  0  0  0  0  0  0  0  0
   -1.3039   -0.6426    0.0041 C   0  0  0  0  0  0  0  0  0  0  0  0
   -0.8417    0.8174    0.5650 C   0  0  2  0  0  0  0  0  0  0  0  0
   -1.8313    1.6149   -0.5041 C   0  0  0  0  0  0  0  0  0  0  0  0
  1  2  1  0
  2  3  1  0
  3  4  1  0
  4  5  1  0
  5  6  1  0
  6  7  2  0
  7  8  1  0
  8  9  2  0
  9 10  1  0
 10 11  2  0
 11 12  1  0
 12 13  1  0
 13 14  2  0
 14 15  1  0
 15 16  2  0
 16 17  1  0
 17 18  2  0
 19 18  1  6
 19 20  1  0
 20  2  1  0
 19  5  1  0
 11  6  1  0
 18 13  1  0
M  END
>  <supplier_code>  (235) 
DB00370

>  <zinc_id>  (235) 
ZINC000000000509

>  <catalog_short_name>  (235) 
dbfda

$$$$

     RDKit          3D

 20 23  0  0  0  0  0  0  0  0999 V2000
   -2.6393   -2.3608    1.4210 C   0  0  0  0  0  0  0  0  0  0  0  0
   -2.5746   -2.2028    0.0447 N   0  0  0  0  0  0  0  0  0  0  0  0
   -1.3677   -2.8444   -0.4027 C   0  0  0  0  0  0  0  0  0  0  0  0
   -0.4637   -1.9528   -1.2011 C   0  0  0  0  0  0  0  0  0  0  0  0
   -0.1694   -0.6994   -0.5417 N   0  0  0  0  0  0  0  0  0  0  0  0
    1.2426   -0.6396   -0.2929 C   0  0  0  0  0  0  0  0  0  0  0  0
    1.9622   -1.6003   -0.9027 N   0  0  0  0  0  0  0  0  0  0  0  0
    3.2599   -1.8182   -0.5706 C   0  0  0  0  0  0  0  0  0  0  0  0
    3.8453   -1.0435    0.4200 C   0  0  0  0  0  0  0  0  0  0  0  0
    3.2954    0.2188    0.6019 C   0  0  0  0  0  0  0  0  0  0  0  0
    1.9649    0.3764    0.3182 C   0  0  0  0  0  0  0  0  0  0  0  0
    1.3863    1.5125    1.0902 C   0  0  0  0  0  0  0  0  0  0  0  0
    0.0374    1.8955    0.6350 C   0  0  0  0  0  0  0  0  0  0  0  0
   -0.0911    3.2682    0.4397 C   0  0  0  0  0  0  0  0  0  0  0  0
   -1.0625    3.6984   -0.4573 C   0  0  0  0  0  0  0  0  0  0  0  0
   -1.9654    2.7847   -0.9868 C   0  0  0  0  0  0  0  0  0  0  0  0
   -1.8909    1.4472   -0.6230 C   0  0  0  0  0  0  0  0  0  0  0  0
   -1.1422    1.1738    0.4597 C   0  0  0  0  0  0  0  0  0  0  0  0
   -1.1245   -0.4456    0.7261 C   0  0  1  0  0  0  0  0  0  0  0  0
   -2.5027   -0.7683   -0.1776 C   0  0  0  0  0  0  0  0  0  0  0  0
  1  2  1  0
  2  3  1  0
  3  4  1  0
  4  5  1  0
  5  6  1  0
  6  7  2  0
  7  8  1  0
  8  9  2  0
  9 10  1  0
 10 11  2  0
 11 12  1  0
 12 13  1  0
 13 14  2  0
 14 15  1  0
 15 16  2  0
 16 17  1  0
 17 18  2  0
 19 18  1  6
 19 20  1  0
 20  2  1  0
 19  5  1  0
 11  6  1  0
 18 13  1  0
M  END
>  <supplier_code>  (236) 
DB00370

>  <zinc_id>  (236) 
ZINC000000968310

>  <catalog_short_name>  (236) 
dbfda

$$$$

     RDKit          3D

 15 14  0  0  0  0  0  0  0  0999 V2000
   -0.5383    3.9241   -0.4725 C   0  0  0  0  0  0  0  0  0  0  0  0
    0.1305    2.7362    0.2090 C   0  0  0  0  0  0  0  0  0  0  0  0
   -0.8305    1.5668    0.0258 C   0  0  0  0  0  0  0  0  0  0  0  0
    0.0011    0.3162    0.2867 C   0  0  0  0  0  0  0  0  0  0  0  0
    0.3645    0.2279    1.7510 C   0  0  0  0  0  0  0  0  0  0  0  0
    1.2139    0.4199   -0.6063 C   0  0  0  0  0  0  0  0  0  0  0  0
    2.4248    0.2271    0.0839 O   0  0  0  0  0  0  0  0  0  0  0  0
    3.2605   -0.8615   -0.1899 C   0  0  0  0  0  0  0  0  0  0  0  0
    4.6780   -0.7046   -0.3276 N   0  0  0  0  0  0  0  0  0  0  0  0
    2.6624   -1.8857   -0.6373 O   0  0  0  0  0  0  0  0  0  0  0  0
   -0.7578   -0.9126   -0.1212 C   0  0  0  0  0  0  0  0  0  0  0  0
   -1.9433   -1.1072    0.6449 O   0  0  0  0  0  0  0  0  0  0  0  0
   -3.1708   -1.2254   -0.0106 C   0  0  0  0  0  0  0  0  0  0  0  0
   -4.1276   -2.2327    0.3270 N   0  0  0  0  0  0  0  0  0  0  0  0
   -3.3675   -0.4886   -0.9998 O   0  0  0  0  0  0  0  0  0  0  0  0
  1  2  1  0
  2  3  1  0
  3  4  1  0
  4  5  1  0
  4  6  1  0
  6  7  1  0
  7  8  1  0
  8  9  1  0
  8 10  2  0
  4 11  1  0
 11 12  1  0
 12 13  1  0
 13 14  1  0
 13 15  2  0
M  END
>  <supplier_code>  (237) 
DB00371

>  <zinc_id>  (237) 
ZINC000001530701

>  <catalog_short_name>  (237) 
dbfda

$$$$

     RDKit          3D

 21 22  0  0  0  0  0  0  0  0999 V2000
    5.5057   -0.6880    1.2679 C   0  0  0  0  0  0  0  0  0  0  0  0
    4.8361   -0.7962    0.1552 C   0  0  0  0  0  0  0  0  0  0  0  0
    4.6073   -2.2257   -0.2762 C   0  0  0  0  0  0  0  0  0  0  0  0
    5.5671   -0.0942   -0.9809 C   0  0  0  0  0  0  0  0  0  0  0  0
    3.5394   -0.1742    0.3707 N   0  0  0  0  0  0  0  0  0  0  0  0
    2.4864   -1.1294    0.2229 C   0  0  0  0  0  0  0  0  0  0  0  0
    1.2363   -0.3572   -0.5245 C   0  0  2  0  0  0  0  0  0  0  0  0
    2.1531    0.3222   -1.5278 O   0  0  0  0  0  0  0  0  0  0  0  0
    1.3176    0.9206    0.5179 C   0  0  0  0  0  0  0  0  0  0  0  0
   -0.0545    0.9604    0.9062 O   0  0  0  0  0  0  0  0  0  0  0  0
   -0.9943    1.5528    0.0531 C   0  0  0  0  0  0  0  0  0  0  0  0
   -0.6893    2.4993   -0.8692 N   0  0  0  0  0  0  0  0  0  0  0  0
   -2.1238    3.4004   -0.9246 S   0  0  0  0  0  0  0  0  0  0  0  0
   -3.1051    2.3235   -0.0617 N   0  0  0  0  0  0  0  0  0  0  0  0
   -2.3360    1.2051   -0.0427 C   0  0  0  0  0  0  0  0  0  0  0  0
   -2.8811   -0.0838    0.2718 N   0  0  0  0  0  0  0  0  0  0  0  0
   -4.2048   -0.1885    0.8846 C   0  0  0  0  0  0  0  0  0  0  0  0
   -4.9278   -1.2611    0.0772 C   0  0  0  0  0  0  0  0  0  0  0  0
   -4.3443   -2.4659    0.4255 O   0  0  0  0  0  0  0  0  0  0  0  0
   -3.0470   -2.5068   -0.0396 C   0  0  0  0  0  0  0  0  0  0  0  0
   -2.5411   -1.2134   -0.5911 C   0  0  0  0  0  0  0  0  0  0  0  0
  1  2  1  0
  2  3  1  0
  2  4  1  0
  2  5  1  0
  5  6  1  0
  7  6  1  1
  7  8  1  0
  7  9  1  0
  9 10  1  0
 10 11  1  0
 11 12  2  0
 12 13  1  0
 13 14  1  0
 14 15  2  0
 15 16  1  0
 16 17  1  0
 17 18  1  0
 18 19  1  0
 19 20  1  0
 20 21  1  0
 15 11  1  0
 21 16  1  0
M  END
>  <supplier_code>  (238) 
DB00373

>  <zinc_id>  (238) 
ZINC000000002176

>  <catalog_short_name>  (238) 
dbfda

$$$$

     RDKit          3D

 21 22  0  0  0  0  0  0  0  0999 V2000
    4.7102    0.3469   -0.1304 C   0  0  0  0  0  0  0  0  0  0  0  0
    4.7179    0.4499    0.2577 C   0  0  0  0  0  0  0  0  0  0  0  0
    3.8403    1.6324    0.6423 C   0  0  0  0  0  0  0  0  0  0  0  0
    6.1105    0.7066    0.8404 C   0  0  0  0  0  0  0  0  0  0  0  0
    4.1800   -0.8234    0.7113 N   0  0  0  0  0  0  0  0  0  0  0  0
    2.7639   -0.8352    0.6431 C   0  0  0  0  0  0  0  0  0  0  0  0
    2.3610   -1.0001   -0.9504 C   0  0  1  0  0  0  0  0  0  0  0  0
    1.3666   -2.1070   -0.6288 O   0  0  0  0  0  0  0  0  0  0  0  0
    1.2625    0.2207   -0.8405 C   0  0  0  0  0  0  0  0  0  0  0  0
    0.0159   -0.2125   -0.6437 O   0  0  0  0  0  0  0  0  0  0  0  0
   -0.6596   -0.5851    0.5084 C   0  0  0  0  0  0  0  0  0  0  0  0
   -0.1960   -1.0562    1.6929 N   0  0  0  0  0  0  0  0  0  0  0  0
   -1.3893   -2.1993    2.0848 S   0  0  0  0  0  0  0  0  0  0  0  0
   -2.5905   -1.6196    1.0341 N   0  0  0  0  0  0  0  0  0  0  0  0
   -2.0395   -0.4501    0.6188 C   0  0  0  0  0  0  0  0  0  0  0  0
   -2.7983    0.6610    0.1213 N   0  0  0  0  0  0  0  0  0  0  0  0
   -3.5439    0.5713   -1.1150 C   0  0  0  0  0  0  0  0  0  0  0  0
   -4.9979    0.9111   -0.9586 C   0  0  0  0  0  0  0  0  0  0  0  0
   -5.2366    1.9810   -0.1175 O   0  0  0  0  0  0  0  0  0  0  0  0
   -4.6965    1.6546    1.1330 C   0  0  0  0  0  0  0  0  0  0  0  0
   -3.1806    1.7530    1.0137 C   0  0  0  0  0  0  0  0  0  0  0  0
  1  2  1  0
  2  3  1  0
  2  4  1  0
  2  5  1  0
  5  6  1  0
  7  6  1  1
  7  8  1  0
  7  9  1  0
  9 10  1  0
 10 11  1  0
 11 12  2  0
 12 13  1  0
 13 14  1  0
 14 15  2  0
 15 16  1  0
 16 17  1  0
 17 18  1  0
 18 19  1  0
 19 20  1  0
 20 21  1  0
 15 11  1  0
 21 16  1  0
M  END
>  <supplier_code>  (239) 
DB00373

>  <zinc_id>  (239) 
ZINC000000403609

>  <catalog_short_name>  (239) 
dbfda

$$$$

     RDKit          3D

 28 30  0  0  0  0  0  0  0  0999 V2000
    7.0573    1.9403    0.5302 C   0  0  0  0  0  0  0  0  0  0  0  0
    7.6694    0.6924    0.5348 C   0  0  0  0  0  0  0  0  0  0  0  0
    6.5761   -0.3082    0.7182 C   0  0  0  0  0  0  0  0  0  0  0  0
    6.7843   -1.6266    0.0745 C   0  0  0  0  0  0  0  0  0  0  0  0
    5.4929   -2.1515   -0.5305 C   0  0  0  0  0  0  0  0  0  0  0  0
    4.2879   -1.2908    0.2503 C   0  0  2  0  0  0  0  0  0  0  0  0
    3.6314   -2.5940    0.7476 O   0  0  0  0  0  0  0  0  0  0  0  0
    3.3324   -1.2888   -1.1267 C   0  0  0  0  0  0  0  0  0  0  0  0
    2.5010   -0.0436   -0.8176 C   0  0  0  0  0  0  0  0  0  0  0  0
    1.5439   -0.4690    0.4131 C   0  0  1  0  0  0  0  0  0  0  0  0
    1.2167    1.1664    0.7984 C   0  0  2  0  0  0  0  0  0  0  0  0
    1.6171    0.9431    2.2607 O   0  0  0  0  0  0  0  0  0  0  0  0
   -0.3899    0.8480    1.1223 C   0  0  0  0  0  0  0  0  0  0  0  0
   -0.2693    0.9423   -0.5136 C   0  0  2  0  0  0  0  0  0  0  0  0
   -1.8249    0.6598   -0.9045 C   0  0  0  0  0  0  0  0  0  0  0  0
   -2.5091   -0.0232    0.1724 C   0  0  0  0  0  0  0  0  0  0  0  0
   -2.0354   -1.3300    0.3226 C   0  0  0  0  0  0  0  0  0  0  0  0
   -2.7949   -2.1996    1.1009 C   0  0  0  0  0  0  0  0  0  0  0  0
   -4.1755   -2.0598    1.1576 C   0  0  0  0  0  0  0  0  0  0  0  0
   -4.6961   -0.8677    0.6897 C   0  0  0  0  0  0  0  0  0  0  0  0
   -3.8878    0.1638    0.2267 C   0  0  0  0  0  0  0  0  0  0  0  0
   -4.5331    1.1065   -0.5794 O   0  0  0  0  0  0  0  0  0  0  0  0
   -4.6335    2.4149   -0.0248 C   0  0  0  0  0  0  0  0  0  0  0  0
   -6.1066    2.6502    0.1296 C   0  0  0  0  0  0  0  0  0  0  0  0
   -6.6721    1.8655    0.9526 O   0  0  0  0  0  0  0  0  0  0  0  0
   -6.7874    2.8390   -1.0791 O   0  0  0  0  0  0  0  0  0  0  0  0
   -0.6115   -1.2894    0.6594 C   0  0  0  0  0  0  0  0  0  0  0  0
    0.2165   -0.6897   -0.5988 C   0  0  2  0  0  0  0  0  0  0  0  0
  1  2  1  0
  2  3  1  0
  3  4  1  0
  4  5  1  0
  6  5  1  6
  6  7  1  0
  6  8  1  0
  8  9  1  0
 10  9  1  6
 10 11  1  0
 11 12  1  1
 11 13  1  0
 14 13  1  1
 14 15  1  0
 15 16  1  0
 16 17  2  0
 17 18  1  0
 18 19  2  0
 19 20  1  0
 20 21  2  0
 21 22  1  0
 22 23  1  0
 23 24  1  0
 24 25  2  0
 24 26  1  0
 17 27  1  0
 28 27  1  1
 28 10  1  0
 28 14  1  0
 21 16  1  0
M  END
>  <supplier_code>  (240) 
DB00374

>  <zinc_id>  (240) 
ZINC000003800475

>  <catalog_short_name>  (240) 
dbfda

$$$$

     RDKit          3D

 13 12  0  0  0  0  0  0  0  0999 V2000
   -4.3776    1.4334   -1.0296 N   0  0  0  0  0  0  0  0  0  0  0  0
   -4.8290    0.3330   -0.2156 C   0  0  0  0  0  0  0  0  0  0  0  0
   -4.2810   -0.9953   -0.6577 C   0  0  0  0  0  0  0  0  0  0  0  0
   -2.8406   -1.0425   -0.6824 N   0  0  0  0  0  0  0  0  0  0  0  0
   -2.2180    0.1310   -0.1241 C   0  0  0  0  0  0  0  0  0  0  0  0
   -1.3454   -0.2366    1.0464 C   0  0  0  0  0  0  0  0  0  0  0  0
   -0.3036   -1.1858    0.6796 N   0  0  0  0  0  0  0  0  0  0  0  0
    0.5776   -0.6746   -0.3395 C   0  0  0  0  0  0  0  0  0  0  0  0
    1.8103   -0.0155    0.2150 C   0  0  0  0  0  0  0  0  0  0  0  0
    2.9684   -0.3000   -0.5925 N   0  0  0  0  0  0  0  0  0  0  0  0
    4.2076   -0.0341    0.0936 C   0  0  0  0  0  0  0  0  0  0  0  0
    4.7493    1.3551   -0.2139 C   0  0  0  0  0  0  0  0  0  0  0  0
    5.8821    1.2321   -1.1185 N   0  0  0  0  0  0  0  0  0  0  0  0
  1  2  1  0
  2  3  1  0
  3  4  1  0
  4  5  1  0
  5  6  1  0
  6  7  1  0
  7  8  1  0
  8  9  1  0
  9 10  1  0
 10 11  1  0
 11 12  1  0
 12 13  1  0
M  END
>  <supplier_code>  (241) 
DB00375

>  <zinc_id>  (241) 
ZINC000019363537

>  <catalog_short_name>  (241) 
dbfda

$$$$

     RDKit          3D

 22 24  0  0  0  0  0  0  0  0999 V2000
   -0.1994    0.5801   -1.6779 O   0  0  0  0  0  0  0  0  0  0  0  0
   -0.7257    0.1700   -0.4718 C   0  0  1  0  0  0  0  0  0  0  0  0
    0.4276   -0.3150    0.3949 C   0  0  0  0  0  0  0  0  0  0  0  0
    1.3746   -1.0496   -0.5373 C   0  0  0  0  0  0  0  0  0  0  0  0
    2.7000   -0.8777    0.0300 N   0  0  0  0  0  0  0  0  0  0  0  0
    3.2342    0.4156   -0.3086 C   0  0  0  0  0  0  0  0  0  0  0  0
    4.3484    0.7172    0.6638 C   0  0  0  0  0  0  0  0  0  0  0  0
    5.1599   -0.5300    0.8997 C   0  0  0  0  0  0  0  0  0  0  0  0
    4.9763   -1.5235   -0.2281 C   0  0  0  0  0  0  0  0  0  0  0  0
    3.5473   -1.9753   -0.3483 C   0  0  0  0  0  0  0  0  0  0  0  0
   -1.3066    1.3406    0.2094 C   0  0  0  0  0  0  0  0  0  0  0  0
   -1.6892    1.1711    1.5343 C   0  0  0  0  0  0  0  0  0  0  0  0
   -1.8854    2.2411    2.3885 C   0  0  0  0  0  0  0  0  0  0  0  0
   -1.1556    3.3885    2.1041 C   0  0  0  0  0  0  0  0  0  0  0  0
   -0.6671    3.6059    0.8217 C   0  0  0  0  0  0  0  0  0  0  0  0
   -0.8916    2.6229   -0.1312 C   0  0  0  0  0  0  0  0  0  0  0  0
   -1.6430   -0.9691   -0.6782 C   0  0  0  0  0  0  0  0  0  0  0  0
   -2.1639   -1.1647   -2.0548 C   0  0  0  0  0  0  0  0  0  0  0  0
   -3.6679   -1.3468   -1.9841 C   0  0  0  0  0  0  0  0  0  0  0  0
   -3.9865   -2.5720   -1.1715 C   0  0  0  0  0  0  0  0  0  0  0  0
   -3.2095   -2.6402    0.1169 C   0  0  0  0  0  0  0  0  0  0  0  0
   -2.5772   -1.2891    0.4285 C   0  0  0  0  0  0  0  0  0  0  0  0
  2  1  1  6
  2  3  1  0
  3  4  1  0
  4  5  1  0
  5  6  1  0
  6  7  1  0
  7  8  1  0
  8  9  1  0
  9 10  1  0
  2 11  1  0
 11 12  2  0
 12 13  1  0
 13 14  2  0
 14 15  1  0
 15 16  2  0
  2 17  1  0
 17 18  1  0
 18 19  1  0
 19 20  1  0
 20 21  1  0
 21 22  1  0
 10  5  1  0
 16 11  1  0
 22 17  1  0
M  END
>  <supplier_code>  (242) 
DB00376

>  <zinc_id>  (242) 
ZINC000000968273

>  <catalog_short_name>  (242) 
dbfda

$$$$

     RDKit          3D

 22 24  0  0  0  0  0  0  0  0999 V2000
   -1.3992    0.2179   -1.5291 O   0  0  0  0  0  0  0  0  0  0  0  0
   -0.7864    0.1032   -0.4194 C   0  0  2  0  0  0  0  0  0  0  0  0
    0.6950    0.2924   -0.5721 C   0  0  0  0  0  0  0  0  0  0  0  0
    1.3940   -0.8581   -1.2300 C   0  0  0  0  0  0  0  0  0  0  0  0
    2.6835   -1.0264   -0.6424 N   0  0  0  0  0  0  0  0  0  0  0  0
    2.7570   -0.8265    0.7643 C   0  0  0  0  0  0  0  0  0  0  0  0
    3.3142    0.5113    1.1779 C   0  0  0  0  0  0  0  0  0  0  0  0
    4.7220    0.5766    0.5963 C   0  0  0  0  0  0  0  0  0  0  0  0
    4.5307    0.5888   -0.9142 C   0  0  0  0  0  0  0  0  0  0  0  0
    3.7920   -0.6120   -1.4156 C   0  0  0  0  0  0  0  0  0  0  0  0
   -1.1585   -1.1750    0.2210 C   0  0  0  0  0  0  0  0  0  0  0  0
   -2.4094   -1.2113    0.8260 C   0  0  0  0  0  0  0  0  0  0  0  0
   -2.9872   -2.3899    1.2273 C   0  0  0  0  0  0  0  0  0  0  0  0
   -2.1888   -3.5244    1.1510 C   0  0  0  0  0  0  0  0  0  0  0  0
   -1.2033   -3.5444    0.1863 C   0  0  0  0  0  0  0  0  0  0  0  0
   -0.7682   -2.3592   -0.3925 C   0  0  0  0  0  0  0  0  0  0  0  0
   -1.2644    1.2089    0.5166 C   0  0  0  0  0  0  0  0  0  0  0  0
   -2.7081    1.4846    0.1909 C   0  0  0  0  0  0  0  0  0  0  0  0
   -3.1424    2.8412    0.6788 C   0  0  0  0  0  0  0  0  0  0  0  0
   -2.2916    3.9495    0.1031 C   0  0  0  0  0  0  0  0  0  0  0  0
   -1.1812    3.3281   -0.7261 C   0  0  0  0  0  0  0  0  0  0  0  0
   -0.4000    2.4247    0.2022 C   0  0  0  0  0  0  0  0  0  0  0  0
  2  1  1  6
  2  3  1  0
  3  4  1  0
  4  5  1  0
  5  6  1  0
  6  7  1  0
  7  8  1  0
  8  9  1  0
  9 10  1  0
  2 11  1  0
 11 12  2  0
 12 13  1  0
 13 14  2  0
 14 15  1  0
 15 16  2  0
  2 17  1  0
 17 18  1  0
 18 19  1  0
 19 20  1  0
 20 21  1  0
 21 22  1  0
 10  5  1  0
 16 11  1  0
 22 17  1  0
M  END
>  <supplier_code>  (243) 
DB00376

>  <zinc_id>  (243) 
ZINC000000968274

>  <catalog_short_name>  (243) 
dbfda

$$$$

     RDKit          3D

 22 26  0  0  0  0  0  0  0  0999 V2000
   -0.4726   -1.8121   -0.0982 O   0  0  0  0  0  0  0  0  0  0  0  0
    0.0461   -1.0284   -0.3592 C   0  0  0  0  0  0  0  0  0  0  0  0
    1.4946   -0.9587   -0.6114 C   0  0  0  0  0  0  0  0  0  0  0  0
    2.1789   -2.1129   -0.2379 C   0  0  0  0  0  0  0  0  0  0  0  0
    3.5024   -2.0702    0.1200 C   0  0  0  0  0  0  0  0  0  0  0  0
    4.1726   -0.8644    0.2228 C   0  0  0  0  0  0  0  0  0  0  0  0
    3.4830    0.2551   -0.2287 C   0  0  0  0  0  0  0  0  0  0  0  0
    2.0894    0.2238   -0.2453 C   0  0  0  0  0  0  0  0  0  0  0  0
    1.4803    1.5610   -0.8930 C   0  0  2  0  0  0  0  0  0  0  0  0
    1.9867    2.4477    0.3919 C   0  0  0  0  0  0  0  0  0  0  0  0
    3.4406    2.6563    0.2717 C   0  0  0  0  0  0  0  0  0  0  0  0
    4.2213    1.5256   -0.3162 C   0  0  0  0  0  0  0  0  0  0  0  0
    0.0098    1.4422   -0.2238 C   0  0  0  0  0  0  0  0  0  0  0  0
   -0.6482    0.2168   -0.5453 N   0  0  0  0  0  0  0  0  0  0  0  0
   -1.9198    0.3886    0.3862 C   0  0  2  0  0  0  0  0  0  0  0  0
   -2.3594   -1.1930    0.4029 C   0  0  0  0  0  0  0  0  0  0  0  0
   -3.8113   -1.1501    0.5667 N   0  0  0  0  0  0  0  0  0  0  0  0
   -4.2464    0.1474    1.0776 C   0  0  0  0  0  0  0  0  0  0  0  0
   -4.1405    1.1809   -0.0393 C   0  0  0  0  0  0  0  0  0  0  0  0
   -2.9148    0.7726   -0.8578 C   0  0  0  0  0  0  0  0  0  0  0  0
   -3.2721   -0.4317   -1.6103 C   0  0  0  0  0  0  0  0  0  0  0  0
   -4.3205   -1.1962   -0.8047 C   0  0  0  0  0  0  0  0  0  0  0  0
  1  2  2  0
  2  3  1  0
  3  4  2  0
  4  5  1  0
  5  6  2  0
  6  7  1  0
  7  8  2  0
  8  9  1  0
  9 10  1  1
 10 11  1  0
 11 12  1  0
  9 13  1  0
 13 14  1  0
 15 14  1  6
 15 16  1  0
 16 17  1  0
 17 18  1  0
 18 19  1  0
 19 20  1  0
 20 21  1  0
 21 22  1  0
 14  2  1  0
 20 15  1  0
  8  3  1  0
 22 17  1  0
 12  7  1  0
M  END
>  <supplier_code>  (244) 
DB00377

>  <zinc_id>  (244) 
ZINC000003795819

>  <catalog_short_name>  (244) 
dbfda

$$$$

     RDKit          3D

 22 26  0  0  0  0  0  0  0  0999 V2000
    0.3872   -1.3042   -1.4017 O   0  0  0  0  0  0  0  0  0  0  0  0
   -0.1210   -0.5060   -0.6765 C   0  0  0  0  0  0  0  0  0  0  0  0
   -1.5788   -0.5431   -0.4865 C   0  0  0  0  0  0  0  0  0  0  0  0
   -2.3979   -1.4699   -1.0987 C   0  0  0  0  0  0  0  0  0  0  0  0
   -3.5709   -1.7578   -0.4126 C   0  0  0  0  0  0  0  0  0  0  0  0
   -4.1387   -0.7770    0.3857 C   0  0  0  0  0  0  0  0  0  0  0  0
   -3.4064    0.3784    0.6210 C   0  0  0  0  0  0  0  0  0  0  0  0
   -2.0274    0.2234    0.5886 C   0  0  0  0  0  0  0  0  0  0  0  0
   -1.2295    1.6417    0.4706 C   0  0  1  0  0  0  0  0  0  0  0  0
   -1.8904    2.1835    1.8949 C   0  0  0  0  0  0  0  0  0  0  0  0
   -3.2466    2.7114    1.4649 C   0  0  0  0  0  0  0  0  0  0  0  0
   -4.1166    1.5186    1.2044 C   0  0  0  0  0  0  0  0  0  0  0  0
    0.0879    1.0281    1.2702 C   0  0  0  0  0  0  0  0  0  0  0  0
    0.7234    0.2863    0.1779 N   0  0  0  0  0  0  0  0  0  0  0  0
    1.8153   -0.6192    0.9218 C   0  0  2  0  0  0  0  0  0  0  0  0
    2.8317    0.6862    1.1505 C   0  0  0  0  0  0  0  0  0  0  0  0
    4.1638    0.1189    0.9401 N   0  0  0  0  0  0  0  0  0  0  0  0
    4.1298   -1.2989    1.2408 C   0  0  0  0  0  0  0  0  0  0  0  0
    3.5884   -1.9943    0.0012 C   0  0  0  0  0  0  0  0  0  0  0  0
    2.5099   -1.0572   -0.5305 C   0  0  0  0  0  0  0  0  0  0  0  0
    3.0606    0.1768   -1.1355 C   0  0  0  0  0  0  0  0  0  0  0  0
    4.4261    0.3742   -0.4764 C   0  0  0  0  0  0  0  0  0  0  0  0
  1  2  2  0
  2  3  1  0
  3  4  2  0
  4  5  1  0
  5  6  2  0
  6  7  1  0
  7  8  2  0
  8  9  1  0
  9 10  1  1
 10 11  1  0
 11 12  1  0
  9 13  1  0
 13 14  1  0
 15 14  1  6
 15 16  1  0
 16 17  1  0
 17 18  1  0
 18 19  1  0
 19 20  1  0
 20 21  1  0
 21 22  1  0
 14  2  1  0
 20 15  1  0
  8  3  1  0
 22 17  1  0
 12  7  1  0
M  END
>  <supplier_code>  (245) 
DB00377

>  <zinc_id>  (245) 
ZINC000006094354

>  <catalog_short_name>  (245) 
dbfda

$$$$

     RDKit          3D

 13 13  0  0  0  0  0  0  0  0999 V2000
    0.5962    2.4796    0.1756 C   0  0  0  0  0  0  0  0  0  0  0  0
    1.3045    1.2067    0.1864 C   0  0  0  0  0  0  0  0  0  0  0  0
    2.5947    1.0483   -0.2962 C   0  0  0  0  0  0  0  0  0  0  0  0
    3.0926   -0.1934   -0.6711 C   0  0  0  0  0  0  0  0  0  0  0  0
    2.4321   -1.2895   -0.1297 C   0  0  0  0  0  0  0  0  0  0  0  0
    1.1690   -1.1643    0.4355 C   0  0  0  0  0  0  0  0  0  0  0  0
    0.4146   -2.3428    0.9593 C   0  0  0  0  0  0  0  0  0  0  0  0
    0.5725    0.0863    0.5370 C   0  0  0  0  0  0  0  0  0  0  0  0
   -0.7921    0.1344    0.4178 O   0  0  0  0  0  0  0  0  0  0  0  0
   -1.5235    0.1711   -0.7743 C   0  0  0  0  0  0  0  0  0  0  0  0
   -2.9058   -0.6566   -0.4669 C   0  0  1  0  0  0  0  0  0  0  0  0
   -3.1839    0.1634    0.9264 C   0  0  0  0  0  0  0  0  0  0  0  0
   -3.7709    0.3569   -1.2998 N   0  0  0  0  0  0  0  0  0  0  0  0
  1  2  1  0
  2  3  2  0
  3  4  1  0
  4  5  2  0
  5  6  1  0
  6  7  1  0
  6  8  2  0
  8  9  1  0
  9 10  1  0
 11 10  1  6
 11 12  1  0
 11 13  1  0
  8  2  1  0
M  END
>  <supplier_code>  (246) 
DB00379

>  <zinc_id>  (246) 
ZINC000000020257

>  <catalog_short_name>  (246) 
dbfda

$$$$

     RDKit          3D

 13 13  0  0  0  0  0  0  0  0999 V2000
   -0.0386   -1.8211   -1.6521 C   0  0  0  0  0  0  0  0  0  0  0  0
   -0.8329   -1.1029   -0.7742 C   0  0  0  0  0  0  0  0  0  0  0  0
   -2.1086   -1.5738   -0.5188 C   0  0  0  0  0  0  0  0  0  0  0  0
   -2.9841   -0.8325    0.2529 C   0  0  0  0  0  0  0  0  0  0  0  0
   -2.6518    0.4107    0.7203 C   0  0  0  0  0  0  0  0  0  0  0  0
   -1.4234    0.9219    0.3206 C   0  0  0  0  0  0  0  0  0  0  0  0
   -1.1024    2.3762    0.4618 C   0  0  0  0  0  0  0  0  0  0  0  0
   -0.4423    0.0342   -0.0920 C   0  0  0  0  0  0  0  0  0  0  0  0
    0.8805    0.3691   -0.1237 O   0  0  0  0  0  0  0  0  0  0  0  0
    1.5928    0.9656    0.9106 C   0  0  0  0  0  0  0  0  0  0  0  0
    3.1597    0.5183    0.7512 C   0  0  2  0  0  0  0  0  0  0  0  0
    3.1605    0.7368   -0.8745 C   0  0  0  0  0  0  0  0  0  0  0  0
    2.7906   -1.0027    0.6178 N   0  0  0  0  0  0  0  0  0  0  0  0
  1  2  1  0
  2  3  2  0
  3  4  1  0
  4  5  2  0
  5  6  1  0
  6  7  1  0
  6  8  2  0
  8  9  1  0
  9 10  1  0
 11 10  1  1
 11 12  1  0
 11 13  1  0
  8  2  1  0
M  END
>  <supplier_code>  (247) 
DB00379

>  <zinc_id>  (247) 
ZINC000000057062

>  <catalog_short_name>  (247) 
dbfda

$$$$

     RDKit          3D

 19 20  0  0  0  0  0  0  0  0999 V2000
   -0.3360    1.6320   -1.7360 C   0  0  0  0  0  0  0  0  0  0  0  0
   -0.2784    0.1676   -0.9571 C   0  0  1  0  0  0  0  0  0  0  0  0
    0.7837    0.7625    0.1602 C   0  0  0  0  0  0  0  0  0  0  0  0
    1.6855   -0.2597    0.5075 N   0  0  0  0  0  0  0  0  0  0  0  0
    2.9404    0.4168    0.8375 C   0  0  0  0  0  0  0  0  0  0  0  0
    3.6471    0.5646   -0.4803 C   0  0  0  0  0  0  0  0  0  0  0  0
    3.4729    1.5353   -1.2409 O   0  0  0  0  0  0  0  0  0  0  0  0
    4.1014   -0.7334   -0.9134 N   0  0  0  0  0  0  0  0  0  0  0  0
    3.2717   -1.8013   -0.4149 C   0  0  0  0  0  0  0  0  0  0  0  0
    3.7143   -2.7008    0.3634 O   0  0  0  0  0  0  0  0  0  0  0  0
    1.8349   -1.3654   -0.3658 C   0  0  0  0  0  0  0  0  0  0  0  0
   -1.5144    0.5314   -0.0294 N   0  0  0  0  0  0  0  0  0  0  0  0
   -2.5164    1.0703   -0.9359 C   0  0  0  0  0  0  0  0  0  0  0  0
   -3.6721    1.3548   -0.0334 C   0  0  0  0  0  0  0  0  0  0  0  0
   -3.9112    2.5317    0.3096 O   0  0  0  0  0  0  0  0  0  0  0  0
   -4.1491    0.2078    0.6831 N   0  0  0  0  0  0  0  0  0  0  0  0
   -3.3484   -0.9758    0.5741 C   0  0  0  0  0  0  0  0  0  0  0  0
   -3.8455   -2.1308    0.4788 O   0  0  0  0  0  0  0  0  0  0  0  0
   -1.8801   -0.8075    0.4216 C   0  0  0  0  0  0  0  0  0  0  0  0
  2  1  1  6
  2  3  1  0
  3  4  1  0
  4  5  1  0
  5  6  1  0
  6  7  2  0
  6  8  1  0
  8  9  1  0
  9 10  2  0
  9 11  1  0
  2 12  1  0
 12 13  1  0
 13 14  1  0
 14 15  2  0
 14 16  1  0
 16 17  1  0
 17 18  2  0
 17 19  1  0
 11  4  1  0
 19 12  1  0
M  END
>  <supplier_code>  (248) 
DB00380

>  <zinc_id>  (248) 
ZINC000087515509

>  <catalog_short_name>  (248) 
dbfda

$$$$

     RDKit          3D

 28 29  0  0  0  0  0  0  0  0999 V2000
    1.9115    4.2180   -0.8629 C   0  0  0  0  0  0  0  0  0  0  0  0
    1.2629    3.8265   -2.1061 C   0  0  0  0  0  0  0  0  0  0  0  0
    0.3856    2.7394   -1.8369 O   0  0  0  0  0  0  0  0  0  0  0  0
    0.7990    1.4021   -1.8922 C   0  0  0  0  0  0  0  0  0  0  0  0
    1.7978    1.2159   -2.6067 O   0  0  0  0  0  0  0  0  0  0  0  0
    0.5049    0.5324   -0.7389 C   0  0  0  0  0  0  0  0  0  0  0  0
    1.3696   -0.1751   -0.1248 C   0  0  0  0  0  0  0  0  0  0  0  0
    2.4285   -0.7958   -0.9827 C   0  0  0  0  0  0  0  0  0  0  0  0
    2.4047   -2.1348   -0.5492 O   0  0  0  0  0  0  0  0  0  0  0  0
    3.5450   -2.7835   -1.0194 C   0  0  0  0  0  0  0  0  0  0  0  0
    4.3991   -3.1000    0.1750 C   0  0  0  0  0  0  0  0  0  0  0  0
    5.2504   -1.9575    0.5018 N   0  0  0  0  0  0  0  0  0  0  0  0
    1.6318    0.1935    1.2355 N   0  0  0  0  0  0  0  0  0  0  0  0
    0.5212    0.8379    1.8748 C   0  0  0  0  0  0  0  0  0  0  0  0
    0.6742    1.3822    3.2365 C   0  0  0  0  0  0  0  0  0  0  0  0
   -0.5870    0.2444    1.4179 C   0  0  0  0  0  0  0  0  0  0  0  0
   -1.7125    0.2187    2.3443 C   0  0  0  0  0  0  0  0  0  0  0  0
   -1.8579    1.1603    3.1811 O   0  0  0  0  0  0  0  0  0  0  0  0
   -2.1812   -1.0411    2.7165 O   0  0  0  0  0  0  0  0  0  0  0  0
   -2.4792   -1.3773    4.0695 C   0  0  0  0  0  0  0  0  0  0  0  0
   -0.8932    0.9207   -0.0279 C   0  0  2  0  0  0  0  0  0  0  0  0
   -1.6841   -0.3935   -0.5626 C   0  0  0  0  0  0  0  0  0  0  0  0
   -1.3657   -0.7738   -1.8657 C   0  0  0  0  0  0  0  0  0  0  0  0
   -2.1101   -1.6722   -2.5855 C   0  0  0  0  0  0  0  0  0  0  0  0
   -3.2797   -2.0949   -1.9627 C   0  0  0  0  0  0  0  0  0  0  0  0
   -3.7741   -1.3950   -0.8665 C   0  0  0  0  0  0  0  0  0  0  0  0
   -3.0561   -0.3343   -0.3197 C   0  0  0  0  0  0  0  0  0  0  0  0
   -3.9056    1.1367    0.1576 Cl  0  0  0  0  0  0  0  0  0  0  0  0
  1  2  1  0
  2  3  1  0
  3  4  1  0
  4  5  2  0
  4  6  1  0
  6  7  2  0
  7  8  1  0
  8  9  1  0
  9 10  1  0
 10 11  1  0
 11 12  1  0
  7 13  1  0
 13 14  1  0
 14 15  1  0
 14 16  2  0
 16 17  1  0
 17 18  2  0
 17 19  1  0
 19 20  1  0
 16 21  1  0
 21 22  1  6
 22 23  2  0
 23 24  1  0
 24 25  2  0
 25 26  1  0
 26 27  2  0
 27 28  1  0
 21  6  1  0
 27 22  1  0
M  END
>  <supplier_code>  (249) 
DB00381

>  <zinc_id>  (249) 
ZINC000100001964

>  <catalog_short_name>  (249) 
dbfda

$$$$

     RDKit          3D

 28 29  0  0  0  0  0  0  0  0999 V2000
    2.2811   -4.0146   -1.1660 C   0  0  0  0  0  0  0  0  0  0  0  0
    1.4934   -3.2919   -2.2384 C   0  0  0  0  0  0  0  0  0  0  0  0
    0.9915   -2.0628   -1.7812 O   0  0  0  0  0  0  0  0  0  0  0  0
    0.2448   -1.8865   -0.6393 C   0  0  0  0  0  0  0  0  0  0  0  0
    0.2739   -2.8364    0.2011 O   0  0  0  0  0  0  0  0  0  0  0  0
    0.2793   -0.5630   -0.0500 C   0  0  0  0  0  0  0  0  0  0  0  0
    1.4485   -0.0193    0.2846 C   0  0  0  0  0  0  0  0  0  0  0  0
    2.5792   -0.2191   -0.6685 C   0  0  0  0  0  0  0  0  0  0  0  0
    3.3096    0.9802   -0.7721 O   0  0  0  0  0  0  0  0  0  0  0  0
    4.6701    0.7128   -0.8821 C   0  0  0  0  0  0  0  0  0  0  0  0
    5.5235    1.5804   -0.0098 C   0  0  0  0  0  0  0  0  0  0  0  0
    5.2563    1.3401    1.3869 N   0  0  0  0  0  0  0  0  0  0  0  0
    1.5451    0.8883    1.3920 N   0  0  0  0  0  0  0  0  0  0  0  0
    0.3505    1.5863    1.7728 C   0  0  0  0  0  0  0  0  0  0  0  0
    0.3681    2.9514    2.3509 C   0  0  0  0  0  0  0  0  0  0  0  0
   -0.7171    1.2624    1.0395 C   0  0  0  0  0  0  0  0  0  0  0  0
   -1.8428    2.0625    0.7818 C   0  0  0  0  0  0  0  0  0  0  0  0
   -2.8856    2.2013    1.4746 O   0  0  0  0  0  0  0  0  0  0  0  0
   -1.7193    3.0097   -0.2426 O   0  0  0  0  0  0  0  0  0  0  0  0
   -2.1458    4.3339   -0.1717 C   0  0  0  0  0  0  0  0  0  0  0  0
   -0.8415   -0.3672    1.1416 C   0  0  1  0  0  0  0  0  0  0  0  0
   -2.1173   -0.4567    0.1171 C   0  0  0  0  0  0  0  0  0  0  0  0
   -1.9912    0.1054   -1.0945 C   0  0  0  0  0  0  0  0  0  0  0  0
   -3.0524   -0.1077   -1.9704 C   0  0  0  0  0  0  0  0  0  0  0  0
   -3.6798   -1.3445   -1.8773 C   0  0  0  0  0  0  0  0  0  0  0  0
   -3.5881   -2.0961   -0.7117 C   0  0  0  0  0  0  0  0  0  0  0  0
   -2.9537   -1.5158    0.3781 C   0  0  0  0  0  0  0  0  0  0  0  0
   -3.0801   -2.2333    1.9544 Cl  0  0  0  0  0  0  0  0  0  0  0  0
  1  2  1  0
  2  3  1  0
  3  4  1  0
  4  5  2  0
  4  6  1  0
  6  7  2  0
  7  8  1  0
  8  9  1  0
  9 10  1  0
 10 11  1  0
 11 12  1  0
  7 13  1  0
 13 14  1  0
 14 15  1  0
 14 16  2  0
 16 17  1  0
 17 18  2  0
 17 19  1  0
 19 20  1  0
 16 21  1  0
 21 22  1  6
 22 23  2  0
 23 24  1  0
 24 25  2  0
 25 26  1  0
 26 27  2  0
 27 28  1  0
 21  6  1  0
 27 22  1  0
M  END
>  <supplier_code>  (250) 
DB00381

>  <zinc_id>  (250) 
ZINC000100001965

>  <catalog_short_name>  (250) 
dbfda

$$$$

     RDKit          3D

 19 21  0  0  0  0  0  0  0  0999 V2000
    5.2815    0.3384   -0.8098 N   0  0  0  0  0  0  0  0  0  0  0  0
    3.9179    0.0260   -0.5010 C   0  0  0  0  0  0  0  0  0  0  0  0
    3.5255   -1.2317   -0.8075 N   0  0  0  0  0  0  0  0  0  0  0  0
    2.2224   -1.6021   -0.8103 C   0  0  0  0  0  0  0  0  0  0  0  0
    1.8235   -2.9740   -0.8955 N   0  0  0  0  0  0  0  0  0  0  0  0
    1.3179   -0.5942   -0.5028 C   0  0  0  0  0  0  0  0  0  0  0  0
   -0.0063   -0.8383   -0.6502 N   0  0  0  0  0  0  0  0  0  0  0  0
   -0.8442    0.1024   -0.1498 C   0  0  0  0  0  0  0  0  0  0  0  0
   -2.2593    0.1153   -0.5384 C   0  0  0  0  0  0  0  0  0  0  0  0
   -3.0795    1.0500    0.0414 C   0  0  0  0  0  0  0  0  0  0  0  0
   -4.4105    1.0860   -0.2763 C   0  0  0  0  0  0  0  0  0  0  0  0
   -4.8965    0.1081   -1.1102 C   0  0  0  0  0  0  0  0  0  0  0  0
   -3.9971   -0.4296   -2.0220 C   0  0  0  0  0  0  0  0  0  0  0  0
   -2.6313   -0.3389   -1.7961 C   0  0  0  0  0  0  0  0  0  0  0  0
   -0.3755    0.9428    0.8532 C   0  0  0  0  0  0  0  0  0  0  0  0
   -1.3015    1.3736    1.8586 N   0  0  0  0  0  0  0  0  0  0  0  0
    0.9333    1.2768    0.8987 N   0  0  0  0  0  0  0  0  0  0  0  0
    1.7453    0.6088    0.0441 C   0  0  0  0  0  0  0  0  0  0  0  0
    3.0346    0.9804   -0.1272 N   0  0  0  0  0  0  0  0  0  0  0  0
  1  2  1  0
  2  3  2  0
  3  4  1  0
  4  5  1  0
  4  6  2  0
  6  7  1  0
  7  8  2  0
  8  9  1  0
  9 10  2  0
 10 11  1  0
 11 12  2  0
 12 13  1  0
 13 14  2  0
  8 15  1  0
 15 16  1  0
 15 17  2  0
 17 18  1  0
 18 19  2  0
 19  2  1  0
 18  6  1  0
 14  9  1  0
M  END
>  <supplier_code>  (251) 
DB00384

>  <zinc_id>  (251) 
ZINC000000120286

>  <catalog_short_name>  (251) 
dbfda

$$$$

     RDKit          3D

 51 55  0  0  0  0  0  0  0  0999 V2000
    8.9031   -4.2523    0.7982 C   0  0  0  0  0  0  0  0  0  0  0  0
    8.8167   -3.5983    0.4905 C   0  0  0  0  0  0  0  0  0  0  0  0
    7.9899   -3.2124   -0.7304 C   0  0  0  0  0  0  0  0  0  0  0  0
    6.7588   -4.0998   -0.7418 C   0  0  0  0  0  0  0  0  0  0  0  0
    5.8149   -3.8371    0.3861 C   0  0  0  0  0  0  0  0  0  0  0  0
    6.2699   -3.4741    1.5000 O   0  0  0  0  0  0  0  0  0  0  0  0
    4.4856   -3.6666    0.2088 O   0  0  0  0  0  0  0  0  0  0  0  0
    3.5967   -2.7846    0.9133 C   0  0  0  0  0  0  0  0  0  0  0  0
    2.6367   -2.1050   -0.0268 C   0  0  0  0  0  0  0  0  0  0  0  0
    2.7982   -2.5045   -1.1987 O   0  0  0  0  0  0  0  0  0  0  0  0
    1.2437   -1.7357    0.1742 C   0  0  2  0  0  0  0  0  0  0  0  0
    0.5789   -2.9819    0.1394 O   0  0  0  0  0  0  0  0  0  0  0  0
    0.8371   -0.9386   -1.0911 C   0  0  0  0  0  0  0  0  0  0  0  0
    0.6692    0.4733   -0.7884 C   0  0  0  0  0  0  0  0  0  0  0  0
    1.4892    1.4957   -1.2080 C   0  0  0  0  0  0  0  0  0  0  0  0
    2.8042    1.1703   -1.5419 O   0  0  0  0  0  0  0  0  0  0  0  0
    1.0296    2.8015   -1.0847 C   0  0  0  0  0  0  0  0  0  0  0  0
   -0.2109    2.9526   -0.4759 C   0  0  0  0  0  0  0  0  0  0  0  0
   -0.6684    1.9943    0.4285 C   0  0  0  0  0  0  0  0  0  0  0  0
   -1.3586    2.3585    1.5540 O   0  0  0  0  0  0  0  0  0  0  0  0
   -0.2832    0.7544    0.1420 C   0  0  0  0  0  0  0  0  0  0  0  0
   -0.7609   -0.4666    1.0854 C   0  0  1  0  0  0  0  0  0  0  0  0
   -1.0532   -1.3144   -0.1231 O   0  0  0  0  0  0  0  0  0  0  0  0
   -2.3411   -2.0782    0.1614 C   0  0  2  0  0  0  0  0  0  0  0  0
   -3.1932   -0.9763   -0.7398 C   0  0  0  0  0  0  0  0  0  0  0  0
   -4.7353   -1.4630   -0.5855 C   0  0  1  0  0  0  0  0  0  0  0  0
   -4.4522   -2.9738   -0.2914 N   0  0  0  0  0  0  0  0  0  0  0  0
   -4.8194   -3.9135   -1.2766 C   0  0  0  0  0  0  0  0  0  0  0  0
   -4.1799   -3.6671   -2.3283 O   0  0  0  0  0  0  0  0  0  0  0  0
   -5.9033   -4.8375   -1.0923 C   0  0  0  0  0  0  0  0  0  0  0  0
   -5.7388   -6.1193   -1.5065 F   0  0  0  0  0  0  0  0  0  0  0  0
   -7.1079   -4.4240   -1.6893 F   0  0  0  0  0  0  0  0  0  0  0  0
   -6.1731   -4.9766    0.2679 F   0  0  0  0  0  0  0  0  0  0  0  0
   -4.9762   -0.9425    1.0368 C   0  0  1  0  0  0  0  0  0  0  0  0
   -4.6994   -2.2317    1.7514 O   0  0  0  0  0  0  0  0  0  0  0  0
   -3.4172   -0.2355    1.1856 C   0  0  1  0  0  0  0  0  0  0  0  0
   -3.6590    0.0957    2.7707 C   0  0  0  0  0  0  0  0  0  0  0  0
   -2.6554   -1.4772    1.5304 O   0  0  0  0  0  0  0  0  0  0  0  0
    0.8044   -0.9669    1.3009 C   0  0  0  0  0  0  0  0  0  0  0  0
   -0.7579    4.3124   -0.4784 C   0  0  0  0  0  0  0  0  0  0  0  0
   -1.8883    4.3931    0.0986 O   0  0  0  0  0  0  0  0  0  0  0  0
    0.1711    5.4601   -0.4771 C   0  0  0  0  0  0  0  0  0  0  0  0
   -0.2360    6.6645    0.0939 C   0  0  0  0  0  0  0  0  0  0  0  0
   -1.5925    6.8069    0.4058 O   0  0  0  0  0  0  0  0  0  0  0  0
   -2.5408    7.4373   -0.4044 C   0  0  0  0  0  0  0  0  0  0  0  0
    0.6058    7.4171    0.9080 C   0  0  0  0  0  0  0  0  0  0  0  0
    1.9253    6.9966    1.0389 C   0  0  0  0  0  0  0  0  0  0  0  0
    2.3983    5.9683    0.2373 C   0  0  0  0  0  0  0  0  0  0  0  0
    1.5373    5.1956   -0.5426 C   0  0  0  0  0  0  0  0  0  0  0  0
    2.0028    3.9066   -1.0915 C   0  0  0  0  0  0  0  0  0  0  0  0
    3.2347    3.6002   -1.0303 O   0  0  0  0  0  0  0  0  0  0  0  0
  1  2  1  0
  2  3  1  0
  3  4  1  0
  4  5  1  0
  5  6  2  0
  5  7  1  0
  7  8  1  0
  8  9  1  0
  9 10  2  0
 11  9  1  1
 11 12  1  0
 11 13  1  0
 13 14  1  0
 14 15  2  0
 15 16  1  0
 15 17  1  0
 17 18  2  0
 18 19  1  0
 19 20  1  0
 19 21  2  0
 21 22  1  0
 22 23  1  6
 24 23  1  6
 24 25  1  0
 25 26  1  0
 26 27  1  1
 27 28  1  0
 28 29  2  0
 28 30  1  0
 30 31  1  0
 30 32  1  0
 30 33  1  0
 26 34  1  0
 34 35  1  1
 34 36  1  0
 36 37  1  1
 36 38  1  0
 22 39  1  0
 18 40  1  0
 40 41  2  0
 40 42  1  0
 42 43  2  0
 43 44  1  0
 44 45  1  0
 43 46  1  0
 46 47  2  0
 47 48  1  0
 48 49  2  0
 49 50  1  0
 50 51  2  0
 39 11  1  0
 49 42  1  0
 21 14  1  0
 38 24  1  0
 50 17  1  0
M  END
>  <supplier_code>  (252) 
DB00385

>  <zinc_id>  (252) 
ZINC000011616852

>  <catalog_short_name>  (252) 
dbfda

$$$$

     RDKit          3D

 51 55  0  0  0  0  0  0  0  0999 V2000
   -6.9399   -6.9188   -0.3348 C   0  0  0  0  0  0  0  0  0  0  0  0
   -5.8896   -6.4227    0.1941 C   0  0  0  0  0  0  0  0  0  0  0  0
   -5.1452   -5.7684   -0.9517 C   0  0  0  0  0  0  0  0  0  0  0  0
   -5.5076   -4.3015   -0.9422 C   0  0  0  0  0  0  0  0  0  0  0  0
   -4.7111   -3.6986    0.1690 C   0  0  0  0  0  0  0  0  0  0  0  0
   -5.2063   -3.0430    1.1051 O   0  0  0  0  0  0  0  0  0  0  0  0
   -3.3571   -3.6466    0.0040 O   0  0  0  0  0  0  0  0  0  0  0  0
   -2.4801   -3.6350    1.1254 C   0  0  0  0  0  0  0  0  0  0  0  0
   -1.1683   -3.3073    0.4792 C   0  0  0  0  0  0  0  0  0  0  0  0
   -0.2720   -4.1008    0.5825 O   0  0  0  0  0  0  0  0  0  0  0  0
   -1.0319   -1.9024   -0.0099 C   0  0  2  0  0  0  0  0  0  0  0  0
   -1.0305   -1.1344    1.1654 O   0  0  0  0  0  0  0  0  0  0  0  0
   -2.1864   -1.4359   -0.8338 C   0  0  0  0  0  0  0  0  0  0  0  0
   -1.9663    0.0497   -0.8962 C   0  0  0  0  0  0  0  0  0  0  0  0
   -2.7830    0.7704   -0.0267 C   0  0  0  0  0  0  0  0  0  0  0  0
   -3.7658    0.1524    0.7544 O   0  0  0  0  0  0  0  0  0  0  0  0
   -2.4403    2.0954    0.2164 C   0  0  0  0  0  0  0  0  0  0  0  0
   -1.2740    2.5902   -0.3569 C   0  0  0  0  0  0  0  0  0  0  0  0
   -0.3767    1.7503   -1.0103 C   0  0  0  0  0  0  0  0  0  0  0  0
    0.8529    2.2478   -1.3882 O   0  0  0  0  0  0  0  0  0  0  0  0
   -0.6132    0.3954   -0.7940 C   0  0  0  0  0  0  0  0  0  0  0  0
    0.3439   -0.5661   -1.7113 C   0  0  1  0  0  0  0  0  0  0  0  0
    1.6189   -0.0479   -1.0207 O   0  0  0  0  0  0  0  0  0  0  0  0
    2.4253   -1.3706   -1.0264 C   0  0  1  0  0  0  0  0  0  0  0  0
    3.8870   -0.5450   -0.9749 C   0  0  0  0  0  0  0  0  0  0  0  0
    4.8640   -1.8612   -0.9130 C   0  0  1  0  0  0  0  0  0  0  0  0
    6.1393   -0.9862   -0.6463 N   0  0  0  0  0  0  0  0  0  0  0  0
    7.2043   -1.5925    0.0458 C   0  0  0  0  0  0  0  0  0  0  0  0
    7.4089   -2.8230   -0.0858 O   0  0  0  0  0  0  0  0  0  0  0  0
    8.3829   -0.7144    0.3429 C   0  0  0  0  0  0  0  0  0  0  0  0
    9.1569   -0.5289   -0.7981 F   0  0  0  0  0  0  0  0  0  0  0  0
    9.1393   -1.1954    1.3762 F   0  0  0  0  0  0  0  0  0  0  0  0
    7.9162    0.5564    0.6665 F   0  0  0  0  0  0  0  0  0  0  0  0
    4.6928   -2.1991    0.7706 C   0  0  1  0  0  0  0  0  0  0  0  0
    4.3382   -0.8089    1.2111 O   0  0  0  0  0  0  0  0  0  0  0  0
    3.0863   -2.8058    0.5461 C   0  0  1  0  0  0  0  0  0  0  0  0
    2.8982   -2.9743    2.1771 C   0  0  0  0  0  0  0  0  0  0  0  0
    2.3831   -1.4595    0.5222 O   0  0  0  0  0  0  0  0  0  0  0  0
    0.2410   -1.8510   -0.6698 C   0  0  0  0  0  0  0  0  0  0  0  0
   -1.1470    4.0479   -0.4595 C   0  0  0  0  0  0  0  0  0  0  0  0
   -0.0727    4.5507   -0.8416 O   0  0  0  0  0  0  0  0  0  0  0  0
   -2.1957    4.9414    0.0246 C   0  0  0  0  0  0  0  0  0  0  0  0
   -1.8653    6.2666    0.2863 C   0  0  0  0  0  0  0  0  0  0  0  0
   -0.5442    6.6292    0.5426 O   0  0  0  0  0  0  0  0  0  0  0  0
    0.0926    7.7415   -0.0298 C   0  0  0  0  0  0  0  0  0  0  0  0
   -2.9093    7.0776    0.6639 C   0  0  0  0  0  0  0  0  0  0  0  0
   -4.2057    6.6126    0.7225 C   0  0  0  0  0  0  0  0  0  0  0  0
   -4.4503    5.2659    0.7038 C   0  0  0  0  0  0  0  0  0  0  0  0
   -3.4044    4.4267    0.4101 C   0  0  0  0  0  0  0  0  0  0  0  0
   -3.5540    2.9771    0.5899 C   0  0  0  0  0  0  0  0  0  0  0  0
   -4.5784    2.4999    1.1613 O   0  0  0  0  0  0  0  0  0  0  0  0
  1  2  1  0
  2  3  1  0
  3  4  1  0
  4  5  1  0
  5  6  2  0
  5  7  1  0
  7  8  1  0
  8  9  1  0
  9 10  2  0
 11  9  1  1
 11 12  1  0
 11 13  1  0
 13 14  1  0
 14 15  2  0
 15 16  1  0
 15 17  1  0
 17 18  2  0
 18 19  1  0
 19 20  1  0
 19 21  2  0
 21 22  1  0
 22 23  1  1
 24 23  1  1
 24 25  1  0
 25 26  1  0
 26 27  1  1
 27 28  1  0
 28 29  2  0
 28 30  1  0
 30 31  1  0
 30 32  1  0
 30 33  1  0
 26 34  1  0
 34 35  1  1
 34 36  1  0
 36 37  1  1
 36 38  1  0
 22 39  1  0
 18 40  1  0
 40 41  2  0
 40 42  1  0
 42 43  2  0
 43 44  1  0
 44 45  1  0
 43 46  1  0
 46 47  2  0
 47 48  1  0
 48 49  2  0
 49 50  1  0
 50 51  2  0
 39 11  1  0
 49 42  1  0
 21 14  1  0
 38 24  1  0
 50 17  1  0
M  END
>  <supplier_code>  (253) 
DB00385

>  <zinc_id>  (253) 
ZINC000028232746

>  <catalog_short_name>  (253) 
dbfda

$$$$

     RDKit          3D

 51 55  0  0  0  0  0  0  0  0999 V2000
   -1.9196    7.5118   -2.7436 C   0  0  0  0  0  0  0  0  0  0  0  0
   -1.3291    7.2396   -1.4170 C   0  0  0  0  0  0  0  0  0  0  0  0
   -2.2891    6.3558   -0.6348 C   0  0  0  0  0  0  0  0  0  0  0  0
   -2.4302    6.9089    0.7738 C   0  0  0  0  0  0  0  0  0  0  0  0
   -1.3027    6.4898    1.6503 C   0  0  0  0  0  0  0  0  0  0  0  0
   -0.8696    7.2736    2.5172 O   0  0  0  0  0  0  0  0  0  0  0  0
   -0.8251    5.1757    1.6543 O   0  0  0  0  0  0  0  0  0  0  0  0
   -0.3851    4.5539    2.8604 C   0  0  0  0  0  0  0  0  0  0  0  0
   -0.8712    3.1294    2.8340 C   0  0  0  0  0  0  0  0  0  0  0  0
   -1.9539    3.0181    3.4097 O   0  0  0  0  0  0  0  0  0  0  0  0
   -0.5917    2.2249    1.6659 C   0  0  2  0  0  0  0  0  0  0  0  0
    0.0174    3.0430    0.7644 O   0  0  0  0  0  0  0  0  0  0  0  0
   -1.9586    1.9749    1.0311 C   0  0  0  0  0  0  0  0  0  0  0  0
   -1.8306    0.5204    0.6899 C   0  0  0  0  0  0  0  0  0  0  0  0
   -3.0228   -0.1439    0.7812 C   0  0  0  0  0  0  0  0  0  0  0  0
   -4.2195    0.4496    1.1935 O   0  0  0  0  0  0  0  0  0  0  0  0
   -3.0344   -1.4760    0.4834 C   0  0  0  0  0  0  0  0  0  0  0  0
   -2.0073   -1.9508   -0.2945 C   0  0  0  0  0  0  0  0  0  0  0  0
   -0.8591   -1.2065   -0.4325 C   0  0  0  0  0  0  0  0  0  0  0  0
    0.1687   -1.8209   -1.0979 O   0  0  0  0  0  0  0  0  0  0  0  0
   -0.6812    0.0678    0.1134 C   0  0  0  0  0  0  0  0  0  0  0  0
    0.6666    0.0667    1.0509 C   0  0  1  0  0  0  0  0  0  0  0  0
    1.3546    1.2698    0.4242 O   0  0  0  0  0  0  0  0  0  0  0  0
    2.2679    0.6242   -0.6225 C   0  0  2  0  0  0  0  0  0  0  0  0
    3.0548   -0.4442    0.4173 C   0  0  0  0  0  0  0  0  0  0  0  0
    3.7088   -1.1495   -0.9175 C   0  0  2  0  0  0  0  0  0  0  0  0
    4.8055   -1.9807   -0.1608 N   0  0  0  0  0  0  0  0  0  0  0  0
    5.8835   -2.3557   -1.0306 C   0  0  0  0  0  0  0  0  0  0  0  0
    5.9598   -1.7933   -2.1656 O   0  0  0  0  0  0  0  0  0  0  0  0
    7.1674   -2.9456   -0.5654 C   0  0  0  0  0  0  0  0  0  0  0  0
    7.8322   -3.4652   -1.6651 F   0  0  0  0  0  0  0  0  0  0  0  0
    7.9145   -1.9150   -0.0001 F   0  0  0  0  0  0  0  0  0  0  0  0
    6.9683   -3.8688    0.4291 F   0  0  0  0  0  0  0  0  0  0  0  0
    4.8743    0.0676   -1.2608 C   0  0  1  0  0  0  0  0  0  0  0  0
    4.0342    0.7937   -2.2661 O   0  0  0  0  0  0  0  0  0  0  0  0
    4.4879    1.0009    0.1381 C   0  0  1  0  0  0  0  0  0  0  0  0
    5.5737    2.1467   -0.3169 C   0  0  0  0  0  0  0  0  0  0  0  0
    3.3113    1.7508   -0.4344 O   0  0  0  0  0  0  0  0  0  0  0  0
    0.0091    1.0443    2.2150 C   0  0  0  0  0  0  0  0  0  0  0  0
   -2.2005   -3.2617   -0.9112 C   0  0  0  0  0  0  0  0  0  0  0  0
   -1.4920   -3.5686   -1.8916 O   0  0  0  0  0  0  0  0  0  0  0  0
   -3.4192   -4.0423   -0.6654 C   0  0  0  0  0  0  0  0  0  0  0  0
   -3.8548   -4.9725   -1.6041 C   0  0  0  0  0  0  0  0  0  0  0  0
   -3.4771   -4.7704   -2.9366 O   0  0  0  0  0  0  0  0  0  0  0  0
   -4.1954   -3.7428   -3.6184 C   0  0  0  0  0  0  0  0  0  0  0  0
   -5.0096   -5.6737   -1.3107 C   0  0  0  0  0  0  0  0  0  0  0  0
   -5.6017   -5.5885   -0.0795 C   0  0  0  0  0  0  0  0  0  0  0  0
   -5.1734   -4.5948    0.7925 C   0  0  0  0  0  0  0  0  0  0  0  0
   -4.2048   -3.6916    0.4278 C   0  0  0  0  0  0  0  0  0  0  0  0
   -4.0618   -2.3656    1.0147 C   0  0  0  0  0  0  0  0  0  0  0  0
   -4.9892   -1.9133    1.7117 O   0  0  0  0  0  0  0  0  0  0  0  0
  1  2  1  0
  2  3  1  0
  3  4  1  0
  4  5  1  0
  5  6  2  0
  5  7  1  0
  7  8  1  0
  8  9  1  0
  9 10  2  0
 11  9  1  1
 11 12  1  0
 11 13  1  0
 13 14  1  0
 14 15  2  0
 15 16  1  0
 15 17  1  0
 17 18  2  0
 18 19  1  0
 19 20  1  0
 19 21  2  0
 21 22  1  0
 22 23  1  6
 24 23  1  1
 24 25  1  0
 25 26  1  0
 26 27  1  1
 27 28  1  0
 28 29  2  0
 28 30  1  0
 30 31  1  0
 30 32  1  0
 30 33  1  0
 26 34  1  0
 34 35  1  6
 34 36  1  0
 36 37  1  6
 36 38  1  0
 22 39  1  0
 18 40  1  0
 40 41  2  0
 40 42  1  0
 42 43  2  0
 43 44  1  0
 44 45  1  0
 43 46  1  0
 46 47  2  0
 47 48  1  0
 48 49  2  0
 49 50  1  0
 50 51  2  0
 39 11  1  0
 49 42  1  0
 21 14  1  0
 38 24  1  0
 50 17  1  0
M  END
>  <supplier_code>  (254) 
DB00385

>  <zinc_id>  (254) 
ZINC000028232750

>  <catalog_short_name>  (254) 
dbfda

$$$$

     RDKit          3D

 51 55  0  0  0  0  0  0  0  0999 V2000
    7.4135    6.0363    0.1871 C   0  0  0  0  0  0  0  0  0  0  0  0
    7.5263    4.8987    0.0808 C   0  0  0  0  0  0  0  0  0  0  0  0
    6.5457    4.2071   -0.8346 C   0  0  0  0  0  0  0  0  0  0  0  0
    5.5674    5.2412   -1.3180 C   0  0  0  0  0  0  0  0  0  0  0  0
    4.3449    5.1162   -0.4635 C   0  0  0  0  0  0  0  0  0  0  0  0
    4.5633    5.3356    0.7670 O   0  0  0  0  0  0  0  0  0  0  0  0
    3.2648    4.3075   -0.8334 O   0  0  0  0  0  0  0  0  0  0  0  0
    2.6172    3.5376    0.1406 C   0  0  0  0  0  0  0  0  0  0  0  0
    2.5582    2.0758   -0.2068 C   0  0  0  0  0  0  0  0  0  0  0  0
    3.4731    1.5305   -0.7720 O   0  0  0  0  0  0  0  0  0  0  0  0
    1.2483    1.4638    0.0851 C   0  0  2  0  0  0  0  0  0  0  0  0
    0.3359    2.2180   -0.6762 O   0  0  0  0  0  0  0  0  0  0  0  0
    0.9540    1.8204    1.5376 C   0  0  0  0  0  0  0  0  0  0  0  0
   -0.5080    1.4956    1.6669 C   0  0  0  0  0  0  0  0  0  0  0  0
   -1.4380    2.4544    1.2754 C   0  0  0  0  0  0  0  0  0  0  0  0
   -1.1615    3.7739    1.5438 O   0  0  0  0  0  0  0  0  0  0  0  0
   -2.5877    2.1483    0.5889 C   0  0  0  0  0  0  0  0  0  0  0  0
   -2.8791    0.8279    0.2996 C   0  0  0  0  0  0  0  0  0  0  0  0
   -1.9616   -0.1220    0.6945 C   0  0  0  0  0  0  0  0  0  0  0  0
   -2.2841   -1.4776    0.7614 O   0  0  0  0  0  0  0  0  0  0  0  0
   -0.7846    0.2079    1.2136 C   0  0  0  0  0  0  0  0  0  0  0  0
    0.5173   -0.7382    1.0941 C   0  0  1  0  0  0  0  0  0  0  0  0
   -0.1648   -1.8394    0.2962 O   0  0  0  0  0  0  0  0  0  0  0  0
    0.9784   -2.8733    0.4265 C   0  0  1  0  0  0  0  0  0  0  0  0
    0.0624   -4.2224    0.2559 C   0  0  0  0  0  0  0  0  0  0  0  0
    0.7849   -5.2646   -0.7187 C   0  0  2  0  0  0  0  0  0  0  0  0
    2.2746   -4.8029   -0.4404 N   0  0  0  0  0  0  0  0  0  0  0  0
    2.9508   -5.8806    0.2197 C   0  0  0  0  0  0  0  0  0  0  0  0
    2.2990   -6.6761    0.9636 O   0  0  0  0  0  0  0  0  0  0  0  0
    4.2752   -6.4010   -0.2131 C   0  0  0  0  0  0  0  0  0  0  0  0
    5.2444   -5.4410   -0.2740 F   0  0  0  0  0  0  0  0  0  0  0  0
    4.7212   -7.3653    0.6562 F   0  0  0  0  0  0  0  0  0  0  0  0
    4.2124   -7.0281   -1.4537 F   0  0  0  0  0  0  0  0  0  0  0  0
    0.6896   -4.5723   -2.2767 C   0  0  1  0  0  0  0  0  0  0  0  0
   -0.6901   -5.1219   -2.5143 O   0  0  0  0  0  0  0  0  0  0  0  0
    0.1606   -2.9680   -1.9562 C   0  0  1  0  0  0  0  0  0  0  0  0
   -1.1627   -3.3567   -1.0673 C   0  0  0  0  0  0  0  0  0  0  0  0
    1.2918   -2.7847   -1.0247 O   0  0  0  0  0  0  0  0  0  0  0  0
    1.0422    0.0514   -0.2664 C   0  0  0  0  0  0  0  0  0  0  0  0
   -4.1645    0.4082   -0.2387 C   0  0  0  0  0  0  0  0  0  0  0  0
   -4.4955   -0.8138   -0.3111 O   0  0  0  0  0  0  0  0  0  0  0  0
   -5.2527    1.3775   -0.2103 C   0  0  0  0  0  0  0  0  0  0  0  0
   -6.5778    1.0103   -0.0090 C   0  0  0  0  0  0  0  0  0  0  0  0
   -6.8541   -0.2742    0.4698 O   0  0  0  0  0  0  0  0  0  0  0  0
   -6.7173   -0.6081    1.8490 C   0  0  0  0  0  0  0  0  0  0  0  0
   -7.5459    1.9629   -0.1727 C   0  0  0  0  0  0  0  0  0  0  0  0
   -7.1895    3.2718   -0.4324 C   0  0  0  0  0  0  0  0  0  0  0  0
   -5.8746    3.6871   -0.4770 C   0  0  0  0  0  0  0  0  0  0  0  0
   -4.8944    2.7177   -0.2999 C   0  0  0  0  0  0  0  0  0  0  0  0
   -3.5283    3.1191    0.0654 C   0  0  0  0  0  0  0  0  0  0  0  0
   -3.2007    4.3294    0.1571 O   0  0  0  0  0  0  0  0  0  0  0  0
  1  2  1  0
  2  3  1  0
  3  4  1  0
  4  5  1  0
  5  6  2  0
  5  7  1  0
  7  8  1  0
  8  9  1  0
  9 10  2  0
 11  9  1  6
 11 12  1  0
 11 13  1  0
 13 14  1  0
 14 15  2  0
 15 16  1  0
 15 17  1  0
 17 18  2  0
 18 19  1  0
 19 20  1  0
 19 21  2  0
 21 22  1  0
 22 23  1  6
 24 23  1  6
 24 25  1  0
 25 26  1  0
 26 27  1  1
 27 28  1  0
 28 29  2  0
 28 30  1  0
 30 31  1  0
 30 32  1  0
 30 33  1  0
 26 34  1  0
 34 35  1  6
 34 36  1  0
 36 37  1  1
 36 38  1  0
 22 39  1  0
 18 40  1  0
 40 41  2  0
 40 42  1  0
 42 43  2  0
 43 44  1  0
 44 45  1  0
 43 46  1  0
 46 47  2  0
 47 48  1  0
 48 49  2  0
 49 50  1  0
 50 51  2  0
 39 11  1  0
 49 42  1  0
 21 14  1  0
 38 24  1  0
 50 17  1  0
M  END
>  <supplier_code>  (255) 
DB00385

>  <zinc_id>  (255) 
ZINC000028232755

>  <catalog_short_name>  (255) 
dbfda

$$$$

     RDKit          3D

 51 55  0  0  0  0  0  0  0  0999 V2000
   -4.9347    8.2550    0.6519 C   0  0  0  0  0  0  0  0  0  0  0  0
   -4.8574    8.1153    0.1690 C   0  0  0  0  0  0  0  0  0  0  0  0
   -3.8884    7.8082   -0.9480 C   0  0  0  0  0  0  0  0  0  0  0  0
   -2.5863    7.2636   -0.4404 C   0  0  0  0  0  0  0  0  0  0  0  0
   -2.8031    5.9708    0.2578 C   0  0  0  0  0  0  0  0  0  0  0  0
   -3.7862    5.7556    1.0012 O   0  0  0  0  0  0  0  0  0  0  0  0
   -2.0869    4.8724   -0.2272 O   0  0  0  0  0  0  0  0  0  0  0  0
   -2.3526    3.5525    0.1620 C   0  0  0  0  0  0  0  0  0  0  0  0
   -1.2255    2.8941    0.8868 C   0  0  0  0  0  0  0  0  0  0  0  0
   -1.3043    3.0796    2.1007 O   0  0  0  0  0  0  0  0  0  0  0  0
   -0.3633    1.8152    0.2864 C   0  0  2  0  0  0  0  0  0  0  0  0
    0.7591    2.4510   -0.2130 O   0  0  0  0  0  0  0  0  0  0  0  0
   -1.2375    1.3734   -0.8863 C   0  0  0  0  0  0  0  0  0  0  0  0
   -1.4606   -0.0542   -0.4734 C   0  0  0  0  0  0  0  0  0  0  0  0
   -2.7169   -0.5796   -0.5300 C   0  0  0  0  0  0  0  0  0  0  0  0
   -3.8293    0.2410   -0.3160 O   0  0  0  0  0  0  0  0  0  0  0  0
   -2.8554   -1.9551   -0.4718 C   0  0  0  0  0  0  0  0  0  0  0  0
   -1.7193   -2.6996   -0.7679 C   0  0  0  0  0  0  0  0  0  0  0  0
   -0.4661   -2.1243   -0.5871 C   0  0  0  0  0  0  0  0  0  0  0  0
    0.6031   -2.9831   -0.5699 O   0  0  0  0  0  0  0  0  0  0  0  0
   -0.2768   -0.7487   -0.4515 C   0  0  0  0  0  0  0  0  0  0  0  0
    0.6061   -0.5035    0.9384 C   0  0  1  0  0  0  0  0  0  0  0  0
    1.7959    0.2142    0.2161 O   0  0  0  0  0  0  0  0  0  0  0  0
    2.5857   -1.1030    0.6585 C   0  0  1  0  0  0  0  0  0  0  0  0
    4.0499   -0.7081   -0.0576 C   0  0  0  0  0  0  0  0  0  0  0  0
    4.0253    0.8629   -0.4223 C   0  0  2  0  0  0  0  0  0  0  0  0
    5.6036    1.0471   -0.2354 N   0  0  0  0  0  0  0  0  0  0  0  0
    6.3979    0.9175   -1.3458 C   0  0  0  0  0  0  0  0  0  0  0  0
    5.9693    1.2234   -2.4745 O   0  0  0  0  0  0  0  0  0  0  0  0
    7.8681    0.7096   -1.1782 C   0  0  0  0  0  0  0  0  0  0  0  0
    8.2759    0.8745    0.1283 F   0  0  0  0  0  0  0  0  0  0  0  0
    8.2720   -0.5256   -1.6495 F   0  0  0  0  0  0  0  0  0  0  0  0
    8.6023    1.6610   -1.8828 F   0  0  0  0  0  0  0  0  0  0  0  0
    3.5845    1.5089    1.1248 C   0  0  2  0  0  0  0  0  0  0  0  0
    4.8564    2.3179    1.3379 O   0  0  0  0  0  0  0  0  0  0  0  0
    4.1100    0.2775    2.2522 C   0  0  2  0  0  0  0  0  0  0  0  0
    5.1932   -0.6033    1.3511 C   0  0  0  0  0  0  0  0  0  0  0  0
    2.8742   -0.5858    2.0846 O   0  0  0  0  0  0  0  0  0  0  0  0
   -0.1930    0.9000    1.3710 C   0  0  0  0  0  0  0  0  0  0  0  0
   -1.9325   -4.1298   -0.8766 C   0  0  0  0  0  0  0  0  0  0  0  0
   -0.9170   -4.8722   -0.9960 O   0  0  0  0  0  0  0  0  0  0  0  0
   -3.1142   -4.7631   -0.2765 C   0  0  0  0  0  0  0  0  0  0  0  0
   -3.2095   -6.1474   -0.2111 C   0  0  0  0  0  0  0  0  0  0  0  0
   -2.0890   -6.9108   -0.5036 O   0  0  0  0  0  0  0  0  0  0  0  0
   -2.1781   -8.1566   -1.1716 C   0  0  0  0  0  0  0  0  0  0  0  0
   -4.2985   -6.7806    0.3750 C   0  0  0  0  0  0  0  0  0  0  0  0
   -5.1544   -5.9859    1.1197 C   0  0  0  0  0  0  0  0  0  0  0  0
   -5.0760   -4.6231    1.0888 C   0  0  0  0  0  0  0  0  0  0  0  0
   -4.0879   -4.0123    0.3649 C   0  0  0  0  0  0  0  0  0  0  0  0
   -4.0466   -2.5701    0.1330 C   0  0  0  0  0  0  0  0  0  0  0  0
   -4.9849   -1.8362    0.5499 O   0  0  0  0  0  0  0  0  0  0  0  0
  1  2  1  0
  2  3  1  0
  3  4  1  0
  4  5  1  0
  5  6  2  0
  5  7  1  0
  7  8  1  0
  8  9  1  0
  9 10  2  0
 11  9  1  1
 11 12  1  0
 11 13  1  0
 13 14  1  0
 14 15  2  0
 15 16  1  0
 15 17  1  0
 17 18  2  0
 18 19  1  0
 19 20  1  0
 19 21  2  0
 21 22  1  0
 22 23  1  6
 24 23  1  6
 24 25  1  0
 25 26  1  0
 26 27  1  1
 27 28  1  0
 28 29  2  0
 28 30  1  0
 30 31  1  0
 30 32  1  0
 30 33  1  0
 26 34  1  0
 34 35  1  1
 34 36  1  0
 36 37  1  6
 36 38  1  0
 22 39  1  0
 18 40  1  0
 40 41  2  0
 40 42  1  0
 42 43  2  0
 43 44  1  0
 44 45  1  0
 43 46  1  0
 46 47  2  0
 47 48  1  0
 48 49  2  0
 49 50  1  0
 50 51  2  0
 39 11  1  0
 49 42  1  0
 21 14  1  0
 38 24  1  0
 50 17  1  0
M  END
>  <supplier_code>  (256) 
DB00385

>  <zinc_id>  (256) 
ZINC000049783788

>  <catalog_short_name>  (256) 
dbfda

$$$$

     RDKit          3D

 12 12  0  0  0  0  0  0  0  0999 V2000
    2.8376    1.3172   -0.7347 C   0  0  0  0  0  0  0  0  0  0  0  0
    3.3061    0.2856   -0.4409 N   0  0  0  0  0  0  0  0  0  0  0  0
    2.2475   -0.7027   -0.5336 C   0  0  0  0  0  0  0  0  0  0  0  0
    1.3619   -0.4412    0.8401 C   0  0  2  0  0  0  0  0  0  0  0  0
    1.2964   -1.9415    1.1025 O   0  0  0  0  0  0  0  0  0  0  0  0
   -0.0239   -0.3676    0.0025 C   0  0  0  0  0  0  0  0  0  0  0  0
   -0.9335   -1.3562    0.1610 C   0  0  0  0  0  0  0  0  0  0  0  0
   -2.2611   -1.2397   -0.1506 C   0  0  0  0  0  0  0  0  0  0  0  0
   -2.7883    0.0358   -0.0950 C   0  0  0  0  0  0  0  0  0  0  0  0
   -1.9353    1.1314   -0.0210 C   0  0  0  0  0  0  0  0  0  0  0  0
   -2.5335    2.3633   -0.1494 O   0  0  0  0  0  0  0  0  0  0  0  0
   -0.5737    0.9156    0.0191 C   0  0  0  0  0  0  0  0  0  0  0  0
  1  2  1  0
  2  3  1  0
  4  3  1  6
  4  5  1  0
  4  6  1  0
  6  7  2  0
  7  8  1  0
  8  9  2  0
  9 10  1  0
 10 11  1  0
 10 12  2  0
 12  6  1  0
M  END
>  <supplier_code>  (257) 
DB00388

>  <zinc_id>  (257) 
ZINC000000113355

>  <catalog_short_name>  (257) 
dbfda

$$$$

     RDKit          3D

 55 62  0  0  0  0  0  0  0  0999 V2000
   11.2356    2.6097   -0.3476 C   0  0  0  0  0  0  0  0  0  0  0  0
    9.7760    2.2385    0.3059 C   0  0  1  0  0  0  0  0  0  0  0  0
    9.8600    0.8231   -0.1928 O   0  0  0  0  0  0  0  0  0  0  0  0
    8.6062    0.3354    0.5387 C   0  0  1  0  0  0  0  0  0  0  0  0
    8.6418   -0.9526   -0.2511 O   0  0  0  0  0  0  0  0  0  0  0  0
    7.3805   -1.6861    0.0064 C   0  0  2  0  0  0  0  0  0  0  0  0
    6.4688   -0.7843   -1.1243 C   0  0  1  0  0  0  0  0  0  0  0  0
    7.1006   -1.6533   -2.3554 C   0  0  0  0  0  0  0  0  0  0  0  0
    5.3306   -1.7563   -0.9465 O   0  0  0  0  0  0  0  0  0  0  0  0
    4.5699   -1.0179    0.1578 C   0  0  1  0  0  0  0  0  0  0  0  0
    3.5299   -2.1342    0.2069 O   0  0  0  0  0  0  0  0  0  0  0  0
    2.6932   -1.6586   -0.9468 C   0  0  2  0  0  0  0  0  0  0  0  0
    2.5066   -0.0976   -0.2510 C   0  0  1  0  0  0  0  0  0  0  0  0
    1.4521    0.4376   -1.4011 C   0  0  0  0  0  0  0  0  0  0  0  0
    1.6911   -0.4203    0.9123 O   0  0  0  0  0  0  0  0  0  0  0  0
    0.2214   -0.5323    0.8476 C   0  0  1  0  0  0  0  0  0  0  0  0
    0.0298    0.9167    0.3581 O   0  0  0  0  0  0  0  0  0  0  0  0
   -1.4692    0.8261    0.5385 C   0  0  1  0  0  0  0  0  0  0  0  0
   -1.4541    1.5887    1.9936 C   0  0  0  0  0  0  0  0  0  0  0  0
   -2.8605    1.9573    2.0062 C   0  0  0  0  0  0  0  0  0  0  0  0
   -3.7992    1.9201    0.9800 C   0  0  1  0  0  0  0  0  0  0  0  0
   -4.4593    3.2977    1.1137 C   0  0  0  0  0  0  0  0  0  0  0  0
   -3.3551    2.0907   -0.5559 C   0  0  2  0  0  0  0  0  0  0  0  0
   -3.0979    0.5578   -1.0382 C   0  0  0  0  0  0  0  0  0  0  0  0
   -4.0786   -0.4105   -0.6469 C   0  0  0  0  0  0  0  0  0  0  0  0
   -5.2784    0.6713   -0.5271 C   0  0  2  0  0  0  0  0  0  0  0  0
   -4.9271    0.7909    1.1253 C   0  0  2  0  0  0  0  0  0  0  0  0
   -6.2264    1.7504    1.3181 C   0  0  0  0  0  0  0  0  0  0  0  0
   -7.3132    0.5434    1.5876 C   0  0  1  0  0  0  0  0  0  0  0  0
   -8.4704    1.5212    1.6777 O   0  0  0  0  0  0  0  0  0  0  0  0
   -7.5393    0.2922   -0.0177 C   0  0  2  0  0  0  0  0  0  0  0  0
   -7.8557    1.4633   -0.7092 C   0  0  0  0  0  0  0  0  0  0  0  0
   -8.7102   -0.8183    0.1092 C   0  0  1  0  0  0  0  0  0  0  0  0
   -8.8059   -0.9947   -1.4795 C   0  0  0  0  0  0  0  0  0  0  0  0
   -9.3294   -2.0882   -2.0517 C   0  0  0  0  0  0  0  0  0  0  0  0
   -9.2502   -1.7941   -3.4964 C   0  0  0  0  0  0  0  0  0  0  0  0
   -8.8093   -2.5449   -4.4267 O   0  0  0  0  0  0  0  0  0  0  0  0
   -8.9450   -0.4284   -3.5908 O   0  0  0  0  0  0  0  0  0  0  0  0
   -9.3630    0.0943   -2.3475 C   0  0  0  0  0  0  0  0  0  0  0  0
   -7.6811   -2.0808    0.2693 C   0  0  0  0  0  0  0  0  0  0  0  0
   -6.3540   -1.4129    0.6472 C   0  0  0  0  0  0  0  0  0  0  0  0
   -6.3965   -0.4622   -0.4183 C   0  0  2  0  0  0  0  0  0  0  0  0
   -6.2938   -1.0246   -1.6460 O   0  0  0  0  0  0  0  0  0  0  0  0
   -1.7517    2.2626   -0.2248 C   0  0  0  0  0  0  0  0  0  0  0  0
    0.2136   -1.2478   -0.6355 C   0  0  0  0  0  0  0  0  0  0  0  0
    1.2687   -2.4855   -0.4911 C   0  0  2  0  0  0  0  0  0  0  0  0
    1.4656   -2.5111    1.0100 O   0  0  0  0  0  0  0  0  0  0  0  0
    5.4468   -1.7326    1.3681 C   0  0  0  0  0  0  0  0  0  0  0  0
    6.8329   -0.8586    1.4023 C   0  0  2  0  0  0  0  0  0  0  0  0
    6.2407    0.3714    0.7696 O   0  0  0  0  0  0  0  0  0  0  0  0
    9.4806   -0.3311    1.7788 C   0  0  0  0  0  0  0  0  0  0  0  0
   10.9427    0.3725    1.6299 C   0  0  2  0  0  0  0  0  0  0  0  0
   11.2183    0.2531    3.1105 O   0  0  0  0  0  0  0  0  0  0  0  0
   10.4952    2.0108    1.8424 C   0  0  2  0  0  0  0  0  0  0  0  0
    9.1750    1.7993    2.5080 O   0  0  0  0  0  0  0  0  0  0  0  0
  2  1  1  6
  2  3  1  0
  3  4  1  0
  4  5  1  6
  6  5  1  6
  6  7  1  0
  7  8  1  6
  7  9  1  0
  9 10  1  0
 10 11  1  1
 12 11  1  1
 12 13  1  0
 13 14  1  6
 13 15  1  0
 15 16  1  0
 16 17  1  6
 18 17  1  6
 18 19  1  0
 19 20  1  0
 20 21  1  0
 21 22  1  1
 21 23  1  0
 23 24  1  6
 24 25  1  0
 26 25  1  6
 26 27  1  0
 27 28  1  1
 28 29  1  0
 29 30  1  6
 29 31  1  0
 31 32  1  6
 31 33  1  0
 33 34  1  6
 34 35  2  0
 35 36  1  0
 36 37  2  0
 36 38  1  0
 38 39  1  0
 33 40  1  0
 40 41  1  0
 41 42  1  0
 42 43  1  6
 23 44  1  0
 16 45  1  0
 45 46  1  0
 46 47  1  1
 10 48  1  0
 48 49  1  0
 49 50  1  6
  4 51  1  0
 51 52  1  0
 52 53  1  1
 52 54  1  0
 54 55  1  1
 54  2  1  0
 49  6  1  0
 46 12  1  0
 44 18  1  0
 27 21  1  0
 42 31  1  0
 42 26  1  0
 39 34  1  0
M  END
>  <supplier_code>  (258) 
DB00390

>  <zinc_id>  (258) 
ZINC000242548690

>  <catalog_short_name>  (258) 
dbfda

$$$$

     RDKit          3D

 30 31  0  0  0  0  0  0  0  0999 V2000
    6.5552   -1.0908   -0.4769 C   0  0  0  0  0  0  0  0  0  0  0  0
    6.0224   -2.2742   -0.0250 O   0  0  0  0  0  0  0  0  0  0  0  0
    4.8253   -2.1444    0.6489 C   0  0  0  0  0  0  0  0  0  0  0  0
    3.6935   -2.8984   -0.0153 C   0  0  0  0  0  0  0  0  0  0  0  0
    2.5018   -2.1712    0.1327 O   0  0  0  0  0  0  0  0  0  0  0  0
    2.0935   -1.1477   -0.7084 C   0  0  0  0  0  0  0  0  0  0  0  0
    2.5799   -1.1638   -1.8794 O   0  0  0  0  0  0  0  0  0  0  0  0
    1.4208    0.0469   -0.1836 C   0  0  0  0  0  0  0  0  0  0  0  0
    2.1670    1.1512   -0.1984 C   0  0  0  0  0  0  0  0  0  0  0  0
    3.5058    1.2732   -0.7931 C   0  0  0  0  0  0  0  0  0  0  0  0
    1.6354    2.2401    0.5552 N   0  0  0  0  0  0  0  0  0  0  0  0
    0.2881    2.0264    0.9998 C   0  0  0  0  0  0  0  0  0  0  0  0
   -0.2633    2.7791    2.1706 C   0  0  0  0  0  0  0  0  0  0  0  0
   -0.5514    1.2739    0.3517 C   0  0  0  0  0  0  0  0  0  0  0  0
   -1.8548    1.8770    0.0120 C   0  0  0  0  0  0  0  0  0  0  0  0
   -2.6551    2.1253    0.9646 O   0  0  0  0  0  0  0  0  0  0  0  0
   -2.0620    2.6317   -1.1337 O   0  0  0  0  0  0  0  0  0  0  0  0
   -2.5612    3.9677   -1.1194 C   0  0  0  0  0  0  0  0  0  0  0  0
   -3.3789    4.1598    0.1521 C   0  0  0  0  0  0  0  0  0  0  0  0
   -1.3865    4.9324   -0.9928 C   0  0  0  0  0  0  0  0  0  0  0  0
    0.0015    0.3899   -0.8756 C   0  0  2  0  0  0  0  0  0  0  0  0
   -0.6699   -0.9699   -0.3185 C   0  0  0  0  0  0  0  0  0  0  0  0
   -0.4126   -2.0720   -1.1336 C   0  0  0  0  0  0  0  0  0  0  0  0
   -0.9289   -3.2813   -0.6776 C   0  0  0  0  0  0  0  0  0  0  0  0
   -2.2025   -3.2082   -0.1288 C   0  0  0  0  0  0  0  0  0  0  0  0
   -2.7566   -1.9965    0.2164 C   0  0  0  0  0  0  0  0  0  0  0  0
   -4.0937   -1.9365    0.6672 N   0  0  0  0  0  0  0  0  0  0  0  0
   -4.8628   -2.8733    0.3842 O   0  0  0  0  0  0  0  0  0  0  0  0
   -4.6233   -0.7845    1.2012 O   0  0  0  0  0  0  0  0  0  0  0  0
   -2.0268   -0.8618   -0.0266 C   0  0  0  0  0  0  0  0  0  0  0  0
  1  2  1  0
  2  3  1  0
  3  4  1  0
  4  5  1  0
  5  6  1  0
  6  7  2  0
  6  8  1  0
  8  9  2  0
  9 10  1  0
  9 11  1  0
 11 12  1  0
 12 13  1  0
 12 14  2  0
 14 15  1  0
 15 16  2  0
 15 17  1  0
 17 18  1  0
 18 19  1  0
 18 20  1  0
 14 21  1  0
 21 22  1  1
 22 23  2  0
 23 24  1  0
 24 25  2  0
 25 26  1  0
 26 27  1  0
 27 28  2  0
 27 29  1  0
 26 30  2  0
 21  8  1  0
 30 22  1  0
M  CHG  2  27   1  29  -1
M  END
>  <supplier_code>  (259) 
DB00393

>  <zinc_id>  (259) 
ZINC000019632713

>  <catalog_short_name>  (259) 
dbfda

$$$$

     RDKit          3D

 30 31  0  0  0  0  0  0  0  0999 V2000
    7.0375   -0.3002    0.1572 C   0  0  0  0  0  0  0  0  0  0  0  0
    6.8382   -1.1713    1.2294 O   0  0  0  0  0  0  0  0  0  0  0  0
    5.5561   -1.0163    1.7830 C   0  0  0  0  0  0  0  0  0  0  0  0
    4.8119   -0.0806    0.8898 C   0  0  0  0  0  0  0  0  0  0  0  0
    3.4187   -0.0193    1.1400 O   0  0  0  0  0  0  0  0  0  0  0  0
    2.4764   -0.6370    0.3085 C   0  0  0  0  0  0  0  0  0  0  0  0
    2.9731   -1.6295   -0.3108 O   0  0  0  0  0  0  0  0  0  0  0  0
    1.3544    0.1009   -0.2953 C   0  0  0  0  0  0  0  0  0  0  0  0
    1.4990    1.0172   -1.2064 C   0  0  0  0  0  0  0  0  0  0  0  0
    2.8871    1.3723   -1.6450 C   0  0  0  0  0  0  0  0  0  0  0  0
    0.4086    0.9505   -2.1415 N   0  0  0  0  0  0  0  0  0  0  0  0
   -0.8877    1.0732   -1.5367 C   0  0  0  0  0  0  0  0  0  0  0  0
   -1.9303    1.8888   -2.2474 C   0  0  0  0  0  0  0  0  0  0  0  0
   -0.8451    1.1648   -0.2472 C   0  0  0  0  0  0  0  0  0  0  0  0
   -1.4882    2.2012    0.5626 C   0  0  0  0  0  0  0  0  0  0  0  0
   -0.7159    2.9327    1.2533 O   0  0  0  0  0  0  0  0  0  0  0  0
   -2.7675    2.6608    0.3564 O   0  0  0  0  0  0  0  0  0  0  0  0
   -3.0119    4.0583    0.5021 C   0  0  0  0  0  0  0  0  0  0  0  0
   -4.1055    4.5088   -0.4377 C   0  0  0  0  0  0  0  0  0  0  0  0
   -3.3420    4.4271    1.9248 C   0  0  0  0  0  0  0  0  0  0  0  0
    0.0051    0.0808    0.5853 C   0  0  1  0  0  0  0  0  0  0  0  0
   -0.6051   -1.1813   -0.2230 C   0  0  0  0  0  0  0  0  0  0  0  0
    0.0412   -2.3204    0.2504 C   0  0  0  0  0  0  0  0  0  0  0  0
   -0.4354   -3.5768   -0.1004 C   0  0  0  0  0  0  0  0  0  0  0  0
   -1.7538   -3.6292   -0.5179 C   0  0  0  0  0  0  0  0  0  0  0  0
   -2.5843   -2.5257   -0.3640 C   0  0  0  0  0  0  0  0  0  0  0  0
   -3.9722   -2.7663   -0.1018 N   0  0  0  0  0  0  0  0  0  0  0  0
   -4.4835   -3.7861   -0.6295 O   0  0  0  0  0  0  0  0  0  0  0  0
   -4.3877   -2.5072    1.1906 O   0  0  0  0  0  0  0  0  0  0  0  0
   -1.9916   -1.2905   -0.1286 C   0  0  0  0  0  0  0  0  0  0  0  0
  1  2  1  0
  2  3  1  0
  3  4  1  0
  4  5  1  0
  5  6  1  0
  6  7  2  0
  6  8  1  0
  8  9  2  0
  9 10  1  0
  9 11  1  0
 11 12  1  0
 12 13  1  0
 12 14  2  0
 14 15  1  0
 15 16  2  0
 15 17  1  0
 17 18  1  0
 18 19  1  0
 18 20  1  0
 14 21  1  0
 21 22  1  6
 22 23  2  0
 23 24  1  0
 24 25  2  0
 25 26  1  0
 26 27  1  0
 27 28  2  0
 27 29  1  0
 26 30  2  0
 21  8  1  0
 30 22  1  0
M  CHG  2  27   1  29  -1
M  END
>  <supplier_code>  (260) 
DB00393

>  <zinc_id>  (260) 
ZINC000019632718

>  <catalog_short_name>  (260) 
dbfda

$$$$

     RDKit          3D

 36 39  0  0  0  0  0  0  0  0999 V2000
    7.3784   -3.1881    0.2240 C   0  0  0  0  0  0  0  0  0  0  0  0
    6.8442   -2.3855   -0.6756 C   0  0  0  0  0  0  0  0  0  0  0  0
    6.0350   -1.2888   -0.0578 C   0  0  0  0  0  0  0  0  0  0  0  0
    6.6719   -0.3164    0.4400 O   0  0  0  0  0  0  0  0  0  0  0  0
    4.7383   -1.4723    0.3719 O   0  0  0  0  0  0  0  0  0  0  0  0
    3.8867   -0.3752    0.5739 C   0  0  0  0  0  0  0  0  0  0  0  0
    2.7760   -0.3081   -0.4226 C   0  0  0  0  0  0  0  0  0  0  0  0
    2.8179   -1.1462   -1.3229 O   0  0  0  0  0  0  0  0  0  0  0  0
    1.5571    0.4146   -0.1540 C   0  0  1  0  0  0  0  0  0  0  0  0
    1.6394    1.0170    1.1382 O   0  0  0  0  0  0  0  0  0  0  0  0
    2.6017    1.9905    1.3525 C   0  0  0  0  0  0  0  0  0  0  0  0
    3.1230    2.6267    0.3983 O   0  0  0  0  0  0  0  0  0  0  0  0
    2.8552    2.5216    2.7185 C   0  0  0  0  0  0  0  0  0  0  0  0
    3.3713    3.9490    2.6770 C   0  0  0  0  0  0  0  0  0  0  0  0
    1.4344    1.7314   -1.0939 C   0  0  1  0  0  0  0  0  0  0  0  0
    2.2872    1.1136   -2.3400 C   0  0  0  0  0  0  0  0  0  0  0  0
    0.0094    1.3256   -1.7896 C   0  0  0  0  0  0  0  0  0  0  0  0
   -0.6194    1.0524   -0.3288 C   0  0  1  0  0  0  0  0  0  0  0  0
   -1.9225    0.1340   -0.8899 C   0  0  2  0  0  0  0  0  0  0  0  0
   -2.8726    1.4437   -0.9850 C   0  0  0  0  0  0  0  0  0  0  0  0
   -4.1045    0.8433   -1.6150 C   0  0  0  0  0  0  0  0  0  0  0  0
   -4.5567   -0.2540   -0.7006 C   0  0  0  0  0  0  0  0  0  0  0  0
   -5.8631   -0.5424   -0.6911 C   0  0  0  0  0  0  0  0  0  0  0  0
   -6.5804   -0.6546    0.5906 C   0  0  0  0  0  0  0  0  0  0  0  0
   -7.8315   -0.8530    0.6415 O   0  0  0  0  0  0  0  0  0  0  0  0
   -5.9399    0.1135    1.6692 C   0  0  0  0  0  0  0  0  0  0  0  0
   -4.6060    0.1275    1.6445 C   0  0  0  0  0  0  0  0  0  0  0  0
   -3.8527   -0.5887    0.5639 C   0  0  1  0  0  0  0  0  0  0  0  0
   -4.0792   -2.0715    0.8575 C   0  0  0  0  0  0  0  0  0  0  0  0
   -2.4126   -0.2034    0.5963 C   0  0  2  0  0  0  0  0  0  0  0  0
   -2.1464    1.0778    1.7061 Cl  0  0  0  0  0  0  0  0  0  0  0  0
   -1.5775   -1.5330    1.0688 C   0  0  1  0  0  0  0  0  0  0  0  0
   -1.5230   -2.1444   -0.3199 O   0  0  0  0  0  0  0  0  0  0  0  0
   -0.0806   -0.8769    0.9818 C   0  0  0  0  0  0  0  0  0  0  0  0
    0.2771   -0.2854   -0.2411 C   0  0  2  0  0  0  0  0  0  0  0  0
    0.2644   -0.9944   -1.5368 C   0  0  0  0  0  0  0  0  0  0  0  0
  1  2  1  0
  2  3  1  0
  3  4  2  0
  3  5  1  0
  5  6  1  0
  6  7  1  0
  7  8  2  0
  9  7  1  6
  9 10  1  0
 10 11  1  0
 11 12  2  0
 11 13  1  0
 13 14  1  0
  9 15  1  0
 15 16  1  6
 15 17  1  0
 18 17  1  6
 18 19  1  0
 19 20  1  6
 20 21  1  0
 21 22  1  0
 22 23  2  0
 23 24  1  0
 24 25  2  0
 24 26  1  0
 26 27  2  0
 27 28  1  0
 28 29  1  1
 28 30  1  0
 30 31  1  1
 30 32  1  0
 32 33  1  6
 32 34  1  0
 34 35  1  0
 35 36  1  6
 35  9  1  0
 35 18  1  0
 30 19  1  0
 28 22  1  0
M  END
>  <supplier_code>  (261) 
DB00394

>  <zinc_id>  (261) 
ZINC000003938744

>  <catalog_short_name>  (261) 
dbfda

$$$$

     RDKit          3D

 18 17  0  0  0  0  0  0  0  0999 V2000
   -1.0705    4.0002   -0.1392 C   0  0  0  0  0  0  0  0  0  0  0  0
   -0.7341    3.2930   -0.9275 C   0  0  0  0  0  0  0  0  0  0  0  0
   -1.2403    1.9000   -1.1245 C   0  0  0  0  0  0  0  0  0  0  0  0
   -1.4973    1.1573    0.1566 C   0  0  1  0  0  0  0  0  0  0  0  0
   -2.0381    2.0898    1.2309 C   0  0  0  0  0  0  0  0  0  0  0  0
   -2.5507    0.1090   -0.0963 C   0  0  0  0  0  0  0  0  0  0  0  0
   -2.0026   -1.1746   -0.2724 O   0  0  0  0  0  0  0  0  0  0  0  0
   -2.6935   -2.2942    0.1368 C   0  0  0  0  0  0  0  0  0  0  0  0
   -1.9828   -3.4763    0.4624 N   0  0  0  0  0  0  0  0  0  0  0  0
   -3.8414   -2.1474    0.6547 O   0  0  0  0  0  0  0  0  0  0  0  0
   -0.2426    0.5449    0.7029 C   0  0  0  0  0  0  0  0  0  0  0  0
    0.5755   -0.0029   -0.3279 O   0  0  0  0  0  0  0  0  0  0  0  0
    1.6847   -0.7571   -0.0101 C   0  0  0  0  0  0  0  0  0  0  0  0
    1.8492   -1.2398    1.1512 O   0  0  0  0  0  0  0  0  0  0  0  0
    2.7986   -0.9341   -0.8912 N   0  0  0  0  0  0  0  0  0  0  0  0
    4.1779   -0.8135   -0.4239 C   0  0  0  0  0  0  0  0  0  0  0  0
    4.1991   -0.8549    1.1001 C   0  0  0  0  0  0  0  0  0  0  0  0
    4.6089    0.6008   -0.7983 C   0  0  0  0  0  0  0  0  0  0  0  0
  1  2  1  0
  2  3  1  0
  4  3  1  6
  4  5  1  0
  4  6  1  0
  6  7  1  0
  7  8  1  0
  8  9  1  0
  8 10  2  0
  4 11  1  0
 11 12  1  0
 12 13  1  0
 13 14  2  0
 13 15  1  0
 15 16  1  0
 16 17  1  0
 16 18  1  0
M  END
>  <supplier_code>  (262) 
DB00395

>  <zinc_id>  (262) 
ZINC000001530950

>  <catalog_short_name>  (262) 
dbfda

$$$$

     RDKit          3D

 18 17  0  0  0  0  0  0  0  0999 V2000
   -0.9308    0.3335   -2.0185 C   0  0  0  0  0  0  0  0  0  0  0  0
   -1.4080    0.1569   -2.0371 C   0  0  0  0  0  0  0  0  0  0  0  0
   -2.3220   -0.6387   -1.1115 C   0  0  0  0  0  0  0  0  0  0  0  0
   -1.4942   -0.9591    0.1277 C   0  0  2  0  0  0  0  0  0  0  0  0
   -2.0530   -2.2489    0.6875 C   0  0  0  0  0  0  0  0  0  0  0  0
   -1.6282    0.1638    1.1111 C   0  0  0  0  0  0  0  0  0  0  0  0
   -2.0344    1.3309    0.4133 O   0  0  0  0  0  0  0  0  0  0  0  0
   -3.3546    1.7576    0.4836 C   0  0  0  0  0  0  0  0  0  0  0  0
   -3.6772    2.9703   -0.1851 N   0  0  0  0  0  0  0  0  0  0  0  0
   -4.2786    0.9572    0.7480 O   0  0  0  0  0  0  0  0  0  0  0  0
   -0.0952   -1.2146   -0.3344 C   0  0  0  0  0  0  0  0  0  0  0  0
    0.8979   -0.7971    0.5617 O   0  0  0  0  0  0  0  0  0  0  0  0
    2.2170   -0.9119    0.1628 C   0  0  0  0  0  0  0  0  0  0  0  0
    2.4943   -1.5509   -0.8962 O   0  0  0  0  0  0  0  0  0  0  0  0
    3.3127   -0.3604    0.8722 N   0  0  0  0  0  0  0  0  0  0  0  0
    4.6117   -0.1512    0.2445 C   0  0  0  0  0  0  0  0  0  0  0  0
    4.4879    0.1239   -1.2353 C   0  0  0  0  0  0  0  0  0  0  0  0
    5.2548    1.0386    0.9326 C   0  0  0  0  0  0  0  0  0  0  0  0
  1  2  1  0
  2  3  1  0
  4  3  1  6
  4  5  1  0
  4  6  1  0
  6  7  1  0
  7  8  1  0
  8  9  1  0
  8 10  2  0
  4 11  1  0
 11 12  1  0
 12 13  1  0
 13 14  2  0
 13 15  1  0
 15 16  1  0
 16 17  1  0
 16 18  1  0
M  END
>  <supplier_code>  (263) 
DB00395

>  <zinc_id>  (263) 
ZINC000001530951

>  <catalog_short_name>  (263) 
dbfda

$$$$

     RDKit          3D

 23 26  0  0  0  0  0  0  0  0999 V2000
    4.5143    0.0023   -0.0255 C   0  0  0  0  0  0  0  0  0  0  0  0
    4.4923    0.2483    0.3834 C   0  0  0  0  0  0  0  0  0  0  0  0
    4.6192   -0.8234    0.9907 O   0  0  0  0  0  0  0  0  0  0  0  0
    3.3161    1.2113    0.9277 C   0  0  1  0  0  0  0  0  0  0  0  0
    3.3156    2.0689   -0.4639 C   0  0  0  0  0  0  0  0  0  0  0  0
    1.9389    1.9822   -0.9807 C   0  0  0  0  0  0  0  0  0  0  0  0
    1.0994    1.4434    0.2918 C   0  0  1  0  0  0  0  0  0  0  0  0
    0.0408    0.5149   -0.6392 C   0  0  2  0  0  0  0  0  0  0  0  0
   -0.9671    1.7481   -0.8428 C   0  0  0  0  0  0  0  0  0  0  0  0
   -2.1399    1.1393   -1.5689 C   0  0  0  0  0  0  0  0  0  0  0  0
   -2.6794   -0.0346   -0.8205 C   0  0  0  0  0  0  0  0  0  0  0  0
   -4.0013   -0.0745   -0.6786 C   0  0  0  0  0  0  0  0  0  0  0  0
   -4.6404   -0.6353    0.5193 C   0  0  0  0  0  0  0  0  0  0  0  0
   -5.6564   -1.3829    0.3877 O   0  0  0  0  0  0  0  0  0  0  0  0
   -3.6840   -1.0590    1.5902 C   0  0  0  0  0  0  0  0  0  0  0  0
   -2.5360   -1.7644    0.9319 C   0  0  0  0  0  0  0  0  0  0  0  0
   -1.7857   -0.9394   -0.0622 C   0  0  1  0  0  0  0  0  0  0  0  0
   -1.0285   -1.7569   -1.0395 C   0  0  0  0  0  0  0  0  0  0  0  0
   -0.7523    0.0013    0.7604 C   0  0  1  0  0  0  0  0  0  0  0  0
    0.3176   -1.1938    1.0079 C   0  0  0  0  0  0  0  0  0  0  0  0
    1.5995   -0.5766    1.4849 C   0  0  0  0  0  0  0  0  0  0  0  0
    2.1457    0.2143    0.4075 C   0  0  2  0  0  0  0  0  0  0  0  0
    2.4715   -0.3336   -0.8832 C   0  0  0  0  0  0  0  0  0  0  0  0
  1  2  1  0
  2  3  2  0
  4  2  1  6
  4  5  1  0
  5  6  1  0
  7  6  1  6
  7  8  1  0
  8  9  1  6
  9 10  1  0
 10 11  1  0
 11 12  2  0
 12 13  1  0
 13 14  2  0
 13 15  1  0
 15 16  1  0
 16 17  1  0
 17 18  1  6
 17 19  1  0
 19 20  1  1
 20 21  1  0
 21 22  1  0
 22 23  1  6
 22  4  1  0
 22  7  1  0
 19  8  1  0
 17 11  1  0
M  END
>  <supplier_code>  (264) 
DB00396

>  <zinc_id>  (264) 
ZINC000004428529

>  <catalog_short_name>  (264) 
dbfda

$$$$

     RDKit          3D

 32 34  0  0  0  0  0  0  0  0999 V2000
   10.2641   -0.3440    0.3280 C   0  0  0  0  0  0  0  0  0  0  0  0
    8.9191   -0.2635   -0.1840 N   0  0  0  0  0  0  0  0  0  0  0  0
    7.7936   -0.3280    0.6657 C   0  0  0  0  0  0  0  0  0  0  0  0
    7.8823   -0.9157    1.7683 O   0  0  0  0  0  0  0  0  0  0  0  0
    6.5743    0.3904    0.2754 C   0  0  0  0  0  0  0  0  0  0  0  0
    5.7112   -0.2146   -0.6277 C   0  0  0  0  0  0  0  0  0  0  0  0
    4.6781    0.5512   -1.1469 C   0  0  0  0  0  0  0  0  0  0  0  0
    3.4494   -0.0106   -1.5067 O   0  0  0  0  0  0  0  0  0  0  0  0
    2.4944   -0.0702   -0.4871 C   0  0  0  0  0  0  0  0  0  0  0  0
    1.2984    0.6319   -0.5604 C   0  0  0  0  0  0  0  0  0  0  0  0
    0.1470    0.0489   -0.0482 C   0  0  0  0  0  0  0  0  0  0  0  0
    0.1992   -1.1745    0.6085 C   0  0  0  0  0  0  0  0  0  0  0  0
   -0.9626   -2.0120    0.6295 N   0  0  0  0  0  0  0  0  0  0  0  0
   -2.1968   -1.4982    0.1786 C   0  0  0  0  0  0  0  0  0  0  0  0
   -2.2258   -0.5712   -0.6861 O   0  0  0  0  0  0  0  0  0  0  0  0
   -3.4681   -1.9441    0.6405 N   0  0  0  0  0  0  0  0  0  0  0  0
   -4.5865   -1.0623    0.7899 C   0  0  0  0  0  0  0  0  0  0  0  0
   -4.4592   -0.0259    1.7076 C   0  0  0  0  0  0  0  0  0  0  0  0
   -5.0492    1.2101    1.4904 C   0  0  0  0  0  0  0  0  0  0  0  0
   -6.1751    1.2457    0.7114 C   0  0  0  0  0  0  0  0  0  0  0  0
   -7.1213    2.7080    0.6949 Cl  0  0  0  0  0  0  0  0  0  0  0  0
   -6.3905    0.1943   -0.1706 C   0  0  0  0  0  0  0  0  0  0  0  0
   -7.7224    0.1893   -0.8509 C   0  0  0  0  0  0  0  0  0  0  0  0
   -8.6477   -0.1381    0.1328 F   0  0  0  0  0  0  0  0  0  0  0  0
   -7.9613    1.4982   -1.2598 F   0  0  0  0  0  0  0  0  0  0  0  0
   -7.7631   -0.6724   -1.9159 F   0  0  0  0  0  0  0  0  0  0  0  0
   -5.5574   -0.9174   -0.1767 C   0  0  0  0  0  0  0  0  0  0  0  0
    1.4160   -1.5567    1.0979 C   0  0  0  0  0  0  0  0  0  0  0  0
    2.5621   -1.0261    0.5192 C   0  0  0  0  0  0  0  0  0  0  0  0
    4.8134    1.9239   -0.9957 C   0  0  0  0  0  0  0  0  0  0  0  0
    5.6987    2.4936   -0.1081 C   0  0  0  0  0  0  0  0  0  0  0  0
    6.3858    1.6601    0.7099 N   0  0  0  0  0  0  0  0  0  0  0  0
  1  2  1  0
  2  3  1  0
  3  4  2  0
  3  5  1  0
  5  6  2  0
  6  7  1  0
  7  8  1  0
  8  9  1  0
  9 10  2  0
 10 11  1  0
 11 12  2  0
 12 13  1  0
 13 14  1  0
 14 15  2  0
 14 16  1  0
 16 17  1  0
 17 18  2  0
 18 19  1  0
 19 20  2  0
 20 21  1  0
 20 22  1  0
 22 23  1  0
 23 24  1  0
 23 25  1  0
 23 26  1  0
 22 27  2  0
 12 28  1  0
 28 29  2  0
  7 30  2  0
 30 31  1  0
 31 32  2  0
 32  5  1  0
 29  9  1  0
 27 17  1  0
M  END
>  <supplier_code>  (265) 
DB00398

>  <zinc_id>  (265) 
ZINC000001493878

>  <catalog_short_name>  (265) 
dbfda

$$$$

     RDKit          3D

 16 16  0  0  0  0  0  0  0  0999 V2000
   -1.1816   -2.2997   -1.1727 O   0  0  0  0  0  0  0  0  0  0  0  0
   -1.8886   -1.1052   -0.5487 P   0  0  0  0  0  0  0  0  0  0  0  0
   -2.9628   -1.6559    0.6340 O   0  0  0  0  0  0  0  0  0  0  0  0
   -2.7028   -0.2827   -1.7832 O   0  0  0  0  0  0  0  0  0  0  0  0
   -0.5812   -0.0626    0.1809 C   0  0  0  0  0  0  0  0  0  0  0  0
   -0.1982   -0.5994    1.3965 O   0  0  0  0  0  0  0  0  0  0  0  0
    0.5197   -0.0165   -0.8379 C   0  0  0  0  0  0  0  0  0  0  0  0
    1.8397   -0.0830   -0.2769 N   0  0  0  0  0  0  0  0  0  0  0  0
    2.9310   -0.1803   -1.0728 C   0  0  0  0  0  0  0  0  0  0  0  0
    3.9394   -0.8025   -0.3505 C   0  0  0  0  0  0  0  0  0  0  0  0
    3.5008   -0.7685    0.9255 N   0  0  0  0  0  0  0  0  0  0  0  0
    2.2799   -0.1881    0.9790 C   0  0  0  0  0  0  0  0  0  0  0  0
   -1.2154    1.6143    0.4152 P   0  0  0  0  0  0  0  0  0  0  0  0
   -0.7943    2.4691   -0.7690 O   0  0  0  0  0  0  0  0  0  0  0  0
   -0.5825    2.3176    1.8031 O   0  0  0  0  0  0  0  0  0  0  0  0
   -2.9030    1.6433    0.4775 O   0  0  0  0  0  0  0  0  0  0  0  0
  1  2  2  0
  2  3  1  0
  2  4  1  0
  2  5  1  0
  5  6  1  0
  5  7  1  0
  7  8  1  0
  8  9  1  0
  9 10  2  0
 10 11  1  0
 11 12  2  0
  5 13  1  0
 13 14  2  0
 13 15  1  0
 13 16  1  0
 12  8  1  0
M  END
>  <supplier_code>  (266) 
DB00399

>  <zinc_id>  (266) 
ZINC000003803652

>  <catalog_short_name>  (266) 
dbfda

$$$$

     RDKit          3D

 24 26  0  0  0  0  0  0  0  0999 V2000
    2.0572   -2.7613   -2.6288 C   0  0  0  0  0  0  0  0  0  0  0  0
    1.3518   -1.9287   -1.8933 O   0  0  0  0  0  0  0  0  0  0  0  0
    1.7511   -1.1191   -0.8460 C   0  0  0  0  0  0  0  0  0  0  0  0
    3.0634   -0.7164   -0.6478 C   0  0  0  0  0  0  0  0  0  0  0  0
    3.3307    0.3011    0.2617 C   0  0  0  0  0  0  0  0  0  0  0  0
    4.5221    0.3512    0.9855 O   0  0  0  0  0  0  0  0  0  0  0  0
    4.5512   -0.2240    2.2822 C   0  0  0  0  0  0  0  0  0  0  0  0
    2.2881    1.1162    0.6862 C   0  0  0  0  0  0  0  0  0  0  0  0
    2.6609    2.7319    1.2558 Cl  0  0  0  0  0  0  0  0  0  0  0  0
    0.9647    0.7638    0.4542 C   0  0  0  0  0  0  0  0  0  0  0  0
    0.7600   -0.4952   -0.0969 C   0  0  0  0  0  0  0  0  0  0  0  0
   -0.6373   -0.8034    0.2470 C   0  0  0  0  0  0  0  0  0  0  0  0
   -1.0760   -1.9500   -0.0791 O   0  0  0  0  0  0  0  0  0  0  0  0
   -1.2897    0.5095    0.2612 C   0  0  1  0  0  0  0  0  0  0  0  0
   -0.2654    1.4232    0.5376 O   0  0  0  0  0  0  0  0  0  0  0  0
   -2.1277    0.8192   -0.8856 C   0  0  0  0  0  0  0  0  0  0  0  0
   -1.7047    1.5973   -1.9667 O   0  0  0  0  0  0  0  0  0  0  0  0
   -2.1277    2.9461   -2.0339 C   0  0  0  0  0  0  0  0  0  0  0  0
   -3.2246    0.0786   -1.0486 C   0  0  0  0  0  0  0  0  0  0  0  0
   -3.8573   -0.6225    0.0631 C   0  0  0  0  0  0  0  0  0  0  0  0
   -4.5912   -1.5990   -0.2555 O   0  0  0  0  0  0  0  0  0  0  0  0
   -2.9478   -0.9088    1.2206 C   0  0  0  0  0  0  0  0  0  0  0  0
   -2.2964    0.5698    1.5610 C   0  0  1  0  0  0  0  0  0  0  0  0
   -1.1553   -0.0796    2.5659 C   0  0  0  0  0  0  0  0  0  0  0  0
  1  2  1  0
  2  3  1  0
  3  4  2  0
  4  5  1  0
  5  6  1  0
  6  7  1  0
  5  8  2  0
  8  9  1  0
  8 10  1  0
 10 11  2  0
 11 12  1  0
 12 13  2  0
 14 12  1  6
 14 15  1  0
 14 16  1  0
 16 17  1  0
 17 18  1  0
 16 19  2  0
 19 20  1  0
 20 21  2  0
 20 22  1  0
 22 23  1  0
 23 24  1  1
 11  3  1  0
 23 14  1  0
 15 10  1  0
M  END
>  <supplier_code>  (267) 
DB00400

>  <zinc_id>  (267) 
ZINC000000622123

>  <catalog_short_name>  (267) 
dbfda

$$$$

     RDKit          3D

 28 29  0  0  0  0  0  0  0  0999 V2000
   -5.0454    2.1620   -1.0631 C   0  0  0  0  0  0  0  0  0  0  0  0
   -3.9447    1.7898   -0.4038 O   0  0  0  0  0  0  0  0  0  0  0  0
   -2.8273    1.1686   -0.9419 C   0  0  0  0  0  0  0  0  0  0  0  0
   -2.7297    1.2276   -2.2062 O   0  0  0  0  0  0  0  0  0  0  0  0
   -1.5661    1.3065   -0.2101 C   0  0  0  0  0  0  0  0  0  0  0  0
   -1.2332    2.2374    0.5915 C   0  0  0  0  0  0  0  0  0  0  0  0
   -2.3721    2.9534    1.2507 C   0  0  0  0  0  0  0  0  0  0  0  0
   -0.0207    2.9320    0.2649 N   0  0  0  0  0  0  0  0  0  0  0  0
    0.9683    2.1291   -0.3405 C   0  0  0  0  0  0  0  0  0  0  0  0
    2.3172    2.7317   -0.5901 C   0  0  0  0  0  0  0  0  0  0  0  0
    0.8393    0.8568    0.0634 C   0  0  0  0  0  0  0  0  0  0  0  0
    1.9921    0.0239   -0.3206 C   0  0  0  0  0  0  0  0  0  0  0  0
    2.2748    0.0502   -1.5572 O   0  0  0  0  0  0  0  0  0  0  0  0
    3.0405   -0.2988    0.5165 O   0  0  0  0  0  0  0  0  0  0  0  0
    4.3911   -0.0260    0.2562 C   0  0  0  0  0  0  0  0  0  0  0  0
    5.2796   -1.2076    0.1143 C   0  0  0  0  0  0  0  0  0  0  0  0
    4.7573   -2.4795    0.6938 C   0  0  0  0  0  0  0  0  0  0  0  0
    6.5949   -0.8665    0.8090 C   0  0  0  0  0  0  0  0  0  0  0  0
   -0.4404    0.2824   -0.7971 C   0  0  1  0  0  0  0  0  0  0  0  0
   -0.7763   -0.8524    0.3346 C   0  0  0  0  0  0  0  0  0  0  0  0
   -0.8459   -0.4159    1.6156 C   0  0  0  0  0  0  0  0  0  0  0  0
   -1.1880   -1.3593    2.5770 C   0  0  0  0  0  0  0  0  0  0  0  0
   -2.2003   -2.2324    2.2061 C   0  0  0  0  0  0  0  0  0  0  0  0
   -2.3841   -2.4945    0.8523 C   0  0  0  0  0  0  0  0  0  0  0  0
   -1.6399   -1.8266   -0.1109 C   0  0  0  0  0  0  0  0  0  0  0  0
   -1.2795   -2.4423   -1.3548 N   0  0  0  0  0  0  0  0  0  0  0  0
   -0.8589   -3.6130   -1.3207 O   0  0  0  0  0  0  0  0  0  0  0  0
   -1.1026   -1.7365   -2.5102 O   0  0  0  0  0  0  0  0  0  0  0  0
  1  2  1  0
  2  3  1  0
  3  4  2  0
  3  5  1  0
  5  6  2  0
  6  7  1  0
  6  8  1  0
  8  9  1  0
  9 10  1  0
  9 11  2  0
 11 12  1  0
 12 13  2  0
 12 14  1  0
 14 15  1  0
 15 16  1  0
 16 17  1  0
 16 18  1  0
 11 19  1  0
 19 20  1  1
 20 21  2  0
 21 22  1  0
 22 23  2  0
 23 24  1  0
 24 25  2  0
 25 26  1  0
 26 27  2  0
 26 28  1  0
 19  5  1  0
 25 20  1  0
M  CHG  2  26   1  28  -1
M  END
>  <supplier_code>  (268) 
DB00401

>  <zinc_id>  (268) 
ZINC000000591993

>  <catalog_short_name>  (268) 
dbfda

$$$$

     RDKit          3D

 28 29  0  0  0  0  0  0  0  0999 V2000
   -3.1896    3.7673    0.8494 C   0  0  0  0  0  0  0  0  0  0  0  0
   -2.5289    2.6230    0.7718 O   0  0  0  0  0  0  0  0  0  0  0  0
   -1.5028    2.3299   -0.1229 C   0  0  0  0  0  0  0  0  0  0  0  0
   -1.3056    3.1360   -1.0514 O   0  0  0  0  0  0  0  0  0  0  0  0
   -0.3689    1.4512    0.2346 C   0  0  0  0  0  0  0  0  0  0  0  0
    0.4853    2.0806    1.0558 C   0  0  0  0  0  0  0  0  0  0  0  0
    0.7395    3.5304    0.7685 C   0  0  0  0  0  0  0  0  0  0  0  0
    1.0840    1.4271    2.1928 N   0  0  0  0  0  0  0  0  0  0  0  0
    1.2656    0.0227    1.9268 C   0  0  0  0  0  0  0  0  0  0  0  0
    2.5214   -0.7217    2.2529 C   0  0  0  0  0  0  0  0  0  0  0  0
    0.6427   -0.5579    0.8907 C   0  0  0  0  0  0  0  0  0  0  0  0
    1.2862   -0.8523   -0.3495 C   0  0  0  0  0  0  0  0  0  0  0  0
    1.1232   -0.2127   -1.4354 O   0  0  0  0  0  0  0  0  0  0  0  0
    2.5492   -1.4195   -0.2484 O   0  0  0  0  0  0  0  0  0  0  0  0
    3.5341   -1.2510   -1.2660 C   0  0  0  0  0  0  0  0  0  0  0  0
    4.9194   -1.0838   -0.7213 C   0  0  0  0  0  0  0  0  0  0  0  0
    5.8789   -1.4754   -1.8299 C   0  0  0  0  0  0  0  0  0  0  0  0
    5.2379    0.3619   -0.3654 C   0  0  0  0  0  0  0  0  0  0  0  0
   -0.8726    0.0330    0.8842 C   0  0  2  0  0  0  0  0  0  0  0  0
   -1.2884   -0.6863   -0.5219 C   0  0  0  0  0  0  0  0  0  0  0  0
   -1.8594    0.1323   -1.4760 C   0  0  0  0  0  0  0  0  0  0  0  0
   -2.4007   -0.4301   -2.5913 C   0  0  0  0  0  0  0  0  0  0  0  0
   -2.6971   -1.7734   -2.5661 C   0  0  0  0  0  0  0  0  0  0  0  0
   -2.8063   -2.3531   -1.3063 C   0  0  0  0  0  0  0  0  0  0  0  0
   -2.0463   -1.8289   -0.2629 C   0  0  0  0  0  0  0  0  0  0  0  0
   -2.5963   -2.1427    1.0252 N   0  0  0  0  0  0  0  0  0  0  0  0
   -1.8459   -2.0682    1.9960 O   0  0  0  0  0  0  0  0  0  0  0  0
   -3.9587   -2.0382    1.2660 O   0  0  0  0  0  0  0  0  0  0  0  0
  1  2  1  0
  2  3  1  0
  3  4  2  0
  3  5  1  0
  5  6  2  0
  6  7  1  0
  6  8  1  0
  8  9  1  0
  9 10  1  0
  9 11  2  0
 11 12  1  0
 12 13  2  0
 12 14  1  0
 14 15  1  0
 15 16  1  0
 16 17  1  0
 16 18  1  0
 11 19  1  0
 19 20  1  6
 20 21  2  0
 21 22  1  0
 22 23  2  0
 23 24  1  0
 24 25  2  0
 25 26  1  0
 26 27  2  0
 26 28  1  0
 19  5  1  0
 25 20  1  0
M  CHG  2  26   1  28  -1
M  END
>  <supplier_code>  (269) 
DB00401

>  <zinc_id>  (269) 
ZINC000019632706

>  <catalog_short_name>  (269) 
dbfda

$$$$

     RDKit          3D

 27 30  0  0  0  0  0  0  0  0999 V2000
    6.0618    1.9883    1.0695 C   0  0  0  0  0  0  0  0  0  0  0  0
    5.3373    1.9687   -0.0526 N   0  0  0  0  0  0  0  0  0  0  0  0
    4.4497    3.0947   -0.0505 C   0  0  0  0  0  0  0  0  0  0  0  0
    3.0509    2.7155   -0.5144 C   0  0  0  0  0  0  0  0  0  0  0  0
    2.4706    1.7591    0.4294 N   0  0  0  0  0  0  0  0  0  0  0  0
    1.1048    1.4317    0.3630 C   0  0  0  0  0  0  0  0  0  0  0  0
    0.3282    2.2455   -0.2218 O   0  0  0  0  0  0  0  0  0  0  0  0
    0.4989    0.2257    0.6582 O   0  0  0  0  0  0  0  0  0  0  0  0
   -0.0684   -0.4918   -0.6402 C   0  0  1  0  0  0  0  0  0  0  0  0
    0.4475   -1.9865   -0.1623 C   0  0  0  0  0  0  0  0  0  0  0  0
    1.4968   -2.3464    0.5183 N   0  0  0  0  0  0  0  0  0  0  0  0
    1.4999   -3.6689    0.8407 C   0  0  0  0  0  0  0  0  0  0  0  0
    0.7435   -4.5911    0.1234 C   0  0  0  0  0  0  0  0  0  0  0  0
   -0.3578   -4.1202   -0.5151 N   0  0  0  0  0  0  0  0  0  0  0  0
   -0.5978   -2.7879   -0.5688 C   0  0  0  0  0  0  0  0  0  0  0  0
   -1.8061   -1.9644   -0.6881 C   0  0  0  0  0  0  0  0  0  0  0  0
   -2.8982   -2.3570   -1.1853 O   0  0  0  0  0  0  0  0  0  0  0  0
   -1.5103   -0.7702    0.0491 N   0  0  0  0  0  0  0  0  0  0  0  0
   -2.4294    0.2864    0.1707 C   0  0  0  0  0  0  0  0  0  0  0  0
   -3.0907    0.7287   -0.9673 C   0  0  0  0  0  0  0  0  0  0  0  0
   -4.2854    1.4358   -0.8866 C   0  0  0  0  0  0  0  0  0  0  0  0
   -4.9267    1.5546    0.3376 C   0  0  0  0  0  0  0  0  0  0  0  0
   -6.0165    2.8875    0.7067 Cl  0  0  0  0  0  0  0  0  0  0  0  0
   -4.4020    0.8072    1.3844 C   0  0  0  0  0  0  0  0  0  0  0  0
   -3.1418    0.3458    1.3230 N   0  0  0  0  0  0  0  0  0  0  0  0
    3.4782    0.8692    1.0015 C   0  0  0  0  0  0  0  0  0  0  0  0
    4.5630    0.7403   -0.0628 C   0  0  0  0  0  0  0  0  0  0  0  0
  1  2  1  0
  2  3  1  0
  3  4  1  0
  4  5  1  0
  5  6  1  0
  6  7  2  0
  6  8  1  0
  9  8  1  1
  9 10  1  0
 10 11  2  0
 11 12  1  0
 12 13  2  0
 13 14  1  0
 14 15  2  0
 15 16  1  0
 16 17  2  0
 16 18  1  0
 18 19  1  0
 19 20  2  0
 20 21  1  0
 21 22  2  0
 22 23  1  0
 22 24  1  0
 24 25  2  0
  5 26  1  0
 26 27  1  0
 27  2  1  0
 18  9  1  0
 25 19  1  0
 15 10  1  0
M  END
>  <supplier_code>  (270) 
DB00402

>  <zinc_id>  (270) 
ZINC000019632834

>  <catalog_short_name>  (270) 
dbfda

$$$$

     RDKit          3D

 22 25  0  0  0  0  0  0  0  0999 V2000
    4.3230    0.4162   -0.1336 C   0  0  0  0  0  0  0  0  0  0  0  0
    3.5336   -0.8309   -0.3834 C   0  0  0  0  0  0  0  0  0  0  0  0
    3.8504   -2.0258    0.1663 N   0  0  0  0  0  0  0  0  0  0  0  0
    2.7532   -2.6898    0.4990 N   0  0  0  0  0  0  0  0  0  0  0  0
    1.7636   -2.0550   -0.1743 C   0  0  0  0  0  0  0  0  0  0  0  0
    2.1932   -0.8342   -0.5766 N   0  0  0  0  0  0  0  0  0  0  0  0
    1.3736    0.3300   -0.7333 C   0  0  0  0  0  0  0  0  0  0  0  0
    2.1486    1.4754   -0.8562 C   0  0  0  0  0  0  0  0  0  0  0  0
    1.6630    2.7017   -0.4191 C   0  0  0  0  0  0  0  0  0  0  0  0
    0.2832    2.8639   -0.3971 C   0  0  0  0  0  0  0  0  0  0  0  0
   -0.3582    4.4330    0.0508 Cl  0  0  0  0  0  0  0  0  0  0  0  0
   -0.5338    1.7700   -0.3002 C   0  0  0  0  0  0  0  0  0  0  0  0
    0.0268    0.5077   -0.4384 C   0  0  0  0  0  0  0  0  0  0  0  0
   -0.8760   -0.5241    0.0679 C   0  0  0  0  0  0  0  0  0  0  0  0
   -2.2830   -0.1200    0.1375 C   0  0  0  0  0  0  0  0  0  0  0  0
   -3.1299   -0.6296   -0.8394 C   0  0  0  0  0  0  0  0  0  0  0  0
   -4.4705   -0.8858   -0.5768 C   0  0  0  0  0  0  0  0  0  0  0  0
   -5.0310   -0.1177    0.4364 C   0  0  0  0  0  0  0  0  0  0  0  0
   -4.2144    0.3400    1.4631 C   0  0  0  0  0  0  0  0  0  0  0  0
   -2.8330    0.2554    1.3527 C   0  0  0  0  0  0  0  0  0  0  0  0
   -0.5827   -1.7530    0.3741 N   0  0  0  0  0  0  0  0  0  0  0  0
    0.4001   -2.6273   -0.2592 C   0  0  0  0  0  0  0  0  0  0  0  0
  1  2  1  0
  2  3  2  0
  3  4  1  0
  4  5  2  0
  5  6  1  0
  6  7  1  0
  7  8  2  0
  8  9  1  0
  9 10  2  0
 10 11  1  0
 10 12  1  0
 12 13  2  0
 13 14  1  0
 14 15  1  0
 15 16  2  0
 16 17  1  0
 17 18  2  0
 18 19  1  0
 19 20  2  0
 14 21  2  0
 21 22  1  0
  6  2  1  0
 13  7  1  0
 20 15  1  0
 22  5  1  0
M  END
>  <supplier_code>  (271) 
DB00404

>  <zinc_id>  (271) 
ZINC000000000903

>  <catalog_short_name>  (271) 
dbfda

$$$$

     RDKit          3D

 19 20  0  0  0  0  0  0  0  0999 V2000
   -0.7799    4.3694   -0.6783 C   0  0  0  0  0  0  0  0  0  0  0  0
    0.0230    3.3877   -0.3043 N   0  0  0  0  0  0  0  0  0  0  0  0
    1.1160    4.0230    0.4248 C   0  0  0  0  0  0  0  0  0  0  0  0
   -0.7519    2.5269    0.5766 C   0  0  0  0  0  0  0  0  0  0  0  0
   -0.1515    1.1647    0.7472 C   0  0  0  0  0  0  0  0  0  0  0  0
   -0.3968    0.4024   -0.7183 C   0  0  1  0  0  0  0  0  0  0  0  0
    0.8901   -0.5760   -0.5194 C   0  0  0  0  0  0  0  0  0  0  0  0
    1.0732   -1.1557    0.6792 C   0  0  0  0  0  0  0  0  0  0  0  0
    2.2600   -1.8682    0.8285 C   0  0  0  0  0  0  0  0  0  0  0  0
    3.3053   -1.6775   -0.0683 C   0  0  0  0  0  0  0  0  0  0  0  0
    5.1302   -1.8580    0.4462 Br  0  0  0  0  0  0  0  0  0  0  0  0
    2.9180   -1.3492   -1.3630 C   0  0  0  0  0  0  0  0  0  0  0  0
    1.7230   -0.6740   -1.5988 C   0  0  0  0  0  0  0  0  0  0  0  0
   -1.4155   -0.6951   -0.0489 C   0  0  0  0  0  0  0  0  0  0  0  0
   -1.7323   -1.6364   -1.0227 C   0  0  0  0  0  0  0  0  0  0  0  0
   -3.0264   -2.0739   -1.2537 C   0  0  0  0  0  0  0  0  0  0  0  0
   -4.0423   -1.4689   -0.5549 C   0  0  0  0  0  0  0  0  0  0  0  0
   -3.6617   -0.7419    0.5664 C   0  0  0  0  0  0  0  0  0  0  0  0
   -2.4805   -0.0993    0.5349 N   0  0  0  0  0  0  0  0  0  0  0  0
  1  2  1  0
  2  3  1  0
  2  4  1  0
  4  5  1  0
  6  5  1  1
  6  7  1  0
  7  8  2  0
  8  9  1  0
  9 10  2  0
 10 11  1  0
 10 12  1  0
 12 13  2  0
  6 14  1  0
 14 15  2  0
 15 16  1  0
 16 17  2  0
 17 18  1  0
 18 19  2  0
 13  7  1  0
 19 14  1  0
M  END
>  <supplier_code>  (272) 
DB00405

>  <zinc_id>  (272) 
ZINC000000000096

>  <catalog_short_name>  (272) 
dbfda

$$$$

     RDKit          3D

 28 30  0  0  0  0  0  0  0  0999 V2000
    5.9460   -0.2630    1.6804 C   0  0  0  0  0  0  0  0  0  0  0  0
    5.3348   -1.1356    0.6947 N   0  0  0  0  0  0  0  0  0  0  0  0
    6.0991   -1.5533   -0.4775 C   0  0  0  0  0  0  0  0  0  0  0  0
    3.9217   -1.0086    0.4941 C   0  0  0  0  0  0  0  0  0  0  0  0
    3.5494   -0.1879   -0.5639 C   0  0  0  0  0  0  0  0  0  0  0  0
    2.2524    0.2587   -0.6184 C   0  0  0  0  0  0  0  0  0  0  0  0
    1.3775   -0.0563    0.3967 C   0  0  0  0  0  0  0  0  0  0  0  0
   -0.0555    0.0779    0.1039 C   0  0  0  0  0  0  0  0  0  0  0  0
   -0.7710   -1.0568   -0.4385 C   0  0  0  0  0  0  0  0  0  0  0  0
   -1.8541   -0.9478   -1.3022 C   0  0  0  0  0  0  0  0  0  0  0  0
   -2.7670   -1.9925   -1.2226 C   0  0  0  0  0  0  0  0  0  0  0  0
   -2.3522   -3.2337   -0.7697 C   0  0  0  0  0  0  0  0  0  0  0  0
   -3.2689   -4.2773   -0.4301 N   0  0  0  0  0  0  0  0  0  0  0  0
   -4.6867   -3.9341   -0.4993 C   0  0  0  0  0  0  0  0  0  0  0  0
   -2.8947   -5.2093    0.6309 C   0  0  0  0  0  0  0  0  0  0  0  0
   -0.9771   -3.4171   -0.6836 C   0  0  0  0  0  0  0  0  0  0  0  0
   -0.1768   -2.3130   -0.4133 C   0  0  0  0  0  0  0  0  0  0  0  0
   -0.5511    1.2965    0.1148 C   0  0  0  0  0  0  0  0  0  0  0  0
    0.3020    2.4883    0.2150 C   0  0  0  0  0  0  0  0  0  0  0  0
   -0.1313    3.7060   -0.0263 C   0  0  0  0  0  0  0  0  0  0  0  0
   -1.5596    3.9317   -0.2398 C   0  0  0  0  0  0  0  0  0  0  0  0
   -2.1406    5.0176    0.1785 N   0  0  0  0  0  0  0  0  0  0  0  0
   -2.8504    5.9071   -0.7257 C   0  0  0  0  0  0  0  0  0  0  0  0
   -2.4567    5.0398    1.6045 C   0  0  0  0  0  0  0  0  0  0  0  0
   -2.3339    2.7726   -0.6674 C   0  0  0  0  0  0  0  0  0  0  0  0
   -1.9353    1.5609   -0.3014 C   0  0  0  0  0  0  0  0  0  0  0  0
    1.8243   -0.5393    1.6172 C   0  0  0  0  0  0  0  0  0  0  0  0
    3.1556   -0.9315    1.6491 C   0  0  0  0  0  0  0  0  0  0  0  0
  1  2  1  0
  2  3  1  0
  2  4  1  0
  4  5  2  0
  5  6  1  0
  6  7  2  0
  7  8  1  0
  8  9  1  0
  9 10  2  0
 10 11  1  0
 11 12  2  0
 12 13  1  0
 13 14  1  0
 13 15  1  0
 12 16  1  0
 16 17  2  0
  8 18  2  3
 18 19  1  0
 19 20  2  0
 20 21  1  0
 21 22  2  3
 22 23  1  0
 22 24  1  0
 21 25  1  0
 25 26  2  0
  7 27  1  0
 27 28  2  0
 28  4  1  0
 17  9  1  0
 26 18  1  0
M  CHG  1  22   1
M  END
>  <supplier_code>  (273) 
DB00406

>  <zinc_id>  (273) 
ZINC000013763987

>  <catalog_short_name>  (273) 
dbfda

$$$$

     RDKit          3D

 23 26  0  0  0  0  0  0  0  0999 V2000
    5.0180   -1.0495    1.4294 C   0  0  0  0  0  0  0  0  0  0  0  0
    3.9033   -1.4669    0.6171 N   0  0  0  0  0  0  0  0  0  0  0  0
    3.8765   -0.8482   -0.6836 C   0  0  0  0  0  0  0  0  0  0  0  0
    2.5910   -0.1218   -0.9737 C   0  0  0  0  0  0  0  0  0  0  0  0
    1.4363   -0.9475   -0.7076 N   0  0  0  0  0  0  0  0  0  0  0  0
    0.1445   -0.3621   -0.8502 C   0  0  0  0  0  0  0  0  0  0  0  0
   -0.8192   -1.1770   -1.1634 N   0  0  0  0  0  0  0  0  0  0  0  0
   -2.2012   -1.1287   -0.7883 C   0  0  0  0  0  0  0  0  0  0  0  0
   -2.8424   -2.3019   -1.1198 C   0  0  0  0  0  0  0  0  0  0  0  0
   -4.1572   -2.5196   -0.7291 C   0  0  0  0  0  0  0  0  0  0  0  0
   -4.5283   -1.9348    0.4751 C   0  0  0  0  0  0  0  0  0  0  0  0
   -3.7885   -0.8860    0.9953 C   0  0  0  0  0  0  0  0  0  0  0  0
   -2.8403   -0.3240    0.1480 C   0  0  0  0  0  0  0  0  0  0  0  0
   -2.3921    0.9075    0.6365 O   0  0  0  0  0  0  0  0  0  0  0  0
   -1.1609    1.5184    0.3795 C   0  0  0  0  0  0  0  0  0  0  0  0
   -1.2044    2.8987    0.5337 C   0  0  0  0  0  0  0  0  0  0  0  0
   -0.0770    3.6385    0.2134 C   0  0  0  0  0  0  0  0  0  0  0  0
    1.1350    2.9825    0.0626 C   0  0  0  0  0  0  0  0  0  0  0  0
    2.6162    3.8401    0.4344 Cl  0  0  0  0  0  0  0  0  0  0  0  0
    1.1360    1.6412   -0.2965 C   0  0  0  0  0  0  0  0  0  0  0  0
   -0.0651    0.9723   -0.2769 C   0  0  0  0  0  0  0  0  0  0  0  0
    1.5800   -1.9344    0.3580 C   0  0  0  0  0  0  0  0  0  0  0  0
    2.6400   -1.3969    1.3059 C   0  0  0  0  0  0  0  0  0  0  0  0
  1  2  1  0
  2  3  1  0
  3  4  1  0
  4  5  1  0
  5  6  1  0
  6  7  2  0
  7  8  1  0
  8  9  2  0
  9 10  1  0
 10 11  2  0
 11 12  1  0
 12 13  2  0
 13 14  1  0
 14 15  1  0
 15 16  2  0
 16 17  1  0
 17 18  2  0
 18 19  1  0
 18 20  1  0
 20 21  2  0
  5 22  1  0
 22 23  1  0
 23  2  1  0
 21  6  1  0
 13  8  1  0
 21 15  1  0
M  END
>  <supplier_code>  (274) 
DB00408

>  <zinc_id>  (274) 
ZINC000019796158

>  <catalog_short_name>  (274) 
dbfda

$$$$

     RDKit          3D

 35 36  0  0  0  0  0  0  0  0999 V2000
    0.3896    1.9714   -0.4638 C   0  0  0  0  0  0  0  0  0  0  0  0
    0.1944    1.9870   -0.2237 C   0  0  0  0  0  0  0  0  0  0  0  0
    1.1609    1.6277    0.4828 C   0  0  0  0  0  0  0  0  0  0  0  0
    2.2432    0.8104   -0.0669 C   0  0  0  0  0  0  0  0  0  0  0  0
    2.0369    0.1215   -1.1152 O   0  0  0  0  0  0  0  0  0  0  0  0
    3.5276    0.9740    0.4138 O   0  0  0  0  0  0  0  0  0  0  0  0
    4.5426    1.1018   -0.5610 C   0  0  0  0  0  0  0  0  0  0  0  0
    4.9118    2.5586   -0.7764 C   0  0  0  0  0  0  0  0  0  0  0  0
    6.4296    2.5900   -0.7663 C   0  0  0  0  0  0  0  0  0  0  0  0
    6.9401    1.4171    0.0552 C   0  0  0  0  0  0  0  0  0  0  0  0
    7.1408    0.2142   -0.8092 C   0  0  0  0  0  0  0  0  0  0  0  0
    6.9528   -1.0452    0.0280 C   0  0  0  0  0  0  0  0  0  0  0  0
    7.3707   -2.2806   -0.7057 C   0  0  0  0  0  0  0  0  0  0  0  0
    8.8809   -2.3729   -0.5370 C   0  0  0  0  0  0  0  0  0  0  0  0
    9.1917   -2.0021    0.8794 C   0  0  0  0  0  0  0  0  0  0  0  0
    9.6837   -0.8462    1.0506 O   0  0  0  0  0  0  0  0  0  0  0  0
    9.7362   -2.9893    1.7067 O   0  0  0  0  0  0  0  0  0  0  0  0
   -0.9620    2.7785   -0.1156 C   0  0  0  0  0  0  0  0  0  0  0  0
   -2.2667    1.9283   -0.6442 C   0  0  2  0  0  0  0  0  0  0  0  0
   -3.1041    2.5735    0.4484 O   0  0  0  0  0  0  0  0  0  0  0  0
   -3.3759    1.6060    1.3780 C   0  0  0  0  0  0  0  0  0  0  0  0
   -4.3470    0.7472    0.3925 C   0  0  2  0  0  0  0  0  0  0  0  0
   -4.8688   -0.1784    1.6189 C   0  0  0  0  0  0  0  0  0  0  0  0
   -5.4605   -1.5165    0.8084 C   0  0  2  0  0  0  0  0  0  0  0  0
   -6.3236   -0.6138   -0.2999 O   0  0  0  0  0  0  0  0  0  0  0  0
   -7.0907   -1.1097    1.0982 C   0  0  1  0  0  0  0  0  0  0  0  0
   -7.7039   -2.5294    0.3559 C   0  0  1  0  0  0  0  0  0  0  0  0
   -8.8958   -2.6816    1.4144 C   0  0  0  0  0  0  0  0  0  0  0  0
   -8.5643   -1.6867   -0.8629 C   0  0  2  0  0  0  0  0  0  0  0  0
   -9.3265   -0.6480    0.1756 C   0  0  0  0  0  0  0  0  0  0  0  0
   -9.7348   -2.6593   -0.8532 O   0  0  0  0  0  0  0  0  0  0  0  0
   -3.1822   -0.3939   -0.1170 C   0  0  1  0  0  0  0  0  0  0  0  0
   -3.2727    0.0550   -1.5569 O   0  0  0  0  0  0  0  0  0  0  0  0
   -1.8155    0.5553    0.2969 C   0  0  1  0  0  0  0  0  0  0  0  0
   -1.0386   -0.0638   -0.8298 O   0  0  0  0  0  0  0  0  0  0  0  0
  1  2  1  0
  2  3  2  0
  3  4  1  0
  4  5  2  0
  4  6  1  0
  6  7  1  0
  7  8  1  0
  8  9  1  0
  9 10  1  0
 10 11  1  0
 11 12  1  0
 12 13  1  0
 13 14  1  0
 14 15  1  0
 15 16  2  0
 15 17  1  0
  2 18  1  0
 19 18  1  1
 19 20  1  0
 20 21  1  0
 21 22  1  0
 22 23  1  1
 24 23  1  1
 24 25  1  0
 26 25  1  6
 26 27  1  0
 27 28  1  1
 27 29  1  0
 29 30  1  1
 29 31  1  0
 22 32  1  0
 32 33  1  6
 32 34  1  0
 34 35  1  6
 34 19  1  0
 26 24  1  0
M  END
>  <supplier_code>  (275) 
DB00410

>  <zinc_id>  (275) 
ZINC000004102194

>  <catalog_short_name>  (275) 
dbfda

$$$$

     RDKit          3D

 10  9  0  0  0  0  0  0  0  0999 V2000
   -1.8171   -1.3988   -0.2249 C   0  0  0  0  0  0  0  0  0  0  0  0
   -1.8835   -0.0301    0.2695 N   0  0  0  0  0  0  0  0  0  0  0  0
   -1.8715   -0.0458    1.7303 C   0  0  0  0  0  0  0  0  0  0  0  0
   -3.1096    0.5995   -0.2168 C   0  0  0  0  0  0  0  0  0  0  0  0
   -0.7658    0.7699   -0.1895 C   0  0  0  0  0  0  0  0  0  0  0  0
    0.1073   -0.1508   -1.0341 C   0  0  0  0  0  0  0  0  0  0  0  0
    1.0504   -0.7106   -0.1218 O   0  0  0  0  0  0  0  0  0  0  0  0
    2.3766   -0.2705   -0.0920 C   0  0  0  0  0  0  0  0  0  0  0  0
    3.0273    0.1423    1.1078 N   0  0  0  0  0  0  0  0  0  0  0  0
    2.8859   -0.0306   -1.2285 O   0  0  0  0  0  0  0  0  0  0  0  0
  1  2  1  0
  2  3  1  0
  2  4  1  0
  2  5  1  0
  5  6  1  0
  6  7  1  0
  7  8  1  0
  8  9  1  0
  8 10  2  0
M  CHG  1   2   1
M  END
>  <supplier_code>  (276) 
DB00411

>  <zinc_id>  (276) 
ZINC000003079342

>  <catalog_short_name>  (276) 
dbfda

$$$$

     RDKit          3D

 25 27  0  0  0  0  0  0  0  0999 V2000
   -4.3090    2.4754    0.4207 C   0  0  0  0  0  0  0  0  0  0  0  0
   -3.7779    1.4473    0.2145 N   0  0  0  0  0  0  0  0  0  0  0  0
   -2.3449    1.2478    0.4094 C   0  0  0  0  0  0  0  0  0  0  0  0
   -2.1529   -0.0423    1.1961 C   0  0  0  0  0  0  0  0  0  0  0  0
   -1.6529   -1.0173    0.2825 O   0  0  0  0  0  0  0  0  0  0  0  0
   -0.3036   -1.0785    0.0005 C   0  0  0  0  0  0  0  0  0  0  0  0
    0.5915   -1.6397    0.8910 C   0  0  0  0  0  0  0  0  0  0  0  0
    1.9130   -1.2231    0.9207 C   0  0  0  0  0  0  0  0  0  0  0  0
    2.3614   -0.1813    0.1195 C   0  0  0  0  0  0  0  0  0  0  0  0
    3.3634    0.7794    0.6333 C   0  0  0  0  0  0  0  0  0  0  0  0
    4.3184   -0.0841    1.5647 C   0  0  2  0  0  0  0  0  0  0  0  0
    5.6932    1.2284    1.6675 S   0  0  0  0  0  0  0  0  0  0  0  0
    6.1237    1.1907   -0.0795 C   0  0  0  0  0  0  0  0  0  0  0  0
    6.2014    2.2774   -0.7309 O   0  0  0  0  0  0  0  0  0  0  0  0
    5.3413    0.1079   -0.5988 N   0  0  0  0  0  0  0  0  0  0  0  0
    5.0316   -0.8316    0.3995 C   0  0  0  0  0  0  0  0  0  0  0  0
    4.9069   -2.0765    0.3520 O   0  0  0  0  0  0  0  0  0  0  0  0
    1.5571    0.1273   -0.9660 C   0  0  0  0  0  0  0  0  0  0  0  0
    0.2225   -0.2587   -0.9864 C   0  0  0  0  0  0  0  0  0  0  0  0
   -4.5088    0.3186   -0.2821 C   0  0  0  0  0  0  0  0  0  0  0  0
   -5.5908   -0.0728    0.4976 C   0  0  0  0  0  0  0  0  0  0  0  0
   -6.5312   -0.9197   -0.0302 C   0  0  0  0  0  0  0  0  0  0  0  0
   -6.2985   -1.4101   -1.3082 C   0  0  0  0  0  0  0  0  0  0  0  0
   -5.4517   -0.6794   -2.1251 C   0  0  0  0  0  0  0  0  0  0  0  0
   -4.7032    0.3147   -1.6239 N   0  0  0  0  0  0  0  0  0  0  0  0
  1  2  1  0
  2  3  1  0
  3  4  1  0
  4  5  1  0
  5  6  1  0
  6  7  2  0
  7  8  1  0
  8  9  2  0
  9 10  1  0
 11 10  1  6
 11 12  1  0
 12 13  1  0
 13 14  2  0
 13 15  1  0
 15 16  1  0
 16 17  2  0
  9 18  1  0
 18 19  2  0
  2 20  1  0
 20 21  2  0
 21 22  1  0
 22 23  2  0
 23 24  1  0
 24 25  2  0
 19  6  1  0
 25 20  1  0
 16 11  1  0
M  END
>  <supplier_code>  (277) 
DB00412

>  <zinc_id>  (277) 
ZINC000000968328

>  <catalog_short_name>  (277) 
dbfda

$$$$

     RDKit          3D

 25 27  0  0  0  0  0  0  0  0999 V2000
    2.9654    1.4239    0.6043 C   0  0  0  0  0  0  0  0  0  0  0  0
    3.2774    0.6982    0.6417 N   0  0  0  0  0  0  0  0  0  0  0  0
    2.5581   -0.4825    1.1253 C   0  0  0  0  0  0  0  0  0  0  0  0
    2.1810   -1.2970   -0.0967 C   0  0  0  0  0  0  0  0  0  0  0  0
    1.5095   -0.4603   -1.0172 O   0  0  0  0  0  0  0  0  0  0  0  0
    0.1699   -0.2009   -0.8730 C   0  0  0  0  0  0  0  0  0  0  0  0
   -0.6383   -0.3325   -1.9857 C   0  0  0  0  0  0  0  0  0  0  0  0
   -1.9701    0.0333   -1.8692 C   0  0  0  0  0  0  0  0  0  0  0  0
   -2.3451    0.7713   -0.7524 C   0  0  0  0  0  0  0  0  0  0  0  0
   -3.7807    1.1958   -0.7237 C   0  0  0  0  0  0  0  0  0  0  0  0
   -4.6661   -0.1085   -0.9329 C   0  0  1  0  0  0  0  0  0  0  0  0
   -3.7500   -1.1413    0.3834 S   0  0  0  0  0  0  0  0  0  0  0  0
   -5.0856   -1.1876    1.5904 C   0  0  0  0  0  0  0  0  0  0  0  0
   -5.0401   -1.6504    2.7496 O   0  0  0  0  0  0  0  0  0  0  0  0
   -6.1987   -0.7982    0.7777 N   0  0  0  0  0  0  0  0  0  0  0  0
   -5.8017    0.3370    0.0377 C   0  0  0  0  0  0  0  0  0  0  0  0
   -6.6563    1.1308   -0.4655 O   0  0  0  0  0  0  0  0  0  0  0  0
   -1.5669    0.7297    0.3987 C   0  0  0  0  0  0  0  0  0  0  0  0
   -0.4672   -0.1195    0.3592 C   0  0  0  0  0  0  0  0  0  0  0  0
    4.6414    0.4186    0.2866 C   0  0  0  0  0  0  0  0  0  0  0  0
    5.4903    0.1676    1.3385 C   0  0  0  0  0  0  0  0  0  0  0  0
    6.7864   -0.1637    1.0343 C   0  0  0  0  0  0  0  0  0  0  0  0
    7.1499   -0.2115   -0.2864 C   0  0  0  0  0  0  0  0  0  0  0  0
    6.2616    0.0051   -1.3265 C   0  0  0  0  0  0  0  0  0  0  0  0
    4.9760    0.2425   -0.9982 N   0  0  0  0  0  0  0  0  0  0  0  0
  1  2  1  0
  2  3  1  0
  3  4  1  0
  4  5  1  0
  5  6  1  0
  6  7  2  0
  7  8  1  0
  8  9  2  0
  9 10  1  0
 11 10  1  1
 11 12  1  0
 12 13  1  0
 13 14  2  0
 13 15  1  0
 15 16  1  0
 16 17  2  0
  9 18  1  0
 18 19  2  0
  2 20  1  0
 20 21  2  0
 21 22  1  0
 22 23  2  0
 23 24  1  0
 24 25  2  0
 19  6  1  0
 25 20  1  0
 16 11  1  0
M  END
>  <supplier_code>  (278) 
DB00412

>  <zinc_id>  (278) 
ZINC000000968330

>  <catalog_short_name>  (278) 
dbfda

$$$$

     RDKit          3D

 14 15  0  0  0  0  0  0  0  0999 V2000
    4.6996    0.0326   -0.2949 C   0  0  0  0  0  0  0  0  0  0  0  0
    4.4558    0.6105   -0.3334 C   0  0  0  0  0  0  0  0  0  0  0  0
    2.9469    0.7438   -0.1879 C   0  0  0  0  0  0  0  0  0  0  0  0
    2.4516   -0.4639    0.4550 N   0  0  0  0  0  0  0  0  0  0  0  0
    1.2237   -0.7811   -0.4959 C   0  0  1  0  0  0  0  0  0  0  0  0
    0.3902   -1.5088    0.7324 C   0  0  0  0  0  0  0  0  0  0  0  0
   -0.8691   -1.9205   -0.0091 C   0  0  0  0  0  0  0  0  0  0  0  0
   -1.6216   -0.6485   -0.2720 C   0  0  0  0  0  0  0  0  0  0  0  0
   -2.8627   -0.4054    0.1228 N   0  0  0  0  0  0  0  0  0  0  0  0
   -3.4788    0.5848   -0.5054 C   0  0  0  0  0  0  0  0  0  0  0  0
   -4.8378    1.0094   -0.3257 N   0  0  0  0  0  0  0  0  0  0  0  0
   -2.1411    1.5953   -0.8890 S   0  0  0  0  0  0  0  0  0  0  0  0
   -0.8893    0.4691   -0.5476 C   0  0  0  0  0  0  0  0  0  0  0  0
    0.5325    0.6829   -0.1664 C   0  0  0  0  0  0  0  0  0  0  0  0
  1  2  1  0
  2  3  1  0
  3  4  1  0
  5  4  1  1
  5  6  1  0
  6  7  1  0
  7  8  1  0
  8  9  1  0
  9 10  2  0
 10 11  1  0
 10 12  1  0
 12 13  1  0
 13 14  1  0
 14  5  1  0
 13  8  2  0
M  END
>  <supplier_code>  (279) 
DB00413

>  <zinc_id>  (279) 
ZINC000003781664

>  <catalog_short_name>  (279) 
dbfda

$$$$

     RDKit          3D

 24 26  0  0  0  0  0  0  0  0999 V2000
   -3.9414    2.1626   -1.1663 C   0  0  0  0  0  0  0  0  0  0  0  0
   -3.2284    1.5246   -0.0528 C   0  0  0  0  0  0  0  0  0  0  0  0
   -3.8325    1.6089    1.2399 C   0  0  0  0  0  0  0  0  0  0  0  0
   -1.4624    1.6796   -0.2242 S   0  0  0  0  0  0  0  0  0  0  0  0
   -1.4561    0.3948    1.1976 C   0  0  2  0  0  0  0  0  0  0  0  0
   -0.1639   -0.6354    0.8094 C   0  0  2  0  0  0  0  0  0  0  0  0
    0.1084   -0.0935   -0.6682 N   0  0  0  0  0  0  0  0  0  0  0  0
    1.4680   -0.2449   -0.8749 C   0  0  0  0  0  0  0  0  0  0  0  0
    1.9687   -1.3394   -0.9395 O   0  0  0  0  0  0  0  0  0  0  0  0
    2.3717    1.0660   -1.2190 C   0  0  2  0  0  0  0  0  0  0  0  0
    2.8773    0.4233   -2.6006 N   0  0  0  0  0  0  0  0  0  0  0  0
    3.6398    0.5281   -0.3394 C   0  0  0  0  0  0  0  0  0  0  0  0
    3.7864    1.1354    0.8810 C   0  0  0  0  0  0  0  0  0  0  0  0
    4.9063    0.7672    1.6203 C   0  0  0  0  0  0  0  0  0  0  0  0
    5.8698   -0.0501    1.0437 C   0  0  0  0  0  0  0  0  0  0  0  0
    5.4557   -0.8587   -0.0038 C   0  0  0  0  0  0  0  0  0  0  0  0
    4.3498   -0.5154   -0.7722 C   0  0  0  0  0  0  0  0  0  0  0  0
   -1.3351   -1.6442    0.3327 C   0  0  0  0  0  0  0  0  0  0  0  0
   -1.1552   -2.8761    0.4409 O   0  0  0  0  0  0  0  0  0  0  0  0
   -2.3220   -0.6429    0.5591 N   0  0  0  0  0  0  0  0  0  0  0  0
   -3.2012   -0.0383   -0.6059 C   0  0  1  0  0  0  0  0  0  0  0  0
   -4.6302   -0.4158    0.1052 C   0  0  0  0  0  0  0  0  0  0  0  0
   -4.6129   -0.7752    1.2755 O   0  0  0  0  0  0  0  0  0  0  0  0
   -5.4605   -1.1607   -0.7455 O   0  0  0  0  0  0  0  0  0  0  0  0
  1  2  1  0
  2  3  1  0
  2  4  1  0
  5  4  1  6
  5  6  1  0
  6  7  1  6
  7  8  1  0
  8  9  2  0
 10  8  1  1
 10 11  1  0
 10 12  1  0
 12 13  2  0
 13 14  1  0
 14 15  2  0
 15 16  1  0
 16 17  2  0
  6 18  1  0
 18 19  2  0
 18 20  1  0
 20 21  1  0
 21 22  1  1
 22 23  2  0
 22 24  1  0
 21  2  1  0
 20  5  1  0
 17 12  1  0
M  END
>  <supplier_code>  (280) 
DB00415

>  <zinc_id>  (280) 
ZINC000003830218

>  <catalog_short_name>  (280) 
dbfda

$$$$

     RDKit          3D

 24 26  0  0  0  0  0  0  0  0999 V2000
   -3.8710   -0.0641   -1.6803 C   0  0  0  0  0  0  0  0  0  0  0  0
   -3.7240    0.0575   -1.5104 C   0  0  0  0  0  0  0  0  0  0  0  0
   -4.8639    0.0787   -0.5316 C   0  0  0  0  0  0  0  0  0  0  0  0
   -2.7806    1.6275   -1.5912 S   0  0  0  0  0  0  0  0  0  0  0  0
   -2.8560    1.6451    0.3065 C   0  0  2  0  0  0  0  0  0  0  0  0
   -1.2525    1.8161    0.7908 C   0  0  2  0  0  0  0  0  0  0  0  0
   -0.5440    1.1319   -0.4391 N   0  0  0  0  0  0  0  0  0  0  0  0
    0.8049    0.7633   -0.2494 C   0  0  0  0  0  0  0  0  0  0  0  0
    1.0373    0.1416    0.8322 O   0  0  0  0  0  0  0  0  0  0  0  0
    1.9433    1.3255   -1.0411 C   0  0  0  0  0  0  0  0  0  0  0  0
    2.9359    0.3741   -1.3065 O   0  0  0  0  0  0  0  0  0  0  0  0
    3.9597    0.1833   -0.3741 C   0  0  0  0  0  0  0  0  0  0  0  0
    3.9932   -1.0755    0.2129 C   0  0  0  0  0  0  0  0  0  0  0  0
    5.1377   -1.6180    0.7318 C   0  0  0  0  0  0  0  0  0  0  0  0
    6.3405   -0.9917    0.5296 C   0  0  0  0  0  0  0  0  0  0  0  0
    6.3072    0.3052    0.0597 C   0  0  0  0  0  0  0  0  0  0  0  0
    5.1476    0.8877   -0.4252 C   0  0  0  0  0  0  0  0  0  0  0  0
   -1.5492    0.4178    1.5338 C   0  0  0  0  0  0  0  0  0  0  0  0
   -1.6306    0.3959    2.8005 O   0  0  0  0  0  0  0  0  0  0  0  0
   -2.6240    0.1790    0.5946 N   0  0  0  0  0  0  0  0  0  0  0  0
   -2.4250   -0.5930   -0.7504 C   0  0  1  0  0  0  0  0  0  0  0  0
   -3.2897   -1.8668   -0.2536 C   0  0  0  0  0  0  0  0  0  0  0  0
   -3.4385   -2.6560   -1.2374 O   0  0  0  0  0  0  0  0  0  0  0  0
   -2.7583   -2.4653    0.8866 O   0  0  0  0  0  0  0  0  0  0  0  0
  1  2  1  0
  2  3  1  0
  2  4  1  0
  5  4  1  6
  5  6  1  0
  6  7  1  6
  7  8  1  0
  8  9  2  0
  8 10  1  0
 10 11  1  0
 11 12  1  0
 12 13  2  0
 13 14  1  0
 14 15  2  0
 15 16  1  0
 16 17  2  0
  6 18  1  0
 18 19  2  0
 18 20  1  0
 20 21  1  0
 21 22  1  1
 22 23  2  0
 22 24  1  0
 21  2  1  0
 20  5  1  0
 17 12  1  0
M  END
>  <supplier_code>  (281) 
DB00417

>  <zinc_id>  (281) 
ZINC000003831282

>  <catalog_short_name>  (281) 
dbfda

$$$$

     RDKit          3D

 17 17  0  0  0  0  0  0  0  0999 V2000
   -0.3777    3.6578   -0.8055 C   0  0  0  0  0  0  0  0  0  0  0  0
   -0.5376    2.5269   -0.4612 C   0  0  0  0  0  0  0  0  0  0  0  0
   -0.1684    1.2915   -1.2158 C   0  0  0  0  0  0  0  0  0  0  0  0
    0.0202    0.1221   -0.2916 C   0  0  0  0  0  0  0  0  0  0  0  0
    1.6580   -0.0833   -0.2162 C   0  0  1  0  0  0  0  0  0  0  0  0
    1.9061    1.5109    0.1650 C   0  0  0  0  0  0  0  0  0  0  0  0
    1.6703   -0.5244    1.3817 C   0  0  0  0  0  0  0  0  0  0  0  0
    2.7176   -1.6062    1.4827 C   0  0  0  0  0  0  0  0  0  0  0  0
    3.7851   -1.3107    0.4338 C   0  0  0  0  0  0  0  0  0  0  0  0
   -0.4915   -1.1427   -0.8364 C   0  0  0  0  0  0  0  0  0  0  0  0
    0.2442   -2.0511   -1.3317 O   0  0  0  0  0  0  0  0  0  0  0  0
   -1.8519   -1.4606   -0.6406 N   0  0  0  0  0  0  0  0  0  0  0  0
   -2.5477   -0.9665    0.5108 C   0  0  0  0  0  0  0  0  0  0  0  0
   -3.7002   -1.3980    0.7965 O   0  0  0  0  0  0  0  0  0  0  0  0
   -1.7248   -0.2525    1.4326 N   0  0  0  0  0  0  0  0  0  0  0  0
   -0.5014    0.3765    1.0279 C   0  0  0  0  0  0  0  0  0  0  0  0
   -0.1004    1.3102    1.7831 O   0  0  0  0  0  0  0  0  0  0  0  0
  1  2  2  0
  2  3  1  0
  3  4  1  0
  5  4  1  1
  5  6  1  0
  5  7  1  0
  7  8  1  0
  8  9  1  0
  4 10  1  0
 10 11  2  0
 10 12  1  0
 12 13  1  0
 13 14  2  0
 13 15  1  0
 15 16  1  0
 16 17  2  0
 16  4  1  0
M  END
>  <supplier_code>  (282) 
DB00418

>  <zinc_id>  (282) 
ZINC000002005550

>  <catalog_short_name>  (282) 
dbfda

$$$$

     RDKit          3D

 17 17  0  0  0  0  0  0  0  0999 V2000
   -1.5757    3.3788    0.1249 C   0  0  0  0  0  0  0  0  0  0  0  0
   -1.2054    2.3770    0.1373 C   0  0  0  0  0  0  0  0  0  0  0  0
   -0.0803    1.6505   -0.4864 C   0  0  0  0  0  0  0  0  0  0  0  0
   -0.0000    0.2333   -0.0856 C   0  0  0  0  0  0  0  0  0  0  0  0
    1.5197   -0.1623    0.3341 C   0  0  2  0  0  0  0  0  0  0  0  0
    1.9268    1.3295    0.8527 C   0  0  0  0  0  0  0  0  0  0  0  0
    2.1030    0.1157   -1.1640 C   0  0  0  0  0  0  0  0  0  0  0  0
    3.1647   -0.9780   -1.2201 C   0  0  0  0  0  0  0  0  0  0  0  0
    4.3445   -0.6401   -0.3451 C   0  0  0  0  0  0  0  0  0  0  0  0
   -0.3337   -0.6097   -1.2756 C   0  0  0  0  0  0  0  0  0  0  0  0
   -0.0856   -0.1257   -2.4237 O   0  0  0  0  0  0  0  0  0  0  0  0
   -1.5756   -1.3201   -1.2322 N   0  0  0  0  0  0  0  0  0  0  0  0
   -2.2815   -1.6161   -0.0555 C   0  0  0  0  0  0  0  0  0  0  0  0
   -3.0941   -2.5851   -0.0629 O   0  0  0  0  0  0  0  0  0  0  0  0
   -1.7764   -1.1267    1.1662 N   0  0  0  0  0  0  0  0  0  0  0  0
   -0.7594   -0.1384    1.1116 C   0  0  0  0  0  0  0  0  0  0  0  0
   -0.2909    0.2174    2.2352 O   0  0  0  0  0  0  0  0  0  0  0  0
  1  2  2  0
  2  3  1  0
  3  4  1  0
  5  4  1  6
  5  6  1  0
  5  7  1  0
  7  8  1  0
  8  9  1  0
  4 10  1  0
 10 11  2  0
 10 12  1  0
 12 13  1  0
 13 14  2  0
 13 15  1  0
 15 16  1  0
 16 17  2  0
 16  4  1  0
M  END
>  <supplier_code>  (283) 
DB00418

>  <zinc_id>  (283) 
ZINC000003874950

>  <catalog_short_name>  (283) 
dbfda

$$$$

     RDKit          3D

 15 15  0  0  0  0  0  0  0  0999 V2000
    4.5220    0.6115    0.2988 C   0  0  0  0  0  0  0  0  0  0  0  0
    3.5449   -0.1691    0.7980 C   0  0  0  0  0  0  0  0  0  0  0  0
    2.6521   -1.1485    0.3936 C   0  0  0  0  0  0  0  0  0  0  0  0
    1.5308   -1.0853   -0.4595 C   0  0  0  0  0  0  0  0  0  0  0  0
    0.3306   -0.4822   -0.3383 N   0  0  0  0  0  0  0  0  0  0  0  0
   -0.1893    0.4579   -0.9753 C   0  0  0  0  0  0  0  0  0  0  0  0
   -1.7564    0.7894   -0.7993 C   0  0  2  0  0  0  0  0  0  0  0  0
   -1.4582    2.2485   -1.1817 O   0  0  0  0  0  0  0  0  0  0  0  0
   -1.9058    1.2979    0.8343 C   0  0  1  0  0  0  0  0  0  0  0  0
   -2.9673    0.2928    1.2785 O   0  0  0  0  0  0  0  0  0  0  0  0
   -0.6807    0.5165    1.7090 C   0  0  2  0  0  0  0  0  0  0  0  0
    0.3848    1.3416    1.0120 O   0  0  0  0  0  0  0  0  0  0  0  0
   -0.3758   -0.9864    0.9530 C   0  0  1  0  0  0  0  0  0  0  0  0
   -1.7994   -1.2568    0.2288 C   0  0  0  0  0  0  0  0  0  0  0  0
   -1.8324   -2.4279   -0.3825 O   0  0  0  0  0  0  0  0  0  0  0  0
  1  2  1  0
  2  3  1  0
  3  4  1  0
  4  5  1  0
  5  6  1  0
  6  7  1  0
  7  8  1  6
  7  9  1  0
  9 10  1  1
  9 11  1  0
 11 12  1  6
 11 13  1  0
 13 14  1  6
 14 15  1  0
 13  5  1  0
M  END
>  <supplier_code>  (284) 
DB00419

>  <zinc_id>  (284) 
ZINC000003794711

>  <catalog_short_name>  (284) 
dbfda

$$$$

     RDKit          3D

 29 33  0  0  0  0  0  0  0  0999 V2000
   -1.8971   -3.3614   -0.8724 C   0  0  0  0  0  0  0  0  0  0  0  0
   -1.4638   -3.2450   -0.9052 C   0  0  0  0  0  0  0  0  0  0  0  0
   -1.1289   -3.4505   -2.0704 O   0  0  0  0  0  0  0  0  0  0  0  0
   -0.2247   -2.7671    0.2592 S   0  0  0  0  0  0  0  0  0  0  0  0
   -0.8812   -1.5322    1.5343 C   0  0  2  0  0  0  0  0  0  0  0  0
   -2.3843   -1.4773    1.0645 C   0  0  0  0  0  0  0  0  0  0  0  0
   -2.8074   -0.0856    0.8403 C   0  0  0  0  0  0  0  0  0  0  0  0
   -4.0623    0.3229    1.0383 C   0  0  0  0  0  0  0  0  0  0  0  0
   -4.5479    1.3319    0.0848 C   0  0  0  0  0  0  0  0  0  0  0  0
   -5.3671    2.2338    0.4363 O   0  0  0  0  0  0  0  0  0  0  0  0
   -4.3154    1.1473   -1.3827 C   0  0  0  0  0  0  0  0  0  0  0  0
   -3.1802    0.1470   -1.5749 C   0  0  0  0  0  0  0  0  0  0  0  0
   -2.2424    0.4288   -0.4509 C   0  0  1  0  0  0  0  0  0  0  0  0
   -2.0024    1.8616   -0.3289 C   0  0  0  0  0  0  0  0  0  0  0  0
   -0.8871   -0.4267   -0.6826 C   0  0  1  0  0  0  0  0  0  0  0  0
   -0.0983    0.8043   -1.3660 C   0  0  0  0  0  0  0  0  0  0  0  0
    1.2442    1.0014   -0.9655 C   0  0  0  0  0  0  0  0  0  0  0  0
    1.7631    0.7770    0.3502 C   0  0  1  0  0  0  0  0  0  0  0  0
    1.3199    1.6444    1.4829 C   0  0  0  0  0  0  0  0  0  0  0  0
    1.1969   -0.7189    0.6023 C   0  0  1  0  0  0  0  0  0  0  0  0
    1.6567   -0.6128    2.1501 C   0  0  0  0  0  0  0  0  0  0  0  0
    3.1263   -0.2804    1.9020 C   0  0  0  0  0  0  0  0  0  0  0  0
    3.1824    0.4858    0.5858 C   0  0  1  0  0  0  0  0  0  0  0  0
    3.9299   -0.2244   -0.4829 C   0  0  0  0  0  0  0  0  0  0  0  0
    5.3634    0.2071   -0.1912 C   0  0  0  0  0  0  0  0  0  0  0  0
    5.1755    1.6150    0.2805 C   0  0  0  0  0  0  0  0  0  0  0  0
    6.0021    2.5721    0.1841 O   0  0  0  0  0  0  0  0  0  0  0  0
    3.8764    1.7209    0.7514 O   0  0  0  0  0  0  0  0  0  0  0  0
   -0.3464   -0.1187    0.8780 C   0  0  2  0  0  0  0  0  0  0  0  0
  1  2  1  0
  2  3  2  0
  2  4  1  0
  5  4  1  6
  5  6  1  0
  6  7  1  0
  7  8  2  0
  8  9  1  0
  9 10  2  0
  9 11  1  0
 11 12  1  0
 12 13  1  0
 13 14  1  1
 13 15  1  0
 15 16  1  6
 16 17  1  0
 17 18  1  0
 18 19  1  1
 18 20  1  0
 20 21  1  1
 21 22  1  0
 23 22  1  1
 23 24  1  0
 24 25  1  0
 25 26  1  0
 26 27  2  0
 26 28  1  0
 20 29  1  0
 29  5  1  1
 13  7  1  0
 29 15  1  0
 23 18  1  0
 28 23  1  0
M  END
>  <supplier_code>  (285) 
DB00421

>  <zinc_id>  (285) 
ZINC000003861599

>  <catalog_short_name>  (285) 
dbfda

$$$$

     RDKit          3D

 17 18  0  0  0  0  0  0  0  0999 V2000
    0.0508    4.1382    0.3562 C   0  0  0  0  0  0  0  0  0  0  0  0
    0.4178    2.9067    0.5353 O   0  0  0  0  0  0  0  0  0  0  0  0
   -0.0317    1.8307   -0.2521 C   0  0  0  0  0  0  0  0  0  0  0  0
   -1.1045    2.1526   -0.8553 O   0  0  0  0  0  0  0  0  0  0  0  0
   -0.1779    0.5499    0.7151 C   0  0  2  0  0  0  0  0  0  0  0  0
    1.2502   -0.0393    0.2929 C   0  0  0  0  0  0  0  0  0  0  0  0
    1.5370   -0.2663   -0.9996 C   0  0  0  0  0  0  0  0  0  0  0  0
    2.6848   -1.0036   -1.2791 C   0  0  0  0  0  0  0  0  0  0  0  0
    3.3161   -1.6720   -0.2373 C   0  0  0  0  0  0  0  0  0  0  0  0
    3.2261   -1.1572    1.0425 C   0  0  0  0  0  0  0  0  0  0  0  0
    2.0991   -0.3911    1.3162 C   0  0  0  0  0  0  0  0  0  0  0  0
   -1.0387   -0.3880   -0.4478 C   0  0  2  0  0  0  0  0  0  0  0  0
   -2.4782    0.2020    0.0655 C   0  0  0  0  0  0  0  0  0  0  0  0
   -3.4599   -0.6247   -0.7056 C   0  0  0  0  0  0  0  0  0  0  0  0
   -3.1650   -2.0771   -0.7686 C   0  0  0  0  0  0  0  0  0  0  0  0
   -2.0031   -2.5620   -0.0085 C   0  0  0  0  0  0  0  0  0  0  0  0
   -1.1229   -1.5987    0.5455 N   0  0  0  0  0  0  0  0  0  0  0  0
  1  2  1  0
  2  3  1  0
  3  4  2  0
  5  3  1  6
  5  6  1  0
  6  7  2  0
  7  8  1  0
  8  9  2  0
  9 10  1  0
 10 11  2  0
  5 12  1  0
 12 13  1  1
 13 14  1  0
 14 15  1  0
 15 16  1  0
 16 17  1  0
 11  6  1  0
 17 12  1  0
M  END
>  <supplier_code>  (286) 
DB00422

>  <zinc_id>  (286) 
ZINC000000001267

>  <catalog_short_name>  (286) 
dbfda

$$$$

     RDKit          3D

 17 18  0  0  0  0  0  0  0  0999 V2000
    0.1682    3.9137   -0.2119 C   0  0  0  0  0  0  0  0  0  0  0  0
    0.1181    2.7915    0.4656 O   0  0  0  0  0  0  0  0  0  0  0  0
    0.0376    1.6153   -0.2489 C   0  0  0  0  0  0  0  0  0  0  0  0
   -0.0360    1.4915   -1.4680 O   0  0  0  0  0  0  0  0  0  0  0  0
   -0.0101    0.2766    0.6488 C   0  0  1  0  0  0  0  0  0  0  0  0
   -1.2047   -0.4038   -0.2031 C   0  0  0  0  0  0  0  0  0  0  0  0
   -2.2678    0.4434   -0.4986 C   0  0  0  0  0  0  0  0  0  0  0  0
   -3.4232   -0.1681   -0.9704 C   0  0  0  0  0  0  0  0  0  0  0  0
   -3.8365   -1.2886   -0.2594 C   0  0  0  0  0  0  0  0  0  0  0  0
   -2.9469   -1.8949    0.6199 C   0  0  0  0  0  0  0  0  0  0  0  0
   -1.6068   -1.5598    0.4638 C   0  0  0  0  0  0  0  0  0  0  0  0
    1.2149   -0.4801   -0.3169 C   0  0  1  0  0  0  0  0  0  0  0  0
    2.3465    0.5919    0.2118 C   0  0  0  0  0  0  0  0  0  0  0  0
    3.6785   -0.0632    0.0160 C   0  0  0  0  0  0  0  0  0  0  0  0
    3.6221   -1.4474   -0.5361 C   0  0  0  0  0  0  0  0  0  0  0  0
    2.5664   -2.3149    0.1130 C   0  0  0  0  0  0  0  0  0  0  0  0
    1.5797   -1.5031    0.8290 N   0  0  0  0  0  0  0  0  0  0  0  0
  1  2  1  0
  2  3  1  0
  3  4  2  0
  5  3  1  6
  5  6  1  0
  6  7  2  0
  7  8  1  0
  8  9  2  0
  9 10  1  0
 10 11  2  0
  5 12  1  0
 12 13  1  1
 13 14  1  0
 14 15  1  0
 15 16  1  0
 16 17  1  0
 11  6  1  0
 17 12  1  0
M  END
>  <supplier_code>  (287) 
DB00422

>  <zinc_id>  (287) 
ZINC000000896709

>  <catalog_short_name>  (287) 
dbfda

$$$$

     RDKit          3D

 17 18  0  0  0  0  0  0  0  0999 V2000
   -0.5286    4.0203   -0.4241 C   0  0  0  0  0  0  0  0  0  0  0  0
   -0.3383    2.7042   -0.8786 O   0  0  0  0  0  0  0  0  0  0  0  0
   -0.2788    1.7154    0.0766 C   0  0  0  0  0  0  0  0  0  0  0  0
   -0.0960    1.8430    1.2774 O   0  0  0  0  0  0  0  0  0  0  0  0
    0.0331    0.2827   -0.6092 C   0  0  2  0  0  0  0  0  0  0  0  0
   -1.1549   -0.5067    0.1418 C   0  0  0  0  0  0  0  0  0  0  0  0
   -1.7053   -0.0956    1.2710 C   0  0  0  0  0  0  0  0  0  0  0  0
   -2.9536   -0.6266    1.5918 C   0  0  0  0  0  0  0  0  0  0  0  0
   -3.6479   -1.4419    0.7404 C   0  0  0  0  0  0  0  0  0  0  0  0
   -2.9300   -1.9757   -0.3190 C   0  0  0  0  0  0  0  0  0  0  0  0
   -1.7142   -1.4397   -0.6920 C   0  0  0  0  0  0  0  0  0  0  0  0
    1.2020   -0.2004    0.5892 C   0  0  1  0  0  0  0  0  0  0  0  0
    1.4917   -1.5981   -0.2332 C   0  0  0  0  0  0  0  0  0  0  0  0
    2.7771   -2.1441    0.2912 C   0  0  0  0  0  0  0  0  0  0  0  0
    3.9032   -1.2334   -0.1852 C   0  0  0  0  0  0  0  0  0  0  0  0
    3.5876    0.1304    0.4190 C   0  0  0  0  0  0  0  0  0  0  0  0
    2.3533    0.5662   -0.1751 N   0  0  0  0  0  0  0  0  0  0  0  0
  1  2  1  0
  2  3  1  0
  3  4  2  0
  5  3  1  1
  5  6  1  0
  6  7  2  0
  7  8  1  0
  8  9  2  0
  9 10  1  0
 10 11  2  0
  5 12  1  0
 12 13  1  6
 13 14  1  0
 14 15  1  0
 15 16  1  0
 16 17  1  0
 11  6  1  0
 17 12  1  0
M  END
>  <supplier_code>  (288) 
DB00422

>  <zinc_id>  (288) 
ZINC000000896711

>  <catalog_short_name>  (288) 
dbfda

$$$$

     RDKit          3D

 17 18  0  0  0  0  0  0  0  0999 V2000
   -0.2242    3.6361    0.6604 C   0  0  0  0  0  0  0  0  0  0  0  0
   -0.1331    2.4607    0.6637 O   0  0  0  0  0  0  0  0  0  0  0  0
   -0.1969    1.7650   -0.4947 C   0  0  0  0  0  0  0  0  0  0  0  0
   -0.7278    2.3303   -1.4917 O   0  0  0  0  0  0  0  0  0  0  0  0
   -0.2456    0.1737   -0.5413 C   0  0  1  0  0  0  0  0  0  0  0  0
    1.0958   -0.0157    0.3170 C   0  0  0  0  0  0  0  0  0  0  0  0
    2.1814    0.7431   -0.1172 C   0  0  0  0  0  0  0  0  0  0  0  0
    3.4797    0.3113   -0.0536 C   0  0  0  0  0  0  0  0  0  0  0  0
    3.7356   -1.0222    0.1536 C   0  0  0  0  0  0  0  0  0  0  0  0
    2.6665   -1.8829    0.1725 C   0  0  0  0  0  0  0  0  0  0  0  0
    1.4717   -1.3387    0.5333 C   0  0  0  0  0  0  0  0  0  0  0  0
   -1.3048    0.0873    0.7985 C   0  0  2  0  0  0  0  0  0  0  0  0
   -1.0919   -1.5065    1.0027 C   0  0  0  0  0  0  0  0  0  0  0  0
   -1.6015   -2.2721   -0.1537 C   0  0  0  0  0  0  0  0  0  0  0  0
   -3.0892   -2.4181    0.1772 C   0  0  0  0  0  0  0  0  0  0  0  0
   -3.4590   -0.9860    0.5647 C   0  0  0  0  0  0  0  0  0  0  0  0
   -2.5567   -0.0652   -0.1258 N   0  0  0  0  0  0  0  0  0  0  0  0
  1  2  1  0
  2  3  1  0
  3  4  2  0
  5  3  1  1
  5  6  1  0
  6  7  2  0
  7  8  1  0
  8  9  2  0
  9 10  1  0
 10 11  2  0
  5 12  1  0
 12 13  1  1
 13 14  1  0
 14 15  1  0
 15 16  1  0
 16 17  1  0
 11  6  1  0
 17 12  1  0
M  END
>  <supplier_code>  (289) 
DB00422

>  <zinc_id>  (289) 
ZINC000002522648

>  <catalog_short_name>  (289) 
dbfda

$$$$

     RDKit          3D

 17 17  0  0  0  0  0  0  0  0999 V2000
   -1.3495    2.1910   -1.6924 C   0  0  0  0  0  0  0  0  0  0  0  0
   -1.9403    1.1519   -1.6959 O   0  0  0  0  0  0  0  0  0  0  0  0
   -2.3418    0.4293   -0.5959 C   0  0  0  0  0  0  0  0  0  0  0  0
   -3.2442    1.0132    0.2522 C   0  0  0  0  0  0  0  0  0  0  0  0
   -3.4730    0.5250    1.5169 C   0  0  0  0  0  0  0  0  0  0  0  0
   -3.0521   -0.7747    1.7569 C   0  0  0  0  0  0  0  0  0  0  0  0
   -2.1219   -1.3697    0.9175 C   0  0  0  0  0  0  0  0  0  0  0  0
   -1.6658   -0.7185   -0.1970 C   0  0  0  0  0  0  0  0  0  0  0  0
   -0.7495   -1.2352   -1.0838 O   0  0  0  0  0  0  0  0  0  0  0  0
    0.4952   -1.7932   -0.7387 C   0  0  0  0  0  0  0  0  0  0  0  0
    1.5048   -0.4502   -0.6426 C   0  0  2  0  0  0  0  0  0  0  0  0
    2.0730   -0.7323   -2.0555 O   0  0  0  0  0  0  0  0  0  0  0  0
    2.7211   -1.3711    0.0677 C   0  0  0  0  0  0  0  0  0  0  0  0
    3.1271   -0.5763    1.1618 O   0  0  0  0  0  0  0  0  0  0  0  0
    3.2798    0.7919    1.0170 C   0  0  0  0  0  0  0  0  0  0  0  0
    3.4457    1.6283    2.1382 N   0  0  0  0  0  0  0  0  0  0  0  0
    3.2913    1.2905   -0.1262 O   0  0  0  0  0  0  0  0  0  0  0  0
  1  2  1  0
  2  3  1  0
  3  4  2  0
  4  5  1  0
  5  6  2  0
  6  7  1  0
  7  8  2  0
  8  9  1  0
  9 10  1  0
 11 10  1  6
 11 12  1  0
 11 13  1  0
 13 14  1  0
 14 15  1  0
 15 16  1  0
 15 17  2  0
  8  3  1  0
M  END
>  <supplier_code>  (290) 
DB00423

>  <zinc_id>  (290) 
ZINC000000057340

>  <catalog_short_name>  (290) 
dbfda

$$$$

     RDKit          3D

 17 17  0  0  0  0  0  0  0  0999 V2000
   -3.4787   -1.9754   -1.4092 C   0  0  0  0  0  0  0  0  0  0  0  0
   -2.9167   -0.7271   -1.7983 O   0  0  0  0  0  0  0  0  0  0  0  0
   -2.6515    0.2878   -0.8823 C   0  0  0  0  0  0  0  0  0  0  0  0
   -3.4003    1.4484   -1.0335 C   0  0  0  0  0  0  0  0  0  0  0  0
   -3.3352    2.4373   -0.0912 C   0  0  0  0  0  0  0  0  0  0  0  0
   -2.6516    2.1610    1.0716 C   0  0  0  0  0  0  0  0  0  0  0  0
   -1.8050    1.0621    1.1595 C   0  0  0  0  0  0  0  0  0  0  0  0
   -1.6476    0.2422    0.0468 C   0  0  0  0  0  0  0  0  0  0  0  0
   -0.9823   -0.9851    0.1297 O   0  0  0  0  0  0  0  0  0  0  0  0
    0.3409   -1.0827   -0.3552 C   0  0  0  0  0  0  0  0  0  0  0  0
    1.2441   -1.4481    0.9978 C   0  0  1  0  0  0  0  0  0  0  0  0
    2.2076   -2.3072    0.1686 O   0  0  0  0  0  0  0  0  0  0  0  0
    2.1431   -0.0632    0.8189 C   0  0  0  0  0  0  0  0  0  0  0  0
    3.4923   -0.4516    0.8173 O   0  0  0  0  0  0  0  0  0  0  0  0
    4.2593    0.1376   -0.1923 C   0  0  0  0  0  0  0  0  0  0  0  0
    5.4779    0.8421    0.0526 N   0  0  0  0  0  0  0  0  0  0  0  0
    3.7036    0.4217   -1.2931 O   0  0  0  0  0  0  0  0  0  0  0  0
  1  2  1  0
  2  3  1  0
  3  4  2  0
  4  5  1  0
  5  6  2  0
  6  7  1  0
  7  8  2  0
  8  9  1  0
  9 10  1  0
 11 10  1  6
 11 12  1  0
 11 13  1  0
 13 14  1  0
 14 15  1  0
 15 16  1  0
 15 17  2  0
  8  3  1  0
M  END
>  <supplier_code>  (291) 
DB00423

>  <zinc_id>  (291) 
ZINC000000057341

>  <catalog_short_name>  (291) 
dbfda

$$$$

     RDKit          3D

 23 25  0  0  0  0  0  0  0  0999 V2000
    5.2639   -0.8786    1.7858 C   0  0  0  0  0  0  0  0  0  0  0  0
    4.3554   -1.0361    0.6115 C   0  0  0  0  0  0  0  0  0  0  0  0
    3.2581   -1.8809    0.6355 C   0  0  0  0  0  0  0  0  0  0  0  0
    2.1456   -1.5950   -0.1466 C   0  0  0  0  0  0  0  0  0  0  0  0
    2.0497   -0.4095   -0.8616 C   0  0  0  0  0  0  0  0  0  0  0  0
    0.7493    0.2605   -0.9543 C   0  0  0  0  0  0  0  0  0  0  0  0
    0.5505    1.4830   -1.4938 N   0  0  0  0  0  0  0  0  0  0  0  0
   -0.6801    1.8964   -1.1109 C   0  0  0  0  0  0  0  0  0  0  0  0
   -1.4650    2.9913   -1.4410 C   0  0  0  0  0  0  0  0  0  0  0  0
   -2.2080    3.5574   -0.4119 C   0  0  0  0  0  0  0  0  0  0  0  0
   -2.3962    2.8483    0.7567 C   0  0  0  0  0  0  0  0  0  0  0  0
   -2.7940    3.5805    1.9718 C   0  0  0  0  0  0  0  0  0  0  0  0
   -2.0547    1.5051    0.7395 C   0  0  0  0  0  0  0  0  0  0  0  0
   -1.0638    1.0989   -0.0847 N   0  0  0  0  0  0  0  0  0  0  0  0
   -0.4450   -0.0816   -0.3272 C   0  0  0  0  0  0  0  0  0  0  0  0
   -0.4661   -1.2333    0.6099 C   0  0  0  0  0  0  0  0  0  0  0  0
   -1.8151   -1.8039    0.8068 C   0  0  0  0  0  0  0  0  0  0  0  0
   -1.9486   -2.4821    1.8724 O   0  0  0  0  0  0  0  0  0  0  0  0
   -2.6246   -2.2418   -0.2927 N   0  0  0  0  0  0  0  0  0  0  0  0
   -4.0250   -2.5150    0.0231 C   0  0  0  0  0  0  0  0  0  0  0  0
   -1.9984   -3.2127   -1.1858 C   0  0  0  0  0  0  0  0  0  0  0  0
    3.2184    0.2839   -1.0573 C   0  0  0  0  0  0  0  0  0  0  0  0
    4.3937   -0.1346   -0.4452 C   0  0  0  0  0  0  0  0  0  0  0  0
  1  2  1  0
  2  3  2  0
  3  4  1  0
  4  5  2  0
  5  6  1  0
  6  7  1  0
  7  8  2  0
  8  9  1  0
  9 10  2  0
 10 11  1  0
 11 12  1  0
 11 13  2  0
 13 14  1  0
 14 15  1  0
 15 16  1  0
 16 17  1  0
 17 18  2  0
 17 19  1  0
 19 20  1  0
 19 21  1  0
  5 22  1  0
 22 23  2  0
 23  2  1  0
 15  6  2  0
 14  8  1  0
M  END
>  <supplier_code>  (292) 
DB00425

>  <zinc_id>  (292) 
ZINC000000003876

>  <catalog_short_name>  (292) 
dbfda

$$$$

     RDKit          3D

 23 24  0  0  0  0  0  0  0  0999 V2000
   -3.8212    3.9900   -0.4098 C   0  0  0  0  0  0  0  0  0  0  0  0
   -3.1957    2.6465   -0.2144 C   0  0  0  0  0  0  0  0  0  0  0  0
   -3.1213    2.1065    0.9265 O   0  0  0  0  0  0  0  0  0  0  0  0
   -2.4931    1.9866   -1.2218 O   0  0  0  0  0  0  0  0  0  0  0  0
   -2.7684    0.6219   -1.4154 C   0  0  0  0  0  0  0  0  0  0  0  0
   -1.8869   -0.3001   -0.6268 C   0  0  0  0  0  0  0  0  0  0  0  0
   -0.4109    0.0649   -0.7369 C   0  0  0  0  0  0  0  0  0  0  0  0
    0.1788   -0.0138    0.6468 C   0  0  0  0  0  0  0  0  0  0  0  0
    1.4689   -0.6959    0.6476 N   0  0  0  0  0  0  0  0  0  0  0  0
    1.8328   -1.7111    1.4664 C   0  0  0  0  0  0  0  0  0  0  0  0
    3.1333   -1.5593    1.7548 N   0  0  0  0  0  0  0  0  0  0  0  0
    3.6823   -0.6818    0.9023 C   0  0  0  0  0  0  0  0  0  0  0  0
    4.9424   -0.1855    0.6701 C   0  0  0  0  0  0  0  0  0  0  0  0
    5.1347    0.6057   -0.3952 N   0  0  0  0  0  0  0  0  0  0  0  0
    4.0778    1.2314   -0.9671 C   0  0  0  0  0  0  0  0  0  0  0  0
    4.2980    2.4772   -1.6258 N   0  0  0  0  0  0  0  0  0  0  0  0
    2.8301    0.8119   -0.7293 N   0  0  0  0  0  0  0  0  0  0  0  0
    2.6184   -0.1466    0.1999 C   0  0  0  0  0  0  0  0  0  0  0  0
   -2.0128   -1.6735   -1.2709 C   0  0  0  0  0  0  0  0  0  0  0  0
   -2.5217   -2.6411   -0.3866 O   0  0  0  0  0  0  0  0  0  0  0  0
   -3.5702   -2.3998    0.4915 C   0  0  0  0  0  0  0  0  0  0  0  0
   -4.7339   -3.2943    0.6560 C   0  0  0  0  0  0  0  0  0  0  0  0
   -3.6614   -1.2397    0.9399 O   0  0  0  0  0  0  0  0  0  0  0  0
  1  2  1  0
  2  3  2  0
  2  4  1  0
  4  5  1  0
  5  6  1  0
  6  7  1  0
  7  8  1  0
  8  9  1  0
  9 10  1  0
 10 11  2  0
 11 12  1  0
 12 13  2  0
 13 14  1  0
 14 15  2  0
 15 16  1  0
 15 17  1  0
 17 18  2  0
  6 19  1  0
 19 20  1  0
 20 21  1  0
 21 22  1  0
 21 23  2  0
 18  9  1  0
 18 12  1  0
M  END
>  <supplier_code>  (293) 
DB00426

>  <zinc_id>  (293) 
ZINC000001530635

>  <catalog_short_name>  (293) 
dbfda

$$$$

     RDKit          3D

 21 23  0  0  0  0  0  0  0  0999 V2000
   -3.7783   -3.1103    1.4704 C   0  0  0  0  0  0  0  0  0  0  0  0
   -2.8538   -2.3354    0.5973 C   0  0  0  0  0  0  0  0  0  0  0  0
   -3.3274   -1.3890   -0.3020 C   0  0  0  0  0  0  0  0  0  0  0  0
   -2.4304   -0.4888   -0.8627 C   0  0  0  0  0  0  0  0  0  0  0  0
   -1.0681   -0.7596   -0.9015 C   0  0  0  0  0  0  0  0  0  0  0  0
   -0.1015    0.3455   -0.9498 C   0  0  0  0  0  0  0  0  0  0  0  0
    1.1841   -0.0060   -1.0029 C   0  0  0  0  0  0  0  0  0  0  0  0
    1.5843   -1.3840   -0.5743 C   0  0  0  0  0  0  0  0  0  0  0  0
    2.7013   -1.2790    0.3345 N   0  0  0  0  0  0  0  0  0  0  0  0
    2.7903    0.0051    0.9812 C   0  0  0  0  0  0  0  0  0  0  0  0
    4.1925   -0.0563    1.5746 C   0  0  0  0  0  0  0  0  0  0  0  0
    4.9764   -0.6623    0.4359 C   0  0  0  0  0  0  0  0  0  0  0  0
    3.9244   -1.2857   -0.4644 C   0  0  0  0  0  0  0  0  0  0  0  0
   -0.4765    1.6879   -0.4855 C   0  0  0  0  0  0  0  0  0  0  0  0
   -1.3939    2.3949   -1.2542 C   0  0  0  0  0  0  0  0  0  0  0  0
   -1.5149    3.7464   -0.9548 C   0  0  0  0  0  0  0  0  0  0  0  0
   -1.1656    4.1142    0.3361 C   0  0  0  0  0  0  0  0  0  0  0  0
   -0.4734    3.2587    1.1844 C   0  0  0  0  0  0  0  0  0  0  0  0
   -0.5310    1.9476    0.8440 N   0  0  0  0  0  0  0  0  0  0  0  0
   -0.6908   -1.9905   -0.3792 C   0  0  0  0  0  0  0  0  0  0  0  0
   -1.5477   -2.7536    0.3727 C   0  0  0  0  0  0  0  0  0  0  0  0
  1  2  1  0
  2  3  2  0
  3  4  1  0
  4  5  2  0
  5  6  1  0
  6  7  2  0
  7  8  1  0
  8  9  1  0
  9 10  1  0
 10 11  1  0
 11 12  1  0
 12 13  1  0
  6 14  1  0
 14 15  2  0
 15 16  1  0
 16 17  2  0
 17 18  1  0
 18 19  2  0
  5 20  1  0
 20 21  2  0
 21  2  1  0
 13  9  1  0
 19 14  1  0
M  END
>  <supplier_code>  (294) 
DB00427

>  <zinc_id>  (294) 
ZINC000012503099

>  <catalog_short_name>  (294) 
dbfda

$$$$

     RDKit          3D

 18 18  0  0  0  0  0  0  0  0999 V2000
    3.0822    1.0117    1.1081 C   0  0  0  0  0  0  0  0  0  0  0  0
    3.1744    0.5373    0.2964 N   0  0  0  0  0  0  0  0  0  0  0  0
    4.4251    0.7225   -0.3331 N   0  0  0  0  0  0  0  0  0  0  0  0
    4.7181    1.6702   -0.9881 O   0  0  0  0  0  0  0  0  0  0  0  0
    2.3254   -0.4049   -0.3574 C   0  0  0  0  0  0  0  0  0  0  0  0
    2.5104   -0.6899   -1.5788 O   0  0  0  0  0  0  0  0  0  0  0  0
    0.9655   -0.7364   -0.0102 N   0  0  0  0  0  0  0  0  0  0  0  0
   -0.0311    0.0567   -0.9154 C   0  0  2  0  0  0  0  0  0  0  0  0
   -0.7794    0.8029    0.4162 C   0  0  1  0  0  0  0  0  0  0  0  0
   -1.7611    1.6270   -0.4044 O   0  0  0  0  0  0  0  0  0  0  0  0
   -1.8794   -0.2654    1.1724 C   0  0  2  0  0  0  0  0  0  0  0  0
   -0.8477   -1.3372    1.4286 O   0  0  0  0  0  0  0  0  0  0  0  0
   -2.8840   -0.8380   -0.1019 C   0  0  1  0  0  0  0  0  0  0  0  0
   -3.7784    0.5016    0.2616 C   0  0  0  0  0  0  0  0  0  0  0  0
   -4.7240    0.8636   -0.3584 O   0  0  0  0  0  0  0  0  0  0  0  0
   -2.2177   -0.2208   -1.2955 O   0  0  0  0  0  0  0  0  0  0  0  0
   -1.0404   -1.1883   -1.5107 C   0  0  2  0  0  0  0  0  0  0  0  0
   -1.2579   -2.1125   -0.3187 O   0  0  0  0  0  0  0  0  0  0  0  0
  1  2  1  0
  2  3  1  0
  3  4  2  0
  2  5  1  0
  5  6  2  0
  5  7  1  0
  8  7  1  1
  8  9  1  0
  9 10  1  6
  9 11  1  0
 11 12  1  6
 11 13  1  0
 13 14  1  1
 14 15  1  0
 13 16  1  0
 16 17  1  0
 17 18  1  1
 17  8  1  0
M  END
>  <supplier_code>  (295) 
DB00428

>  <zinc_id>  (295) 
ZINC000003977737

>  <catalog_short_name>  (295) 
dbfda

$$$$

     RDKit          3D

 26 26  0  0  0  0  0  0  0  0999 V2000
   -7.3339    1.6598    0.9142 C   0  0  0  0  0  0  0  0  0  0  0  0
   -6.3617    1.6893    0.5743 C   0  0  0  0  0  0  0  0  0  0  0  0
   -5.9611    0.2181    0.6022 C   0  0  0  0  0  0  0  0  0  0  0  0
   -4.7821   -0.0673   -0.3048 C   0  0  0  0  0  0  0  0  0  0  0  0
   -4.5829   -1.5306   -0.1959 C   0  0  0  0  0  0  0  0  0  0  0  0
   -3.4893   -2.1632   -0.9607 C   0  0  2  0  0  0  0  0  0  0  0  0
   -3.9328   -2.2927   -2.4199 C   0  0  0  0  0  0  0  0  0  0  0  0
   -3.4795   -3.4881   -0.4819 O   0  0  0  0  0  0  0  0  0  0  0  0
   -2.2106   -1.5135   -1.0034 C   0  0  0  0  0  0  0  0  0  0  0  0
   -1.1290   -1.5101   -0.2890 C   0  0  0  0  0  0  0  0  0  0  0  0
   -0.7304   -0.0919    0.3219 C   0  0  2  0  0  0  0  0  0  0  0  0
    0.8330   -0.4825    0.6971 C   0  0  1  0  0  0  0  0  0  0  0  0
    1.4815    0.3406   -0.5213 C   0  0  0  0  0  0  0  0  0  0  0  0
    2.6269   -0.4869   -0.9718 C   0  0  0  0  0  0  0  0  0  0  0  0
    3.8476    0.0189   -0.7455 C   0  0  0  0  0  0  0  0  0  0  0  0
    4.1162    0.2521    0.6952 C   0  0  0  0  0  0  0  0  0  0  0  0
    4.7023    1.5588    0.9653 C   0  0  0  0  0  0  0  0  0  0  0  0
    5.7038    2.2182    0.3049 C   0  0  0  0  0  0  0  0  0  0  0  0
    6.8652    1.8292   -0.3881 C   0  0  0  0  0  0  0  0  0  0  0  0
    7.6263    2.7890   -0.7418 O   0  0  0  0  0  0  0  0  0  0  0  0
    7.4652    0.5872   -0.3163 O   0  0  0  0  0  0  0  0  0  0  0  0
    0.9353    0.8788    1.7148 C   0  0  1  0  0  0  0  0  0  0  0  0
   -0.1668    1.7194    1.0976 O   0  0  0  0  0  0  0  0  0  0  0  0
   -0.0407    0.1395    2.7572 C   0  0  0  0  0  0  0  0  0  0  0  0
   -1.2842   -0.4290    1.8981 C   0  0  2  0  0  0  0  0  0  0  0  0
   -0.7183   -1.8431    1.9659 O   0  0  0  0  0  0  0  0  0  0  0  0
  1  2  1  0
  2  3  1  0
  3  4  1  0
  4  5  1  0
  6  5  1  1
  6  7  1  0
  6  8  1  0
  6  9  1  0
  9 10  2  0
 11 10  1  6
 11 12  1  0
 12 13  1  6
 13 14  1  0
 14 15  2  0
 15 16  1  0
 16 17  1  0
 17 18  1  0
 18 19  1  0
 19 20  2  0
 19 21  1  0
 12 22  1  0
 22 23  1  6
 22 24  1  0
 24 25  1  0
 25 26  1  6
 25 11  1  0
M  END
>  <supplier_code>  (296) 
DB00429

>  <zinc_id>  (296) 
ZINC000027641461

>  <catalog_short_name>  (296) 
dbfda

$$$$

     RDKit          3D

 12 12  0  0  0  0  0  0  0  0999 V2000
   -2.0193    0.7142    1.2567 Cl  0  0  0  0  0  0  0  0  0  0  0  0
   -1.0350    1.1754   -0.2585 C   0  0  1  0  0  0  0  0  0  0  0  0
    0.3928    1.0499    0.5253 C   0  0  2  0  0  0  0  0  0  0  0  0
    0.8747    2.8230    0.3069 Cl  0  0  0  0  0  0  0  0  0  0  0  0
    1.2094    0.4823   -0.7628 C   0  0  1  0  0  0  0  0  0  0  0  0
    2.9171    0.7963   -0.1064 Cl  0  0  0  0  0  0  0  0  0  0  0  0
    1.0798   -1.0960   -0.3422 C   0  0  1  0  0  0  0  0  0  0  0  0
    1.8026   -1.0363    1.3775 Cl  0  0  0  0  0  0  0  0  0  0  0  0
   -0.4558   -1.1098    0.2141 C   0  0  2  0  0  0  0  0  0  0  0  0
   -0.8410   -2.7955   -0.4549 Cl  0  0  0  0  0  0  0  0  0  0  0  0
   -1.0719   -0.2681   -1.0290 C   0  0  1  0  0  0  0  0  0  0  0  0
   -2.8535   -0.7354   -0.7268 Cl  0  0  0  0  0  0  0  0  0  0  0  0
  2  1  1  1
  2  3  1  0
  3  4  1  6
  3  5  1  0
  5  6  1  1
  5  7  1  0
  7  8  1  1
  7  9  1  0
  9 10  1  6
  9 11  1  0
 11 12  1  1
 11  2  1  0
M  END
>  <supplier_code>  (297) 
DB00431

>  <zinc_id>  (297) 
ZINC000100024116

>  <catalog_short_name>  (297) 
dbfda

$$$$

     RDKit          3D

 12 12  0  0  0  0  0  0  0  0999 V2000
   -0.2565   -3.0004   -0.2109 Cl  0  0  0  0  0  0  0  0  0  0  0  0
   -0.3332   -1.2157   -0.7232 C   0  0  1  0  0  0  0  0  0  0  0  0
   -0.8386   -0.6570    0.7085 C   0  0  2  0  0  0  0  0  0  0  0  0
   -2.4894   -1.4834    0.6476 Cl  0  0  0  0  0  0  0  0  0  0  0  0
   -1.3682    0.7745    0.1449 C   0  0  1  0  0  0  0  0  0  0  0  0
   -0.9664    1.6740    1.7208 Cl  0  0  0  0  0  0  0  0  0  0  0  0
   -0.1009    1.1988   -0.7899 C   0  0  1  0  0  0  0  0  0  0  0  0
    0.0016    2.9893   -0.3168 Cl  0  0  0  0  0  0  0  0  0  0  0  0
    1.0630    0.6612    0.1956 C   0  0  2  0  0  0  0  0  0  0  0  0
    2.4613    1.5015   -0.6749 Cl  0  0  0  0  0  0  0  0  0  0  0  0
    1.2288   -0.7827   -0.5393 C   0  0  1  0  0  0  0  0  0  0  0  0
    1.5985   -1.6601    1.0550 Cl  0  0  0  0  0  0  0  0  0  0  0  0
  2  1  1  1
  2  3  1  0
  3  4  1  6
  3  5  1  0
  5  6  1  1
  5  7  1  0
  7  8  1  1
  7  9  1  0
  9 10  1  6
  9 11  1  0
 11 12  1  1
 11  2  1  0
M  END
>  <supplier_code>  (298) 
DB00431

>  <zinc_id>  (298) 
ZINC000245204924

>  <catalog_short_name>  (298) 
dbfda

$$$$

     RDKit          3D

 20 21  0  0  0  0  0  0  0  0999 V2000
   -3.0580   -1.3950    0.5863 O   0  0  0  0  0  0  0  0  0  0  0  0
   -2.2452   -1.1610    0.4054 C   0  0  0  0  0  0  0  0  0  0  0  0
   -1.1571   -1.9606    0.5023 N   0  0  0  0  0  0  0  0  0  0  0  0
    0.0290   -1.6667   -0.0757 C   0  0  0  0  0  0  0  0  0  0  0  0
    0.8143   -2.6194   -0.3804 O   0  0  0  0  0  0  0  0  0  0  0  0
    0.2489   -0.3950   -0.4370 N   0  0  0  0  0  0  0  0  0  0  0  0
    1.4409   -0.2127   -1.4796 C   0  0  1  0  0  0  0  0  0  0  0  0
    1.5863    1.3800   -1.0664 C   0  0  0  0  0  0  0  0  0  0  0  0
    2.2265    1.1769    0.4120 C   0  0  2  0  0  0  0  0  0  0  0  0
    3.0034    2.4697    0.3157 O   0  0  0  0  0  0  0  0  0  0  0  0
    3.4370    0.3171   -0.4575 C   0  0  1  0  0  0  0  0  0  0  0  0
    4.1552   -0.1948    0.9188 C   0  0  0  0  0  0  0  0  0  0  0  0
    3.3045   -0.9088    1.6672 O   0  0  0  0  0  0  0  0  0  0  0  0
    2.4337   -0.7911   -0.4903 O   0  0  0  0  0  0  0  0  0  0  0  0
   -0.7945    0.4479   -0.6543 C   0  0  0  0  0  0  0  0  0  0  0  0
   -1.9509    0.1571    0.0643 C   0  0  0  0  0  0  0  0  0  0  0  0
   -3.0696    1.1224    0.1981 C   0  0  0  0  0  0  0  0  0  0  0  0
   -2.6601    2.2284    0.9099 F   0  0  0  0  0  0  0  0  0  0  0  0
   -4.0907    0.5505    0.9520 F   0  0  0  0  0  0  0  0  0  0  0  0
   -3.6536    1.4550   -1.0025 F   0  0  0  0  0  0  0  0  0  0  0  0
  1  2  2  0
  2  3  1  0
  3  4  1  0
  4  5  2  0
  4  6  1  0
  7  6  1  1
  7  8  1  0
  8  9  1  0
  9 10  1  6
  9 11  1  0
 11 12  1  1
 12 13  1  0
 11 14  1  0
  6 15  1  0
 15 16  2  0
 16 17  1  0
 17 18  1  0
 17 19  1  0
 17 20  1  0
 16  2  1  0
 14  7  1  0
M  END
>  <supplier_code>  (299) 
DB00432

>  <zinc_id>  (299) 
ZINC000003842753

>  <catalog_short_name>  (299) 
dbfda

$$$$

     RDKit          3D

 25 28  0  0  0  0  0  0  0  0999 V2000
    6.0067    0.0816   -0.8142 C   0  0  0  0  0  0  0  0  0  0  0  0
    4.5772    0.1060   -0.6788 N   0  0  0  0  0  0  0  0  0  0  0  0
    3.9397   -1.1552   -0.9211 C   0  0  0  0  0  0  0  0  0  0  0  0
    3.6976   -1.9694    0.3176 C   0  0  0  0  0  0  0  0  0  0  0  0
    2.9781   -1.2150    1.3115 N   0  0  0  0  0  0  0  0  0  0  0  0
    1.6380   -0.8693    0.9240 C   0  0  0  0  0  0  0  0  0  0  0  0
    0.8458   -0.5889    2.1694 C   0  0  0  0  0  0  0  0  0  0  0  0
   -0.6420   -0.7658    1.9815 C   0  0  0  0  0  0  0  0  0  0  0  0
   -1.1157   -0.1672    0.7419 N   0  0  0  0  0  0  0  0  0  0  0  0
   -0.7236    1.1688    0.4050 C   0  0  0  0  0  0  0  0  0  0  0  0
   -0.0821    1.9956    1.3041 C   0  0  0  0  0  0  0  0  0  0  0  0
    0.1375    3.3095    0.9666 C   0  0  0  0  0  0  0  0  0  0  0  0
   -0.5283    3.8082   -0.1432 C   0  0  0  0  0  0  0  0  0  0  0  0
   -0.8250    2.9189   -1.1674 C   0  0  0  0  0  0  0  0  0  0  0  0
   -0.6766    1.5606   -0.9256 C   0  0  0  0  0  0  0  0  0  0  0  0
   -1.1771    0.3660   -2.1723 S   0  0  0  0  0  0  0  0  0  0  0  0
   -2.2891   -0.7752   -1.3418 C   0  0  0  0  0  0  0  0  0  0  0  0
   -3.5859   -0.8309   -1.8362 C   0  0  0  0  0  0  0  0  0  0  0  0
   -4.6567   -1.2042   -1.0330 C   0  0  0  0  0  0  0  0  0  0  0  0
   -4.3678   -1.8494    0.1638 C   0  0  0  0  0  0  0  0  0  0  0  0
   -5.7599   -2.2209    1.1767 Cl  0  0  0  0  0  0  0  0  0  0  0  0
   -3.1128   -1.6084    0.7117 C   0  0  0  0  0  0  0  0  0  0  0  0
   -2.1778   -0.8277    0.0424 C   0  0  0  0  0  0  0  0  0  0  0  0
    3.7961   -0.0761    1.6515 C   0  0  0  0  0  0  0  0  0  0  0  0
    4.1036    0.8082    0.4771 C   0  0  0  0  0  0  0  0  0  0  0  0
  1  2  1  0
  2  3  1  0
  3  4  1  0
  4  5  1  0
  5  6  1  0
  6  7  1  0
  7  8  1  0
  8  9  1  0
  9 10  1  0
 10 11  2  0
 11 12  1  0
 12 13  2  0
 13 14  1  0
 14 15  2  0
 15 16  1  0
 16 17  1  0
 17 18  2  0
 18 19  1  0
 19 20  2  0
 20 21  1  0
 20 22  1  0
 22 23  2  0
  5 24  1  0
 24 25  1  0
 25  2  1  0
 23  9  1  0
 15 10  1  0
 23 17  1  0
M  END
>  <supplier_code>  (300) 
DB00433

>  <zinc_id>  (300) 
ZINC000019796018

>  <catalog_short_name>  (300) 
dbfda

$$$$

     RDKit          3D

 22 25  0  0  0  0  0  0  0  0999 V2000
    4.9741   -0.6171   -0.9850 C   0  0  0  0  0  0  0  0  0  0  0  0
    3.6298   -0.5036   -0.4826 N   0  0  0  0  0  0  0  0  0  0  0  0
    3.2328   -1.6231    0.3415 C   0  0  0  0  0  0  0  0  0  0  0  0
    1.7207   -1.5797    0.4365 C   0  0  0  0  0  0  0  0  0  0  0  0
    1.1982   -0.1905    0.2967 C   0  0  0  0  0  0  0  0  0  0  0  0
   -0.0646   -0.0099   -0.0877 C   0  0  0  0  0  0  0  0  0  0  0  0
   -0.5160    1.3737   -0.1518 C   0  0  0  0  0  0  0  0  0  0  0  0
    0.5208    2.2888   -0.0803 C   0  0  0  0  0  0  0  0  0  0  0  0
    0.1984    3.6398   -0.0905 C   0  0  0  0  0  0  0  0  0  0  0  0
   -1.0199    4.0717   -0.5400 C   0  0  0  0  0  0  0  0  0  0  0  0
   -2.0005    3.1424   -0.8464 C   0  0  0  0  0  0  0  0  0  0  0  0
   -1.8009    1.8427   -0.3999 C   0  0  0  0  0  0  0  0  0  0  0  0
   -3.0544    1.0777   -0.3789 C   0  0  0  0  0  0  0  0  0  0  0  0
   -3.1864   -0.2121   -0.6906 C   0  0  0  0  0  0  0  0  0  0  0  0
   -2.1993   -1.2840   -0.5541 C   0  0  0  0  0  0  0  0  0  0  0  0
   -2.7634   -2.5508   -0.6007 C   0  0  0  0  0  0  0  0  0  0  0  0
   -2.1787   -3.6017    0.0946 C   0  0  0  0  0  0  0  0  0  0  0  0
   -1.0865   -3.3763    0.9238 C   0  0  0  0  0  0  0  0  0  0  0  0
   -0.3248   -2.2587    0.6044 C   0  0  0  0  0  0  0  0  0  0  0  0
   -0.8793   -1.2291   -0.1470 C   0  0  0  0  0  0  0  0  0  0  0  0
    2.0708    0.9165    0.7219 C   0  0  0  0  0  0  0  0  0  0  0  0
    3.5291    0.6833    0.3427 C   0  0  0  0  0  0  0  0  0  0  0  0
  1  2  1  0
  2  3  1  0
  3  4  1  0
  4  5  1  0
  5  6  2  3
  6  7  1  0
  7  8  2  0
  8  9  1  0
  9 10  2  0
 10 11  1  0
 11 12  2  0
 12 13  1  0
 13 14  2  0
 14 15  1  0
 15 16  2  0
 16 17  1  0
 17 18  2  0
 18 19  1  0
 19 20  2  0
  5 21  1  0
 21 22  1  0
 22  2  1  0
 20  6  1  0
 12  7  1  0
 20 15  1  0
M  END
>  <supplier_code>  (301) 
DB00434

>  <zinc_id>  (301) 
ZINC000000968264

>  <catalog_short_name>  (301) 
dbfda

$$$$

     RDKit          3D

 27 29  0  0  0  0  0  0  0  0999 V2000
    2.9970    0.3792    3.0358 N   0  0  0  0  0  0  0  0  0  0  0  0
    3.5722    0.6975    2.0183 S   0  0  0  0  0  0  0  0  0  0  0  0
    3.5785    2.1649    2.0988 O   0  0  0  0  0  0  0  0  0  0  0  0
    4.8589    0.0242    2.2585 O   0  0  0  0  0  0  0  0  0  0  0  0
    2.6183    0.0351    0.7432 C   0  0  0  0  0  0  0  0  0  0  0  0
    1.7163   -1.0019    0.9396 C   0  0  0  0  0  0  0  0  0  0  0  0
    0.6529   -1.1472    0.1006 C   0  0  0  0  0  0  0  0  0  0  0  0
    0.3027   -0.1247   -0.7781 C   0  0  0  0  0  0  0  0  0  0  0  0
    1.3005    0.7569   -1.1573 C   0  0  0  0  0  0  0  0  0  0  0  0
    2.4769    0.7832   -0.4172 C   0  0  0  0  0  0  0  0  0  0  0  0
    3.6806    1.4322   -0.9732 C   0  0  0  0  0  0  0  0  0  0  0  0
    3.7247    1.0917   -2.3240 F   0  0  0  0  0  0  0  0  0  0  0  0
    4.8540    0.9936   -0.4370 F   0  0  0  0  0  0  0  0  0  0  0  0
    3.5864    2.8199   -0.9635 F   0  0  0  0  0  0  0  0  0  0  0  0
   -1.0613    0.0750   -1.1822 N   0  0  0  0  0  0  0  0  0  0  0  0
   -2.0398   -0.9350   -0.4549 C   0  0  1  0  0  0  0  0  0  0  0  0
   -3.2499   -0.6614   -1.5420 C   0  0  0  0  0  0  0  0  0  0  0  0
   -4.2153    0.1385   -0.7488 C   0  0  0  0  0  0  0  0  0  0  0  0
   -5.1492    0.9519   -1.3696 C   0  0  0  0  0  0  0  0  0  0  0  0
   -6.2680    1.3450   -0.6448 C   0  0  0  0  0  0  0  0  0  0  0  0
   -6.4306    0.8830    0.6557 C   0  0  0  0  0  0  0  0  0  0  0  0
   -5.2790    0.6088    1.3684 C   0  0  0  0  0  0  0  0  0  0  0  0
   -4.1880    0.2172    0.6290 C   0  0  0  0  0  0  0  0  0  0  0  0
   -1.4697   -2.1717   -1.2705 N   0  0  0  0  0  0  0  0  0  0  0  0
   -0.2377   -2.6477   -0.1297 S   0  0  0  0  0  0  0  0  0  0  0  0
   -0.9535   -2.9515    1.1420 O   0  0  0  0  0  0  0  0  0  0  0  0
    0.6223   -3.7566   -0.5971 O   0  0  0  0  0  0  0  0  0  0  0  0
  1  2  1  0
  2  3  2  0
  2  4  2  0
  2  5  1  0
  5  6  2  0
  6  7  1  0
  7  8  2  0
  8  9  1  0
  9 10  2  0
 10 11  1  0
 11 12  1  0
 11 13  1  0
 11 14  1  0
  8 15  1  0
 15 16  1  0
 16 17  1  6
 17 18  1  0
 18 19  2  0
 19 20  1  0
 20 21  2  0
 21 22  1  0
 22 23  2  0
 16 24  1  0
 24 25  1  0
 25 26  2  0
 25 27  2  0
 10  5  1  0
 23 18  1  0
 25  7  1  0
M  END
>  <supplier_code>  (302) 
DB00436

>  <zinc_id>  (302) 
ZINC000000601301

>  <catalog_short_name>  (302) 
dbfda

$$$$

     RDKit          3D

 27 29  0  0  0  0  0  0  0  0999 V2000
   -4.0448    1.8225   -0.2788 N   0  0  0  0  0  0  0  0  0  0  0  0
   -3.8947    1.4444    0.2311 S   0  0  0  0  0  0  0  0  0  0  0  0
   -3.2085    2.4818    1.0990 O   0  0  0  0  0  0  0  0  0  0  0  0
   -5.2491    1.1145    0.6330 O   0  0  0  0  0  0  0  0  0  0  0  0
   -2.8328    0.2140   -0.3186 C   0  0  0  0  0  0  0  0  0  0  0  0
   -1.6854    0.6027   -1.0054 C   0  0  0  0  0  0  0  0  0  0  0  0
   -0.4768   -0.0332   -0.9093 C   0  0  0  0  0  0  0  0  0  0  0  0
   -0.3471   -1.0946   -0.0112 C   0  0  0  0  0  0  0  0  0  0  0  0
   -1.5033   -1.6274    0.5234 C   0  0  0  0  0  0  0  0  0  0  0  0
   -2.7408   -1.0530    0.2434 C   0  0  0  0  0  0  0  0  0  0  0  0
   -4.0273   -1.6465    0.6416 C   0  0  0  0  0  0  0  0  0  0  0  0
   -4.4247   -1.3198    1.9126 F   0  0  0  0  0  0  0  0  0  0  0  0
   -5.0177   -1.5424   -0.3020 F   0  0  0  0  0  0  0  0  0  0  0  0
   -3.7667   -3.0193    0.6854 F   0  0  0  0  0  0  0  0  0  0  0  0
    0.8817   -0.9576    0.7227 N   0  0  0  0  0  0  0  0  0  0  0  0
    2.1181   -1.4108   -0.1555 C   0  0  2  0  0  0  0  0  0  0  0  0
    3.1576   -1.0484    1.0770 C   0  0  0  0  0  0  0  0  0  0  0  0
    4.3223   -0.3882    0.5030 C   0  0  0  0  0  0  0  0  0  0  0  0
    4.9925   -0.7960   -0.6266 C   0  0  0  0  0  0  0  0  0  0  0  0
    5.8160    0.0786   -1.3001 C   0  0  0  0  0  0  0  0  0  0  0  0
    6.3521    1.1891   -0.6586 C   0  0  0  0  0  0  0  0  0  0  0  0
    5.6046    1.6663    0.4101 C   0  0  0  0  0  0  0  0  0  0  0  0
    4.6230    0.8832    0.9801 C   0  0  0  0  0  0  0  0  0  0  0  0
    2.3490   -0.0159   -0.8534 N   0  0  0  0  0  0  0  0  0  0  0  0
    1.0132    0.9266   -0.8804 S   0  0  0  0  0  0  0  0  0  0  0  0
    1.0149    1.7518    0.3913 O   0  0  0  0  0  0  0  0  0  0  0  0
    0.9748    1.7776   -2.1032 O   0  0  0  0  0  0  0  0  0  0  0  0
  1  2  1  0
  2  3  2  0
  2  4  2  0
  2  5  1  0
  5  6  2  0
  6  7  1  0
  7  8  2  0
  8  9  1  0
  9 10  2  0
 10 11  1  0
 11 12  1  0
 11 13  1  0
 11 14  1  0
  8 15  1  0
 15 16  1  0
 16 17  1  1
 17 18  1  0
 18 19  2  0
 19 20  1  0
 20 21  2  0
 21 22  1  0
 22 23  2  0
 16 24  1  0
 24 25  1  0
 25 26  2  0
 25 27  2  0
 10  5  1  0
 23 18  1  0
 25  7  1  0
M  END
>  <supplier_code>  (303) 
DB00436

>  <zinc_id>  (303) 
ZINC000000897222

>  <catalog_short_name>  (303) 
dbfda

$$$$

     RDKit          3D

 10 11  0  0  0  0  0  0  0  0999 V2000
   -1.5160    1.9745    0.0213 O   0  0  0  0  0  0  0  0  0  0  0  0
   -1.1271    0.7907   -0.0056 C   0  0  0  0  0  0  0  0  0  0  0  0
   -1.9775   -0.1949   -0.3543 N   0  0  0  0  0  0  0  0  0  0  0  0
   -1.5332   -1.4728   -0.3486 C   0  0  0  0  0  0  0  0  0  0  0  0
   -0.3455   -1.7230    0.2210 N   0  0  0  0  0  0  0  0  0  0  0  0
    0.5727   -0.7552    0.4619 C   0  0  0  0  0  0  0  0  0  0  0  0
    1.9185   -0.7436    0.5524 N   0  0  0  0  0  0  0  0  0  0  0  0
    2.3992    0.3398   -0.0581 N   0  0  0  0  0  0  0  0  0  0  0  0
    1.3780    1.2188   -0.1876 C   0  0  0  0  0  0  0  0  0  0  0  0
    0.2309    0.5657    0.1920 C   0  0  0  0  0  0  0  0  0  0  0  0
  1  2  2  0
  2  3  1  0
  3  4  1  0
  4  5  2  0
  5  6  1  0
  6  7  1  0
  7  8  1  0
  8  9  2  0
  9 10  1  0
 10  2  1  0
 10  6  2  0
M  END
>  <supplier_code>  (304) 
DB00437

>  <zinc_id>  (304) 
ZINC000013298313

>  <catalog_short_name>  (304) 
dbfda

$$$$

     RDKit          3D

 37 40  0  0  0  0  0  0  0  0999 V2000
   -5.3300    3.0252   -1.5864 C   0  0  0  0  0  0  0  0  0  0  0  0
   -5.0580    2.6977   -0.7261 C   0  0  0  0  0  0  0  0  0  0  0  0
   -4.8213    3.8326    0.2616 C   0  0  0  0  0  0  0  0  0  0  0  0
   -3.8123    2.0067   -0.8172 O   0  0  0  0  0  0  0  0  0  0  0  0
   -3.6304    1.0325    0.1504 N   0  0  0  0  0  0  0  0  0  0  0  0
   -3.4473   -0.1569   -0.3429 C   0  0  0  0  0  0  0  0  0  0  0  0
   -2.2596   -0.2774   -1.1987 C   0  0  0  0  0  0  0  0  0  0  0  0
   -2.2792   -1.1271   -2.1418 O   0  0  0  0  0  0  0  0  0  0  0  0
   -0.9377    0.0980   -0.7841 N   0  0  0  0  0  0  0  0  0  0  0  0
   -0.0322   -1.1675   -0.3802 C   0  0  2  0  0  0  0  0  0  0  0  0
    0.6715   -0.4252    0.8953 C   0  0  0  0  0  0  0  0  0  0  0  0
    0.3851   -0.9168    2.0358 O   0  0  0  0  0  0  0  0  0  0  0  0
    1.9405   -0.6751    0.2482 N   0  0  0  0  0  0  0  0  0  0  0  0
    3.2737   -0.1536    0.2715 C   0  0  0  0  0  0  0  0  0  0  0  0
    4.1464   -0.4498    1.4100 C   0  0  0  0  0  0  0  0  0  0  0  0
    4.9068    0.4348    1.9204 O   0  0  0  0  0  0  0  0  0  0  0  0
    3.6321   -1.2822    2.4216 O   0  0  0  0  0  0  0  0  0  0  0  0
    3.8450    0.5004   -0.7435 C   0  0  0  0  0  0  0  0  0  0  0  0
    5.0158   -0.1763   -1.3392 C   0  0  0  0  0  0  0  0  0  0  0  0
    6.2626   -0.0095   -0.6790 N   0  0  0  0  0  0  0  0  0  0  0  0
    6.9704    1.1026   -1.0063 C   0  0  0  0  0  0  0  0  0  0  0  0
    8.1472    1.2792   -0.2873 C   0  0  0  0  0  0  0  0  0  0  0  0
    8.7123    0.2205    0.4071 C   0  0  0  0  0  0  0  0  0  0  0  0
    8.2577   -1.0447    0.0561 C   0  0  0  0  0  0  0  0  0  0  0  0
    7.0317   -1.1265   -0.5786 C   0  0  0  0  0  0  0  0  0  0  0  0
    3.0646    1.5502   -1.4911 C   0  0  0  0  0  0  0  0  0  0  0  0
    1.2842    1.2257   -1.1933 S   0  0  0  0  0  0  0  0  0  0  0  0
    1.3917   -0.6811   -1.1744 C   0  0  2  0  0  0  0  0  0  0  0  0
   -4.1455   -1.3379    0.1980 C   0  0  0  0  0  0  0  0  0  0  0  0
   -3.9681   -2.5768   -0.4169 C   0  0  0  0  0  0  0  0  0  0  0  0
   -4.8500   -3.5889    0.6562 S   0  0  0  0  0  0  0  0  0  0  0  0
   -5.2132   -2.3951    1.8381 C   0  0  0  0  0  0  0  0  0  0  0  0
   -5.9587   -2.5354    3.0452 N   0  0  0  0  0  0  0  0  0  0  0  0
   -4.2450   -1.4951    1.5335 N   0  0  0  0  0  0  0  0  0  0  0  0
   -6.0982    1.8263   -0.0972 C   0  0  0  0  0  0  0  0  0  0  0  0
   -6.8311    1.1218   -0.8368 O   0  0  0  0  0  0  0  0  0  0  0  0
   -6.0216    1.6447    1.2804 O   0  0  0  0  0  0  0  0  0  0  0  0
  1  2  1  0
  2  3  1  0
  2  4  1  0
  4  5  1  0
  5  6  2  0
  6  7  1  0
  7  8  2  0
  7  9  1  0
 10  9  1  6
 10 11  1  0
 11 12  2  0
 11 13  1  0
 13 14  1  0
 14 15  1  0
 15 16  2  0
 15 17  1  0
 14 18  2  0
 18 19  1  0
 19 20  1  0
 20 21  2  0
 21 22  1  0
 22 23  2  0
 23 24  1  0
 24 25  2  0
 18 26  1  0
 26 27  1  0
 28 27  1  1
  6 29  1  0
 29 30  2  0
 30 31  1  0
 31 32  1  0
 32 33  1  0
 32 34  2  0
  2 35  1  0
 35 36  2  0
 35 37  1  0
 28 10  1  0
 34 29  1  0
 28 13  1  0
 25 20  1  0
M  CHG  1  20   1
M  END
>  <supplier_code>  (305) 
DB00438

>  <zinc_id>  (305) 
ZINC000003871960

>  <catalog_short_name>  (305) 
dbfda

$$$$

     RDKit          3D

 21 22  0  0  0  0  0  0  0  0999 V2000
   -3.4558   -2.4901   -1.8505 C   0  0  0  0  0  0  0  0  0  0  0  0
   -3.5010   -2.0467   -0.5077 O   0  0  0  0  0  0  0  0  0  0  0  0
   -2.6441   -1.0219   -0.0978 C   0  0  0  0  0  0  0  0  0  0  0  0
   -1.3212   -1.3692    0.0734 C   0  0  0  0  0  0  0  0  0  0  0  0
   -0.2778   -0.4634   -0.0729 C   0  0  0  0  0  0  0  0  0  0  0  0
    0.9247   -0.7093    0.7820 C   0  0  0  0  0  0  0  0  0  0  0  0
    2.1879   -0.5255    0.0439 C   0  0  0  0  0  0  0  0  0  0  0  0
    2.3201    0.1520   -1.1369 C   0  0  0  0  0  0  0  0  0  0  0  0
    3.5842    0.4491   -1.5268 N   0  0  0  0  0  0  0  0  0  0  0  0
    4.6130    0.4040   -0.6458 C   0  0  0  0  0  0  0  0  0  0  0  0
    5.8265    1.1001   -0.8344 N   0  0  0  0  0  0  0  0  0  0  0  0
    4.5422   -0.5269    0.3141 N   0  0  0  0  0  0  0  0  0  0  0  0
    3.3373   -1.0211    0.6459 C   0  0  0  0  0  0  0  0  0  0  0  0
    3.2107   -2.1261    1.5445 N   0  0  0  0  0  0  0  0  0  0  0  0
   -0.6557    0.8655   -0.2088 C   0  0  0  0  0  0  0  0  0  0  0  0
   -1.9786    1.2600   -0.2932 C   0  0  0  0  0  0  0  0  0  0  0  0
   -2.3177    2.5484   -0.6583 O   0  0  0  0  0  0  0  0  0  0  0  0
   -2.1957    3.6588    0.1932 C   0  0  0  0  0  0  0  0  0  0  0  0
   -2.9163    0.2748   -0.5160 C   0  0  0  0  0  0  0  0  0  0  0  0
   -4.2557    0.6318   -0.6265 O   0  0  0  0  0  0  0  0  0  0  0  0
   -5.0270    0.9558    0.5051 C   0  0  0  0  0  0  0  0  0  0  0  0
  1  2  1  0
  2  3  1  0
  3  4  2  0
  4  5  1  0
  5  6  1  0
  6  7  1  0
  7  8  2  0
  8  9  1  0
  9 10  2  0
 10 11  1  0
 10 12  1  0
 12 13  2  0
 13 14  1  0
  5 15  2  0
 15 16  1  0
 16 17  1  0
 17 18  1  0
 16 19  2  0
 19 20  1  0
 20 21  1  0
 19  3  1  0
 13  7  1  0
M  END
>  <supplier_code>  (306) 
DB00440

>  <zinc_id>  (306) 
ZINC000006627681

>  <catalog_short_name>  (306) 
dbfda

$$$$

     RDKit          3D

 18 19  0  0  0  0  0  0  0  0999 V2000
    3.4501    2.2470    0.3113 N   0  0  0  0  0  0  0  0  0  0  0  0
    2.9234    0.9809    0.0815 C   0  0  0  0  0  0  0  0  0  0  0  0
    2.3362    0.3243    1.1559 C   0  0  0  0  0  0  0  0  0  0  0  0
    1.2373   -0.4227    0.8635 C   0  0  0  0  0  0  0  0  0  0  0  0
    0.9192   -0.8585   -0.3055 N   0  0  0  0  0  0  0  0  0  0  0  0
   -0.5764   -1.2487   -0.6817 C   0  0  2  0  0  0  0  0  0  0  0  0
   -0.8993    0.2168   -0.9254 O   0  0  0  0  0  0  0  0  0  0  0  0
   -2.2386    0.2919   -0.2756 C   0  0  2  0  0  0  0  0  0  0  0  0
   -2.1917    1.9299   -0.2318 C   0  0  0  0  0  0  0  0  0  0  0  0
   -2.7686    2.3691   -1.4264 O   0  0  0  0  0  0  0  0  0  0  0  0
   -1.3453    0.2096    1.1907 C   0  0  1  0  0  0  0  0  0  0  0  0
   -2.6071    0.0338    2.0057 O   0  0  0  0  0  0  0  0  0  0  0  0
   -1.1869   -1.3530    0.8414 C   0  0  0  0  0  0  0  0  0  0  0  0
   -2.4172   -1.9021    0.6736 F   0  0  0  0  0  0  0  0  0  0  0  0
   -0.4469   -2.0142    1.6604 F   0  0  0  0  0  0  0  0  0  0  0  0
    1.6017   -0.3134   -1.3519 C   0  0  0  0  0  0  0  0  0  0  0  0
    1.4779   -0.8985   -2.4720 O   0  0  0  0  0  0  0  0  0  0  0  0
    2.7322    0.4077   -1.1137 N   0  0  0  0  0  0  0  0  0  0  0  0
  1  2  1  0
  2  3  1  0
  3  4  2  0
  4  5  1  0
  6  5  1  1
  6  7  1  0
  7  8  1  0
  8  9  1  1
  9 10  1  0
  8 11  1  0
 11 12  1  1
 11 13  1  0
 13 14  1  0
 13 15  1  0
  5 16  1  0
 16 17  2  0
 16 18  1  0
 18  2  2  0
 13  6  1  0
M  END
>  <supplier_code>  (307) 
DB00441

>  <zinc_id>  (307) 
ZINC000018279854

>  <catalog_short_name>  (307) 
dbfda

$$$$

     RDKit          3D

 20 22  0  0  0  0  0  0  0  0999 V2000
    1.9503   -0.0174   -1.5922 C   0  0  0  0  0  0  0  0  0  0  0  0
    2.0700    0.2744   -0.9567 C   0  0  0  0  0  0  0  0  0  0  0  0
    3.3406    0.3255    0.0312 C   0  0  2  0  0  0  0  0  0  0  0  0
    4.4183    0.3004   -1.2027 C   0  0  0  0  0  0  0  0  0  0  0  0
    4.1348    1.4742   -1.8773 O   0  0  0  0  0  0  0  0  0  0  0  0
    3.1824   -1.3992    0.0166 C   0  0  1  0  0  0  0  0  0  0  0  0
    3.9731   -1.5222    1.3274 O   0  0  0  0  0  0  0  0  0  0  0  0
    1.7362   -1.3500    0.8105 C   0  0  0  0  0  0  0  0  0  0  0  0
    1.2331    0.1937    0.4638 C   0  0  2  0  0  0  0  0  0  0  0  0
   -0.1310   -0.3341   -0.1826 N   0  0  0  0  0  0  0  0  0  0  0  0
   -0.3230   -0.6818   -1.4053 C   0  0  0  0  0  0  0  0  0  0  0  0
   -1.5826   -0.3846   -1.7960 N   0  0  0  0  0  0  0  0  0  0  0  0
   -2.2179    0.1865   -0.7620 C   0  0  0  0  0  0  0  0  0  0  0  0
   -1.2893    0.2194    0.2632 C   0  0  0  0  0  0  0  0  0  0  0  0
   -1.7713    0.5094    1.4806 N   0  0  0  0  0  0  0  0  0  0  0  0
   -3.1090    0.6341    1.6847 C   0  0  0  0  0  0  0  0  0  0  0  0
   -3.6330    1.1141    2.9142 N   0  0  0  0  0  0  0  0  0  0  0  0
   -4.0198    0.3560    0.7207 N   0  0  0  0  0  0  0  0  0  0  0  0
   -3.5788    0.2881   -0.5595 C   0  0  0  0  0  0  0  0  0  0  0  0
   -4.3830   -0.1865   -1.4164 O   0  0  0  0  0  0  0  0  0  0  0  0
  1  2  2  0
  2  3  1  0
  3  4  1  6
  4  5  1  0
  3  6  1  0
  6  7  1  1
  6  8  1  0
  8  9  1  0
  9 10  1  6
 10 11  1  0
 11 12  2  0
 12 13  1  0
 13 14  2  0
 14 15  1  0
 15 16  2  0
 16 17  1  0
 16 18  1  0
 18 19  1  0
 19 20  2  0
  9  2  1  0
 14 10  1  0
 19 13  1  0
M  END
>  <supplier_code>  (308) 
DB00442

>  <zinc_id>  (308) 
ZINC000003802690

>  <catalog_short_name>  (308) 
dbfda

$$$$

     RDKit          3D

 28 31  0  0  0  0  0  0  0  0999 V2000
    3.4349    1.7021    1.6061 C   0  0  0  0  0  0  0  0  0  0  0  0
    2.9642    0.1660    1.9004 C   0  0  1  0  0  0  0  0  0  0  0  0
    1.3961    0.6167    2.0401 C   0  0  0  0  0  0  0  0  0  0  0  0
    0.8277   -0.5818    1.1213 C   0  0  1  0  0  0  0  0  0  0  0  0
   -0.6054    0.2392    0.7538 C   0  0  2  0  0  0  0  0  0  0  0  0
   -1.3499   -0.4678    2.0006 C   0  0  0  0  0  0  0  0  0  0  0  0
   -2.6340   -1.0268    1.7458 C   0  0  0  0  0  0  0  0  0  0  0  0
   -3.3775   -0.7505    0.5343 C   0  0  0  0  0  0  0  0  0  0  0  0
   -4.5663   -0.1409    0.4497 C   0  0  0  0  0  0  0  0  0  0  0  0
   -4.8475    0.6131   -0.7858 C   0  0  0  0  0  0  0  0  0  0  0  0
   -5.5050    1.6751   -0.8299 O   0  0  0  0  0  0  0  0  0  0  0  0
   -4.2779   -0.0582   -1.9677 C   0  0  0  0  0  0  0  0  0  0  0  0
   -3.1143   -0.7075   -1.8039 C   0  0  0  0  0  0  0  0  0  0  0  0
   -2.4216   -0.3792   -0.5646 C   0  0  1  0  0  0  0  0  0  0  0  0
   -2.5114    1.1537   -0.4585 C   0  0  0  0  0  0  0  0  0  0  0  0
   -1.0864   -0.8671   -0.2982 C   0  0  2  0  0  0  0  0  0  0  0  0
   -0.8219   -2.0875    0.0837 F   0  0  0  0  0  0  0  0  0  0  0  0
   -0.3612   -0.5654   -1.7337 C   0  0  1  0  0  0  0  0  0  0  0  0
   -0.3565    0.9438   -1.5688 O   0  0  0  0  0  0  0  0  0  0  0  0
    1.1773   -0.7429   -1.2055 C   0  0  0  0  0  0  0  0  0  0  0  0
    1.5644    0.0998   -0.1452 C   0  0  1  0  0  0  0  0  0  0  0  0
    1.4212    1.5534   -0.1226 C   0  0  0  0  0  0  0  0  0  0  0  0
    2.8883   -0.2810    0.3462 C   0  0  2  0  0  0  0  0  0  0  0  0
    2.8056   -1.6806    0.5276 O   0  0  0  0  0  0  0  0  0  0  0  0
    4.0678   -0.0124   -0.3860 C   0  0  0  0  0  0  0  0  0  0  0  0
    4.3489   -0.8020   -1.2946 O   0  0  0  0  0  0  0  0  0  0  0  0
    4.8514    1.2514   -0.5571 C   0  0  0  0  0  0  0  0  0  0  0  0
    6.0889    1.1374    0.0538 O   0  0  0  0  0  0  0  0  0  0  0  0
  2  1  1  6
  2  3  1  0
  4  3  1  1
  4  5  1  0
  5  6  1  1
  6  7  1  0
  7  8  1  0
  8  9  2  0
  9 10  1  0
 10 11  2  0
 10 12  1  0
 12 13  2  0
 13 14  1  0
 14 15  1  6
 14 16  1  0
 16 17  1  1
 16 18  1  0
 18 19  1  1
 18 20  1  0
 20 21  1  0
 21 22  1  6
 21 23  1  0
 23 24  1  1
 23 25  1  0
 25 26  2  0
 25 27  1  0
 27 28  1  0
 23  2  1  0
 21  4  1  0
 16  5  1  0
 14  8  1  0
M  END
>  <supplier_code>  (309) 
DB00443

>  <zinc_id>  (309) 
ZINC000003876136

>  <catalog_short_name>  (309) 
dbfda

$$$$

     RDKit          3D

 46 53  0  0  0  0  0  0  0  0999 V2000
    7.4598   -2.2835   -0.6851 C   0  0  0  0  0  0  0  0  0  0  0  0
    7.0719   -1.8907   -0.1391 O   0  0  0  0  0  0  0  0  0  0  0  0
    6.0655   -1.0141    0.2377 C   0  0  0  0  0  0  0  0  0  0  0  0
    4.8051   -1.4273    0.5402 C   0  0  0  0  0  0  0  0  0  0  0  0
    3.7219   -0.6137    0.9702 C   0  0  0  0  0  0  0  0  0  0  0  0
    2.7023   -1.1309   -0.2206 C   0  0  2  0  0  0  0  0  0  0  0  0
    2.0311    0.3845   -0.5859 C   0  0  0  0  0  0  0  0  0  0  0  0
    2.7533    1.0636   -1.3923 C   0  0  0  0  0  0  0  0  0  0  0  0
    2.4454    2.4363   -1.3513 C   0  0  0  0  0  0  0  0  0  0  0  0
    1.5744    2.8966   -0.3450 C   0  0  0  0  0  0  0  0  0  0  0  0
    0.5653    2.0178    0.0872 C   0  0  0  0  0  0  0  0  0  0  0  0
    0.6872    0.6550   -0.1413 C   0  0  0  0  0  0  0  0  0  0  0  0
   -0.5116   -0.2401    0.5818 C   0  0  1  0  0  0  0  0  0  0  0  0
   -0.9737   -1.0736   -0.4857 O   0  0  0  0  0  0  0  0  0  0  0  0
   -2.3606   -1.2820   -0.9366 C   0  0  2  0  0  0  0  0  0  0  0  0
   -3.0493   -0.1143   -0.2547 O   0  0  0  0  0  0  0  0  0  0  0  0
   -3.9902   -0.9573   -1.1459 C   0  0  2  0  0  0  0  0  0  0  0  0
   -4.9925    0.2276   -1.6721 C   0  0  0  0  0  0  0  0  0  0  0  0
   -5.9785   -0.5517   -2.0911 O   0  0  0  0  0  0  0  0  0  0  0  0
   -6.8823   -1.1366   -0.9979 C   0  0  2  0  0  0  0  0  0  0  0  0
   -6.7492    0.1114    0.0681 C   0  0  0  0  0  0  0  0  0  0  0  0
   -7.9120    0.2063    0.8305 C   0  0  0  0  0  0  0  0  0  0  0  0
   -8.5894    1.3815    0.6475 C   0  0  0  0  0  0  0  0  0  0  0  0
   -7.7215    2.4709    0.6786 C   0  0  0  0  0  0  0  0  0  0  0  0
   -6.4084    1.7234   -0.1400 S   0  0  0  0  0  0  0  0  0  0  0  0
   -5.8060   -2.0479   -0.3635 O   0  0  0  0  0  0  0  0  0  0  0  0
   -4.9190   -1.0108    0.2616 C   0  0  1  0  0  0  0  0  0  0  0  0
   -4.0165   -2.1422    1.1240 C   0  0  2  0  0  0  0  0  0  0  0  0
   -3.2244   -1.0693    1.8533 O   0  0  0  0  0  0  0  0  0  0  0  0
   -2.6630   -2.5391    0.2044 C   0  0  1  0  0  0  0  0  0  0  0  0
   -3.4250   -3.3590   -0.8205 O   0  0  0  0  0  0  0  0  0  0  0  0
    0.4651   -1.5818    1.2761 C   0  0  1  0  0  0  0  0  0  0  0  0
    0.1886   -2.8069    0.2598 C   0  0  0  0  0  0  0  0  0  0  0  0
    1.0105   -2.6431   -0.7977 O   0  0  0  0  0  0  0  0  0  0  0  0
    0.8173   -1.3506   -1.2058 C   0  0  0  0  0  0  0  0  0  0  0  0
    1.0155   -0.9320   -2.3542 O   0  0  0  0  0  0  0  0  0  0  0  0
    1.2415   -0.6569    0.2612 C   0  0  2  0  0  0  0  0  0  0  0  0
    2.2282    4.0044    0.2288 O   0  0  0  0  0  0  0  0  0  0  0  0
    3.4683    4.2513   -0.3834 C   0  0  0  0  0  0  0  0  0  0  0  0
    3.5299    3.3406   -1.4570 O   0  0  0  0  0  0  0  0  0  0  0  0
    4.1274    0.6431    1.1105 C   0  0  0  0  0  0  0  0  0  0  0  0
    5.4244    1.1083    0.8569 C   0  0  0  0  0  0  0  0  0  0  0  0
    5.6243    2.4679    0.8580 O   0  0  0  0  0  0  0  0  0  0  0  0
    5.5131    3.3122   -0.2940 C   0  0  0  0  0  0  0  0  0  0  0  0
    6.3175    0.3169    0.1598 C   0  0  0  0  0  0  0  0  0  0  0  0
    7.3183    0.8359   -0.6069 O   0  0  0  0  0  0  0  0  0  0  0  0
  1  2  1  0
  2  3  1  0
  3  4  2  0
  4  5  1  0
  6  5  1  1
  6  7  1  0
  7  8  2  0
  8  9  1  0
  9 10  2  0
 10 11  1  0
 11 12  2  0
 12 13  1  0
 13 14  1  6
 15 14  1  1
 15 16  1  0
 17 16  1  1
 17 18  1  0
 18 19  1  0
 19 20  1  0
 20 21  1  1
 21 22  2  0
 22 23  1  0
 23 24  2  0
 24 25  1  0
 20 26  1  0
 27 26  1  6
 27 28  1  0
 28 29  1  1
 28 30  1  0
 30 31  1  6
 13 32  1  0
 32 33  1  6
 33 34  1  0
 34 35  1  0
 35 36  2  0
 37 35  1  6
 10 38  1  0
 38 39  1  0
 39 40  1  0
  5 41  2  0
 41 42  1  0
 42 43  1  0
 43 44  1  0
 42 45  2  0
 45 46  1  0
 45  3  1  0
 37  6  1  0
 12  7  1  0
 30 15  1  0
 37 32  1  0
 40  9  1  0
 27 17  1  0
 25 21  1  0
M  END
>  <supplier_code>  (310) 
DB00444

>  <zinc_id>  (310) 
ZINC000004099008

>  <catalog_short_name>  (310) 
dbfda

$$$$

     RDKit          3D

 46 53  0  0  0  0  0  0  0  0999 V2000
   -5.5526    4.3603    0.9892 C   0  0  0  0  0  0  0  0  0  0  0  0
   -5.8687    3.5045    2.0647 O   0  0  0  0  0  0  0  0  0  0  0  0
   -5.5502    2.1428    2.0022 C   0  0  0  0  0  0  0  0  0  0  0  0
   -4.2788    1.6746    2.3093 C   0  0  0  0  0  0  0  0  0  0  0  0
   -3.9039    0.3440    2.0637 C   0  0  0  0  0  0  0  0  0  0  0  0
   -2.3706    0.5180    1.7839 C   0  0  2  0  0  0  0  0  0  0  0  0
   -2.3782    0.4585    0.1500 C   0  0  0  0  0  0  0  0  0  0  0  0
   -3.4383    0.7773   -0.5387 C   0  0  0  0  0  0  0  0  0  0  0  0
   -3.5415    0.3817   -1.8361 C   0  0  0  0  0  0  0  0  0  0  0  0
   -2.3428    0.3740   -2.5400 C   0  0  0  0  0  0  0  0  0  0  0  0
   -1.1526    0.3080   -1.8152 C   0  0  0  0  0  0  0  0  0  0  0  0
   -1.1230    0.1976   -0.4703 C   0  0  0  0  0  0  0  0  0  0  0  0
   -0.2237   -1.0948    0.0162 C   0  0  1  0  0  0  0  0  0  0  0  0
    1.0026   -0.2243   -0.0481 O   0  0  0  0  0  0  0  0  0  0  0  0
    2.1196   -1.2225   -0.3024 C   0  0  2  0  0  0  0  0  0  0  0  0
    3.0011   -0.4616    0.6910 O   0  0  0  0  0  0  0  0  0  0  0  0
    4.2634   -1.2785    0.5694 C   0  0  2  0  0  0  0  0  0  0  0  0
    5.0223   -0.4448    1.7609 C   0  0  0  0  0  0  0  0  0  0  0  0
    6.3614   -0.8355    1.5569 O   0  0  0  0  0  0  0  0  0  0  0  0
    6.6732    0.1466    0.4170 C   0  0  1  0  0  0  0  0  0  0  0  0
    8.2179   -0.3964    0.2876 C   0  0  0  0  0  0  0  0  0  0  0  0
    9.0413    0.4193    1.0335 C   0  0  0  0  0  0  0  0  0  0  0  0
   10.1836    0.7939    0.4905 C   0  0  0  0  0  0  0  0  0  0  0  0
   10.3877    0.5786   -0.8285 C   0  0  0  0  0  0  0  0  0  0  0  0
    8.9142   -0.1848   -1.2666 S   0  0  0  0  0  0  0  0  0  0  0  0
    6.1620   -0.8727   -0.6212 O   0  0  0  0  0  0  0  0  0  0  0  0
    4.8425   -0.1612   -0.5989 C   0  0  1  0  0  0  0  0  0  0  0  0
    4.1178   -1.1324   -1.8039 C   0  0  2  0  0  0  0  0  0  0  0  0
    4.5722   -0.1877   -2.8841 O   0  0  0  0  0  0  0  0  0  0  0  0
    2.6757   -0.2302   -1.6086 C   0  0  1  0  0  0  0  0  0  0  0  0
    1.9843   -1.1058   -2.6012 O   0  0  0  0  0  0  0  0  0  0  0  0
   -0.2336   -0.9351    1.7402 C   0  0  1  0  0  0  0  0  0  0  0  0
   -0.6532    0.4860    1.4700 C   0  0  0  0  0  0  0  0  0  0  0  0
   -1.4245   -0.5303    0.9557 O   0  0  0  0  0  0  0  0  0  0  0  0
   -2.1295   -1.5106    0.7391 C   0  0  0  0  0  0  0  0  0  0  0  0
   -2.1588   -2.5999    0.2042 O   0  0  0  0  0  0  0  0  0  0  0  0
   -1.8874   -1.1109    2.1554 C   0  0  2  0  0  0  0  0  0  0  0  0
   -2.7305   -0.0303   -3.8196 O   0  0  0  0  0  0  0  0  0  0  0  0
   -3.9809   -0.6715   -3.7680 C   0  0  0  0  0  0  0  0  0  0  0  0
   -4.4940   -0.3970   -2.4979 O   0  0  0  0  0  0  0  0  0  0  0  0
   -4.7350   -0.4413    1.4231 C   0  0  0  0  0  0  0  0  0  0  0  0
   -6.0637   -0.0436    1.2953 C   0  0  0  0  0  0  0  0  0  0  0  0
   -6.9584   -0.8325    0.5856 O   0  0  0  0  0  0  0  0  0  0  0  0
   -6.6558   -1.6468   -0.4968 C   0  0  0  0  0  0  0  0  0  0  0  0
   -6.4844    1.2753    1.4461 C   0  0  0  0  0  0  0  0  0  0  0  0
   -7.2282    1.8417    0.3968 O   0  0  0  0  0  0  0  0  0  0  0  0
  1  2  1  0
  2  3  1  0
  3  4  2  0
  4  5  1  0
  6  5  1  1
  6  7  1  0
  7  8  2  0
  8  9  1  0
  9 10  2  0
 10 11  1  0
 11 12  2  0
 12 13  1  0
 13 14  1  6
 15 14  1  1
 15 16  1  0
 17 16  1  1
 17 18  1  0
 18 19  1  0
 19 20  1  0
 20 21  1  6
 21 22  2  0
 22 23  1  0
 23 24  2  0
 24 25  1  0
 20 26  1  0
 27 26  1  6
 27 28  1  0
 28 29  1  6
 28 30  1  0
 30 31  1  6
 13 32  1  0
 32 33  1  6
 33 34  1  0
 34 35  1  0
 35 36  2  0
 37 35  1  6
 10 38  1  0
 38 39  1  0
 39 40  1  0
  5 41  2  0
 41 42  1  0
 42 43  1  0
 43 44  1  0
 42 45  2  0
 45 46  1  0
 45  3  1  0
 37  6  1  0
 12  7  1  0
 30 15  1  0
 37 32  1  0
 40  9  1  0
 27 17  1  0
 25 21  1  0
M  END
>  <supplier_code>  (311) 
DB00444

>  <zinc_id>  (311) 
ZINC000004099009

>  <catalog_short_name>  (311) 
dbfda

$$$$

     RDKit          3D

 39 43  0  0  0  0  0  0  0  0999 V2000
   -4.1734   -2.3255   -3.3659 C   0  0  0  0  0  0  0  0  0  0  0  0
   -4.2518   -2.1753   -3.1695 O   0  0  0  0  0  0  0  0  0  0  0  0
   -4.9168   -1.5182   -2.1421 C   0  0  0  0  0  0  0  0  0  0  0  0
   -6.2813   -1.4778   -2.0890 C   0  0  0  0  0  0  0  0  0  0  0  0
   -6.8716   -0.9482   -0.9754 C   0  0  0  0  0  0  0  0  0  0  0  0
   -6.0950   -0.6532    0.1287 C   0  0  0  0  0  0  0  0  0  0  0  0
   -4.7387   -0.4868   -0.0385 C   0  0  0  0  0  0  0  0  0  0  0  0
   -4.1321   -0.8956   -1.1958 C   0  0  0  0  0  0  0  0  0  0  0  0
   -2.6808   -0.9898   -1.2531 C   0  0  0  0  0  0  0  0  0  0  0  0
   -2.1033   -1.7373   -2.0665 O   0  0  0  0  0  0  0  0  0  0  0  0
   -1.8597   -0.3193   -0.2668 C   0  0  0  0  0  0  0  0  0  0  0  0
   -0.4734   -0.3649   -0.3190 C   0  0  0  0  0  0  0  0  0  0  0  0
    0.1490   -1.0946   -1.2973 O   0  0  0  0  0  0  0  0  0  0  0  0
    0.3258    0.4988    0.4234 C   0  0  0  0  0  0  0  0  0  0  0  0
   -0.3546    1.0530    1.5084 C   0  0  0  0  0  0  0  0  0  0  0  0
   -1.6980    0.9293    1.7219 C   0  0  0  0  0  0  0  0  0  0  0  0
   -2.3822    1.6631    2.6996 O   0  0  0  0  0  0  0  0  0  0  0  0
   -2.4388    0.1083    0.9141 C   0  0  0  0  0  0  0  0  0  0  0  0
   -3.8987    0.0196    1.0474 C   0  0  0  0  0  0  0  0  0  0  0  0
   -4.3629    0.2005    2.2099 O   0  0  0  0  0  0  0  0  0  0  0  0
    0.3105    2.2629    2.0905 C   0  0  0  0  0  0  0  0  0  0  0  0
    1.6430    2.2801    1.3482 C   0  0  1  0  0  0  0  0  0  0  0  0
    1.4835    2.7110    0.0257 O   0  0  0  0  0  0  0  0  0  0  0  0
    2.4510    3.3460    2.0248 C   0  0  0  0  0  0  0  0  0  0  0  0
    3.4764    3.7404    1.4874 O   0  0  0  0  0  0  0  0  0  0  0  0
    1.9260    4.1938    3.1208 C   0  0  0  0  0  0  0  0  0  0  0  0
    1.2977    5.3514    2.6375 O   0  0  0  0  0  0  0  0  0  0  0  0
    2.4299    1.0787    1.5422 C   0  0  0  0  0  0  0  0  0  0  0  0
    1.6266   -0.2782    1.0478 C   0  0  2  0  0  0  0  0  0  0  0  0
    2.4193   -0.3033   -0.2708 O   0  0  0  0  0  0  0  0  0  0  0  0
    3.4826   -1.1920    0.4186 C   0  0  1  0  0  0  0  0  0  0  0  0
    3.5293   -2.2586   -0.8647 C   0  0  0  0  0  0  0  0  0  0  0  0
    4.9362   -3.0517   -0.6185 C   0  0  2  0  0  0  0  0  0  0  0  0
    5.1999   -2.5964    0.8639 N   0  0  0  0  0  0  0  0  0  0  0  0
    5.9775   -1.8274   -1.2244 C   0  0  1  0  0  0  0  0  0  0  0  0
    5.8907   -2.3880   -2.6119 O   0  0  0  0  0  0  0  0  0  0  0  0
    4.7088   -0.7081   -1.5388 C   0  0  2  0  0  0  0  0  0  0  0  0
    5.7965    0.4746   -1.8720 C   0  0  0  0  0  0  0  0  0  0  0  0
    4.6530   -0.3213   -0.0807 O   0  0  0  0  0  0  0  0  0  0  0  0
  1  2  1  0
  2  3  1  0
  3  4  2  0
  4  5  1  0
  5  6  2  0
  6  7  1  0
  7  8  2  0
  8  9  1  0
  9 10  2  0
  9 11  1  0
 11 12  2  0
 12 13  1  0
 12 14  1  0
 14 15  2  0
 15 16  1  0
 16 17  1  0
 16 18  2  0
 18 19  1  0
 19 20  2  0
 15 21  1  0
 21 22  1  0
 22 23  1  6
 22 24  1  0
 24 25  2  0
 24 26  1  0
 26 27  1  0
 22 28  1  0
 28 29  1  0
 29 30  1  6
 31 30  1  6
 31 32  1  0
 32 33  1  0
 33 34  1  1
 33 35  1  0
 35 36  1  6
 35 37  1  0
 37 38  1  6
 37 39  1  0
  8  3  1  0
 18 11  1  0
 39 31  1  0
 19  7  1  0
 29 14  1  0
M  END
>  <supplier_code>  (312) 
DB00445

>  <zinc_id>  (312) 
ZINC000003938704

>  <catalog_short_name>  (312) 
dbfda

$$$$

     RDKit          3D

 20 20  0  0  0  0  0  0  0  0999 V2000
    3.0378   -0.7869   -0.1699 O   0  0  0  0  0  0  0  0  0  0  0  0
    3.2060    0.1870   -0.3469 C   0  0  0  0  0  0  0  0  0  0  0  0
    2.3235    1.1672    0.1205 N   0  0  0  0  0  0  0  0  0  0  0  0
    1.0525    0.6894    0.9200 C   0  0  2  0  0  0  0  0  0  0  0  0
    1.9426   -0.2685    1.9254 C   0  0  0  0  0  0  0  0  0  0  0  0
    1.1450   -1.3621    2.1793 O   0  0  0  0  0  0  0  0  0  0  0  0
    0.7254   -0.6517   -0.1695 C   0  0  2  0  0  0  0  0  0  0  0  0
    0.6825    0.2701   -1.4046 O   0  0  0  0  0  0  0  0  0  0  0  0
   -0.8952   -0.5362    0.0570 C   0  0  0  0  0  0  0  0  0  0  0  0
   -1.4186    0.7120    0.0173 C   0  0  0  0  0  0  0  0  0  0  0  0
   -2.7987    0.8263    0.1147 C   0  0  0  0  0  0  0  0  0  0  0  0
   -3.5504   -0.1910   -0.4328 C   0  0  0  0  0  0  0  0  0  0  0  0
   -4.9718   -0.0576   -0.3183 N   0  0  0  0  0  0  0  0  0  0  0  0
   -5.6505    0.0074   -1.3703 O   0  0  0  0  0  0  0  0  0  0  0  0
   -5.4891    0.5664    0.8050 O   0  0  0  0  0  0  0  0  0  0  0  0
   -2.9573   -1.4314   -0.6323 C   0  0  0  0  0  0  0  0  0  0  0  0
   -1.5726   -1.5479   -0.5802 C   0  0  0  0  0  0  0  0  0  0  0  0
    4.4926    0.6869   -0.9335 C   0  0  0  0  0  0  0  0  0  0  0  0
    4.9349    2.2057   -0.0938 Cl  0  0  0  0  0  0  0  0  0  0  0  0
    5.7614   -0.4851   -0.4703 Cl  0  0  0  0  0  0  0  0  0  0  0  0
  1  2  2  0
  2  3  1  0
  4  3  1  6
  4  5  1  0
  5  6  1  0
  4  7  1  0
  7  8  1  6
  7  9  1  0
  9 10  2  0
 10 11  1  0
 11 12  2  0
 12 13  1  0
 13 14  2  0
 13 15  1  0
 12 16  1  0
 16 17  2  0
  2 18  1  0
 18 19  1  0
 18 20  1  0
 17  9  1  0
M  CHG  2  13   1  15  -1
M  END
>  <supplier_code>  (313) 
DB00446

>  <zinc_id>  (313) 
ZINC000000113382

>  <catalog_short_name>  (313) 
dbfda

$$$$

     RDKit          3D

 25 27  0  0  0  0  0  0  0  0999 V2000
    1.8602    2.1076    0.5687 C   0  0  0  0  0  0  0  0  0  0  0  0
    1.7456    0.9719   -0.2049 C   0  0  0  0  0  0  0  0  0  0  0  0
    2.7739    0.0542   -0.3716 C   0  0  0  0  0  0  0  0  0  0  0  0
    3.9618    0.3361    0.2744 O   0  0  0  0  0  0  0  0  0  0  0  0
    5.1949   -0.2720   -0.0174 C   0  0  0  0  0  0  0  0  0  0  0  0
    5.5259   -1.4011    0.9251 C   0  0  0  0  0  0  0  0  0  0  0  0
    6.6270   -2.0599    0.4120 F   0  0  0  0  0  0  0  0  0  0  0  0
    5.8526   -0.9742    2.1875 F   0  0  0  0  0  0  0  0  0  0  0  0
    4.4747   -2.3007    0.9824 F   0  0  0  0  0  0  0  0  0  0  0  0
    2.5632   -1.0546   -1.1540 C   0  0  0  0  0  0  0  0  0  0  0  0
    1.2778   -1.3075   -1.5727 C   0  0  0  0  0  0  0  0  0  0  0  0
    0.4249   -0.2770   -1.7258 N   0  0  0  0  0  0  0  0  0  0  0  0
    0.6404    0.8658   -1.0369 C   0  0  0  0  0  0  0  0  0  0  0  0
   -0.4697    1.8487   -0.8899 C   0  0  0  0  0  0  0  0  0  0  0  0
   -0.9745    1.8769    0.8823 S   0  0  0  0  0  0  0  0  0  0  0  0
   -1.4098    3.3684    1.0057 O   0  0  0  0  0  0  0  0  0  0  0  0
   -2.5701    1.0308    0.7703 C   0  0  0  0  0  0  0  0  0  0  0  0
   -2.6855   -0.3104    0.8362 N   0  0  0  0  0  0  0  0  0  0  0  0
   -3.9404   -0.6493    0.4606 C   0  0  0  0  0  0  0  0  0  0  0  0
   -4.5416   -1.8491    0.1069 C   0  0  0  0  0  0  0  0  0  0  0  0
   -5.8008   -1.8878   -0.4539 C   0  0  0  0  0  0  0  0  0  0  0  0
   -6.3504   -0.6874   -0.8395 C   0  0  0  0  0  0  0  0  0  0  0  0
   -5.8020    0.5317   -0.5090 C   0  0  0  0  0  0  0  0  0  0  0  0
   -4.6168    0.5134    0.2037 C   0  0  0  0  0  0  0  0  0  0  0  0
   -3.7614    1.5254    0.4623 N   0  0  0  0  0  0  0  0  0  0  0  0
  1  2  1  0
  2  3  2  0
  3  4  1  0
  4  5  1  0
  5  6  1  0
  6  7  1  0
  6  8  1  0
  6  9  1  0
  3 10  1  0
 10 11  2  0
 11 12  1  0
 12 13  2  0
 13 14  1  0
 15 14  1  6
 15 16  2  0
 15 17  1  0
 17 18  2  0
 18 19  1  0
 19 20  2  0
 20 21  1  0
 21 22  2  0
 22 23  1  0
 23 24  2  0
 24 25  1  0
 13  2  1  0
 25 17  1  0
 24 19  1  0
M  END
>  <supplier_code>  (314) 
DB00448

>  <zinc_id>  (314) 
ZINC000000599734

>  <catalog_short_name>  (314) 
dbfda

$$$$

     RDKit          3D

 25 27  0  0  0  0  0  0  0  0999 V2000
   -1.7289   -1.5207   -1.7198 C   0  0  0  0  0  0  0  0  0  0  0  0
   -1.6857   -1.2207   -0.5610 C   0  0  0  0  0  0  0  0  0  0  0  0
   -2.6498   -0.4297    0.0524 C   0  0  0  0  0  0  0  0  0  0  0  0
   -3.5871    0.1683   -0.7876 O   0  0  0  0  0  0  0  0  0  0  0  0
   -3.9464    1.5254   -0.6730 C   0  0  0  0  0  0  0  0  0  0  0  0
   -5.2438    1.6797    0.0951 C   0  0  0  0  0  0  0  0  0  0  0  0
   -5.6699    0.4603    0.5578 F   0  0  0  0  0  0  0  0  0  0  0  0
   -6.2271    2.1667   -0.7554 F   0  0  0  0  0  0  0  0  0  0  0  0
   -5.0286    2.5455    1.1572 F   0  0  0  0  0  0  0  0  0  0  0  0
   -2.6693   -0.2167    1.4252 C   0  0  0  0  0  0  0  0  0  0  0  0
   -1.5604   -0.5826    2.1770 C   0  0  0  0  0  0  0  0  0  0  0  0
   -0.5806   -1.2697    1.5730 N   0  0  0  0  0  0  0  0  0  0  0  0
   -0.6000   -1.5416    0.2454 C   0  0  0  0  0  0  0  0  0  0  0  0
    0.2998   -2.6332   -0.2129 C   0  0  0  0  0  0  0  0  0  0  0  0
    1.5355   -1.9611   -1.4016 S   0  0  0  0  0  0  0  0  0  0  0  0
    2.3199   -3.2646   -1.7358 O   0  0  0  0  0  0  0  0  0  0  0  0
    2.6782   -1.1497   -0.2522 C   0  0  0  0  0  0  0  0  0  0  0  0
    4.0175   -1.1698   -0.2929 N   0  0  0  0  0  0  0  0  0  0  0  0
    4.5281    0.0526   -0.0349 C   0  0  0  0  0  0  0  0  0  0  0  0
    5.7564    0.6562   -0.2758 C   0  0  0  0  0  0  0  0  0  0  0  0
    5.7559    2.0089   -0.5492 C   0  0  0  0  0  0  0  0  0  0  0  0
    4.7284    2.7578   -0.0008 C   0  0  0  0  0  0  0  0  0  0  0  0
    3.7144    2.1344    0.7157 C   0  0  0  0  0  0  0  0  0  0  0  0
    3.4619    0.7968    0.4539 C   0  0  0  0  0  0  0  0  0  0  0  0
    2.3818    0.0074    0.3906 N   0  0  0  0  0  0  0  0  0  0  0  0
  1  2  1  0
  2  3  2  0
  3  4  1  0
  4  5  1  0
  5  6  1  0
  6  7  1  0
  6  8  1  0
  6  9  1  0
  3 10  1  0
 10 11  2  0
 11 12  1  0
 12 13  2  0
 13 14  1  0
 15 14  1  1
 15 16  2  0
 15 17  1  0
 17 18  2  0
 18 19  1  0
 19 20  2  0
 20 21  1  0
 21 22  2  0
 22 23  1  0
 23 24  2  0
 24 25  1  0
 13  2  1  0
 25 17  1  0
 24 19  1  0
M  END
>  <supplier_code>  (315) 
DB00448

>  <zinc_id>  (315) 
ZINC000003830986

>  <catalog_short_name>  (315) 
dbfda

$$$$

     RDKit          3D

 28 31  0  0  0  0  0  0  0  0999 V2000
    2.7594    1.0976    1.4399 O   0  0  0  0  0  0  0  0  0  0  0  0
    3.1944    0.3513    0.5124 C   0  0  0  0  0  0  0  0  0  0  0  0
    2.5233    0.5307   -0.8107 C   0  0  0  0  0  0  0  0  0  0  0  0
    2.1793   -0.7824   -1.4569 C   0  0  0  0  0  0  0  0  0  0  0  0
    1.4585   -1.7219   -0.5224 C   0  0  0  0  0  0  0  0  0  0  0  0
    0.0216   -1.4582   -0.4833 N   0  0  0  0  0  0  0  0  0  0  0  0
   -0.4776   -2.1340    0.7002 C   0  0  0  0  0  0  0  0  0  0  0  0
   -1.8633   -1.7103    1.0333 C   0  0  0  0  0  0  0  0  0  0  0  0
   -2.4169   -0.7481    0.3229 C   0  0  0  0  0  0  0  0  0  0  0  0
   -3.8250   -0.6920    0.0641 N   0  0  0  0  0  0  0  0  0  0  0  0
   -4.3338   -1.1058   -1.1195 C   0  0  0  0  0  0  0  0  0  0  0  0
   -3.7800   -1.9229   -1.9113 O   0  0  0  0  0  0  0  0  0  0  0  0
   -5.5793   -0.5998   -1.2554 N   0  0  0  0  0  0  0  0  0  0  0  0
   -5.7599    0.3754   -0.3347 C   0  0  0  0  0  0  0  0  0  0  0  0
   -6.4578    1.5742   -0.4110 C   0  0  0  0  0  0  0  0  0  0  0  0
   -6.0602    2.7094    0.2687 C   0  0  0  0  0  0  0  0  0  0  0  0
   -5.1425    2.5576    1.2964 C   0  0  0  0  0  0  0  0  0  0  0  0
   -4.3600    1.4138    1.2894 C   0  0  0  0  0  0  0  0  0  0  0  0
   -4.5947    0.3670    0.4144 C   0  0  0  0  0  0  0  0  0  0  0  0
   -1.5427    0.3969   -0.0607 C   0  0  0  0  0  0  0  0  0  0  0  0
   -0.1542   -0.0329   -0.4365 C   0  0  0  0  0  0  0  0  0  0  0  0
    4.5802   -0.1336    0.5509 C   0  0  0  0  0  0  0  0  0  0  0  0
    5.2903   -0.4106   -0.6115 C   0  0  0  0  0  0  0  0  0  0  0  0
    6.6478   -0.1365   -0.7255 C   0  0  0  0  0  0  0  0  0  0  0  0
    7.3202    0.4635    0.3328 C   0  0  0  0  0  0  0  0  0  0  0  0
    8.2612    1.4275    0.1126 F   0  0  0  0  0  0  0  0  0  0  0  0
    6.7397    0.2740    1.5811 C   0  0  0  0  0  0  0  0  0  0  0  0
    5.3717    0.0499    1.6787 C   0  0  0  0  0  0  0  0  0  0  0  0
  1  2  2  0
  2  3  1  0
  3  4  1  0
  4  5  1  0
  5  6  1  0
  6  7  1  0
  7  8  1  0
  8  9  2  0
  9 10  1  0
 10 11  1  0
 11 12  2  0
 11 13  1  0
 13 14  1  0
 14 15  2  0
 15 16  1  0
 16 17  2  0
 17 18  1  0
 18 19  2  0
  9 20  1  0
 20 21  1  0
  2 22  1  0
 22 23  2  0
 23 24  1  0
 24 25  2  0
 25 26  1  0
 25 27  1  0
 27 28  2  0
 21  6  1  0
 28 22  1  0
 19 10  1  0
 19 14  1  0
M  END
>  <supplier_code>  (316) 
DB00450

>  <zinc_id>  (316) 
ZINC000019796080

>  <catalog_short_name>  (316) 
dbfda

$$$$

     RDKit          3D

 24 25  0  0  0  0  0  0  0  0999 V2000
    4.1103    0.4089    1.2024 N   0  0  0  0  0  0  0  0  0  0  0  0
    5.1172   -0.1574    0.0838 C   0  0  1  0  0  0  0  0  0  0  0  0
    4.0276    0.0474   -1.1701 C   0  0  0  0  0  0  0  0  0  0  0  0
    2.7042   -0.2332   -0.6394 C   0  0  0  0  0  0  0  0  0  0  0  0
    2.3119   -1.4008   -0.0059 C   0  0  0  0  0  0  0  0  0  0  0  0
    0.9507   -1.6175    0.1756 C   0  0  0  0  0  0  0  0  0  0  0  0
    0.2187   -3.0004    1.5970 I   0  0  0  0  0  0  0  0  0  0  0  0
   -0.0063   -0.8370   -0.4640 C   0  0  0  0  0  0  0  0  0  0  0  0
   -1.1913   -1.4472   -0.8380 O   0  0  0  0  0  0  0  0  0  0  0  0
   -2.4338   -1.1078   -0.3357 C   0  0  0  0  0  0  0  0  0  0  0  0
   -3.4767   -1.0818   -1.2409 C   0  0  0  0  0  0  0  0  0  0  0  0
   -4.5939   -0.2937   -0.9978 C   0  0  0  0  0  0  0  0  0  0  0  0
   -6.1543   -0.1517   -2.3899 I   0  0  0  0  0  0  0  0  0  0  0  0
   -4.6199    0.5104    0.1199 C   0  0  0  0  0  0  0  0  0  0  0  0
   -5.3577    1.6917    0.0713 O   0  0  0  0  0  0  0  0  0  0  0  0
   -3.7147    0.2738    1.1454 C   0  0  0  0  0  0  0  0  0  0  0  0
   -3.9592    1.3170    2.9580 I   0  0  0  0  0  0  0  0  0  0  0  0
   -2.6244   -0.5378    0.9147 C   0  0  0  0  0  0  0  0  0  0  0  0
    0.3909    0.3215   -1.1202 C   0  0  0  0  0  0  0  0  0  0  0  0
   -1.0705    1.5989   -1.9399 I   0  0  0  0  0  0  0  0  0  0  0  0
    1.7086    0.6897   -0.9506 C   0  0  0  0  0  0  0  0  0  0  0  0
    5.7687    1.3315   -0.1522 C   0  0  0  0  0  0  0  0  0  0  0  0
    6.9954    1.3211   -0.3205 O   0  0  0  0  0  0  0  0  0  0  0  0
    4.8981    2.3545   -0.3372 O   0  0  0  0  0  0  0  0  0  0  0  0
  2  1  1  1
  2  3  1  0
  3  4  1  0
  4  5  2  0
  5  6  1  0
  6  7  1  0
  6  8  2  0
  8  9  1  0
  9 10  1  0
 10 11  2  0
 11 12  1  0
 12 13  1  0
 12 14  2  0
 14 15  1  0
 14 16  1  0
 16 17  1  0
 16 18  2  0
  8 19  1  0
 19 20  1  0
 19 21  2  0
  2 22  1  0
 22 23  2  0
 22 24  1  0
 21  4  1  0
 18 10  1  0
M  END
>  <supplier_code>  (317) 
DB00451

>  <zinc_id>  (317) 
ZINC000003830993

>  <catalog_short_name>  (317) 
dbfda

$$$$

     RDKit          3D

 18 19  0  0  0  0  0  0  0  0999 V2000
   -3.4751   -2.7793    0.6443 C   0  0  0  0  0  0  0  0  0  0  0  0
   -2.1486   -3.2112    0.0839 C   0  0  0  0  0  0  0  0  0  0  0  0
   -1.4315   -2.0758   -0.3309 O   0  0  0  0  0  0  0  0  0  0  0  0
   -0.8926   -1.1427    0.5607 C   0  0  0  0  0  0  0  0  0  0  0  0
   -0.6754   -1.5250    1.7418 O   0  0  0  0  0  0  0  0  0  0  0  0
   -0.3660    0.1619    0.0485 C   0  0  0  0  0  0  0  0  0  0  0  0
    1.0889   -0.0282   -0.2251 C   0  0  0  0  0  0  0  0  0  0  0  0
    1.5348   -0.5884   -1.4148 C   0  0  0  0  0  0  0  0  0  0  0  0
    2.9020   -0.7894   -1.5490 C   0  0  0  0  0  0  0  0  0  0  0  0
    3.7548   -0.3277   -0.5671 C   0  0  0  0  0  0  0  0  0  0  0  0
    3.2577   -0.2840    0.7248 C   0  0  0  0  0  0  0  0  0  0  0  0
    1.8843   -0.2591    0.8906 C   0  0  0  0  0  0  0  0  0  0  0  0
   -1.1530    0.5036   -1.1708 C   0  0  0  0  0  0  0  0  0  0  0  0
   -1.1086    1.9184   -1.6050 C   0  0  0  0  0  0  0  0  0  0  0  0
   -0.8218    2.8949   -0.6278 N   0  0  0  0  0  0  0  0  0  0  0  0
   -1.8966    3.7691   -0.2689 C   0  0  0  0  0  0  0  0  0  0  0  0
    0.0324    2.5095    0.4462 C   0  0  0  0  0  0  0  0  0  0  0  0
   -0.4857    1.2536    1.0976 C   0  0  0  0  0  0  0  0  0  0  0  0
  1  2  1  0
  2  3  1  0
  3  4  1  0
  4  5  2  0
  4  6  1  0
  6  7  1  0
  7  8  2  0
  8  9  1  0
  9 10  2  0
 10 11  1  0
 11 12  2  0
  6 13  1  0
 13 14  1  0
 14 15  1  0
 15 16  1  0
 15 17  1  0
 17 18  1  0
 18  6  1  0
 12  7  1  0
M  END
>  <supplier_code>  (318) 
DB00454

>  <zinc_id>  (318) 
ZINC000000001681

>  <catalog_short_name>  (318) 
dbfda

$$$$

     RDKit          3D

 27 30  0  0  0  0  0  0  0  0999 V2000
    7.1795    0.5615    1.0459 C   0  0  0  0  0  0  0  0  0  0  0  0
    6.5575   -0.5161    0.1789 C   0  0  0  0  0  0  0  0  0  0  0  0
    5.2482   -0.1093   -0.1982 O   0  0  0  0  0  0  0  0  0  0  0  0
    4.1973   -0.8875    0.2965 C   0  0  0  0  0  0  0  0  0  0  0  0
    4.3904   -2.1235    0.4329 O   0  0  0  0  0  0  0  0  0  0  0  0
    2.9076   -0.3429    0.5514 N   0  0  0  0  0  0  0  0  0  0  0  0
    2.6044    1.0311    0.1727 C   0  0  0  0  0  0  0  0  0  0  0  0
    1.1248    1.2787    0.0686 C   0  0  0  0  0  0  0  0  0  0  0  0
    0.3102    0.1082    0.4789 C   0  0  0  0  0  0  0  0  0  0  0  0
   -0.8836   -0.0782   -0.0689 C   0  0  0  0  0  0  0  0  0  0  0  0
   -1.9813   -0.3143    0.8779 C   0  0  0  0  0  0  0  0  0  0  0  0
   -1.6336   -0.1103    2.1896 C   0  0  0  0  0  0  0  0  0  0  0  0
   -2.6640    0.1072    3.0957 C   0  0  0  0  0  0  0  0  0  0  0  0
   -3.9799    0.2170    2.6652 C   0  0  0  0  0  0  0  0  0  0  0  0
   -5.1188    1.1222    3.6270 Cl  0  0  0  0  0  0  0  0  0  0  0  0
   -4.3293   -0.4390    1.4926 C   0  0  0  0  0  0  0  0  0  0  0  0
   -3.3108   -0.5581    0.5545 C   0  0  0  0  0  0  0  0  0  0  0  0
   -3.7621   -1.1781   -0.7294 C   0  0  0  0  0  0  0  0  0  0  0  0
   -3.5933   -0.2060   -1.8642 C   0  0  0  0  0  0  0  0  0  0  0  0
   -2.1722   -0.0370   -2.2759 C   0  0  0  0  0  0  0  0  0  0  0  0
   -2.1529    0.5907   -3.5163 C   0  0  0  0  0  0  0  0  0  0  0  0
   -1.0827    1.4015   -3.8755 C   0  0  0  0  0  0  0  0  0  0  0  0
    0.0892    1.4038   -3.1486 C   0  0  0  0  0  0  0  0  0  0  0  0
    0.1121    0.6365   -2.0361 N   0  0  0  0  0  0  0  0  0  0  0  0
   -1.0159    0.1124   -1.5186 C   0  0  0  0  0  0  0  0  0  0  0  0
    0.7250   -0.8390    1.5415 C   0  0  0  0  0  0  0  0  0  0  0  0
    2.2341   -0.8316    1.7500 C   0  0  0  0  0  0  0  0  0  0  0  0
  1  2  1  0
  2  3  1  0
  3  4  1  0
  4  5  2  0
  4  6  1  0
  6  7  1  0
  7  8  1  0
  8  9  1  0
  9 10  2  3
 10 11  1  0
 11 12  2  0
 12 13  1  0
 13 14  2  0
 14 15  1  0
 14 16  1  0
 16 17  2  0
 17 18  1  0
 18 19  1  0
 19 20  1  0
 20 21  2  0
 21 22  1  0
 22 23  2  0
 23 24  1  0
 24 25  2  0
  9 26  1  0
 26 27  1  0
 27  6  1  0
 25 10  1  0
 17 11  1  0
 25 20  1  0
M  END
>  <supplier_code>  (319) 
DB00455

>  <zinc_id>  (319) 
ZINC000000537931

>  <catalog_short_name>  (319) 
dbfda

$$$$

     RDKit          3D

 28 31  0  0  0  0  0  0  0  0999 V2000
    6.3712    2.5663   -0.9843 C   0  0  0  0  0  0  0  0  0  0  0  0
    5.9553    1.2213   -1.0557 O   0  0  0  0  0  0  0  0  0  0  0  0
    4.8635    0.7229   -0.3694 C   0  0  0  0  0  0  0  0  0  0  0  0
    3.6325    1.3437   -0.3290 C   0  0  0  0  0  0  0  0  0  0  0  0
    2.5887    0.8056    0.4125 C   0  0  0  0  0  0  0  0  0  0  0  0
    1.3433    1.3026    0.3936 N   0  0  0  0  0  0  0  0  0  0  0  0
    0.3038    0.7314    1.0402 C   0  0  0  0  0  0  0  0  0  0  0  0
   -0.9725    1.3771    1.1215 N   0  0  0  0  0  0  0  0  0  0  0  0
   -1.9888    0.7045    1.9267 C   0  0  0  0  0  0  0  0  0  0  0  0
   -2.6003   -0.3472    1.0074 C   0  0  0  0  0  0  0  0  0  0  0  0
   -2.9199    0.2228   -0.2984 N   0  0  0  0  0  0  0  0  0  0  0  0
   -3.9212   -0.4756   -1.0476 C   0  0  0  0  0  0  0  0  0  0  0  0
   -3.6111   -1.4497   -1.7971 O   0  0  0  0  0  0  0  0  0  0  0  0
   -5.2541   -0.5072   -0.4337 C   0  0  0  0  0  0  0  0  0  0  0  0
   -6.2125   -1.5073   -0.5236 C   0  0  0  0  0  0  0  0  0  0  0  0
   -7.3834   -0.9696   -0.0288 C   0  0  0  0  0  0  0  0  0  0  0  0
   -7.0887    0.3255    0.3390 C   0  0  0  0  0  0  0  0  0  0  0  0
   -5.8040    0.5033    0.2155 O   0  0  0  0  0  0  0  0  0  0  0  0
   -2.8823    1.6791   -0.4027 C   0  0  0  0  0  0  0  0  0  0  0  0
   -1.4874    2.1424   -0.0114 C   0  0  0  0  0  0  0  0  0  0  0  0
    0.5581   -0.4456    1.6613 N   0  0  0  0  0  0  0  0  0  0  0  0
    1.6035   -1.1808    1.2784 C   0  0  0  0  0  0  0  0  0  0  0  0
    1.6980   -2.5677    1.5342 N   0  0  0  0  0  0  0  0  0  0  0  0
    2.7361   -0.4875    0.8763 C   0  0  0  0  0  0  0  0  0  0  0  0
    4.0064   -1.0343    0.9592 C   0  0  0  0  0  0  0  0  0  0  0  0
    4.9363   -0.6016    0.0401 C   0  0  0  0  0  0  0  0  0  0  0  0
    5.9443   -1.4285   -0.4650 O   0  0  0  0  0  0  0  0  0  0  0  0
    5.5854   -2.6460   -1.1069 C   0  0  0  0  0  0  0  0  0  0  0  0
  1  2  1  0
  2  3  1  0
  3  4  2  0
  4  5  1  0
  5  6  2  0
  6  7  1  0
  7  8  1  0
  8  9  1  0
  9 10  1  0
 10 11  1  0
 11 12  1  0
 12 13  2  0
 12 14  1  0
 14 15  2  0
 15 16  1  0
 16 17  2  0
 17 18  1  0
 11 19  1  0
 19 20  1  0
  7 21  2  0
 21 22  1  0
 22 23  1  0
 22 24  2  0
 24 25  1  0
 25 26  2  0
 26 27  1  0
 27 28  1  0
 26  3  1  0
 24  5  1  0
 20  8  1  0
 18 14  1  0
M  END
>  <supplier_code>  (320) 
DB00457

>  <zinc_id>  (320) 
ZINC000095616601

>  <catalog_short_name>  (320) 
dbfda

$$$$

     RDKit          3D

 21 23  0  0  0  0  0  0  0  0999 V2000
    5.1234    0.6738   -0.2216 C   0  0  0  0  0  0  0  0  0  0  0  0
    4.3923   -0.4914    0.2261 N   0  0  0  0  0  0  0  0  0  0  0  0
    4.2961   -1.4137   -0.9017 C   0  0  0  0  0  0  0  0  0  0  0  0
    3.0751   -0.1549    0.7415 C   0  0  0  0  0  0  0  0  0  0  0  0
    2.3284    0.7856   -0.1948 C   0  0  0  0  0  0  0  0  0  0  0  0
    1.1750    0.0639   -0.8451 C   0  0  0  0  0  0  0  0  0  0  0  0
   -0.0073    0.0275   -0.0017 N   0  0  0  0  0  0  0  0  0  0  0  0
   -0.6257    1.3020    0.1497 C   0  0  0  0  0  0  0  0  0  0  0  0
    0.1736    2.3696   -0.1768 C   0  0  0  0  0  0  0  0  0  0  0  0
   -0.4546    3.5554   -0.5364 C   0  0  0  0  0  0  0  0  0  0  0  0
   -1.8426    3.6289   -0.5573 C   0  0  0  0  0  0  0  0  0  0  0  0
   -2.4847    2.8093    0.3626 C   0  0  0  0  0  0  0  0  0  0  0  0
   -1.9269    1.5531    0.5588 C   0  0  0  0  0  0  0  0  0  0  0  0
   -2.7493    0.6500    1.3973 C   0  0  0  0  0  0  0  0  0  0  0  0
   -3.1365   -0.5925    0.6395 C   0  0  0  0  0  0  0  0  0  0  0  0
   -1.9777   -1.5088    0.4215 C   0  0  0  0  0  0  0  0  0  0  0  0
   -2.4485   -2.7842    0.1634 C   0  0  0  0  0  0  0  0  0  0  0  0
   -1.8082   -3.6497   -0.7145 C   0  0  0  0  0  0  0  0  0  0  0  0
   -0.5112   -3.3794   -1.0635 C   0  0  0  0  0  0  0  0  0  0  0  0
    0.0690   -2.2026   -0.6116 C   0  0  0  0  0  0  0  0  0  0  0  0
   -0.6598   -1.2419    0.0814 C   0  0  0  0  0  0  0  0  0  0  0  0
  1  2  1  0
  2  3  1  0
  2  4  1  0
  4  5  1  0
  5  6  1  0
  6  7  1  0
  7  8  1  0
  8  9  2  0
  9 10  1  0
 10 11  2  0
 11 12  1  0
 12 13  2  0
 13 14  1  0
 14 15  1  0
 15 16  1  0
 16 17  2  0
 17 18  1  0
 18 19  2  0
 19 20  1  0
 20 21  2  0
 21  7  1  0
 13  8  1  0
 21 16  1  0
M  END
>  <supplier_code>  (321) 
DB00458

>  <zinc_id>  (321) 
ZINC000000020245

>  <catalog_short_name>  (321) 
dbfda

$$$$

     RDKit          3D

 24 24  0  0  0  0  0  0  0  0999 V2000
   -6.0029    2.2054    1.9021 C   0  0  0  0  0  0  0  0  0  0  0  0
   -5.3308    0.9552    1.8102 O   0  0  0  0  0  0  0  0  0  0  0  0
   -4.2732    0.8484    0.9080 C   0  0  0  0  0  0  0  0  0  0  0  0
   -2.9500    0.7605    1.3194 C   0  0  0  0  0  0  0  0  0  0  0  0
   -2.1139   -0.2110    0.7877 C   0  0  0  0  0  0  0  0  0  0  0  0
   -0.8143   -0.5838    1.3729 C   0  0  0  0  0  0  0  0  0  0  0  0
   -2.3499   -0.5817   -0.5310 C   0  0  0  0  0  0  0  0  0  0  0  0
   -1.2298   -1.0948   -1.3304 C   0  0  0  0  0  0  0  0  0  0  0  0
   -0.5072   -0.3615   -2.1379 C   0  0  0  0  0  0  0  0  0  0  0  0
    0.9486   -0.2026   -2.0405 C   0  0  0  0  0  0  0  0  0  0  0  0
    1.9067   -1.2725   -2.3675 C   0  0  0  0  0  0  0  0  0  0  0  0
    1.4092    0.9104   -1.4689 C   0  0  0  0  0  0  0  0  0  0  0  0
    2.6544    0.9073   -0.6908 C   0  0  0  0  0  0  0  0  0  0  0  0
    2.7493    0.2101    0.4317 C   0  0  0  0  0  0  0  0  0  0  0  0
    4.0424    0.2731    1.1192 C   0  0  0  0  0  0  0  0  0  0  0  0
    4.1815    0.0289    2.5823 C   0  0  0  0  0  0  0  0  0  0  0  0
    5.1420    0.2654    0.3999 C   0  0  0  0  0  0  0  0  0  0  0  0
    6.3780   -0.3868    0.8300 C   0  0  0  0  0  0  0  0  0  0  0  0
    6.9268    0.0431    1.8889 O   0  0  0  0  0  0  0  0  0  0  0  0
    7.2712   -0.7287   -0.1902 O   0  0  0  0  0  0  0  0  0  0  0  0
   -3.5931   -0.3267   -1.0741 C   0  0  0  0  0  0  0  0  0  0  0  0
   -3.8436   -0.8224   -2.4447 C   0  0  0  0  0  0  0  0  0  0  0  0
   -4.5889    0.2689   -0.3151 C   0  0  0  0  0  0  0  0  0  0  0  0
   -6.0124    0.1740   -0.7611 C   0  0  0  0  0  0  0  0  0  0  0  0
  1  2  1  0
  2  3  1  0
  3  4  2  0
  4  5  1  0
  5  6  1  0
  5  7  2  0
  7  8  1  0
  8  9  2  0
  9 10  1  0
 10 11  1  0
 10 12  2  0
 12 13  1  0
 13 14  2  0
 14 15  1  0
 15 16  1  0
 15 17  2  0
 17 18  1  0
 18 19  2  0
 18 20  1  0
  7 21  1  0
 21 22  1  0
 21 23  2  0
 23 24  1  0
 23  3  1  0
M  END
>  <supplier_code>  (322) 
DB00459

>  <zinc_id>  (322) 
ZINC000003798734

>  <catalog_short_name>  (322) 
dbfda

$$$$

     RDKit          3D

 53 58  0  0  0  0  0  0  0  0999 V2000
   -2.1135   -5.9623    2.6852 C   0  0  0  0  0  0  0  0  0  0  0  0
   -1.8562   -5.6335    1.4268 C   0  0  0  0  0  0  0  0  0  0  0  0
   -1.0380   -4.4575    1.1016 C   0  0  0  0  0  0  0  0  0  0  0  0
    0.3433   -4.3471    1.2154 C   0  0  0  0  0  0  0  0  0  0  0  0
    1.2727   -5.3646    1.8020 C   0  0  0  0  0  0  0  0  0  0  0  0
    0.5753   -2.9997    1.0399 C   0  0  0  0  0  0  0  0  0  0  0  0
    1.3432   -2.1716    1.8525 C   0  0  0  0  0  0  0  0  0  0  0  0
    1.7331   -0.9933    1.2795 C   0  0  0  0  0  0  0  0  0  0  0  0
    1.1789   -0.4709    0.1562 N   0  0  0  0  0  0  0  0  0  0  0  0
    2.0485    0.4811   -0.2852 C   0  0  0  0  0  0  0  0  0  0  0  0
    1.7525    0.9182   -1.5737 C   0  0  0  0  0  0  0  0  0  0  0  0
    0.4498    1.1861   -1.9923 C   0  0  0  0  0  0  0  0  0  0  0  0
   -0.5611    0.6816   -1.2377 N   0  0  0  0  0  0  0  0  0  0  0  0
   -1.5391    1.6020   -1.1821 C   0  0  0  0  0  0  0  0  0  0  0  0
   -2.7741    1.1992   -0.6818 C   0  0  0  0  0  0  0  0  0  0  0  0
   -3.2231   -0.1118   -0.7910 C   0  0  0  0  0  0  0  0  0  0  0  0
   -2.2565   -1.0535   -0.6848 N   0  0  0  0  0  0  0  0  0  0  0  0
   -2.8085   -2.1760   -1.1392 C   0  0  0  0  0  0  0  0  0  0  0  0
   -2.3929   -3.3688   -0.6084 C   0  0  0  0  0  0  0  0  0  0  0  0
   -1.3928   -3.3379    0.3612 C   0  0  0  0  0  0  0  0  0  0  0  0
   -0.4293   -2.3993    0.3662 N   0  0  0  0  0  0  0  0  0  0  0  0
   -4.0707   -1.9303   -1.6753 C   0  0  0  0  0  0  0  0  0  0  0  0
   -4.9136   -2.8634   -2.4776 C   0  0  0  0  0  0  0  0  0  0  0  0
   -4.4188   -0.6580   -1.2438 C   0  0  0  0  0  0  0  0  0  0  0  0
   -5.6321    0.0923   -1.7008 C   0  0  0  0  0  0  0  0  0  0  0  0
   -6.4602    0.5651   -0.5178 C   0  0  0  0  0  0  0  0  0  0  0  0
   -6.9398   -0.6713    0.1703 C   0  0  0  0  0  0  0  0  0  0  0  0
   -6.7441   -0.7627    1.3996 O   0  0  0  0  0  0  0  0  0  0  0  0
   -7.8111   -1.5322   -0.5013 O   0  0  0  0  0  0  0  0  0  0  0  0
   -1.2255    2.7003   -1.9805 C   0  0  0  0  0  0  0  0  0  0  0  0
   -1.7803    4.0547   -1.8154 C   0  0  0  0  0  0  0  0  0  0  0  0
   -2.8328    3.9992   -0.7122 C   0  0  0  0  0  0  0  0  0  0  0  0
   -2.5380    4.9209    0.3972 C   0  0  0  0  0  0  0  0  0  0  0  0
   -2.5500    6.1543    0.1010 O   0  0  0  0  0  0  0  0  0  0  0  0
   -2.8103    4.6380    1.7393 O   0  0  0  0  0  0  0  0  0  0  0  0
   -2.0288    5.3747    2.6763 C   0  0  0  0  0  0  0  0  0  0  0  0
   -0.1194    2.2511   -2.6932 C   0  0  0  0  0  0  0  0  0  0  0  0
    0.5414    3.0090   -3.7559 C   0  0  0  0  0  0  0  0  0  0  0  0
    2.7733    0.9558    0.8862 C   0  0  1  0  0  0  0  0  0  0  0  0
    2.0065    1.9786    1.7127 C   0  0  0  0  0  0  0  0  0  0  0  0
    2.9263   -0.2222    1.6694 C   0  0  0  0  0  0  0  0  0  0  0  0
    3.5093   -0.0513    2.8651 C   0  0  0  0  0  0  0  0  0  0  0  0
    4.7679    0.7012    2.6745 C   0  0  0  0  0  0  0  0  0  0  0  0
    5.1140    0.7131    1.3829 C   0  0  0  0  0  0  0  0  0  0  0  0
    6.4997    0.5794    0.9412 C   0  0  0  0  0  0  0  0  0  0  0  0
    7.3226    1.5281    1.1223 O   0  0  0  0  0  0  0  0  0  0  0  0
    7.1159   -0.6627    0.7583 O   0  0  0  0  0  0  0  0  0  0  0  0
    8.2714   -1.0690    1.4869 C   0  0  0  0  0  0  0  0  0  0  0  0
    4.1711    1.6653    0.4794 C   0  0  1  0  0  0  0  0  0  0  0  0
    4.3989    0.8261   -0.8723 C   0  0  0  0  0  0  0  0  0  0  0  0
    4.6602   -0.3553   -0.8481 O   0  0  0  0  0  0  0  0  0  0  0  0
    5.1553    1.6392   -1.7266 O   0  0  0  0  0  0  0  0  0  0  0  0
    5.3298    1.2120   -3.0521 C   0  0  0  0  0  0  0  0  0  0  0  0
  1  2  2  0
  2  3  1  0
  3  4  2  0
  4  5  1  0
  4  6  1  0
  6  7  2  0
  7  8  1  0
  8  9  2  0
  9 10  1  0
 10 11  2  0
 11 12  1  0
 12 13  1  0
 13 14  1  0
 14 15  1  0
 15 16  2  0
 16 17  1  0
 17 18  2  0
 18 19  1  0
 19 20  2  0
 20 21  1  0
 18 22  1  0
 22 23  1  0
 22 24  2  0
 24 25  1  0
 25 26  1  0
 26 27  1  0
 27 28  2  0
 27 29  1  0
 14 30  2  0
 30 31  1  0
 31 32  1  0
 32 33  1  0
 33 34  2  0
 33 35  1  0
 35 36  1  0
 30 37  1  0
 37 38  1  0
 10 39  1  0
 39 40  1  1
 39 41  1  0
 41 42  2  0
 42 43  1  0
 43 44  2  0
 44 45  1  0
 45 46  2  0
 45 47  1  0
 47 48  1  0
 44 49  1  0
 49 50  1  6
 50 51  2  0
 50 52  1  0
 52 53  1  0
 20  3  1  0
 49 39  1  0
 21  6  1  0
 41  8  1  0
 37 12  2  0
 24 16  1  0
M  END
>  <supplier_code>  (323) 
DB00460

>  <zinc_id>  (323) 
ZINC000150338699

>  <catalog_short_name>  (323) 
dbfda

$$$$

     RDKit          3D

 17 18  0  0  0  0  0  0  0  0999 V2000
   -5.8275    1.1706   -0.5736 C   0  0  0  0  0  0  0  0  0  0  0  0
   -4.5277    1.3645   -0.0241 O   0  0  0  0  0  0  0  0  0  0  0  0
   -3.5187    0.4383   -0.3111 C   0  0  0  0  0  0  0  0  0  0  0  0
   -3.4357   -0.7002    0.4805 C   0  0  0  0  0  0  0  0  0  0  0  0
   -2.2298   -1.2008    0.9415 C   0  0  0  0  0  0  0  0  0  0  0  0
   -1.0570   -0.7126    0.4003 C   0  0  0  0  0  0  0  0  0  0  0  0
    0.1793   -1.1967    0.8143 C   0  0  0  0  0  0  0  0  0  0  0  0
    1.3572   -0.7456    0.2284 C   0  0  0  0  0  0  0  0  0  0  0  0
    2.5610   -0.4962    1.0766 C   0  0  0  0  0  0  0  0  0  0  0  0
    3.8339   -0.9472    0.4212 C   0  0  0  0  0  0  0  0  0  0  0  0
    4.6839    0.2233    0.1094 C   0  0  0  0  0  0  0  0  0  0  0  0
    5.4493    0.9898    1.1316 C   0  0  0  0  0  0  0  0  0  0  0  0
    4.8117    0.5768   -1.0521 O   0  0  0  0  0  0  0  0  0  0  0  0
    1.2071   -0.1808   -1.0320 C   0  0  0  0  0  0  0  0  0  0  0  0
   -0.0272    0.3100   -1.4365 C   0  0  0  0  0  0  0  0  0  0  0  0
   -1.1429    0.2251   -0.6221 C   0  0  0  0  0  0  0  0  0  0  0  0
   -2.3169    0.8817   -0.8506 C   0  0  0  0  0  0  0  0  0  0  0  0
  1  2  1  0
  2  3  1  0
  3  4  2  0
  4  5  1  0
  5  6  2  0
  6  7  1  0
  7  8  2  0
  8  9  1  0
  9 10  1  0
 10 11  1  0
 11 12  1  0
 11 13  2  0
  8 14  1  0
 14 15  2  0
 15 16  1  0
 16 17  2  0
 17  3  1  0
 16  6  1  0
M  END
>  <supplier_code>  (324) 
DB00461

>  <zinc_id>  (324) 
ZINC000000020221

>  <catalog_short_name>  (324) 
dbfda

$$$$

     RDKit          3D

 23 26  0  0  0  0  0  0  0  0999 V2000
    3.4919   -1.5226    0.8550 C   0  0  0  0  0  0  0  0  0  0  0  0
    3.2938   -1.4527    0.6015 N   0  0  0  0  0  0  0  0  0  0  0  0
    3.0068   -2.3416   -0.5582 C   0  0  0  0  0  0  0  0  0  0  0  0
    4.0438   -0.3328   -0.3340 C   0  0  1  0  0  0  0  0  0  0  0  0
    2.6087    0.0463   -0.9844 C   0  0  0  0  0  0  0  0  0  0  0  0
    1.5772    0.6027    0.0889 C   0  0  0  0  0  0  0  0  0  0  0  0
    0.3467    0.5542   -0.3962 O   0  0  0  0  0  0  0  0  0  0  0  0
   -0.6631    0.5867    0.5797 C   0  0  0  0  0  0  0  0  0  0  0  0
   -0.3930    1.3952    1.4805 O   0  0  0  0  0  0  0  0  0  0  0  0
   -1.7376    0.9841   -0.5605 C   0  0  2  0  0  0  0  0  0  0  0  0
   -2.3090    2.2869    0.2627 C   0  0  0  0  0  0  0  0  0  0  0  0
   -2.8213    3.0013   -0.7775 O   0  0  0  0  0  0  0  0  0  0  0  0
   -2.8714    0.0210    0.0145 C   0  0  0  0  0  0  0  0  0  0  0  0
   -2.8341   -0.7818    1.0307 C   0  0  0  0  0  0  0  0  0  0  0  0
   -3.9298   -1.6430    1.1305 C   0  0  0  0  0  0  0  0  0  0  0  0
   -4.6720   -1.9815   -0.0064 C   0  0  0  0  0  0  0  0  0  0  0  0
   -4.5134   -1.2153   -1.1440 C   0  0  0  0  0  0  0  0  0  0  0  0
   -3.8140   -0.0336   -0.9793 C   0  0  0  0  0  0  0  0  0  0  0  0
    1.7971    0.3632    1.5836 C   0  0  0  0  0  0  0  0  0  0  0  0
    1.7476   -0.9206    0.6750 C   0  0  1  0  0  0  0  0  0  0  0  0
    2.4900    0.0759   -0.4094 C   0  0  1  0  0  0  0  0  0  0  0  0
    2.6499    1.7396    0.0236 O   0  0  0  0  0  0  0  0  0  0  0  0
    3.5053    0.5683    0.9557 C   0  0  2  0  0  0  0  0  0  0  0  0
  1  2  1  0
  2  3  1  0
  2  4  1  0
  4  5  1  6
  5  6  1  0
  6  7  1  0
  7  8  1  0
  8  9  2  0
 10  8  1  1
 10 11  1  0
 11 12  1  0
 10 13  1  0
 13 14  2  0
 14 15  1  0
 15 16  2  0
 16 17  1  0
 17 18  2  0
  6 19  1  0
 20 19  1  1
 20 21  1  0
 21 22  1  1
 23 22  1  6
 20  2  1  0
 23 21  1  0
 23  4  1  0
 18 13  1  0
M  CHG  1   2   1
M  END
>  <supplier_code>  (325) 
DB00462

>  <zinc_id>  (325) 
ZINC000100027531

>  <catalog_short_name>  (325) 
dbfda

$$$$

     RDKit          3D

 23 26  0  0  0  0  0  0  0  0999 V2000
   -3.5856    1.5090   -0.1129 C   0  0  0  0  0  0  0  0  0  0  0  0
   -3.4936    0.4104    0.2879 N   0  0  0  0  0  0  0  0  0  0  0  0
   -4.6830    0.2911    0.8084 C   0  0  0  0  0  0  0  0  0  0  0  0
   -3.5852   -0.1478   -0.9257 C   0  0  1  0  0  0  0  0  0  0  0  0
   -2.0838    0.6673   -1.2260 C   0  0  0  0  0  0  0  0  0  0  0  0
   -1.2813    0.5272    0.1890 C   0  0  2  0  0  0  0  0  0  0  0  0
    0.0775    0.5675   -0.5450 O   0  0  0  0  0  0  0  0  0  0  0  0
    0.8984    1.1015    0.4314 C   0  0  0  0  0  0  0  0  0  0  0  0
    0.5055    2.2979    0.6740 O   0  0  0  0  0  0  0  0  0  0  0  0
    2.4348    1.3800    0.0364 C   0  0  2  0  0  0  0  0  0  0  0  0
    2.3517    0.9534   -1.5349 C   0  0  0  0  0  0  0  0  0  0  0  0
    1.8473   -0.1825   -1.8123 O   0  0  0  0  0  0  0  0  0  0  0  0
    2.9998   -0.0180    0.6237 C   0  0  0  0  0  0  0  0  0  0  0  0
    3.4704   -1.0165   -0.1302 C   0  0  0  0  0  0  0  0  0  0  0  0
    4.6612   -1.6729    0.2003 C   0  0  0  0  0  0  0  0  0  0  0  0
    5.6888   -0.8799    0.6852 C   0  0  0  0  0  0  0  0  0  0  0  0
    5.3160    0.3485    1.2310 C   0  0  0  0  0  0  0  0  0  0  0  0
    3.9689    0.4661    1.5014 C   0  0  0  0  0  0  0  0  0  0  0  0
   -1.4661   -1.0256   -0.2436 C   0  0  0  0  0  0  0  0  0  0  0  0
   -2.8689   -0.4547   -0.9662 C   0  0  1  0  0  0  0  0  0  0  0  0
   -3.2929   -2.1079   -0.7965 C   0  0  2  0  0  0  0  0  0  0  0  0
   -4.7071   -1.7548    0.0004 O   0  0  0  0  0  0  0  0  0  0  0  0
   -3.1729   -1.2593    0.5201 C   0  0  2  0  0  0  0  0  0  0  0  0
  1  2  1  0
  2  3  1  0
  2  4  1  0
  4  5  1  6
  5  6  1  0
  6  7  1  6
  7  8  1  0
  8  9  2  0
 10  8  1  1
 10 11  1  0
 11 12  1  0
 10 13  1  0
 13 14  2  0
 14 15  1  0
 15 16  2  0
 16 17  1  0
 17 18  2  0
  6 19  1  0
 20 19  1  1
 20 21  1  0
 21 22  1  6
 23 22  1  1
 20  2  1  0
 23 21  1  0
 23  4  1  0
 18 13  1  0
M  CHG  1   2   1
M  END
>  <supplier_code>  (326) 
DB00462

>  <zinc_id>  (326) 
ZINC000100036751

>  <catalog_short_name>  (326) 
dbfda

$$$$

     RDKit          3D

 23 26  0  0  0  0  0  0  0  0999 V2000
   -3.7986    0.3616   -1.5974 C   0  0  0  0  0  0  0  0  0  0  0  0
   -3.3760   -0.5766   -0.6551 N   0  0  0  0  0  0  0  0  0  0  0  0
   -3.7193   -1.9803   -0.7034 C   0  0  0  0  0  0  0  0  0  0  0  0
   -3.8429   -0.0801    0.8773 C   0  0  1  0  0  0  0  0  0  0  0  0
   -2.4364   -0.3836    1.7734 C   0  0  0  0  0  0  0  0  0  0  0  0
   -1.2585    0.5285    1.2904 C   0  0  0  0  0  0  0  0  0  0  0  0
   -0.1269   -0.3609    1.1615 O   0  0  0  0  0  0  0  0  0  0  0  0
    0.7669   -0.1460    0.3009 C   0  0  0  0  0  0  0  0  0  0  0  0
    0.7927    1.0151   -0.2314 O   0  0  0  0  0  0  0  0  0  0  0  0
    1.9129   -0.9385   -0.4607 C   0  0  2  0  0  0  0  0  0  0  0  0
    2.0826   -2.2023    0.5900 C   0  0  0  0  0  0  0  0  0  0  0  0
    3.4242   -2.4956    0.2815 O   0  0  0  0  0  0  0  0  0  0  0  0
    3.0658   -0.0818    0.2951 C   0  0  0  0  0  0  0  0  0  0  0  0
    2.8103    0.6762    1.3895 C   0  0  0  0  0  0  0  0  0  0  0  0
    3.1672    2.0242    1.5247 C   0  0  0  0  0  0  0  0  0  0  0  0
    3.7562    2.6373    0.4273 C   0  0  0  0  0  0  0  0  0  0  0  0
    4.3064    1.7643   -0.5038 C   0  0  0  0  0  0  0  0  0  0  0  0
    3.7118    0.5557   -0.7575 C   0  0  0  0  0  0  0  0  0  0  0  0
   -1.3713    0.9600   -0.2005 C   0  0  0  0  0  0  0  0  0  0  0  0
   -1.7726   -0.5180   -0.8635 C   0  0  1  0  0  0  0  0  0  0  0  0
   -2.0535   -0.8590    0.6819 C   0  0  2  0  0  0  0  0  0  0  0  0
   -3.2845   -0.7118   -0.3841 O   0  0  0  0  0  0  0  0  0  0  0  0
   -2.7564    0.8117    0.2256 C   0  0  1  0  0  0  0  0  0  0  0  0
  1  2  1  0
  2  3  1  0
  2  4  1  0
  4  5  1  1
  5  6  1  0
  6  7  1  0
  7  8  1  0
  8  9  2  0
 10  8  1  1
 10 11  1  0
 11 12  1  0
 10 13  1  0
 13 14  2  0
 14 15  1  0
 15 16  2  0
 16 17  1  0
 17 18  2  0
  6 19  1  0
 20 19  1  1
 20 21  1  0
 21 22  1  6
 23 22  1  6
 20  2  1  0
 23 21  1  0
 23  4  1  0
 18 13  1  0
M  CHG  1   2   1
M  END
>  <supplier_code>  (327) 
DB00462

>  <zinc_id>  (327) 
ZINC000100036756

>  <catalog_short_name>  (327) 
dbfda

$$$$

     RDKit          3D

 23 26  0  0  0  0  0  0  0  0999 V2000
   -2.2591    0.3064    1.4866 C   0  0  0  0  0  0  0  0  0  0  0  0
   -2.1961   -0.0148    1.1617 N   0  0  0  0  0  0  0  0  0  0  0  0
   -2.9512   -0.6642    2.1200 C   0  0  0  0  0  0  0  0  0  0  0  0
   -3.0362    0.8506    0.1461 C   0  0  1  0  0  0  0  0  0  0  0  0
   -2.5358    0.2755   -1.3000 C   0  0  0  0  0  0  0  0  0  0  0  0
   -1.0090   -0.3509   -1.2436 C   0  0  1  0  0  0  0  0  0  0  0  0
   -0.4895    0.6929   -0.2448 O   0  0  0  0  0  0  0  0  0  0  0  0
    0.8665    0.9566   -0.3886 C   0  0  0  0  0  0  0  0  0  0  0  0
    1.3760    0.2772   -1.2788 O   0  0  0  0  0  0  0  0  0  0  0  0
    1.6282    1.1403    1.0150 C   0  0  2  0  0  0  0  0  0  0  0  0
    2.3118    2.5886    0.6703 C   0  0  0  0  0  0  0  0  0  0  0  0
    2.3876    2.7821   -0.6702 O   0  0  0  0  0  0  0  0  0  0  0  0
    2.9484    0.2961    0.6389 C   0  0  0  0  0  0  0  0  0  0  0  0
    3.6064    0.5739   -0.4880 C   0  0  0  0  0  0  0  0  0  0  0  0
    4.6399   -0.2853   -0.8289 C   0  0  0  0  0  0  0  0  0  0  0  0
    4.7650   -1.5025   -0.1958 C   0  0  0  0  0  0  0  0  0  0  0  0
    3.7259   -1.9454    0.5841 C   0  0  0  0  0  0  0  0  0  0  0  0
    2.7303   -1.0416    0.9311 C   0  0  0  0  0  0  0  0  0  0  0  0
   -1.2027   -1.6116   -0.1301 C   0  0  0  0  0  0  0  0  0  0  0  0
   -2.4831   -0.7062   -0.2225 C   0  0  1  0  0  0  0  0  0  0  0  0
   -3.7660   -1.6003    0.3769 C   0  0  2  0  0  0  0  0  0  0  0  0
   -4.5943   -0.9413   -0.9030 O   0  0  0  0  0  0  0  0  0  0  0  0
   -4.4629   -0.0760    0.4835 C   0  0  2  0  0  0  0  0  0  0  0  0
  1  2  1  0
  2  3  1  0
  2  4  1  0
  4  5  1  6
  5  6  1  0
  6  7  1  1
  7  8  1  0
  8  9  2  0
 10  8  1  6
 10 11  1  0
 11 12  1  0
 10 13  1  0
 13 14  2  0
 14 15  1  0
 15 16  2  0
 16 17  1  0
 17 18  2  0
  6 19  1  0
 20 19  1  1
 20 21  1  0
 21 22  1  6
 23 22  1  6
 20  2  1  0
 23 21  1  0
 23  4  1  0
 18 13  1  0
M  CHG  1   2   1
M  END
>  <supplier_code>  (328) 
DB00462

>  <zinc_id>  (328) 
ZINC000100036760

>  <catalog_short_name>  (328) 
dbfda

$$$$

     RDKit          3D

 19 21  0  0  0  0  0  0  0  0999 V2000
    4.9257    0.0890    0.7983 O   0  0  0  0  0  0  0  0  0  0  0  0
    4.2799    0.4812   -0.1937 C   0  0  0  0  0  0  0  0  0  0  0  0
    5.0979    0.9710   -1.2199 O   0  0  0  0  0  0  0  0  0  0  0  0
    3.1861   -0.6088   -0.6475 C   0  0  2  0  0  0  0  0  0  0  0  0
    2.6692    0.3106   -1.8967 C   0  0  0  0  0  0  0  0  0  0  0  0
    1.2402    0.4710   -1.6672 C   0  0  0  0  0  0  0  0  0  0  0  0
    0.9566   -0.1285   -0.4011 N   0  0  0  0  0  0  0  0  0  0  0  0
   -0.1096   -0.4873    0.3231 C   0  0  0  0  0  0  0  0  0  0  0  0
   -1.4257   -0.8215   -0.2355 C   0  0  0  0  0  0  0  0  0  0  0  0
   -1.4457   -1.3258   -1.3994 O   0  0  0  0  0  0  0  0  0  0  0  0
   -2.6498   -0.1351    0.1577 C   0  0  0  0  0  0  0  0  0  0  0  0
   -3.7636   -0.9651    0.2217 C   0  0  0  0  0  0  0  0  0  0  0  0
   -4.9794   -0.5072    0.6475 C   0  0  0  0  0  0  0  0  0  0  0  0
   -5.0984    0.8633    0.8243 C   0  0  0  0  0  0  0  0  0  0  0  0
   -4.0805    1.7060    0.4260 C   0  0  0  0  0  0  0  0  0  0  0  0
   -2.8572    1.2140   -0.0144 C   0  0  0  0  0  0  0  0  0  0  0  0
    0.3017   -0.5729    1.6246 C   0  0  0  0  0  0  0  0  0  0  0  0
    1.6900   -0.5455    1.5688 C   0  0  0  0  0  0  0  0  0  0  0  0
    2.0626   -0.0083    0.3380 C   0  0  0  0  0  0  0  0  0  0  0  0
  1  2  2  0
  2  3  1  0
  4  2  1  1
  4  5  1  0
  5  6  1  0
  6  7  1  0
  7  8  1  0
  8  9  1  0
  9 10  2  0
  9 11  1  0
 11 12  2  0
 12 13  1  0
 13 14  2  0
 14 15  1  0
 15 16  2  0
  8 17  2  0
 17 18  1  0
 18 19  2  0
 19  4  1  0
 19  7  1  0
 16 11  1  0
M  END
>  <supplier_code>  (329) 
DB00465

>  <zinc_id>  (329) 
ZINC000000002279

>  <catalog_short_name>  (329) 
dbfda

$$$$

     RDKit          3D

 19 21  0  0  0  0  0  0  0  0999 V2000
    3.1662    0.9523    0.9858 O   0  0  0  0  0  0  0  0  0  0  0  0
    3.5744    0.9358    0.5268 C   0  0  0  0  0  0  0  0  0  0  0  0
    4.7792    1.6247    0.3313 O   0  0  0  0  0  0  0  0  0  0  0  0
    3.3044   -0.1051   -0.7104 C   0  0  1  0  0  0  0  0  0  0  0  0
    3.0966   -1.3761    0.3479 C   0  0  0  0  0  0  0  0  0  0  0  0
    1.8882   -0.9011    1.0902 C   0  0  0  0  0  0  0  0  0  0  0  0
    1.0933   -0.6820   -0.1179 N   0  0  0  0  0  0  0  0  0  0  0  0
   -0.1700   -0.7530   -0.5222 C   0  0  0  0  0  0  0  0  0  0  0  0
   -1.3038   -1.2980    0.2319 C   0  0  0  0  0  0  0  0  0  0  0  0
   -1.0960   -2.2394    1.0230 O   0  0  0  0  0  0  0  0  0  0  0  0
   -2.5143   -0.4748    0.3155 C   0  0  0  0  0  0  0  0  0  0  0  0
   -2.3662    0.7645    0.9180 C   0  0  0  0  0  0  0  0  0  0  0  0
   -3.3815    1.6725    0.7482 C   0  0  0  0  0  0  0  0  0  0  0  0
   -4.5251    1.3725    0.0330 C   0  0  0  0  0  0  0  0  0  0  0  0
   -4.4256    0.3249   -0.8667 C   0  0  0  0  0  0  0  0  0  0  0  0
   -3.5362   -0.6890   -0.5981 C   0  0  0  0  0  0  0  0  0  0  0  0
   -0.2739    0.0130   -1.6547 C   0  0  0  0  0  0  0  0  0  0  0  0
    0.9735    0.5827   -1.8785 C   0  0  0  0  0  0  0  0  0  0  0  0
    1.7168    0.2758   -0.7426 C   0  0  0  0  0  0  0  0  0  0  0  0
  1  2  2  0
  2  3  1  0
  4  2  1  1
  4  5  1  0
  5  6  1  0
  6  7  1  0
  7  8  1  0
  8  9  1  0
  9 10  2  0
  9 11  1  0
 11 12  2  0
 12 13  1  0
 13 14  2  0
 14 15  1  0
 15 16  2  0
  8 17  2  0
 17 18  1  0
 18 19  2  0
 19  4  1  0
 19  7  1  0
 16 11  1  0
M  END
>  <supplier_code>  (330) 
DB00465

>  <zinc_id>  (330) 
ZINC000000011012

>  <catalog_short_name>  (330) 
dbfda

$$$$

     RDKit          3D

 24 27  0  0  0  0  0  0  0  0999 V2000
    5.4272   -1.3966    1.0593 C   0  0  0  0  0  0  0  0  0  0  0  0
    4.9923   -0.8416   -0.0643 C   0  0  0  0  0  0  0  0  0  0  0  0
    3.6220   -1.6165   -0.4171 C   0  0  1  0  0  0  0  0  0  0  0  0
    2.7747   -0.8602    0.8044 C   0  0  0  0  0  0  0  0  0  0  0  0
    2.2882    0.4086    0.2042 N   0  0  0  0  0  0  0  0  0  0  0  0
    3.3333    1.2253   -0.4793 C   0  0  0  0  0  0  0  0  0  0  0  0
    3.9599    0.5298   -1.7803 C   0  0  0  0  0  0  0  0  0  0  0  0
    2.8359   -0.2289   -0.9730 C   0  0  1  0  0  0  0  0  0  0  0  0
    1.8027   -0.8460   -1.9933 C   0  0  0  0  0  0  0  0  0  0  0  0
    1.1209    0.1527   -0.8235 C   0  0  1  0  0  0  0  0  0  0  0  0
    0.4743   -1.1142    0.1269 C   0  0  2  0  0  0  0  0  0  0  0  0
   -0.4077   -1.5651   -1.0185 O   0  0  0  0  0  0  0  0  0  0  0  0
   -0.5701   -0.0962    0.7961 C   0  0  0  0  0  0  0  0  0  0  0  0
   -0.1486    0.6504    1.8528 C   0  0  0  0  0  0  0  0  0  0  0  0
   -1.0348    1.6625    2.2215 C   0  0  0  0  0  0  0  0  0  0  0  0
   -1.9365    2.1114    1.3083 N   0  0  0  0  0  0  0  0  0  0  0  0
   -2.5047    1.2016    0.5239 C   0  0  0  0  0  0  0  0  0  0  0  0
   -3.4396    1.4692   -0.4705 C   0  0  0  0  0  0  0  0  0  0  0  0
   -4.1109    0.3510   -0.9639 C   0  0  0  0  0  0  0  0  0  0  0  0
   -3.7543   -0.9387   -0.5745 C   0  0  0  0  0  0  0  0  0  0  0  0
   -4.7573   -1.8689   -0.2680 O   0  0  0  0  0  0  0  0  0  0  0  0
   -5.7080   -1.6065    0.7632 C   0  0  0  0  0  0  0  0  0  0  0  0
   -2.4219   -1.1257   -0.2132 C   0  0  0  0  0  0  0  0  0  0  0  0
   -1.8368   -0.0120    0.3787 C   0  0  0  0  0  0  0  0  0  0  0  0
  1  2  2  0
  3  2  1  1
  3  4  1  0
  4  5  1  0
  5  6  1  0
  6  7  1  0
  8  7  1  6
  8  9  1  0
 10  9  1  6
 10 11  1  0
 11 12  1  6
 11 13  1  0
 13 14  2  0
 14 15  1  0
 15 16  2  0
 16 17  1  0
 17 18  2  0
 18 19  1  0
 19 20  2  0
 20 21  1  0
 21 22  1  0
 20 23  1  0
 23 24  2  0
  8  3  1  0
 24 13  1  0
 10  5  1  0
 24 17  1  0
M  END
>  <supplier_code>  (331) 
DB00468

>  <zinc_id>  (331) 
ZINC000003831404

>  <catalog_short_name>  (331) 
dbfda

$$$$

     RDKit          3D

 23 25  0  0  0  0  0  0  0  0999 V2000
    5.9743    0.9757    0.4987 C   0  0  0  0  0  0  0  0  0  0  0  0
    5.8701    0.7682    0.0399 C   0  0  0  0  0  0  0  0  0  0  0  0
    5.1726    0.4878   -1.2648 C   0  0  0  0  0  0  0  0  0  0  0  0
    3.7244    0.1210   -1.0930 C   0  0  0  0  0  0  0  0  0  0  0  0
    3.2380    0.3746    0.3280 C   0  0  0  0  0  0  0  0  0  0  0  0
    1.8143   -0.0617    0.3944 C   0  0  0  0  0  0  0  0  0  0  0  0
    1.5130   -1.3947    0.5000 C   0  0  0  0  0  0  0  0  0  0  0  0
    0.2064   -1.8021    0.4577 C   0  0  0  0  0  0  0  0  0  0  0  0
   -0.0440   -3.1623    0.5039 O   0  0  0  0  0  0  0  0  0  0  0  0
   -0.7344   -0.8099    0.3477 C   0  0  0  0  0  0  0  0  0  0  0  0
   -0.4145    0.5510    0.5103 C   0  0  0  0  0  0  0  0  0  0  0  0
    0.8800    0.8747    0.6388 C   0  0  0  0  0  0  0  0  0  0  0  0
   -1.4906    1.4818    0.7410 O   0  0  0  0  0  0  0  0  0  0  0  0
   -2.8380    1.1599    0.4091 C   0  0  0  0  0  0  0  0  0  0  0  0
   -3.3683    1.5586    1.8398 C   0  0  0  0  0  0  0  0  0  0  0  0
   -3.7717    1.9875   -0.2086 C   0  0  0  0  0  0  0  0  0  0  0  0
   -3.3348   -0.3957    0.7052 C   0  0  2  0  0  0  0  0  0  0  0  0
   -2.0816   -0.3515    1.4904 C   0  0  0  0  0  0  0  0  0  0  0  0
   -2.2431   -0.1158   -0.0695 C   0  0  0  0  0  0  0  0  0  0  0  0
   -1.9611   -0.1231   -1.3203 C   0  0  0  0  0  0  0  0  0  0  0  0
   -1.5451    0.6361   -2.4955 C   0  0  0  0  0  0  0  0  0  0  0  0
   -2.4157   -1.2353   -1.5091 C   0  0  0  0  0  0  0  0  0  0  0  0
   -2.1500   -1.5246    0.0388 C   0  0  1  0  0  0  0  0  0  0  0  0
  1  2  1  0
  2  3  1  0
  3  4  1  0
  4  5  1  0
  5  6  1  0
  6  7  2  0
  7  8  1  0
  8  9  1  0
  8 10  2  0
 10 11  1  0
 11 12  2  0
 11 13  1  0
 13 14  1  0
 14 15  1  0
 14 16  1  0
 17 14  1  6
 17 18  1  0
 18 19  1  0
 19 20  1  0
 20 21  1  0
 20 22  2  0
 23 22  1  6
 12  6  1  0
 23 17  1  0
 23 10  1  0
M  END
>  <supplier_code>  (332) 
DB00470

>  <zinc_id>  (332) 
ZINC000001530625

>  <catalog_short_name>  (332) 
dbfda

$$$$

     RDKit          3D

 41 45  0  0  0  0  0  0  0  0999 V2000
   -5.6010    4.4225    0.8196 C   0  0  0  0  0  0  0  0  0  0  0  0
   -4.8527    3.9169    1.0626 C   0  0  0  0  0  0  0  0  0  0  0  0
   -3.9073    4.6562    2.0031 C   0  0  0  0  0  0  0  0  0  0  0  0
   -5.2338    2.7523    1.7470 O   0  0  0  0  0  0  0  0  0  0  0  0
   -4.0203    3.5200   -0.1158 C   0  0  0  0  0  0  0  0  0  0  0  0
   -3.4848    4.5141   -0.9226 C   0  0  0  0  0  0  0  0  0  0  0  0
   -2.8963    4.1859   -2.1377 C   0  0  0  0  0  0  0  0  0  0  0  0
   -3.2131    2.9600   -2.7027 C   0  0  0  0  0  0  0  0  0  0  0  0
   -3.9028    1.9979   -1.9753 C   0  0  0  0  0  0  0  0  0  0  0  0
   -4.2984    2.2793   -0.6761 C   0  0  0  0  0  0  0  0  0  0  0  0
   -4.3442    1.1399    0.2931 C   0  0  0  0  0  0  0  0  0  0  0  0
   -2.9298    0.9291    0.7776 C   0  0  0  0  0  0  0  0  0  0  0  0
   -2.7070   -0.6429    0.9549 C   0  0  1  0  0  0  0  0  0  0  0  0
   -2.7072   -1.0041   -0.9262 S   0  0  0  0  0  0  0  0  0  0  0  0
   -3.0329   -2.7505   -1.1644 C   0  0  0  0  0  0  0  0  0  0  0  0
   -2.4194   -3.6349   -0.1209 C   0  0  0  0  0  0  0  0  0  0  0  0
   -3.4196   -4.2305    0.8447 C   0  0  0  0  0  0  0  0  0  0  0  0
   -3.9308   -5.4947    0.2317 C   0  0  0  0  0  0  0  0  0  0  0  0
   -3.1839   -6.5065    0.0730 O   0  0  0  0  0  0  0  0  0  0  0  0
   -5.2912   -5.7619    0.3512 O   0  0  0  0  0  0  0  0  0  0  0  0
   -0.9701   -3.7043    0.1203 C   0  0  0  0  0  0  0  0  0  0  0  0
   -1.5391   -4.7433   -0.7637 C   0  0  0  0  0  0  0  0  0  0  0  0
   -1.1497   -0.5495    1.0868 C   0  0  0  0  0  0  0  0  0  0  0  0
   -0.6977   -0.5527    2.4007 C   0  0  0  0  0  0  0  0  0  0  0  0
    0.5459   -0.0440    2.6943 C   0  0  0  0  0  0  0  0  0  0  0  0
    1.3623    0.4087    1.6798 C   0  0  0  0  0  0  0  0  0  0  0  0
    0.9444    0.2420    0.3653 C   0  0  0  0  0  0  0  0  0  0  0  0
    1.8644    0.4380   -0.7464 C   0  0  0  0  0  0  0  0  0  0  0  0
    2.6958   -0.4713   -1.1963 C   0  0  0  0  0  0  0  0  0  0  0  0
    4.1356   -0.2388   -1.3759 C   0  0  0  0  0  0  0  0  0  0  0  0
    4.5902    0.9382   -1.9467 C   0  0  0  0  0  0  0  0  0  0  0  0
    5.7152    1.6052   -1.4853 C   0  0  0  0  0  0  0  0  0  0  0  0
    6.4109    1.0554   -0.4266 C   0  0  0  0  0  0  0  0  0  0  0  0
    7.6050    1.5963    0.0192 C   0  0  0  0  0  0  0  0  0  0  0  0
    8.4857    0.8059    0.7161 C   0  0  0  0  0  0  0  0  0  0  0  0
    8.2659   -0.5521    0.8853 C   0  0  0  0  0  0  0  0  0  0  0  0
    9.5831   -1.6821    1.1658 Cl  0  0  0  0  0  0  0  0  0  0  0  0
    6.9592   -0.9862    0.7098 C   0  0  0  0  0  0  0  0  0  0  0  0
    6.0674   -0.1995    0.0005 C   0  0  0  0  0  0  0  0  0  0  0  0
    4.9357   -0.7994   -0.4378 N   0  0  0  0  0  0  0  0  0  0  0  0
   -0.4341    0.1853    0.1913 C   0  0  0  0  0  0  0  0  0  0  0  0
  1  2  1  0
  2  3  1  0
  2  4  1  0
  2  5  1  0
  5  6  2  0
  6  7  1  0
  7  8  2  0
  8  9  1  0
  9 10  2  0
 10 11  1  0
 11 12  1  0
 13 12  1  6
 13 14  1  0
 14 15  1  0
 15 16  1  0
 16 17  1  0
 17 18  1  0
 18 19  2  0
 18 20  1  0
 16 21  1  0
 21 22  1  0
 13 23  1  0
 23 24  2  0
 24 25  1  0
 25 26  2  0
 26 27  1  0
 27 28  1  0
 28 29  2  0
 29 30  1  0
 30 31  2  0
 31 32  1  0
 32 33  2  0
 33 34  1  0
 34 35  2  0
 35 36  1  0
 36 37  1  0
 36 38  2  0
 38 39  1  0
 39 40  2  0
 27 41  2  0
 10  5  1  0
 22 16  1  0
 41 23  1  0
 40 30  1  0
 39 33  1  0
M  END
>  <supplier_code>  (333) 
DB00471

>  <zinc_id>  (333) 
ZINC000003831151

>  <catalog_short_name>  (333) 
dbfda

$$$$

     RDKit          3D

 22 23  0  0  0  0  0  0  0  0999 V2000
   -2.6353   -1.6959    3.8742 C   0  0  0  0  0  0  0  0  0  0  0  0
   -2.6578   -2.4839    2.7445 N   0  0  0  0  0  0  0  0  0  0  0  0
   -3.1068   -1.7817    1.5574 C   0  0  0  0  0  0  0  0  0  0  0  0
   -2.5742   -0.3523    1.5062 C   0  0  0  0  0  0  0  0  0  0  0  0
   -1.5601   -0.4521    0.1654 C   0  0  2  0  0  0  0  0  0  0  0  0
   -0.6453    0.6922    0.7355 O   0  0  0  0  0  0  0  0  0  0  0  0
    0.6928    0.5217    0.4409 C   0  0  0  0  0  0  0  0  0  0  0  0
    1.6042    0.6756    1.4671 C   0  0  0  0  0  0  0  0  0  0  0  0
    2.9242    0.3196    1.2582 C   0  0  0  0  0  0  0  0  0  0  0  0
    3.3237   -0.0527    0.0058 C   0  0  0  0  0  0  0  0  0  0  0  0
    4.7502   -0.2848   -0.2815 C   0  0  0  0  0  0  0  0  0  0  0  0
    4.9161   -0.8641   -1.5271 F   0  0  0  0  0  0  0  0  0  0  0  0
    5.3980   -1.0144    0.6754 F   0  0  0  0  0  0  0  0  0  0  0  0
    5.3575    0.9620   -0.3305 F   0  0  0  0  0  0  0  0  0  0  0  0
    2.3997   -0.2475   -0.9784 C   0  0  0  0  0  0  0  0  0  0  0  0
    1.0825    0.0284   -0.7700 C   0  0  0  0  0  0  0  0  0  0  0  0
   -2.4562    0.6434   -0.6859 C   0  0  0  0  0  0  0  0  0  0  0  0
   -3.7962    0.2899   -0.7464 C   0  0  0  0  0  0  0  0  0  0  0  0
   -4.5558    1.0923   -1.5898 C   0  0  0  0  0  0  0  0  0  0  0  0
   -3.9740    1.5954   -2.7434 C   0  0  0  0  0  0  0  0  0  0  0  0
   -2.6013    1.6069   -2.8284 C   0  0  0  0  0  0  0  0  0  0  0  0
   -1.8858    0.8018   -1.9491 C   0  0  0  0  0  0  0  0  0  0  0  0
  1  2  1  0
  2  3  1  0
  3  4  1  0
  5  4  1  1
  5  6  1  0
  6  7  1  0
  7  8  2  0
  8  9  1  0
  9 10  2  0
 10 11  1  0
 11 12  1  0
 11 13  1  0
 11 14  1  0
 10 15  1  0
 15 16  2  0
  5 17  1  0
 17 18  2  0
 18 19  1  0
 19 20  2  0
 20 21  1  0
 21 22  2  0
 16  7  1  0
 22 17  1  0
M  END
>  <supplier_code>  (334) 
DB00472

>  <zinc_id>  (334) 
ZINC000001530637

>  <catalog_short_name>  (334) 
dbfda

$$$$

     RDKit          3D

 22 23  0  0  0  0  0  0  0  0999 V2000
   -3.2017    3.4168    0.3882 C   0  0  0  0  0  0  0  0  0  0  0  0
   -2.7846    2.9575    0.3975 N   0  0  0  0  0  0  0  0  0  0  0  0
   -2.3703    2.1914    1.5470 C   0  0  0  0  0  0  0  0  0  0  0  0
   -1.2856    1.1806    1.1861 C   0  0  0  0  0  0  0  0  0  0  0  0
   -1.8645    0.6269   -0.2962 C   0  0  1  0  0  0  0  0  0  0  0  0
   -0.6888   -0.4076   -0.4492 O   0  0  0  0  0  0  0  0  0  0  0  0
    0.5667    0.1636   -0.5044 C   0  0  0  0  0  0  0  0  0  0  0  0
    1.2247    0.3503    0.7075 C   0  0  0  0  0  0  0  0  0  0  0  0
    2.5878    0.3933    0.8225 C   0  0  0  0  0  0  0  0  0  0  0  0
    3.3466   -0.1716   -0.1689 C   0  0  0  0  0  0  0  0  0  0  0  0
    4.8089   -0.0051   -0.0958 C   0  0  0  0  0  0  0  0  0  0  0  0
    5.3882   -0.4482   -1.2805 F   0  0  0  0  0  0  0  0  0  0  0  0
    5.3493   -0.6792    0.9673 F   0  0  0  0  0  0  0  0  0  0  0  0
    5.0626    1.3544    0.0592 F   0  0  0  0  0  0  0  0  0  0  0  0
    2.7314   -0.6205   -1.3025 C   0  0  0  0  0  0  0  0  0  0  0  0
    1.4061   -0.2968   -1.5145 C   0  0  0  0  0  0  0  0  0  0  0  0
   -2.8523   -0.4653    0.4414 C   0  0  0  0  0  0  0  0  0  0  0  0
   -3.9436   -0.8256   -0.3051 C   0  0  0  0  0  0  0  0  0  0  0  0
   -4.4621   -2.0975   -0.0730 C   0  0  0  0  0  0  0  0  0  0  0  0
   -3.7183   -2.9783    0.7070 C   0  0  0  0  0  0  0  0  0  0  0  0
   -3.0059   -2.3912    1.7478 C   0  0  0  0  0  0  0  0  0  0  0  0
   -2.2944   -1.2479    1.3912 C   0  0  0  0  0  0  0  0  0  0  0  0
  1  2  1  0
  2  3  1  0
  3  4  1  0
  5  4  1  1
  5  6  1  0
  6  7  1  0
  7  8  2  0
  8  9  1  0
  9 10  2  0
 10 11  1  0
 11 12  1  0
 11 13  1  0
 11 14  1  0
 10 15  1  0
 15 16  2  0
  5 17  1  0
 17 18  2  0
 18 19  1  0
 19 20  2  0
 20 21  1  0
 21 22  2  0
 16  7  1  0
 22 17  1  0
M  END
>  <supplier_code>  (335) 
DB00472

>  <zinc_id>  (335) 
ZINC000001530638

>  <catalog_short_name>  (335) 
dbfda

$$$$

     RDKit          3D

 19 19  0  0  0  0  0  0  0  0999 V2000
   -1.5019   -3.1485   -1.0681 C   0  0  0  0  0  0  0  0  0  0  0  0
   -1.1566   -2.7049   -0.9353 C   0  0  0  0  0  0  0  0  0  0  0  0
   -0.0253   -1.7628   -0.7898 C   0  0  0  0  0  0  0  0  0  0  0  0
   -0.3775   -0.4403   -0.2115 C   0  0  2  0  0  0  0  0  0  0  0  0
    0.8421   -0.0660    0.8608 C   0  0  1  0  0  0  0  0  0  0  0  0
    0.7882   -1.5844    1.5468 C   0  0  0  0  0  0  0  0  0  0  0  0
    1.9921   -0.5177   -0.1733 C   0  0  0  0  0  0  0  0  0  0  0  0
    3.1316   -0.2758   -0.5260 C   0  0  0  0  0  0  0  0  0  0  0  0
    4.5436   -0.0949   -0.8329 C   0  0  0  0  0  0  0  0  0  0  0  0
    4.9203    1.3094   -0.3951 C   0  0  0  0  0  0  0  0  0  0  0  0
   -1.6038   -0.4409    0.6165 C   0  0  0  0  0  0  0  0  0  0  0  0
   -1.9109   -1.4845    1.2235 O   0  0  0  0  0  0  0  0  0  0  0  0
   -2.0890    0.8102    1.0842 N   0  0  0  0  0  0  0  0  0  0  0  0
   -1.9712    1.9128    0.1800 C   0  0  0  0  0  0  0  0  0  0  0  0
   -2.4220    3.0556    0.4652 O   0  0  0  0  0  0  0  0  0  0  0  0
   -1.3523    1.7032   -1.0745 N   0  0  0  0  0  0  0  0  0  0  0  0
   -1.5289    2.6300   -2.1889 C   0  0  0  0  0  0  0  0  0  0  0  0
   -0.3617    0.6738   -1.1824 C   0  0  0  0  0  0  0  0  0  0  0  0
    0.0833    0.4258   -2.3383 O   0  0  0  0  0  0  0  0  0  0  0  0
  1  2  2  0
  2  3  1  0
  4  3  1  6
  4  5  1  0
  5  6  1  1
  5  7  1  0
  7  8  3  0
  8  9  1  0
  9 10  1  0
  4 11  1  0
 11 12  2  0
 11 13  1  0
 13 14  1  0
 14 15  2  0
 14 16  1  0
 16 17  1  0
 16 18  1  0
 18 19  2  0
 18  4  1  0
M  END
>  <supplier_code>  (336) 
DB00474

>  <zinc_id>  (336) 
ZINC000001530929

>  <catalog_short_name>  (336) 
dbfda

$$$$

     RDKit          3D

 19 19  0  0  0  0  0  0  0  0999 V2000
   -1.2635    3.7025    0.1098 C   0  0  0  0  0  0  0  0  0  0  0  0
   -1.1575    2.6663   -0.1231 C   0  0  0  0  0  0  0  0  0  0  0  0
   -1.3287    1.4028    0.6179 C   0  0  0  0  0  0  0  0  0  0  0  0
   -0.3329    0.3326    0.2504 C   0  0  1  0  0  0  0  0  0  0  0  0
    1.0095    1.1864    0.0022 C   0  0  2  0  0  0  0  0  0  0  0  0
    0.7779    1.3173   -1.6224 C   0  0  0  0  0  0  0  0  0  0  0  0
    1.9678   -0.0749   -0.1635 C   0  0  0  0  0  0  0  0  0  0  0  0
    3.1329   -0.2380    0.1709 C   0  0  0  0  0  0  0  0  0  0  0  0
    4.5538   -0.6095    0.2245 C   0  0  0  0  0  0  0  0  0  0  0  0
    5.3728    0.6153   -0.0890 C   0  0  0  0  0  0  0  0  0  0  0  0
   -0.2043   -0.6057    1.3544 C   0  0  0  0  0  0  0  0  0  0  0  0
    0.7133   -1.4747    1.4980 O   0  0  0  0  0  0  0  0  0  0  0  0
   -1.5062   -1.1525    1.6700 N   0  0  0  0  0  0  0  0  0  0  0  0
   -2.5585   -1.1755    0.6868 C   0  0  0  0  0  0  0  0  0  0  0  0
   -3.7325   -1.5228    0.9222 O   0  0  0  0  0  0  0  0  0  0  0  0
   -2.0367   -1.0390   -0.6487 N   0  0  0  0  0  0  0  0  0  0  0  0
   -2.7005   -1.7526   -1.7286 C   0  0  0  0  0  0  0  0  0  0  0  0
   -0.7570   -0.4279   -0.8989 C   0  0  0  0  0  0  0  0  0  0  0  0
    0.0503   -1.1501   -1.5632 O   0  0  0  0  0  0  0  0  0  0  0  0
  1  2  2  0
  2  3  1  0
  4  3  1  1
  4  5  1  0
  5  6  1  6
  5  7  1  0
  7  8  3  0
  8  9  1  0
  9 10  1  0
  4 11  1  0
 11 12  2  0
 11 13  1  0
 13 14  1  0
 14 15  2  0
 14 16  1  0
 16 17  1  0
 16 18  1  0
 18 19  2  0
 18  4  1  0
M  END
>  <supplier_code>  (337) 
DB00474

>  <zinc_id>  (337) 
ZINC000001530930

>  <catalog_short_name>  (337) 
dbfda

$$$$

     RDKit          3D

 19 19  0  0  0  0  0  0  0  0999 V2000
   -1.1119    3.7546    1.0873 C   0  0  0  0  0  0  0  0  0  0  0  0
   -1.1523    2.7447    0.2271 C   0  0  0  0  0  0  0  0  0  0  0  0
    0.0362    1.9059   -0.0262 C   0  0  0  0  0  0  0  0  0  0  0  0
   -0.3807    0.5116   -0.1444 C   0  0  1  0  0  0  0  0  0  0  0  0
    0.7786   -0.3088   -0.9890 C   0  0  1  0  0  0  0  0  0  0  0  0
    1.0807    0.9603   -2.0134 C   0  0  0  0  0  0  0  0  0  0  0  0
    1.9238    0.1440    0.0398 C   0  0  0  0  0  0  0  0  0  0  0  0
    2.9545   -0.3144    0.5055 C   0  0  0  0  0  0  0  0  0  0  0  0
    4.3646   -0.7555    0.5393 C   0  0  0  0  0  0  0  0  0  0  0  0
    4.8958   -0.4003    1.8945 C   0  0  0  0  0  0  0  0  0  0  0  0
   -0.4314   -0.1498    1.1853 C   0  0  0  0  0  0  0  0  0  0  0  0
   -0.6730    0.6204    2.1657 O   0  0  0  0  0  0  0  0  0  0  0  0
   -0.8941   -1.5068    1.2284 N   0  0  0  0  0  0  0  0  0  0  0  0
   -1.4446   -2.0757    0.0348 C   0  0  0  0  0  0  0  0  0  0  0  0
   -1.8763   -3.2475    0.1267 O   0  0  0  0  0  0  0  0  0  0  0  0
   -1.9821   -1.1546   -0.9196 N   0  0  0  0  0  0  0  0  0  0  0  0
   -2.9282   -1.7046   -1.8665 C   0  0  0  0  0  0  0  0  0  0  0  0
   -1.5609    0.2173   -0.9643 C   0  0  0  0  0  0  0  0  0  0  0  0
   -1.5988    0.7591   -2.1110 O   0  0  0  0  0  0  0  0  0  0  0  0
  1  2  2  0
  2  3  1  0
  4  3  1  1
  4  5  1  0
  5  6  1  6
  5  7  1  0
  7  8  3  0
  8  9  1  0
  9 10  1  0
  4 11  1  0
 11 12  2  0
 11 13  1  0
 13 14  1  0
 14 15  2  0
 14 16  1  0
 16 17  1  0
 16 18  1  0
 18 19  2  0
 18  4  1  0
M  END
>  <supplier_code>  (338) 
DB00474

>  <zinc_id>  (338) 
ZINC000003876068

>  <catalog_short_name>  (338) 
dbfda

$$$$

     RDKit          3D

 19 19  0  0  0  0  0  0  0  0999 V2000
    0.9229    3.2827    0.0020 C   0  0  0  0  0  0  0  0  0  0  0  0
    0.4103    2.7987    1.0400 C   0  0  0  0  0  0  0  0  0  0  0  0
    0.2632    1.3815    1.4188 C   0  0  0  0  0  0  0  0  0  0  0  0
   -0.3800    0.5288    0.3622 C   0  0  2  0  0  0  0  0  0  0  0  0
    0.7163    0.5087   -0.8883 C   0  0  2  0  0  0  0  0  0  0  0  0
    0.4171   -1.0780   -1.3130 C   0  0  0  0  0  0  0  0  0  0  0  0
    1.9173    0.0715    0.0960 C   0  0  0  0  0  0  0  0  0  0  0  0
    3.1333    0.1151    0.2032 C   0  0  0  0  0  0  0  0  0  0  0  0
    4.5400   -0.3003    0.3634 C   0  0  0  0  0  0  0  0  0  0  0  0
    4.7543   -1.7347   -0.1033 C   0  0  0  0  0  0  0  0  0  0  0  0
   -1.5886    1.1845   -0.2040 C   0  0  0  0  0  0  0  0  0  0  0  0
   -1.9789    2.2622    0.3442 O   0  0  0  0  0  0  0  0  0  0  0  0
   -2.6041    0.3620   -0.7915 N   0  0  0  0  0  0  0  0  0  0  0  0
   -2.7357   -1.0295   -0.4714 C   0  0  0  0  0  0  0  0  0  0  0  0
   -3.6149   -1.7547   -1.0289 O   0  0  0  0  0  0  0  0  0  0  0  0
   -1.6701   -1.5938    0.2791 N   0  0  0  0  0  0  0  0  0  0  0  0
   -1.6907   -3.0356    0.4647 C   0  0  0  0  0  0  0  0  0  0  0  0
   -0.5949   -0.8164    0.8194 C   0  0  0  0  0  0  0  0  0  0  0  0
   -0.2166   -1.1525    1.9807 O   0  0  0  0  0  0  0  0  0  0  0  0
  1  2  2  0
  2  3  1  0
  4  3  1  1
  4  5  1  0
  5  6  1  6
  5  7  1  0
  7  8  3  0
  8  9  1  0
  9 10  1  0
  4 11  1  0
 11 12  2  0
 11 13  1  0
 13 14  1  0
 14 15  2  0
 14 16  1  0
 16 17  1  0
 16 18  1  0
 18 19  2  0
 18  4  1  0
M  END
>  <supplier_code>  (339) 
DB00474

>  <zinc_id>  (339) 
ZINC000003876069

>  <catalog_short_name>  (339) 
dbfda

$$$$

     RDKit          3D

 21 23  0  0  0  0  0  0  0  0999 V2000
    5.0658   -1.3322    0.0587 C   0  0  0  0  0  0  0  0  0  0  0  0
    3.7457   -1.9516   -0.0187 N   0  0  0  0  0  0  0  0  0  0  0  0
    2.6176   -1.1126   -0.2927 C   0  0  0  0  0  0  0  0  0  0  0  0
    2.7093    0.1145    0.1284 N   0  0  0  0  0  0  0  0  0  0  0  0
    1.6967    1.0728    0.4385 C   0  0  0  0  0  0  0  0  0  0  0  0
    2.1567    2.3765    0.3781 C   0  0  0  0  0  0  0  0  0  0  0  0
    1.1937    3.3742    0.4670 C   0  0  0  0  0  0  0  0  0  0  0  0
   -0.1385    3.0826    0.5953 C   0  0  0  0  0  0  0  0  0  0  0  0
   -1.2863    4.3540    0.9193 Cl  0  0  0  0  0  0  0  0  0  0  0  0
   -0.5854    1.7730    0.6540 C   0  0  0  0  0  0  0  0  0  0  0  0
    0.3375    0.7848    0.4524 C   0  0  0  0  0  0  0  0  0  0  0  0
   -0.3435   -0.4615    0.0736 C   0  0  0  0  0  0  0  0  0  0  0  0
   -1.7657   -0.5800    0.3550 C   0  0  0  0  0  0  0  0  0  0  0  0
   -2.2218   -1.8331    0.7295 C   0  0  0  0  0  0  0  0  0  0  0  0
   -3.5574   -2.1952    0.6362 C   0  0  0  0  0  0  0  0  0  0  0  0
   -4.3744   -1.4561   -0.1928 C   0  0  0  0  0  0  0  0  0  0  0  0
   -3.9262   -0.2285   -0.6612 C   0  0  0  0  0  0  0  0  0  0  0  0
   -2.6191    0.1362   -0.4745 C   0  0  0  0  0  0  0  0  0  0  0  0
    0.2203   -1.5154   -0.4391 N   0  0  0  0  0  0  0  0  0  0  0  0
   -0.4245   -2.7076   -0.1565 O   0  0  0  0  0  0  0  0  0  0  0  0
    1.4995   -1.6947   -1.0824 C   0  0  0  0  0  0  0  0  0  0  0  0
  1  2  1  0
  2  3  1  0
  3  4  2  0
  4  5  1  0
  5  6  2  0
  6  7  1  0
  7  8  2  0
  8  9  1  0
  8 10  1  0
 10 11  2  0
 11 12  1  0
 12 13  1  0
 13 14  2  0
 14 15  1  0
 15 16  2  0
 16 17  1  0
 17 18  2  0
 12 19  2  0
 19 20  1  0
 19 21  1  0
 21  3  1  0
 11  5  1  0
 18 13  1  0
M  CHG  2  19   1  20  -1
M  END
>  <supplier_code>  (340) 
DB00475

>  <zinc_id>  (340) 
ZINC000019632917

>  <catalog_short_name>  (340) 
dbfda

$$$$

     RDKit          3D

 21 23  0  0  0  0  0  0  0  0999 V2000
    4.3034   -3.1375   -0.1122 C   0  0  0  0  0  0  0  0  0  0  0  0
    2.8839   -2.9413    0.0868 N   0  0  0  0  0  0  0  0  0  0  0  0
    2.6129   -1.7621    0.9011 C   0  0  0  0  0  0  0  0  0  0  0  0
    2.5766   -0.5313    0.0088 C   0  0  0  0  0  0  0  0  0  0  0  0
    1.4039    0.4340    0.7353 C   0  0  2  0  0  0  0  0  0  0  0  0
    0.3448   -0.0283   -0.3309 O   0  0  0  0  0  0  0  0  0  0  0  0
   -0.9610    0.1496    0.0629 C   0  0  0  0  0  0  0  0  0  0  0  0
   -1.4488    1.4228    0.2710 C   0  0  0  0  0  0  0  0  0  0  0  0
   -2.7707    1.7508    0.3388 C   0  0  0  0  0  0  0  0  0  0  0  0
   -3.6923    0.7369    0.2843 C   0  0  0  0  0  0  0  0  0  0  0  0
   -3.2429   -0.5409    0.0108 C   0  0  0  0  0  0  0  0  0  0  0  0
   -4.1284   -1.5884    0.2272 C   0  0  0  0  0  0  0  0  0  0  0  0
   -3.6205   -2.8676    0.0378 C   0  0  0  0  0  0  0  0  0  0  0  0
   -2.5740   -3.0134   -0.8634 C   0  0  0  0  0  0  0  0  0  0  0  0
   -1.6070   -2.0113   -0.8539 C   0  0  0  0  0  0  0  0  0  0  0  0
   -1.9061   -0.8082   -0.2580 C   0  0  0  0  0  0  0  0  0  0  0  0
    1.8023    1.7606   -0.1631 C   0  0  0  0  0  0  0  0  0  0  0  0
    3.1471    2.1178   -0.2465 C   0  0  0  0  0  0  0  0  0  0  0  0
    3.1568    3.3555   -0.8435 C   0  0  0  0  0  0  0  0  0  0  0  0
    2.4463    4.2790   -0.0844 C   0  0  0  0  0  0  0  0  0  0  0  0
    1.2737    3.2234    0.5980 S   0  0  0  0  0  0  0  0  0  0  0  0
  1  2  1  0
  2  3  1  0
  3  4  1  0
  5  4  1  6
  5  6  1  0
  6  7  1  0
  7  8  2  0
  8  9  1  0
  9 10  2  0
 10 11  1  0
 11 12  2  0
 12 13  1  0
 13 14  2  0
 14 15  1  0
 15 16  2  0
  5 17  1  0
 17 18  2  0
 18 19  1  0
 19 20  2  0
 20 21  1  0
 16  7  1  0
 21 17  1  0
 16 11  1  0
M  END
>  <supplier_code>  (341) 
DB00476

>  <zinc_id>  (341) 
ZINC000001536779

>  <catalog_short_name>  (341) 
dbfda

$$$$

     RDKit          3D

 21 23  0  0  0  0  0  0  0  0999 V2000
    4.5559    1.1600    0.0302 C   0  0  0  0  0  0  0  0  0  0  0  0
    4.1329   -0.1175    0.5582 N   0  0  0  0  0  0  0  0  0  0  0  0
    5.2671   -0.8886    1.0004 C   0  0  0  0  0  0  0  0  0  0  0  0
    3.3371   -0.8840   -0.3661 C   0  0  0  0  0  0  0  0  0  0  0  0
    2.1623   -0.0515   -0.8246 C   0  0  0  0  0  0  0  0  0  0  0  0
    1.2176    0.1239    0.3264 C   0  0  0  0  0  0  0  0  0  0  0  0
   -0.1754   -0.1145   -0.0523 N   0  0  0  0  0  0  0  0  0  0  0  0
   -0.6531   -1.4355   -0.0409 C   0  0  0  0  0  0  0  0  0  0  0  0
    0.2709   -2.4566   -0.2299 C   0  0  0  0  0  0  0  0  0  0  0  0
   -0.1151   -3.7917   -0.2194 C   0  0  0  0  0  0  0  0  0  0  0  0
   -1.3767   -4.0787    0.2876 C   0  0  0  0  0  0  0  0  0  0  0  0
   -2.2590   -3.0570    0.6205 C   0  0  0  0  0  0  0  0  0  0  0  0
   -1.9537   -1.8140    0.1506 C   0  0  0  0  0  0  0  0  0  0  0  0
   -3.2103   -0.5807   -0.1508 S   0  0  0  0  0  0  0  0  0  0  0  0
   -2.3795    0.9935    0.0824 C   0  0  0  0  0  0  0  0  0  0  0  0
   -3.0539    2.0800    0.5764 C   0  0  0  0  0  0  0  0  0  0  0  0
   -2.3961    3.3010    0.4849 C   0  0  0  0  0  0  0  0  0  0  0  0
   -1.2021    3.4166   -0.2158 C   0  0  0  0  0  0  0  0  0  0  0  0
   -0.6888    4.9404   -0.8938 Cl  0  0  0  0  0  0  0  0  0  0  0  0
   -0.4513    2.2524   -0.3254 C   0  0  0  0  0  0  0  0  0  0  0  0
   -1.0288    1.0025   -0.1308 C   0  0  0  0  0  0  0  0  0  0  0  0
  1  2  1  0
  2  3  1  0
  2  4  1  0
  4  5  1  0
  5  6  1  0
  6  7  1  0
  7  8  1  0
  8  9  2  0
  9 10  1  0
 10 11  2  0
 11 12  1  0
 12 13  2  0
 13 14  1  0
 14 15  1  0
 15 16  2  0
 16 17  1  0
 17 18  2  0
 18 19  1  0
 18 20  1  0
 20 21  2  0
 21  7  1  0
 13  8  1  0
 21 15  1  0
M  END
>  <supplier_code>  (342) 
DB00477

>  <zinc_id>  (342) 
ZINC000000044027

>  <catalog_short_name>  (342) 
dbfda

$$$$

     RDKit          3D

 13 15  0  0  0  0  0  0  0  0999 V2000
    2.2852    1.5742    0.4406 C   0  0  0  0  0  0  0  0  0  0  0  0
    2.2987   -0.0683    0.4215 C   0  0  2  0  0  0  0  0  0  0  0  0
    2.6889   -0.1146   -1.1016 N   0  0  0  0  0  0  0  0  0  0  0  0
    0.7013   -0.1420    0.0970 C   0  0  0  0  0  0  0  0  0  0  0  0
    0.3923    0.8036   -1.0054 C   0  0  0  0  0  0  0  0  0  0  0  0
   -1.1211    0.8128   -1.0811 C   0  0  0  0  0  0  0  0  0  0  0  0
   -1.7237    1.2972    0.2220 C   0  0  0  0  0  0  0  0  0  0  0  0
   -1.3735    0.3151    1.3105 C   0  0  0  0  0  0  0  0  0  0  0  0
   -1.8151   -1.0892    1.0313 C   0  0  0  0  0  0  0  0  0  0  0  0
   -1.1711   -1.5640   -0.2519 C   0  0  0  0  0  0  0  0  0  0  0  0
   -1.6357   -0.5793   -1.3162 C   0  0  0  0  0  0  0  0  0  0  0  0
    0.3493   -1.5602   -0.1601 C   0  0  0  0  0  0  0  0  0  0  0  0
    0.1247    0.3146    1.3936 C   0  0  0  0  0  0  0  0  0  0  0  0
  2  1  1  6
  2  3  1  0
  2  4  1  0
  4  5  1  0
  5  6  1  0
  6  7  1  0
  7  8  1  0
  8  9  1  0
  9 10  1  0
 10 11  1  0
 10 12  1  0
  8 13  1  0
 12  4  1  0
 13  4  1  0
 11  6  1  0
M  END
>  <supplier_code>  (343) 
DB00478

>  <zinc_id>  (343) 
ZINC000003831429

>  <catalog_short_name>  (343) 
dbfda

$$$$

     RDKit          3D

 13 15  0  0  0  0  0  0  0  0999 V2000
    2.5043   -1.4066   -0.8771 C   0  0  0  0  0  0  0  0  0  0  0  0
    2.2650   -0.4445    0.4483 C   0  0  1  0  0  0  0  0  0  0  0  0
    2.7218    0.8418   -0.3594 N   0  0  0  0  0  0  0  0  0  0  0  0
    0.6705   -0.1626    0.1754 C   0  0  0  0  0  0  0  0  0  0  0  0
    0.2526   -0.7303   -1.0950 C   0  0  0  0  0  0  0  0  0  0  0  0
   -1.1997   -0.4858   -1.2586 C   0  0  0  0  0  0  0  0  0  0  0  0
   -2.0066   -1.0543   -0.1183 C   0  0  0  0  0  0  0  0  0  0  0  0
   -1.4833   -0.5578    1.2247 C   0  0  0  0  0  0  0  0  0  0  0  0
   -1.7681    0.9385    1.2513 C   0  0  0  0  0  0  0  0  0  0  0  0
   -0.9864    1.5683    0.1046 C   0  0  0  0  0  0  0  0  0  0  0  0
   -1.4170    1.0227   -1.2365 C   0  0  0  0  0  0  0  0  0  0  0  0
    0.4582    1.3065    0.3765 C   0  0  0  0  0  0  0  0  0  0  0  0
   -0.0113   -0.8359    1.3641 C   0  0  0  0  0  0  0  0  0  0  0  0
  2  1  1  6
  2  3  1  0
  2  4  1  0
  4  5  1  0
  5  6  1  0
  6  7  1  0
  7  8  1  0
  8  9  1  0
  9 10  1  0
 10 11  1  0
 10 12  1  0
  8 13  1  0
 12  4  1  0
 13  4  1  0
 11  6  1  0
M  END
>  <supplier_code>  (344) 
DB00478

>  <zinc_id>  (344) 
ZINC000003831430

>  <catalog_short_name>  (344) 
dbfda

$$$$

     RDKit          3D

 40 42  0  0  0  0  0  0  0  0999 V2000
   -3.4271    6.2286   -1.4002 N   0  0  0  0  0  0  0  0  0  0  0  0
   -3.6858    4.8926   -1.4680 C   0  0  0  0  0  0  0  0  0  0  0  0
   -4.3908    4.3899   -0.2473 C   0  0  0  0  0  0  0  0  0  0  0  0
   -3.2264    3.9496    0.8336 C   0  0  2  0  0  0  0  0  0  0  0  0
   -2.5283    5.2941    0.6815 O   0  0  0  0  0  0  0  0  0  0  0  0
   -2.3374    3.1746   -0.2763 C   0  0  0  0  0  0  0  0  0  0  0  0
   -1.5086    3.7649   -0.8851 O   0  0  0  0  0  0  0  0  0  0  0  0
   -2.3242    1.7812   -0.2455 N   0  0  0  0  0  0  0  0  0  0  0  0
   -0.8666    1.3495    0.1278 C   0  0  2  0  0  0  0  0  0  0  0  0
   -0.2309    1.8323   -1.2943 C   0  0  0  0  0  0  0  0  0  0  0  0
    1.2704    1.7446   -0.6692 C   0  0  2  0  0  0  0  0  0  0  0  0
    1.8813    2.2744   -1.9986 N   0  0  0  0  0  0  0  0  0  0  0  0
    1.5163    0.1072   -1.0820 C   0  0  1  0  0  0  0  0  0  0  0  0
    2.8787    0.0976   -0.4878 O   0  0  0  0  0  0  0  0  0  0  0  0
    2.8978   -0.7830    0.7444 C   0  0  1  0  0  0  0  0  0  0  0  0
    4.0234   -1.6882    0.4788 O   0  0  0  0  0  0  0  0  0  0  0  0
    5.3298   -1.4524   -0.1134 C   0  0  2  0  0  0  0  0  0  0  0  0
    6.2857   -1.5982    1.2858 C   0  0  0  0  0  0  0  0  0  0  0  0
    7.4141   -1.4007    0.4943 N   0  0  0  0  0  0  0  0  0  0  0  0
    5.7276    0.1997   -0.2774 C   0  0  1  0  0  0  0  0  0  0  0  0
    5.1467    0.2854   -1.7310 O   0  0  0  0  0  0  0  0  0  0  0  0
    4.5458    1.1307    0.4619 C   0  0  2  0  0  0  0  0  0  0  0  0
    5.7174    1.7443    1.2545 O   0  0  0  0  0  0  0  0  0  0  0  0
    4.0124    0.1291    1.7082 C   0  0  1  0  0  0  0  0  0  0  0  0
    2.8113    0.9947    1.8967 O   0  0  0  0  0  0  0  0  0  0  0  0
    0.6523   -0.4939    0.2490 C   0  0  2  0  0  0  0  0  0  0  0  0
    0.8575   -1.8423   -0.3744 O   0  0  0  0  0  0  0  0  0  0  0  0
   -0.8771   -0.2472   -0.4666 C   0  0  1  0  0  0  0  0  0  0  0  0
   -1.5104   -0.7331    0.7833 O   0  0  0  0  0  0  0  0  0  0  0  0
   -2.7115   -1.5101    0.2577 C   0  0  1  0  0  0  0  0  0  0  0  0
   -1.8638   -2.5904   -0.3728 O   0  0  0  0  0  0  0  0  0  0  0  0
   -2.7046   -3.8287   -0.3139 C   0  0  2  0  0  0  0  0  0  0  0  0
   -2.8554   -3.9434   -1.9400 C   0  0  0  0  0  0  0  0  0  0  0  0
   -2.9289   -5.3452   -2.0607 O   0  0  0  0  0  0  0  0  0  0  0  0
   -4.1790   -2.9877   -0.1511 C   0  0  1  0  0  0  0  0  0  0  0  0
   -4.9547   -4.2489   -0.3402 O   0  0  0  0  0  0  0  0  0  0  0  0
   -4.1103   -3.2457    1.5145 C   0  0  2  0  0  0  0  0  0  0  0  0
   -5.1631   -2.1342    1.7746 N   0  0  0  0  0  0  0  0  0  0  0  0
   -2.8554   -2.1547    1.8540 C   0  0  1  0  0  0  0  0  0  0  0  0
   -1.7283   -3.1371    1.7953 O   0  0  0  0  0  0  0  0  0  0  0  0
  1  2  1  0
  2  3  1  0
  4  3  1  6
  4  5  1  0
  4  6  1  0
  6  7  2  0
  6  8  1  0
  9  8  1  6
  9 10  1  0
 10 11  1  0
 11 12  1  6
 11 13  1  0
 13 14  1  1
 15 14  1  6
 15 16  1  0
 16 17  1  0
 17 18  1  1
 18 19  1  0
 17 20  1  0
 20 21  1  6
 20 22  1  0
 22 23  1  1
 22 24  1  0
 24 25  1  1
 13 26  1  0
 26 27  1  6
 26 28  1  0
 28 29  1  1
 30 29  1  1
 30 31  1  0
 31 32  1  0
 32 33  1  6
 33 34  1  0
 32 35  1  0
 35 36  1  6
 35 37  1  0
 37 38  1  1
 37 39  1  0
 39 40  1  6
 28  9  1  0
 39 30  1  0
 24 15  1  0
M  END
>  <supplier_code>  (345) 
DB00479

>  <zinc_id>  (345) 
ZINC000008214483

>  <catalog_short_name>  (345) 
dbfda

$$$$

     RDKit          3D

 19 21  0  0  0  0  0  0  0  0999 V2000
   -3.6925   -0.9413    1.9752 N   0  0  0  0  0  0  0  0  0  0  0  0
   -3.4161   -0.1670    0.8244 C   0  0  0  0  0  0  0  0  0  0  0  0
   -4.4127    0.4105    0.0477 C   0  0  0  0  0  0  0  0  0  0  0  0
   -4.0854    1.1698   -1.0597 C   0  0  0  0  0  0  0  0  0  0  0  0
   -2.9106    0.8312   -1.7201 C   0  0  0  0  0  0  0  0  0  0  0  0
   -1.9164    0.1883   -0.9880 C   0  0  0  0  0  0  0  0  0  0  0  0
   -2.1145   -0.0410    0.3645 C   0  0  0  0  0  0  0  0  0  0  0  0
   -0.7940   -0.1380    1.0435 C   0  0  0  0  0  0  0  0  0  0  0  0
    0.1685   -0.4248   -0.0038 N   0  0  0  0  0  0  0  0  0  0  0  0
    1.5434    0.3656    0.2067 C   0  0  1  0  0  0  0  0  0  0  0  0
    1.9503   -0.5127    1.5632 C   0  0  0  0  0  0  0  0  0  0  0  0
    3.2792    0.1441    1.9181 C   0  0  0  0  0  0  0  0  0  0  0  0
    4.0323    0.5598    0.6942 C   0  0  0  0  0  0  0  0  0  0  0  0
    4.6387    1.6705    0.6151 O   0  0  0  0  0  0  0  0  0  0  0  0
    3.7583   -0.2416   -0.4676 N   0  0  0  0  0  0  0  0  0  0  0  0
    2.4026   -0.6470   -0.7495 C   0  0  0  0  0  0  0  0  0  0  0  0
    2.0711   -1.8524   -0.6819 O   0  0  0  0  0  0  0  0  0  0  0  0
   -0.5153   -0.1147   -1.2257 C   0  0  0  0  0  0  0  0  0  0  0  0
    0.0130   -0.2593   -2.3564 O   0  0  0  0  0  0  0  0  0  0  0  0
  1  2  1  0
  2  3  2  0
  3  4  1  0
  4  5  2  0
  5  6  1  0
  6  7  2  0
  7  8  1  0
  8  9  1  0
 10  9  1  6
 10 11  1  0
 11 12  1  0
 12 13  1  0
 13 14  2  0
 13 15  1  0
 15 16  1  0
 16 17  2  0
  9 18  1  0
 18 19  2  0
  7  2  1  0
 16 10  1  0
 18  6  1  0
M  END
>  <supplier_code>  (346) 
DB00480

>  <zinc_id>  (346) 
ZINC000001997127

>  <catalog_short_name>  (346) 
dbfda

$$$$

     RDKit          3D

 19 21  0  0  0  0  0  0  0  0999 V2000
   -3.5484   -1.1045    1.7680 N   0  0  0  0  0  0  0  0  0  0  0  0
   -3.1742   -0.0167    1.0429 C   0  0  0  0  0  0  0  0  0  0  0  0
   -4.1232    0.8416    0.5058 C   0  0  0  0  0  0  0  0  0  0  0  0
   -3.8560    1.6473   -0.5659 C   0  0  0  0  0  0  0  0  0  0  0  0
   -2.6341    1.5015   -1.1862 C   0  0  0  0  0  0  0  0  0  0  0  0
   -1.5921    0.8614   -0.5551 C   0  0  0  0  0  0  0  0  0  0  0  0
   -1.8973    0.0605    0.5361 C   0  0  0  0  0  0  0  0  0  0  0  0
   -0.6048   -0.2788    1.1903 C   0  0  0  0  0  0  0  0  0  0  0  0
    0.3947   -0.2032    0.1269 N   0  0  0  0  0  0  0  0  0  0  0  0
    1.1536   -1.5523   -0.2125 C   0  0  2  0  0  0  0  0  0  0  0  0
    1.9905   -1.5682    1.2102 C   0  0  0  0  0  0  0  0  0  0  0  0
    2.2946   -0.1715    1.5961 C   0  0  0  0  0  0  0  0  0  0  0  0
    3.4041    0.2709    0.7219 C   0  0  0  0  0  0  0  0  0  0  0  0
    4.1901    1.1236    1.1276 O   0  0  0  0  0  0  0  0  0  0  0  0
    3.4762   -0.4023   -0.5325 N   0  0  0  0  0  0  0  0  0  0  0  0
    2.2747   -0.7888   -1.0934 C   0  0  0  0  0  0  0  0  0  0  0  0
    2.3205   -1.3689   -2.2227 O   0  0  0  0  0  0  0  0  0  0  0  0
   -0.2317    0.5137   -0.9434 C   0  0  0  0  0  0  0  0  0  0  0  0
    0.1626    0.6347   -2.1424 O   0  0  0  0  0  0  0  0  0  0  0  0
  1  2  1  0
  2  3  2  0
  3  4  1  0
  4  5  2  0
  5  6  1  0
  6  7  2  0
  7  8  1  0
  8  9  1  0
 10  9  1  1
 10 11  1  0
 11 12  1  0
 12 13  1  0
 13 14  2  0
 13 15  1  0
 15 16  1  0
 16 17  2  0
  9 18  1  0
 18 19  2  0
  7  2  1  0
 16 10  1  0
 18  6  1  0
M  END
>  <supplier_code>  (347) 
DB00480

>  <zinc_id>  (347) 
ZINC000003604264

>  <catalog_short_name>  (347) 
dbfda

$$$$

     RDKit          3D

 34 38  0  0  0  0  0  0  0  0999 V2000
   -1.6884    2.2028   -0.7716 O   0  0  0  0  0  0  0  0  0  0  0  0
   -1.3653    1.0054   -0.5146 C   0  0  0  0  0  0  0  0  0  0  0  0
   -2.3530    0.0390   -0.0106 C   0  0  0  0  0  0  0  0  0  0  0  0
   -2.2813   -1.3329   -0.2214 C   0  0  0  0  0  0  0  0  0  0  0  0
   -1.3776   -2.0585   -0.9914 C   0  0  0  0  0  0  0  0  0  0  0  0
   -1.3607   -3.4444   -0.9245 C   0  0  0  0  0  0  0  0  0  0  0  0
   -1.6140   -4.0242    0.3126 C   0  0  0  0  0  0  0  0  0  0  0  0
   -1.5949   -5.3956    0.4314 O   0  0  0  0  0  0  0  0  0  0  0  0
   -2.4583   -3.3103    1.1556 C   0  0  0  0  0  0  0  0  0  0  0  0
   -2.8579   -2.0150    0.8445 C   0  0  0  0  0  0  0  0  0  0  0  0
   -4.1448   -0.9495    1.2449 S   0  0  0  0  0  0  0  0  0  0  0  0
   -3.6540    0.4088    0.3154 C   0  0  0  0  0  0  0  0  0  0  0  0
   -4.3550    1.6551   -0.0173 C   0  0  0  0  0  0  0  0  0  0  0  0
   -5.5440    1.5021   -0.7212 C   0  0  0  0  0  0  0  0  0  0  0  0
   -6.6174    2.3668   -0.5414 C   0  0  0  0  0  0  0  0  0  0  0  0
   -6.3659    3.5925    0.0537 C   0  0  0  0  0  0  0  0  0  0  0  0
   -7.4401    4.4438    0.3204 O   0  0  0  0  0  0  0  0  0  0  0  0
   -5.0845    3.8519    0.5194 C   0  0  0  0  0  0  0  0  0  0  0  0
   -4.3030    2.7487    0.8348 C   0  0  0  0  0  0  0  0  0  0  0  0
    0.0789    0.7723   -0.3913 C   0  0  0  0  0  0  0  0  0  0  0  0
    0.5751    0.2592    0.7863 C   0  0  0  0  0  0  0  0  0  0  0  0
    1.8303   -0.3072    0.8109 C   0  0  0  0  0  0  0  0  0  0  0  0
    2.7536    0.1334   -0.1146 C   0  0  0  0  0  0  0  0  0  0  0  0
    4.1195    0.0490    0.1502 O   0  0  0  0  0  0  0  0  0  0  0  0
    4.8421    1.2656    0.1101 C   0  0  0  0  0  0  0  0  0  0  0  0
    5.9291    1.2086   -0.9240 C   0  0  0  0  0  0  0  0  0  0  0  0
    6.8494    0.1167   -0.7372 N   0  0  0  0  0  0  0  0  0  0  0  0
    7.6573    0.2670    0.4471 C   0  0  0  0  0  0  0  0  0  0  0  0
    7.4644   -0.8530    1.4377 C   0  0  0  0  0  0  0  0  0  0  0  0
    7.7549   -2.2093    0.8562 C   0  0  0  0  0  0  0  0  0  0  0  0
    7.2392   -2.2399   -0.5773 C   0  0  0  0  0  0  0  0  0  0  0  0
    6.1678   -1.1752   -0.7752 C   0  0  0  0  0  0  0  0  0  0  0  0
    2.2702    0.5794   -1.3190 C   0  0  0  0  0  0  0  0  0  0  0  0
    0.9280    0.8469   -1.4883 C   0  0  0  0  0  0  0  0  0  0  0  0
  1  2  2  0
  2  3  1  0
  3  4  1  0
  4  5  2  0
  5  6  1  0
  6  7  2  0
  7  8  1  0
  7  9  1  0
  9 10  2  0
 10 11  1  0
 11 12  1  0
 12 13  1  0
 13 14  2  0
 14 15  1  0
 15 16  2  0
 16 17  1  0
 16 18  1  0
 18 19  2  0
  2 20  1  0
 20 21  2  0
 21 22  1  0
 22 23  2  0
 23 24  1  0
 24 25  1  0
 25 26  1  0
 26 27  1  0
 27 28  1  0
 28 29  1  0
 29 30  1  0
 30 31  1  0
 31 32  1  0
 23 33  1  0
 33 34  2  0
 12  3  2  0
 19 13  1  0
 34 20  1  0
 10  4  1  0
 32 27  1  0
M  END
>  <supplier_code>  (348) 
DB00481

>  <zinc_id>  (348) 
ZINC000000538275

>  <catalog_short_name>  (348) 
dbfda

$$$$

     RDKit          3D

 26 28  0  0  0  0  0  0  0  0999 V2000
   -4.2273   -4.4267   -0.1710 C   0  0  0  0  0  0  0  0  0  0  0  0
   -3.8885   -2.9970   -0.0308 C   0  0  0  0  0  0  0  0  0  0  0  0
   -3.2707   -2.3663   -1.0868 C   0  0  0  0  0  0  0  0  0  0  0  0
   -2.5332   -1.2285   -0.8787 C   0  0  0  0  0  0  0  0  0  0  0  0
   -2.3662   -0.6964    0.3931 C   0  0  0  0  0  0  0  0  0  0  0  0
   -1.5885    0.5379    0.4852 C   0  0  0  0  0  0  0  0  0  0  0  0
   -2.0901    1.8320    0.4058 C   0  0  0  0  0  0  0  0  0  0  0  0
   -1.0107    2.6923    0.5811 C   0  0  0  0  0  0  0  0  0  0  0  0
   -0.9763    4.1473    0.2309 C   0  0  0  0  0  0  0  0  0  0  0  0
   -1.2587    4.9365    1.3387 F   0  0  0  0  0  0  0  0  0  0  0  0
   -1.8880    4.3805   -0.7853 F   0  0  0  0  0  0  0  0  0  0  0  0
    0.2875    4.5398   -0.1840 F   0  0  0  0  0  0  0  0  0  0  0  0
    0.0522    1.8545    0.6395 N   0  0  0  0  0  0  0  0  0  0  0  0
   -0.2878    0.6583    0.1571 N   0  0  0  0  0  0  0  0  0  0  0  0
    0.5790   -0.3167   -0.4402 C   0  0  0  0  0  0  0  0  0  0  0  0
    0.9471   -1.4730    0.2398 C   0  0  0  0  0  0  0  0  0  0  0  0
    2.2370   -1.9836    0.1465 C   0  0  0  0  0  0  0  0  0  0  0  0
    3.2106   -1.3042   -0.5766 C   0  0  0  0  0  0  0  0  0  0  0  0
    4.8715   -1.1950   -0.0570 S   0  0  0  0  0  0  0  0  0  0  0  0
    5.8308   -2.0647   -1.2137 N   0  0  0  0  0  0  0  0  0  0  0  0
    5.3382    0.2376    0.0551 O   0  0  0  0  0  0  0  0  0  0  0  0
    5.0318   -1.8558    1.2805 O   0  0  0  0  0  0  0  0  0  0  0  0
    2.7247   -0.4567   -1.5666 C   0  0  0  0  0  0  0  0  0  0  0  0
    1.4169    0.0124   -1.5009 C   0  0  0  0  0  0  0  0  0  0  0  0
   -3.1812   -1.1680    1.3835 C   0  0  0  0  0  0  0  0  0  0  0  0
   -3.9602   -2.2963    1.1549 C   0  0  0  0  0  0  0  0  0  0  0  0
  1  2  1  0
  2  3  2  0
  3  4  1  0
  4  5  2  0
  5  6  1  0
  6  7  2  0
  7  8  1  0
  8  9  1  0
  9 10  1  0
  9 11  1  0
  9 12  1  0
  8 13  2  0
 13 14  1  0
 14 15  1  0
 15 16  2  0
 16 17  1  0
 17 18  2  0
 18 19  1  0
 19 20  1  0
 19 21  2  0
 19 22  2  0
 18 23  1  0
 23 24  2  0
  5 25  1  0
 25 26  2  0
 26  2  1  0
 14  6  1  0
 24 15  1  0
M  END
>  <supplier_code>  (349) 
DB00482

>  <zinc_id>  (349) 
ZINC000002570895

>  <catalog_short_name>  (349) 
dbfda

$$$$

     RDKit          3D

 17 19  0  0  0  0  0  0  0  0999 V2000
   -0.0810    2.1830   -0.6541 Br  0  0  0  0  0  0  0  0  0  0  0  0
    0.5473    0.3880   -0.4134 C   0  0  0  0  0  0  0  0  0  0  0  0
   -0.3610   -0.5743    0.0110 C   0  0  0  0  0  0  0  0  0  0  0  0
   -1.6401   -0.1987    0.5310 N   0  0  0  0  0  0  0  0  0  0  0  0
   -2.6849   -0.0391   -0.1912 C   0  0  0  0  0  0  0  0  0  0  0  0
   -3.2830    1.2198   -0.4365 N   0  0  0  0  0  0  0  0  0  0  0  0
   -4.7227    1.1528   -0.3647 C   0  0  0  0  0  0  0  0  0  0  0  0
   -5.0205   -0.3214   -0.4255 C   0  0  0  0  0  0  0  0  0  0  0  0
   -3.7336   -0.9919   -0.4003 N   0  0  0  0  0  0  0  0  0  0  0  0
    0.1856   -1.7491    0.5120 C   0  0  0  0  0  0  0  0  0  0  0  0
    1.5249   -1.8843    0.8112 C   0  0  0  0  0  0  0  0  0  0  0  0
    2.3977   -0.8754    0.5108 C   0  0  0  0  0  0  0  0  0  0  0  0
    3.6897   -0.9529    0.9010 N   0  0  0  0  0  0  0  0  0  0  0  0
    4.4066    0.1844    0.7496 C   0  0  0  0  0  0  0  0  0  0  0  0
    4.0630    1.1430   -0.1958 C   0  0  0  0  0  0  0  0  0  0  0  0
    2.8135    1.0557   -0.7133 N   0  0  0  0  0  0  0  0  0  0  0  0
    1.8987    0.2605   -0.1153 C   0  0  0  0  0  0  0  0  0  0  0  0
  1  2  1  0
  2  3  2  0
  3  4  1  0
  4  5  2  3
  5  6  1  0
  6  7  1  0
  7  8  1  0
  8  9  1  0
  3 10  1  0
 10 11  2  0
 11 12  1  0
 12 13  2  0
 13 14  1  0
 14 15  2  0
 15 16  1  0
 16 17  2  0
 17  2  1  0
  9  5  1  0
 17 12  1  0
M  END
>  <supplier_code>  (350) 
DB00484

>  <zinc_id>  (350) 
ZINC000021303210

>  <catalog_short_name>  (350) 
dbfda

$$$$

     RDKit          3D

 30 33  0  0  0  0  0  0  0  0999 V2000
   -0.4616   -1.9090    2.6178 C   0  0  0  0  0  0  0  0  0  0  0  0
   -1.4719   -1.8563    1.6437 C   0  0  0  0  0  0  0  0  0  0  0  0
   -2.5756   -2.5773    1.5263 O   0  0  0  0  0  0  0  0  0  0  0  0
   -3.3728   -1.9752    0.6870 N   0  0  0  0  0  0  0  0  0  0  0  0
   -2.7718   -0.8723    0.1783 C   0  0  0  0  0  0  0  0  0  0  0  0
   -3.4383    0.1513   -0.6384 C   0  0  0  0  0  0  0  0  0  0  0  0
   -4.4000   -0.3329   -1.5197 C   0  0  0  0  0  0  0  0  0  0  0  0
   -4.5995   -2.0584   -1.8118 Cl  0  0  0  0  0  0  0  0  0  0  0  0
   -5.3492    0.4996   -2.1020 C   0  0  0  0  0  0  0  0  0  0  0  0
   -5.5754    1.7443   -1.5689 C   0  0  0  0  0  0  0  0  0  0  0  0
   -4.5431    2.2777   -0.8045 C   0  0  0  0  0  0  0  0  0  0  0  0
   -3.6646    1.4300   -0.1388 C   0  0  0  0  0  0  0  0  0  0  0  0
   -3.1675    1.8482    1.5020 Cl  0  0  0  0  0  0  0  0  0  0  0  0
   -1.4639   -0.9619    0.5834 C   0  0  0  0  0  0  0  0  0  0  0  0
   -0.3860   -0.0942    0.1631 C   0  0  0  0  0  0  0  0  0  0  0  0
   -0.5596    0.7117   -0.7959 O   0  0  0  0  0  0  0  0  0  0  0  0
    0.9597   -0.1864    0.6012 N   0  0  0  0  0  0  0  0  0  0  0  0
    1.4203    1.2424    1.1753 C   0  0  2  0  0  0  0  0  0  0  0  0
    1.7948    1.7893   -0.3216 C   0  0  0  0  0  0  0  0  0  0  0  0
    1.8434    3.0460   -0.5072 O   0  0  0  0  0  0  0  0  0  0  0  0
    2.8321    0.8402   -0.2601 N   0  0  0  0  0  0  0  0  0  0  0  0
    3.0953    0.9285    1.2304 C   0  0  2  0  0  0  0  0  0  0  0  0
    3.1672   -0.9747    1.4152 S   0  0  0  0  0  0  0  0  0  0  0  0
    3.7928   -1.3238   -0.1655 C   0  0  0  0  0  0  0  0  0  0  0  0
    5.0824   -2.0852   -0.2451 C   0  0  0  0  0  0  0  0  0  0  0  0
    2.8825   -1.9370   -1.1849 C   0  0  0  0  0  0  0  0  0  0  0  0
    4.1648    0.1751   -0.8217 C   0  0  2  0  0  0  0  0  0  0  0  0
    5.1290    0.6123    0.4506 C   0  0  0  0  0  0  0  0  0  0  0  0
    5.2596    1.8721    0.2987 O   0  0  0  0  0  0  0  0  0  0  0  0
    6.3767   -0.0241    0.3878 O   0  0  0  0  0  0  0  0  0  0  0  0
  1  2  1  0
  2  3  1  0
  3  4  1  0
  4  5  2  0
  5  6  1  0
  6  7  2  0
  7  8  1  0
  7  9  1  0
  9 10  2  0
 10 11  1  0
 11 12  2  0
 12 13  1  0
  5 14  1  0
 14 15  1  0
 15 16  2  0
 15 17  1  0
 18 17  1  6
 18 19  1  0
 19 20  2  0
 19 21  1  0
 21 22  1  0
 22 23  1  1
 23 24  1  0
 24 25  1  0
 24 26  1  0
 24 27  1  0
 27 28  1  1
 28 29  2  0
 28 30  1  0
 14  2  2  0
 22 18  1  0
 12  6  1  0
 27 21  1  0
M  END
>  <supplier_code>  (351) 
DB00485

>  <zinc_id>  (351) 
ZINC000003978006

>  <catalog_short_name>  (351) 
dbfda

$$$$

     RDKit          3D

 27 29  0  0  0  0  0  0  0  0999 V2000
    6.6893    0.1118    1.5876 C   0  0  0  0  0  0  0  0  0  0  0  0
    5.7036    0.4691    0.9848 C   0  0  0  0  0  0  0  0  0  0  0  0
    5.7801   -0.1379   -0.4086 C   0  0  0  0  0  0  0  0  0  0  0  0
    5.0446    0.6822   -1.4349 C   0  0  0  0  0  0  0  0  0  0  0  0
    3.9839   -0.2441   -2.0160 C   0  0  0  0  0  0  0  0  0  0  0  0
    2.6332    0.2861   -1.6669 C   0  0  0  0  0  0  0  0  0  0  0  0
    1.7462   -0.8789   -1.4278 C   0  0  0  0  0  0  0  0  0  0  0  0
    1.9840   -2.0110   -2.3675 C   0  0  0  0  0  0  0  0  0  0  0  0
    2.0238   -1.3867   -0.0157 C   0  0  0  0  0  0  0  0  0  0  0  0
    0.3819   -0.3976   -1.6632 C   0  0  0  0  0  0  0  0  0  0  0  0
   -0.0827    0.8410   -2.0837 C   0  0  0  0  0  0  0  0  0  0  0  0
   -1.0640    1.5494   -1.3679 C   0  0  0  0  0  0  0  0  0  0  0  0
   -1.0049    2.9390   -1.1712 O   0  0  0  0  0  0  0  0  0  0  0  0
   -1.8288    0.9619   -0.4393 C   0  0  0  0  0  0  0  0  0  0  0  0
   -1.4130   -0.1642   -0.0628 C   0  0  0  0  0  0  0  0  0  0  0  0
   -0.4311   -0.8486   -0.8116 C   0  0  0  0  0  0  0  0  0  0  0  0
   -1.9898   -0.4923    1.2347 O   0  0  0  0  0  0  0  0  0  0  0  0
   -2.8748   -0.2912    2.1961 C   0  0  0  0  0  0  0  0  0  0  0  0
   -2.1980    0.0080    3.5464 C   0  0  0  0  0  0  0  0  0  0  0  0
   -4.0724   -1.0271    2.5843 C   0  0  0  0  0  0  0  0  0  0  0  0
   -3.2774    1.1303    1.5926 C   0  0  2  0  0  0  0  0  0  0  0  0
   -3.9556    0.5101    0.2567 C   0  0  0  0  0  0  0  0  0  0  0  0
   -3.9033   -0.9854    0.2053 C   0  0  0  0  0  0  0  0  0  0  0  0
   -2.4756   -1.3550    0.3874 C   0  0  0  0  0  0  0  0  0  0  0  0
   -2.2802   -2.4750   -0.0329 O   0  0  0  0  0  0  0  0  0  0  0  0
   -1.4635   -0.5270    1.2907 C   0  0  0  0  0  0  0  0  0  0  0  0
   -1.6554    1.1080    1.1033 C   0  0  1  0  0  0  0  0  0  0  0  0
  1  2  1  0
  2  3  1  0
  3  4  1  0
  4  5  1  0
  5  6  1  0
  6  7  1  0
  7  8  1  0
  7  9  1  0
  7 10  1  0
 10 11  2  0
 11 12  1  0
 12 13  1  0
 12 14  2  0
 14 15  1  0
 15 16  2  0
 15 17  1  0
 17 18  1  0
 18 19  1  0
 18 20  1  0
 21 18  1  1
 21 22  1  0
 22 23  1  0
 23 24  1  0
 24 25  2  0
 24 26  1  0
 27 26  1  1
 16 10  1  0
 27 21  1  0
 27 14  1  0
M  END
>  <supplier_code>  (352) 
DB00486

>  <zinc_id>  (352) 
ZINC000001542930

>  <catalog_short_name>  (352) 
dbfda

$$$$

     RDKit          3D

 15 15  0  0  0  0  0  0  0  0999 V2000
   -2.3364    2.7395    0.2958 C   0  0  0  0  0  0  0  0  0  0  0  0
   -0.9346    2.5475    0.0011 N   0  0  0  0  0  0  0  0  0  0  0  0
   -0.2720    3.4770   -0.9078 C   0  0  0  0  0  0  0  0  0  0  0  0
   -0.4332    1.2101    0.0337 C   0  0  0  0  0  0  0  0  0  0  0  0
   -1.2039    0.1666    0.4229 N   0  0  0  0  0  0  0  0  0  0  0  0
   -0.7939   -1.1165    0.2757 C   0  0  0  0  0  0  0  0  0  0  0  0
   -1.7156   -2.1852    0.0423 N   0  0  0  0  0  0  0  0  0  0  0  0
   -3.0688   -1.8909   -0.3810 C   0  0  0  0  0  0  0  0  0  0  0  0
   -1.4968   -3.4604    0.7036 C   0  0  0  0  0  0  0  0  0  0  0  0
    0.5411   -1.3024    0.2868 N   0  0  0  0  0  0  0  0  0  0  0  0
    1.3209   -0.3143   -0.2152 C   0  0  0  0  0  0  0  0  0  0  0  0
    2.7462   -0.3966   -0.1001 N   0  0  0  0  0  0  0  0  0  0  0  0
    3.5605    0.5588   -0.8429 C   0  0  0  0  0  0  0  0  0  0  0  0
    3.2902   -0.9449    1.1247 C   0  0  0  0  0  0  0  0  0  0  0  0
    0.7963    0.9117   -0.4532 N   0  0  0  0  0  0  0  0  0  0  0  0
  1  2  1  0
  2  3  1  0
  2  4  1  0
  4  5  2  0
  5  6  1  0
  6  7  1  0
  7  8  1  0
  7  9  1  0
  6 10  2  0
 10 11  1  0
 11 12  1  0
 12 13  1  0
 12 14  1  0
 11 15  2  0
 15  4  1  0
M  END
>  <supplier_code>  (353) 
DB00488

>  <zinc_id>  (353) 
ZINC000000000905

>  <catalog_short_name>  (353) 
dbfda

$$$$

     RDKit          3D

 18 18  0  0  0  0  0  0  0  0999 V2000
   -3.5341    2.3035   -0.1734 C   0  0  0  0  0  0  0  0  0  0  0  0
   -3.6888    1.2689   -0.3923 C   0  0  0  0  0  0  0  0  0  0  0  0
   -5.0797    0.7303   -0.4931 C   0  0  0  0  0  0  0  0  0  0  0  0
   -2.6777    0.3221   -0.1116 N   0  0  0  0  0  0  0  0  0  0  0  0
   -3.0580   -0.8537    0.6016 C   0  0  0  0  0  0  0  0  0  0  0  0
   -2.2178   -2.0980   -0.1736 C   0  0  1  0  0  0  0  0  0  0  0  0
   -2.6754   -1.6083   -1.5777 O   0  0  0  0  0  0  0  0  0  0  0  0
   -0.8076   -1.2389   -0.1611 C   0  0  0  0  0  0  0  0  0  0  0  0
    0.2137   -1.9808    0.4299 C   0  0  0  0  0  0  0  0  0  0  0  0
    1.5323   -1.6555    0.1336 C   0  0  0  0  0  0  0  0  0  0  0  0
    1.7515   -0.3983   -0.4137 C   0  0  0  0  0  0  0  0  0  0  0  0
    3.0705   -0.0255   -0.8064 N   0  0  0  0  0  0  0  0  0  0  0  0
    4.0144    1.1219    0.0435 S   0  0  0  0  0  0  0  0  0  0  0  0
    3.3601    2.7598   -0.0451 C   0  0  0  0  0  0  0  0  0  0  0  0
    5.4132    1.0594   -0.5253 O   0  0  0  0  0  0  0  0  0  0  0  0
    4.1325    0.6958    1.4825 O   0  0  0  0  0  0  0  0  0  0  0  0
    0.7161    0.1612   -1.1389 C   0  0  0  0  0  0  0  0  0  0  0  0
   -0.4651   -0.5638   -1.2728 C   0  0  0  0  0  0  0  0  0  0  0  0
  1  2  1  0
  2  3  1  0
  2  4  1  0
  4  5  1  0
  6  5  1  1
  6  7  1  0
  6  8  1  0
  8  9  2  0
  9 10  1  0
 10 11  2  0
 11 12  1  0
 12 13  1  0
 13 14  1  0
 13 15  2  0
 13 16  2  0
 11 17  1  0
 17 18  2  0
 18  8  1  0
M  END
>  <supplier_code>  (354) 
DB00489

>  <zinc_id>  (354) 
ZINC000000004166

>  <catalog_short_name>  (354) 
dbfda

$$$$

     RDKit          3D

 18 18  0  0  0  0  0  0  0  0999 V2000
   -3.0259    2.6976   -0.9599 C   0  0  0  0  0  0  0  0  0  0  0  0
   -3.4986    1.7060    0.0446 C   0  0  0  0  0  0  0  0  0  0  0  0
   -3.0388    1.9513    1.4349 C   0  0  0  0  0  0  0  0  0  0  0  0
   -3.5295    0.3548   -0.3861 N   0  0  0  0  0  0  0  0  0  0  0  0
   -2.8976   -0.6066    0.4674 C   0  0  0  0  0  0  0  0  0  0  0  0
   -2.4060   -1.7633   -0.6224 C   0  0  2  0  0  0  0  0  0  0  0  0
   -2.4239   -2.8475    0.4562 O   0  0  0  0  0  0  0  0  0  0  0  0
   -0.8431   -1.4283   -0.3395 C   0  0  0  0  0  0  0  0  0  0  0  0
   -0.4618   -0.1479   -0.6024 C   0  0  0  0  0  0  0  0  0  0  0  0
    0.8804    0.1384   -0.3848 C   0  0  0  0  0  0  0  0  0  0  0  0
    1.7255   -0.8334    0.1373 C   0  0  0  0  0  0  0  0  0  0  0  0
    2.9063   -0.3878    0.7516 N   0  0  0  0  0  0  0  0  0  0  0  0
    3.6509    1.0650    0.2381 S   0  0  0  0  0  0  0  0  0  0  0  0
    2.5343    2.2696   -0.3904 C   0  0  0  0  0  0  0  0  0  0  0  0
    4.7011    0.7110   -0.7586 O   0  0  0  0  0  0  0  0  0  0  0  0
    4.3374    1.7091    1.4218 O   0  0  0  0  0  0  0  0  0  0  0  0
    1.3526   -2.1312   -0.0880 C   0  0  0  0  0  0  0  0  0  0  0  0
    0.0368   -2.4569   -0.4198 C   0  0  0  0  0  0  0  0  0  0  0  0
  1  2  1  0
  2  3  1  0
  2  4  1  0
  4  5  1  0
  6  5  1  1
  6  7  1  0
  6  8  1  0
  8  9  2  0
  9 10  1  0
 10 11  2  0
 11 12  1  0
 12 13  1  0
 13 14  1  0
 13 15  2  0
 13 16  2  0
 11 17  1  0
 17 18  2  0
 18  8  1  0
M  END
>  <supplier_code>  (355) 
DB00489

>  <zinc_id>  (355) 
ZINC000000896819

>  <catalog_short_name>  (355) 
dbfda

$$$$

     RDKit          3D

 28 31  0  0  0  0  0  0  0  0999 V2000
    2.0055   -0.2846   -1.4816 O   0  0  0  0  0  0  0  0  0  0  0  0
    2.9439   -0.2836   -0.6373 C   0  0  0  0  0  0  0  0  0  0  0  0
    4.3572   -0.0321   -0.9763 C   0  0  0  0  0  0  0  0  0  0  0  0
    5.1380    0.6280    0.1189 C   0  0  0  0  0  0  0  0  0  0  0  0
    6.4971   -0.0439    0.1797 C   0  0  0  0  0  0  0  0  0  0  0  0
    7.0673    0.3346   -1.1822 C   0  0  0  0  0  0  0  0  0  0  0  0
    6.4075    1.6510   -1.5550 C   0  0  0  0  0  0  0  0  0  0  0  0
    5.5238    2.0158   -0.3677 C   0  0  0  0  0  0  0  0  0  0  0  0
    4.4426    0.6648    1.4436 C   0  0  0  0  0  0  0  0  0  0  0  0
    3.6092   -0.5446    1.6678 C   0  0  0  0  0  0  0  0  0  0  0  0
    3.4060   -0.9986    2.8228 O   0  0  0  0  0  0  0  0  0  0  0  0
    2.6197   -0.7944    0.6613 N   0  0  0  0  0  0  0  0  0  0  0  0
    1.5716   -1.7563    0.8945 C   0  0  0  0  0  0  0  0  0  0  0  0
    0.2067   -1.1359    0.7798 C   0  0  0  0  0  0  0  0  0  0  0  0
    0.0374   -0.1344    1.8878 C   0  0  0  0  0  0  0  0  0  0  0  0
   -0.5068    1.1468    1.2648 C   0  0  0  0  0  0  0  0  0  0  0  0
   -1.8481    0.8863    0.8721 N   0  0  0  0  0  0  0  0  0  0  0  0
   -2.0504    0.1309   -0.2965 C   0  0  0  0  0  0  0  0  0  0  0  0
   -2.7976    0.8096   -1.4042 C   0  0  0  0  0  0  0  0  0  0  0  0
   -4.0257    1.3337   -0.8116 N   0  0  0  0  0  0  0  0  0  0  0  0
   -5.1880    0.5319   -0.8817 C   0  0  0  0  0  0  0  0  0  0  0  0
   -5.2148   -0.6485   -1.5074 N   0  0  0  0  0  0  0  0  0  0  0  0
   -6.3502   -1.3589   -1.5678 C   0  0  0  0  0  0  0  0  0  0  0  0
   -7.4536   -0.9623   -0.8405 C   0  0  0  0  0  0  0  0  0  0  0  0
   -7.4052    0.2831   -0.2278 C   0  0  0  0  0  0  0  0  0  0  0  0
   -6.3422    1.0787   -0.4397 N   0  0  0  0  0  0  0  0  0  0  0  0
   -3.8095    2.2702    0.2830 C   0  0  0  0  0  0  0  0  0  0  0  0
   -2.8411    1.7788    1.3012 C   0  0  0  0  0  0  0  0  0  0  0  0
  1  2  2  0
  2  3  1  0
  3  4  1  0
  4  5  1  0
  5  6  1  0
  6  7  1  0
  7  8  1  0
  4  9  1  0
  9 10  1  0
 10 11  2  0
 10 12  1  0
 12 13  1  0
 13 14  1  0
 14 15  1  0
 15 16  1  0
 16 17  1  0
 17 18  1  0
 18 19  1  0
 19 20  1  0
 20 21  1  0
 21 22  2  0
 22 23  1  0
 23 24  2  0
 24 25  1  0
 25 26  2  0
 20 27  1  0
 27 28  1  0
 12  2  1  0
 28 17  1  0
  8  4  1  0
 26 21  1  0
M  END
>  <supplier_code>  (356) 
DB00490

>  <zinc_id>  (356) 
ZINC000001530571

>  <catalog_short_name>  (356) 
dbfda

$$$$

     RDKit          3D

 14 14  0  0  0  0  0  0  0  0999 V2000
    3.2812   -0.7070    0.5768 O   0  0  0  0  0  0  0  0  0  0  0  0
    2.8843    0.5895    0.3003 C   0  0  0  0  0  0  0  0  0  0  0  0
    1.3934    0.6695    0.6090 C   0  0  0  0  0  0  0  0  0  0  0  0
    0.7327    0.5869   -0.6114 N   0  0  0  0  0  0  0  0  0  0  0  0
    0.6116   -0.5829   -1.3282 C   0  0  0  0  0  0  0  0  0  0  0  0
    0.1329   -1.8171   -0.3594 C   0  0  2  0  0  0  0  0  0  0  0  0
   -0.2517   -2.6491   -1.5689 O   0  0  0  0  0  0  0  0  0  0  0  0
   -1.4779   -1.2300   -0.2298 C   0  0  1  0  0  0  0  0  0  0  0  0
   -1.7731   -2.1622    0.9084 O   0  0  0  0  0  0  0  0  0  0  0  0
   -1.0203    0.0156    0.8454 C   0  0  2  0  0  0  0  0  0  0  0  0
   -2.4519    0.4572    0.9605 O   0  0  0  0  0  0  0  0  0  0  0  0
   -0.7429    1.0792   -0.4682 C   0  0  1  0  0  0  0  0  0  0  0  0
   -0.3330    2.3362    0.4947 C   0  0  0  0  0  0  0  0  0  0  0  0
   -0.9852    3.4142   -0.1292 O   0  0  0  0  0  0  0  0  0  0  0  0
  1  2  1  0
  2  3  1  0
  3  4  1  0
  4  5  1  0
  5  6  1  0
  6  7  1  6
  6  8  1  0
  8  9  1  1
  8 10  1  0
 10 11  1  1
 10 12  1  0
 12 13  1  1
 13 14  1  0
 12  4  1  0
M  END
>  <supplier_code>  (357) 
DB00491

>  <zinc_id>  (357) 
ZINC000004097426

>  <catalog_short_name>  (357) 
dbfda

$$$$

     RDKit          3D

 39 41  0  0  0  0  0  0  0  0999 V2000
   -2.0853   -6.1675    1.7214 C   0  0  0  0  0  0  0  0  0  0  0  0
   -1.0356   -5.4787    1.6212 C   0  0  0  0  0  0  0  0  0  0  0  0
   -1.0719   -4.2805    0.7305 C   0  0  0  0  0  0  0  0  0  0  0  0
   -0.5659   -3.2494    1.2713 O   0  0  0  0  0  0  0  0  0  0  0  0
   -2.2524   -3.9851    0.1089 O   0  0  0  0  0  0  0  0  0  0  0  0
   -2.1409   -2.8859   -1.0363 C   0  0  1  0  0  0  0  0  0  0  0  0
   -1.1417   -1.9990   -0.2190 O   0  0  0  0  0  0  0  0  0  0  0  0
   -0.7490   -0.7256   -1.2038 P   0  0  1  0  0  0  0  0  0  0  0  0
    0.4055   -1.0404   -2.1436 O   0  0  0  0  0  0  0  0  0  0  0  0
   -2.1539    0.0127   -2.0481 C   0  0  0  0  0  0  0  0  0  0  0  0
   -2.8244    0.9815   -1.0970 C   0  0  0  0  0  0  0  0  0  0  0  0
   -3.6780    0.1810   -0.1218 C   0  0  0  0  0  0  0  0  0  0  0  0
   -4.2466    1.0479    0.9652 C   0  0  0  0  0  0  0  0  0  0  0  0
   -5.0792    2.1685    0.4261 C   0  0  0  0  0  0  0  0  0  0  0  0
   -6.4364    1.9482    0.2246 C   0  0  0  0  0  0  0  0  0  0  0  0
   -7.3673    2.9576    0.4374 C   0  0  0  0  0  0  0  0  0  0  0  0
   -6.9682    4.2006    0.8637 C   0  0  0  0  0  0  0  0  0  0  0  0
   -5.6222    4.4639    1.0150 C   0  0  0  0  0  0  0  0  0  0  0  0
   -4.7159    3.4981    0.5957 C   0  0  0  0  0  0  0  0  0  0  0  0
   -0.1128    0.5803   -0.0964 C   0  0  0  0  0  0  0  0  0  0  0  0
    1.0530    1.2721   -0.7425 C   0  0  0  0  0  0  0  0  0  0  0  0
    0.8486    2.5209   -0.8620 O   0  0  0  0  0  0  0  0  0  0  0  0
    2.3182    0.7768   -0.2793 N   0  0  0  0  0  0  0  0  0  0  0  0
    2.6659    1.1054    1.1085 C   0  0  0  0  0  0  0  0  0  0  0  0
    3.7507   -0.1465    1.0164 C   0  0  2  0  0  0  0  0  0  0  0  0
    4.6957    0.3825    2.2638 C   0  0  0  0  0  0  0  0  0  0  0  0
    6.1077    0.2107    1.8715 C   0  0  0  0  0  0  0  0  0  0  0  0
    6.8727    1.4064    2.4270 C   0  0  0  0  0  0  0  0  0  0  0  0
    6.3303    2.6926    1.8683 C   0  0  0  0  0  0  0  0  0  0  0  0
    4.8499    2.8583    2.1082 C   0  0  0  0  0  0  0  0  0  0  0  0
    4.2395    1.6538    2.7742 C   0  0  0  0  0  0  0  0  0  0  0  0
    4.6841    0.5815   -0.1310 C   0  0  0  0  0  0  0  0  0  0  0  0
    3.5744    1.6736   -0.7256 C   0  0  1  0  0  0  0  0  0  0  0  0
    3.5360    1.0412   -2.2417 C   0  0  0  0  0  0  0  0  0  0  0  0
    3.6223    2.0028   -3.0651 O   0  0  0  0  0  0  0  0  0  0  0  0
    4.1447   -0.1223   -2.4894 O   0  0  0  0  0  0  0  0  0  0  0  0
   -0.8767   -3.7030   -1.8383 C   0  0  0  0  0  0  0  0  0  0  0  0
   -1.3155   -5.1471   -1.8150 C   0  0  0  0  0  0  0  0  0  0  0  0
   -1.2594   -3.2881   -3.2629 C   0  0  0  0  0  0  0  0  0  0  0  0
  1  2  1  0
  2  3  1  0
  3  4  2  0
  3  5  1  0
  6  5  1  1
  6  7  1  0
  8  7  1  1
  8  9  2  0
  8 10  1  0
 10 11  1  0
 11 12  1  0
 12 13  1  0
 13 14  1  0
 14 15  2  0
 15 16  1  0
 16 17  2  0
 17 18  1  0
 18 19  2  0
  8 20  1  0
 20 21  1  0
 21 22  2  0
 21 23  1  0
 23 24  1  0
 24 25  1  0
 25 26  1  1
 26 27  1  0
 27 28  1  0
 28 29  1  0
 29 30  1  0
 30 31  1  0
 25 32  1  0
 32 33  1  0
 33 34  1  6
 34 35  2  0
 34 36  1  0
  6 37  1  0
 37 38  1  0
 37 39  1  0
 19 14  1  0
 33 23  1  0
 31 26  1  0
M  END
>  <supplier_code>  (358) 
DB00492

>  <zinc_id>  (358) 
ZINC000003920355

>  <catalog_short_name>  (358) 
dbfda

$$$$

     RDKit          3D

 39 41  0  0  0  0  0  0  0  0999 V2000
   -0.2485   -5.8828   -1.1638 C   0  0  0  0  0  0  0  0  0  0  0  0
   -1.0675   -5.7323   -0.5435 C   0  0  0  0  0  0  0  0  0  0  0  0
   -1.8429   -4.4825   -0.8102 C   0  0  0  0  0  0  0  0  0  0  0  0
   -2.8833   -4.3043   -0.1552 O   0  0  0  0  0  0  0  0  0  0  0  0
   -1.3139   -3.6055   -1.7351 O   0  0  0  0  0  0  0  0  0  0  0  0
   -2.2963   -2.3951   -2.0504 C   0  0  1  0  0  0  0  0  0  0  0  0
   -1.0920   -1.4358   -2.3297 O   0  0  0  0  0  0  0  0  0  0  0  0
   -1.0489   -0.4495   -0.9378 P   0  0  2  0  0  0  0  0  0  0  0  0
   -1.9052   -1.0071    0.1637 O   0  0  0  0  0  0  0  0  0  0  0  0
   -1.6458    1.2000   -1.3313 C   0  0  0  0  0  0  0  0  0  0  0  0
   -2.2076    1.9367   -0.1531 C   0  0  0  0  0  0  0  0  0  0  0  0
   -1.8983    1.3251    1.1697 C   0  0  0  0  0  0  0  0  0  0  0  0
   -2.9421    1.5386    2.2232 C   0  0  0  0  0  0  0  0  0  0  0  0
   -4.1563    2.1944    1.6909 C   0  0  0  0  0  0  0  0  0  0  0  0
   -4.7265    3.2270    2.4193 C   0  0  0  0  0  0  0  0  0  0  0  0
   -6.0637    3.5025    2.2308 C   0  0  0  0  0  0  0  0  0  0  0  0
   -6.7863    2.9542    1.1782 C   0  0  0  0  0  0  0  0  0  0  0  0
   -6.2128    1.9069    0.5104 C   0  0  0  0  0  0  0  0  0  0  0  0
   -4.8471    1.7048    0.5927 C   0  0  0  0  0  0  0  0  0  0  0  0
    0.6550   -0.4531   -0.3259 C   0  0  0  0  0  0  0  0  0  0  0  0
    1.2856    0.8780   -0.3829 C   0  0  0  0  0  0  0  0  0  0  0  0
    0.8705    1.6625   -1.2892 O   0  0  0  0  0  0  0  0  0  0  0  0
    1.8712    1.5037    0.7431 N   0  0  0  0  0  0  0  0  0  0  0  0
    2.4110    0.7104    1.8504 C   0  0  0  0  0  0  0  0  0  0  0  0
    3.2323   -0.3875    0.9267 C   0  0  2  0  0  0  0  0  0  0  0  0
    4.5796   -0.4236    1.8920 C   0  0  0  0  0  0  0  0  0  0  0  0
    4.7158    0.8391    2.5920 C   0  0  0  0  0  0  0  0  0  0  0  0
    6.0628    1.4643    2.6688 C   0  0  0  0  0  0  0  0  0  0  0  0
    7.0894    0.3549    2.4837 C   0  0  0  0  0  0  0  0  0  0  0  0
    6.9412   -0.1095    1.0414 C   0  0  0  0  0  0  0  0  0  0  0  0
    5.6403   -0.8171    0.9298 C   0  0  0  0  0  0  0  0  0  0  0  0
    3.8992    0.7186   -0.0975 C   0  0  0  0  0  0  0  0  0  0  0  0
    3.3561    2.1054    0.6432 C   0  0  1  0  0  0  0  0  0  0  0  0
    3.0103    2.9185   -0.7431 C   0  0  0  0  0  0  0  0  0  0  0  0
    3.1995    4.1448   -0.4584 O   0  0  0  0  0  0  0  0  0  0  0  0
    3.6041    2.4990   -1.8854 O   0  0  0  0  0  0  0  0  0  0  0  0
   -2.4238   -2.7877   -3.6982 C   0  0  0  0  0  0  0  0  0  0  0  0
   -3.6578   -3.6156   -3.7769 C   0  0  0  0  0  0  0  0  0  0  0  0
   -1.1571   -3.4006   -4.0824 C   0  0  0  0  0  0  0  0  0  0  0  0
  1  2  1  0
  2  3  1  0
  3  4  2  0
  3  5  1  0
  6  5  1  1
  6  7  1  0
  8  7  1  6
  8  9  2  0
  8 10  1  0
 10 11  1  0
 11 12  1  0
 12 13  1  0
 13 14  1  0
 14 15  2  0
 15 16  1  0
 16 17  2  0
 17 18  1  0
 18 19  2  0
  8 20  1  0
 20 21  1  0
 21 22  2  0
 21 23  1  0
 23 24  1  0
 24 25  1  0
 25 26  1  1
 26 27  1  0
 27 28  1  0
 28 29  1  0
 29 30  1  0
 30 31  1  0
 25 32  1  0
 32 33  1  0
 33 34  1  6
 34 35  2  0
 34 36  1  0
  6 37  1  0
 37 38  1  0
 37 39  1  0
 19 14  1  0
 33 23  1  0
 31 26  1  0
M  END
>  <supplier_code>  (359) 
DB00492

>  <zinc_id>  (359) 
ZINC000003977764

>  <catalog_short_name>  (359) 
dbfda

$$$$

     RDKit          3D

 39 41  0  0  0  0  0  0  0  0999 V2000
   -4.2189    5.7456   -0.8871 C   0  0  0  0  0  0  0  0  0  0  0  0
   -3.0301    5.2543   -0.2255 C   0  0  0  0  0  0  0  0  0  0  0  0
   -3.0851    3.7775   -0.3967 C   0  0  0  0  0  0  0  0  0  0  0  0
   -4.1742    3.2041   -0.1511 O   0  0  0  0  0  0  0  0  0  0  0  0
   -2.1055    2.9947   -0.9678 O   0  0  0  0  0  0  0  0  0  0  0  0
   -2.6275    2.3446   -2.3224 C   0  0  2  0  0  0  0  0  0  0  0  0
   -2.1535    0.9097   -1.9577 O   0  0  0  0  0  0  0  0  0  0  0  0
   -1.3351    0.6793   -0.6602 P   0  0  1  0  0  0  0  0  0  0  0  0
   -1.1655    1.5445    0.4970 O   0  0  0  0  0  0  0  0  0  0  0  0
   -1.9668   -0.8858    0.0808 C   0  0  0  0  0  0  0  0  0  0  0  0
   -2.4164   -0.7033    1.5047 C   0  0  0  0  0  0  0  0  0  0  0  0
   -3.7056    0.0250    1.6734 C   0  0  0  0  0  0  0  0  0  0  0  0
   -4.9143   -0.8564    1.7863 C   0  0  0  0  0  0  0  0  0  0  0  0
   -4.6676   -2.2707    1.4558 C   0  0  0  0  0  0  0  0  0  0  0  0
   -3.7869   -3.0646    2.1742 C   0  0  0  0  0  0  0  0  0  0  0  0
   -4.0105   -4.3777    2.4492 C   0  0  0  0  0  0  0  0  0  0  0  0
   -5.0425   -5.0310    1.7919 C   0  0  0  0  0  0  0  0  0  0  0  0
   -5.9099   -4.3074    0.9888 C   0  0  0  0  0  0  0  0  0  0  0  0
   -5.7341   -2.9560    0.8770 C   0  0  0  0  0  0  0  0  0  0  0  0
    0.3693    0.2768   -1.1894 C   0  0  0  0  0  0  0  0  0  0  0  0
    1.0044   -0.8123   -0.4450 C   0  0  0  0  0  0  0  0  0  0  0  0
    0.5212   -1.9542   -0.7242 O   0  0  0  0  0  0  0  0  0  0  0  0
    2.4444   -0.7744   -0.3634 N   0  0  0  0  0  0  0  0  0  0  0  0
    3.4149   -1.7381   -0.4180 C   0  0  0  0  0  0  0  0  0  0  0  0
    4.7426   -0.7598   -0.4470 C   0  0  2  0  0  0  0  0  0  0  0  0
    5.7418   -1.9595    0.0882 C   0  0  0  0  0  0  0  0  0  0  0  0
    5.2599   -2.4736    1.3557 C   0  0  0  0  0  0  0  0  0  0  0  0
    6.3739   -2.7729    2.3064 C   0  0  0  0  0  0  0  0  0  0  0  0
    7.3311   -1.6255    2.4763 C   0  0  0  0  0  0  0  0  0  0  0  0
    7.3225   -0.6477    1.3471 C   0  0  0  0  0  0  0  0  0  0  0  0
    7.1284   -1.3968    0.0343 C   0  0  0  0  0  0  0  0  0  0  0  0
    4.3003   -0.2692    1.0670 C   0  0  0  0  0  0  0  0  0  0  0  0
    2.9078    0.4788    0.5146 C   0  0  1  0  0  0  0  0  0  0  0  0
    3.7108    1.2201   -0.7168 C   0  0  0  0  0  0  0  0  0  0  0  0
    3.1702    1.1502   -1.8175 O   0  0  0  0  0  0  0  0  0  0  0  0
    4.0473    2.5034   -0.2670 O   0  0  0  0  0  0  0  0  0  0  0  0
   -1.1529    2.7055   -3.1001 C   0  0  0  0  0  0  0  0  0  0  0  0
   -1.5434    2.6123   -4.5689 C   0  0  0  0  0  0  0  0  0  0  0  0
   -1.0446    4.2099   -2.8427 C   0  0  0  0  0  0  0  0  0  0  0  0
  1  2  1  0
  2  3  1  0
  3  4  2  0
  3  5  1  0
  6  5  1  1
  6  7  1  0
  8  7  1  6
  8  9  2  0
  8 10  1  0
 10 11  1  0
 11 12  1  0
 12 13  1  0
 13 14  1  0
 14 15  2  0
 15 16  1  0
 16 17  2  0
 17 18  1  0
 18 19  2  0
  8 20  1  0
 20 21  1  0
 21 22  2  0
 21 23  1  0
 23 24  1  0
 24 25  1  0
 25 26  1  1
 26 27  1  0
 27 28  1  0
 28 29  1  0
 29 30  1  0
 30 31  1  0
 25 32  1  0
 32 33  1  0
 33 34  1  6
 34 35  2  0
 34 36  1  0
  6 37  1  0
 37 38  1  0
 37 39  1  0
 19 14  1  0
 33 23  1  0
 31 26  1  0
M  END
>  <supplier_code>  (360) 
DB00492

>  <zinc_id>  (360) 
ZINC000004097309

>  <catalog_short_name>  (360) 
dbfda

$$$$

     RDKit          3D

 39 41  0  0  0  0  0  0  0  0999 V2000
    2.8837    5.4227    0.1457 C   0  0  0  0  0  0  0  0  0  0  0  0
    2.2949    5.3783   -0.1605 C   0  0  0  0  0  0  0  0  0  0  0  0
    1.2607    4.3986   -0.6132 C   0  0  0  0  0  0  0  0  0  0  0  0
    0.1607    4.4255    0.0178 O   0  0  0  0  0  0  0  0  0  0  0  0
    1.7300    3.2225   -1.2152 O   0  0  0  0  0  0  0  0  0  0  0  0
    0.4824    2.3410   -1.6719 C   0  0  2  0  0  0  0  0  0  0  0  0
    1.3843    1.0630   -1.8028 O   0  0  0  0  0  0  0  0  0  0  0  0
    1.4817    0.6181   -0.1595 P   0  0  2  0  0  0  0  0  0  0  0  0
    2.3562    1.5350    0.6260 O   0  0  0  0  0  0  0  0  0  0  0  0
    1.9859   -1.1133   -0.0741 C   0  0  0  0  0  0  0  0  0  0  0  0
    3.4626   -1.2935    0.1126 C   0  0  0  0  0  0  0  0  0  0  0  0
    3.9393   -2.1554   -1.0511 C   0  0  0  0  0  0  0  0  0  0  0  0
    5.4442   -2.3042   -0.8838 C   0  0  0  0  0  0  0  0  0  0  0  0
    5.6385   -3.3178    0.1998 C   0  0  0  0  0  0  0  0  0  0  0  0
    5.4740   -2.9600    1.5327 C   0  0  0  0  0  0  0  0  0  0  0  0
    5.4300   -3.9343    2.4992 C   0  0  0  0  0  0  0  0  0  0  0  0
    5.2080   -5.2578    2.1600 C   0  0  0  0  0  0  0  0  0  0  0  0
    5.0576   -5.5740    0.8274 C   0  0  0  0  0  0  0  0  0  0  0  0
    5.3165   -4.6236   -0.1485 C   0  0  0  0  0  0  0  0  0  0  0  0
   -0.2453    0.6142    0.4391 C   0  0  0  0  0  0  0  0  0  0  0  0
   -0.9467   -0.4377   -0.3626 C   0  0  0  0  0  0  0  0  0  0  0  0
   -0.4476   -0.8267   -1.4642 O   0  0  0  0  0  0  0  0  0  0  0  0
   -2.1380   -1.0605   -0.0061 N   0  0  0  0  0  0  0  0  0  0  0  0
   -2.5203   -1.5385    1.2296 C   0  0  0  0  0  0  0  0  0  0  0  0
   -3.3358   -0.3194    1.9857 C   0  0  2  0  0  0  0  0  0  0  0  0
   -4.8068   -0.9610    1.5497 C   0  0  0  0  0  0  0  0  0  0  0  0
   -5.2143   -1.6314    2.8557 C   0  0  0  0  0  0  0  0  0  0  0  0
   -5.9988   -0.6494    3.7059 C   0  0  0  0  0  0  0  0  0  0  0  0
   -7.3345   -0.3116    3.0708 C   0  0  0  0  0  0  0  0  0  0  0  0
   -7.1238   -0.2134    1.5801 C   0  0  0  0  0  0  0  0  0  0  0  0
   -5.7007    0.2298    1.3437 C   0  0  0  0  0  0  0  0  0  0  0  0
   -3.3320    0.7142    0.6923 C   0  0  0  0  0  0  0  0  0  0  0  0
   -3.5909   -0.5155   -0.4160 C   0  0  1  0  0  0  0  0  0  0  0  0
   -3.0464    0.3438   -1.7079 C   0  0  0  0  0  0  0  0  0  0  0  0
   -3.6109    0.0176   -2.7747 O   0  0  0  0  0  0  0  0  0  0  0  0
   -2.4452    1.5183   -1.5191 O   0  0  0  0  0  0  0  0  0  0  0  0
    0.7441    2.7450   -3.3080 C   0  0  0  0  0  0  0  0  0  0  0  0
   -0.4823    2.1528   -3.9747 C   0  0  0  0  0  0  0  0  0  0  0  0
    0.5847    4.2587   -3.2599 C   0  0  0  0  0  0  0  0  0  0  0  0
  1  2  1  0
  2  3  1  0
  3  4  2  0
  3  5  1  0
  6  5  1  1
  6  7  1  0
  8  7  1  6
  8  9  2  0
  8 10  1  0
 10 11  1  0
 11 12  1  0
 12 13  1  0
 13 14  1  0
 14 15  2  0
 15 16  1  0
 16 17  2  0
 17 18  1  0
 18 19  2  0
  8 20  1  0
 20 21  1  0
 21 22  2  0
 21 23  1  0
 23 24  1  0
 24 25  1  0
 25 26  1  6
 26 27  1  0
 27 28  1  0
 28 29  1  0
 29 30  1  0
 30 31  1  0
 25 32  1  0
 32 33  1  0
 33 34  1  6
 34 35  2  0
 34 36  1  0
  6 37  1  0
 37 38  1  0
 37 39  1  0
 19 14  1  0
 33 23  1  0
 31 26  1  0
M  END
>  <supplier_code>  (361) 
DB00492

>  <zinc_id>  (361) 
ZINC000004097310

>  <catalog_short_name>  (361) 
dbfda

$$$$

     RDKit          3D

 30 32  0  0  0  0  0  0  0  0999 V2000
   -3.5221   -2.4784    2.8910 C   0  0  0  0  0  0  0  0  0  0  0  0
   -3.4808   -2.2925    2.0020 O   0  0  0  0  0  0  0  0  0  0  0  0
   -4.2389   -1.5812    1.1083 N   0  0  0  0  0  0  0  0  0  0  0  0
   -3.6263   -0.6044    0.4980 C   0  0  0  0  0  0  0  0  0  0  0  0
   -2.4609   -1.0752   -0.2634 C   0  0  0  0  0  0  0  0  0  0  0  0
   -2.6210   -0.9518   -1.5171 O   0  0  0  0  0  0  0  0  0  0  0  0
   -1.2207   -1.4894    0.3272 N   0  0  0  0  0  0  0  0  0  0  0  0
   -0.1793   -1.5403   -0.8578 C   0  0  2  0  0  0  0  0  0  0  0  0
    1.1436   -1.8989   -0.0219 C   0  0  0  0  0  0  0  0  0  0  0  0
    1.6563   -3.0554   -0.1683 O   0  0  0  0  0  0  0  0  0  0  0  0
    1.6723   -0.7160   -0.6699 N   0  0  0  0  0  0  0  0  0  0  0  0
    2.7823    0.1855   -0.5956 C   0  0  0  0  0  0  0  0  0  0  0  0
    3.7719   -0.1400   -1.6132 C   0  0  0  0  0  0  0  0  0  0  0  0
    4.1575   -1.2941   -1.8715 O   0  0  0  0  0  0  0  0  0  0  0  0
    3.9495    0.8306   -2.6082 O   0  0  0  0  0  0  0  0  0  0  0  0
    2.8154    1.2736    0.1606 C   0  0  0  0  0  0  0  0  0  0  0  0
    4.1497    1.9425    0.3141 C   0  0  0  0  0  0  0  0  0  0  0  0
    5.1544    0.9702    0.1927 O   0  0  0  0  0  0  0  0  0  0  0  0
    6.5017    1.2077    0.0638 C   0  0  0  0  0  0  0  0  0  0  0  0
    7.4310    0.1949   -0.5329 C   0  0  0  0  0  0  0  0  0  0  0  0
    6.8593    2.4123   -0.1103 O   0  0  0  0  0  0  0  0  0  0  0  0
    1.9510    1.3101    1.3830 C   0  0  0  0  0  0  0  0  0  0  0  0
    0.4823    0.2433    1.2378 S   0  0  0  0  0  0  0  0  0  0  0  0
    0.3494    0.0372   -0.6563 C   0  0  2  0  0  0  0  0  0  0  0  0
   -4.4826    0.4612   -0.0688 C   0  0  0  0  0  0  0  0  0  0  0  0
   -4.0283    1.2124   -1.1558 C   0  0  0  0  0  0  0  0  0  0  0  0
   -5.2483    2.4186   -1.2404 S   0  0  0  0  0  0  0  0  0  0  0  0
   -6.3150    1.7242   -0.0936 C   0  0  0  0  0  0  0  0  0  0  0  0
   -7.5628    2.2300    0.3951 N   0  0  0  0  0  0  0  0  0  0  0  0
   -5.8407    0.4633   -0.0678 N   0  0  0  0  0  0  0  0  0  0  0  0
  1  2  1  0
  2  3  1  0
  3  4  2  0
  4  5  1  0
  5  6  2  0
  5  7  1  0
  8  7  1  1
  8  9  1  0
  9 10  2  0
  9 11  1  0
 11 12  1  0
 12 13  1  0
 13 14  2  0
 13 15  1  0
 12 16  2  0
 16 17  1  0
 17 18  1  0
 18 19  1  0
 19 20  1  0
 19 21  2  0
 16 22  1  0
 22 23  1  0
 24 23  1  1
  4 25  1  0
 25 26  2  0
 26 27  1  0
 27 28  1  0
 28 29  1  0
 28 30  2  0
 24  8  1  0
 30 25  1  0
 24 11  1  0
M  END
>  <supplier_code>  (362) 
DB00493

>  <zinc_id>  (362) 
ZINC000004468780

>  <catalog_short_name>  (362) 
dbfda

$$$$

     RDKit          3D

 22 22  0  0  0  0  0  0  0  0999 V2000
    3.2659    2.8243   -0.4264 C   0  0  0  0  0  0  0  0  0  0  0  0
    4.2653    1.9501    0.2775 C   0  0  0  0  0  0  0  0  0  0  0  0
    4.0709    0.5372   -0.0415 N   0  0  0  0  0  0  0  0  0  0  0  0
    5.2814   -0.2767    0.0476 C   0  0  0  0  0  0  0  0  0  0  0  0
    5.0074   -1.7388   -0.1377 C   0  0  0  0  0  0  0  0  0  0  0  0
    2.8615   -0.1303    0.3353 C   0  0  0  0  0  0  0  0  0  0  0  0
    2.8711   -1.0776    1.1692 O   0  0  0  0  0  0  0  0  0  0  0  0
    1.6063    0.0445   -0.4062 C   0  0  0  0  0  0  0  0  0  0  0  0
    1.0693   -1.0641   -1.1652 C   0  0  0  0  0  0  0  0  0  0  0  0
    0.5647   -2.0216   -1.6048 N   0  0  0  0  0  0  0  0  0  0  0  0
    0.7095    0.8254    0.1991 C   0  0  0  0  0  0  0  0  0  0  0  0
   -0.7166    0.6880    0.0314 C   0  0  0  0  0  0  0  0  0  0  0  0
   -1.5456    1.7214   -0.3635 C   0  0  0  0  0  0  0  0  0  0  0  0
   -2.9133    1.6922   -0.1161 C   0  0  0  0  0  0  0  0  0  0  0  0
   -3.7161    2.8051   -0.2969 O   0  0  0  0  0  0  0  0  0  0  0  0
   -3.5057    0.5147    0.3257 C   0  0  0  0  0  0  0  0  0  0  0  0
   -4.7732    0.5144    0.9163 O   0  0  0  0  0  0  0  0  0  0  0  0
   -2.6748   -0.5774    0.5036 C   0  0  0  0  0  0  0  0  0  0  0  0
   -3.2743   -1.8775    0.5438 N   0  0  0  0  0  0  0  0  0  0  0  0
   -2.5405   -2.8825    0.3633 O   0  0  0  0  0  0  0  0  0  0  0  0
   -4.5910   -2.0522    0.1662 O   0  0  0  0  0  0  0  0  0  0  0  0
   -1.3223   -0.4185    0.6125 C   0  0  0  0  0  0  0  0  0  0  0  0
  1  2  1  0
  2  3  1  0
  3  4  1  0
  4  5  1  0
  3  6  1  0
  6  7  2  0
  6  8  1  0
  8  9  1  0
  9 10  3  0
  8 11  2  0
 11 12  1  0
 12 13  2  0
 13 14  1  0
 14 15  1  0
 14 16  2  0
 16 17  1  0
 16 18  1  0
 18 19  1  0
 19 20  2  0
 19 21  1  0
 18 22  2  0
 22 12  1  0
M  CHG  2  19   1  21  -1
M  END
>  <supplier_code>  (363) 
DB00494

>  <zinc_id>  (363) 
ZINC000035342787

>  <catalog_short_name>  (363) 
dbfda

$$$$

     RDKit          3D

 19 20  0  0  0  0  0  0  0  0999 V2000
    3.8120    1.6318    0.2240 C   0  0  0  0  0  0  0  0  0  0  0  0
    3.0190    0.7259   -0.0664 C   0  0  0  0  0  0  0  0  0  0  0  0
    1.6872    0.8977   -0.4239 C   0  0  0  0  0  0  0  0  0  0  0  0
    0.9325   -0.1520   -0.5031 N   0  0  0  0  0  0  0  0  0  0  0  0
   -0.5980   -0.0242   -0.8888 C   0  0  1  0  0  0  0  0  0  0  0  0
   -1.0676   -0.3811    0.6559 C   0  0  0  0  0  0  0  0  0  0  0  0
   -2.3578    0.6048    0.7379 C   0  0  2  0  0  0  0  0  0  0  0  0
   -3.3612   -0.4898    0.2622 N   0  0  0  0  0  0  0  0  0  0  0  0
   -3.3328   -1.5650    0.8450 N   0  0  0  0  0  0  0  0  0  0  0  0
   -3.1097   -2.7839    0.7369 N   0  0  0  0  0  0  0  0  0  0  0  0
   -2.1712    1.1720   -0.8714 C   0  0  1  0  0  0  0  0  0  0  0  0
   -2.6614    2.7033   -0.5707 C   0  0  0  0  0  0  0  0  0  0  0  0
   -2.6511    2.9507    0.7506 O   0  0  0  0  0  0  0  0  0  0  0  0
   -0.7179    1.4729   -0.5709 O   0  0  0  0  0  0  0  0  0  0  0  0
    1.3117   -1.4394   -0.3134 C   0  0  0  0  0  0  0  0  0  0  0  0
    0.4885   -2.3381    0.0277 O   0  0  0  0  0  0  0  0  0  0  0  0
    2.6427   -1.6457   -0.1871 N   0  0  0  0  0  0  0  0  0  0  0  0
    3.4609   -0.5882    0.0256 C   0  0  0  0  0  0  0  0  0  0  0  0
    4.6740   -0.7518    0.2617 O   0  0  0  0  0  0  0  0  0  0  0  0
  1  2  1  0
  2  3  2  0
  3  4  1  0
  5  4  1  1
  5  6  1  0
  6  7  1  0
  7  8  1  6
  8  9  2  3
  9 10  2  0
  7 11  1  0
 11 12  1  1
 12 13  1  0
 11 14  1  0
  4 15  1  0
 15 16  2  0
 15 17  1  0
 17 18  1  0
 18 19  2  0
 18  2  1  0
 14  5  1  0
M  CHG  2   9   1  10  -1
M  END
>  <supplier_code>  (364) 
DB00495

>  <zinc_id>  (364) 
ZINC000003779042

>  <catalog_short_name>  (364) 
dbfda

$$$$

     RDKit          3D

 32 36  0  0  0  0  0  0  0  0999 V2000
   -1.6207   -1.8304   -0.4887 N   0  0  0  0  0  0  0  0  0  0  0  0
   -1.9042   -1.7973   -0.5733 C   0  0  0  0  0  0  0  0  0  0  0  0
   -1.7708   -2.6267   -1.4670 O   0  0  0  0  0  0  0  0  0  0  0  0
   -2.4229   -0.4752   -0.4140 C   0  0  0  0  0  0  0  0  0  0  0  0
   -3.3864    0.0142   -1.4031 C   0  0  0  0  0  0  0  0  0  0  0  0
   -4.5084   -0.7444   -1.6065 C   0  0  0  0  0  0  0  0  0  0  0  0
   -5.6652   -0.2266   -2.1762 C   0  0  0  0  0  0  0  0  0  0  0  0
   -5.6446    1.0552   -2.7096 C   0  0  0  0  0  0  0  0  0  0  0  0
   -4.4045    1.6775   -2.7817 C   0  0  0  0  0  0  0  0  0  0  0  0
   -3.3622    1.2798   -1.9538 C   0  0  0  0  0  0  0  0  0  0  0  0
   -2.9745   -0.1896    0.9426 C   0  0  0  0  0  0  0  0  0  0  0  0
   -3.1976    1.1477    1.2529 C   0  0  0  0  0  0  0  0  0  0  0  0
   -3.7607    1.5401    2.4405 C   0  0  0  0  0  0  0  0  0  0  0  0
   -4.4938    0.5947    3.1443 C   0  0  0  0  0  0  0  0  0  0  0  0
   -4.1475   -0.7280    2.9368 C   0  0  0  0  0  0  0  0  0  0  0  0
   -3.4036   -1.1328    1.8328 C   0  0  0  0  0  0  0  0  0  0  0  0
   -1.1916    0.6014   -0.4492 C   0  0  2  0  0  0  0  0  0  0  0  0
   -0.7180    0.1068   -1.9303 C   0  0  0  0  0  0  0  0  0  0  0  0
    0.7601    0.4104   -1.7283 C   0  0  0  0  0  0  0  0  0  0  0  0
    1.0908   -0.0588   -0.4147 N   0  0  0  0  0  0  0  0  0  0  0  0
    1.6969    0.9600    0.4272 C   0  0  0  0  0  0  0  0  0  0  0  0
    2.3159    0.2023    1.5970 C   0  0  0  0  0  0  0  0  0  0  0  0
    3.7471   -0.0100    1.2329 C   0  0  0  0  0  0  0  0  0  0  0  0
    4.4715   -1.0679    1.7565 C   0  0  0  0  0  0  0  0  0  0  0  0
    5.8370   -1.0759    1.6039 C   0  0  0  0  0  0  0  0  0  0  0  0
    6.4973   -0.0760    0.9004 C   0  0  0  0  0  0  0  0  0  0  0  0
    5.7077    0.8981    0.2998 C   0  0  0  0  0  0  0  0  0  0  0  0
    4.3414    0.6667    0.1834 C   0  0  0  0  0  0  0  0  0  0  0  0
    6.5658    1.5515   -0.7393 C   0  0  0  0  0  0  0  0  0  0  0  0
    7.9505    1.2010   -0.2072 C   0  0  0  0  0  0  0  0  0  0  0  0
    7.7242   -0.1360    0.2325 O   0  0  0  0  0  0  0  0  0  0  0  0
   -0.1289   -0.4155    0.2596 C   0  0  0  0  0  0  0  0  0  0  0  0
  1  2  1  0
  2  3  2  0
  2  4  1  0
  4  5  1  0
  5  6  2  0
  6  7  1  0
  7  8  2  0
  8  9  1  0
  9 10  2  0
  4 11  1  0
 11 12  2  0
 12 13  1  0
 13 14  2  0
 14 15  1  0
 15 16  2  0
 17  4  1  1
 17 18  1  0
 18 19  1  0
 19 20  1  0
 20 21  1  0
 21 22  1  0
 22 23  1  0
 23 24  2  0
 24 25  1  0
 25 26  2  0
 26 27  1  0
 27 28  2  0
 27 29  1  0
 29 30  1  0
 30 31  1  0
 20 32  1  0
 10  5  1  0
 16 11  1  0
 32 17  1  0
 28 23  1  0
 31 26  1  0
M  END
>  <supplier_code>  (365) 
DB00496

>  <zinc_id>  (365) 
ZINC000001996117

>  <catalog_short_name>  (365) 
dbfda

$$$$

     RDKit          3D

 23 27  0  0  0  0  0  0  0  0999 V2000
    3.7951    0.0454    1.5480 C   0  0  0  0  0  0  0  0  0  0  0  0
    3.8362   -0.2031    0.9086 O   0  0  0  0  0  0  0  0  0  0  0  0
    2.8456   -0.1955   -0.0842 C   0  0  0  0  0  0  0  0  0  0  0  0
    2.8183   -1.1428   -1.1079 C   0  0  0  0  0  0  0  0  0  0  0  0
    1.6106   -1.5430   -1.6872 C   0  0  0  0  0  0  0  0  0  0  0  0
    0.3924   -0.9680   -1.3260 C   0  0  0  0  0  0  0  0  0  0  0  0
    0.5586    0.1384   -0.4956 C   0  0  0  0  0  0  0  0  0  0  0  0
    1.6468    0.4235    0.2601 C   0  0  0  0  0  0  0  0  0  0  0  0
    1.3533    1.4106    1.1232 O   0  0  0  0  0  0  0  0  0  0  0  0
   -0.1772    1.6236    1.1475 C   0  0  1  0  0  0  0  0  0  0  0  0
   -0.1511    2.4036   -0.2823 C   0  0  0  0  0  0  0  0  0  0  0  0
    0.2631    3.5254    0.0306 O   0  0  0  0  0  0  0  0  0  0  0  0
   -1.4935    2.5207   -0.9508 C   0  0  0  0  0  0  0  0  0  0  0  0
   -1.8279    1.1585   -1.4694 C   0  0  0  0  0  0  0  0  0  0  0  0
   -1.7520    0.2806   -0.2254 C   0  0  1  0  0  0  0  0  0  0  0  0
   -2.8327    0.6629    0.5330 O   0  0  0  0  0  0  0  0  0  0  0  0
   -2.1195   -1.1378   -0.9430 C   0  0  1  0  0  0  0  0  0  0  0  0
   -0.6731   -1.9031   -0.9051 C   0  0  0  0  0  0  0  0  0  0  0  0
   -2.5778   -1.8098    0.4043 N   0  0  0  0  0  0  0  0  0  0  0  0
   -2.5120   -3.2004    0.0125 C   0  0  0  0  0  0  0  0  0  0  0  0
   -1.9019   -1.4303    1.5056 C   0  0  0  0  0  0  0  0  0  0  0  0
   -0.5556   -0.8456    1.5289 C   0  0  0  0  0  0  0  0  0  0  0  0
   -0.5456    0.1862    0.4746 C   0  0  1  0  0  0  0  0  0  0  0  0
  1  2  1  0
  2  3  1  0
  3  4  2  0
  4  5  1  0
  5  6  2  0
  6  7  1  0
  7  8  2  0
  8  9  1  0
 10  9  1  6
 10 11  1  0
 11 12  2  0
 11 13  1  0
 13 14  1  0
 14 15  1  0
 15 16  1  1
 15 17  1  0
 17 18  1  1
 17 19  1  0
 19 20  1  0
 19 21  1  0
 21 22  1  0
 23 22  1  1
  8  3  1  0
 23 10  1  0
 18  6  1  0
 23  7  1  0
 23 15  1  0
M  END
>  <supplier_code>  (366) 
DB00497

>  <zinc_id>  (366) 
ZINC000000403533

>  <catalog_short_name>  (366) 
dbfda

$$$$

     RDKit          3D

 19 19  0  0  0  0  0  0  0  0999 V2000
    4.7446   -0.9960    0.9785 C   0  0  0  0  0  0  0  0  0  0  0  0
    4.6427    0.3294    0.2438 C   0  0  0  0  0  0  0  0  0  0  0  0
    5.3923    0.1804   -1.0712 C   0  0  0  0  0  0  0  0  0  0  0  0
    3.1946    0.4990   -0.0871 C   0  0  0  0  0  0  0  0  0  0  0  0
    2.7604    0.0517   -1.1850 O   0  0  0  0  0  0  0  0  0  0  0  0
    2.2116    0.8002    0.8986 N   0  0  0  0  0  0  0  0  0  0  0  0
    0.8927    0.2458    0.8257 C   0  0  0  0  0  0  0  0  0  0  0  0
    0.7115   -1.0999    0.5291 C   0  0  0  0  0  0  0  0  0  0  0  0
   -0.5305   -1.6714    0.5313 C   0  0  0  0  0  0  0  0  0  0  0  0
   -1.6142   -0.8197    0.3539 C   0  0  0  0  0  0  0  0  0  0  0  0
   -2.8770   -1.4696    0.1640 N   0  0  0  0  0  0  0  0  0  0  0  0
   -3.4617   -1.9704    1.1581 O   0  0  0  0  0  0  0  0  0  0  0  0
   -3.0112   -2.1828   -1.0156 O   0  0  0  0  0  0  0  0  0  0  0  0
   -1.4193    0.5227    0.1685 C   0  0  0  0  0  0  0  0  0  0  0  0
   -2.6020    1.4113    0.1458 C   0  0  0  0  0  0  0  0  0  0  0  0
   -2.3736    2.4682   -0.7138 F   0  0  0  0  0  0  0  0  0  0  0  0
   -2.7573    1.9380    1.4224 F   0  0  0  0  0  0  0  0  0  0  0  0
   -3.7049    0.7003   -0.2496 F   0  0  0  0  0  0  0  0  0  0  0  0
   -0.1987    1.0628    0.5556 C   0  0  0  0  0  0  0  0  0  0  0  0
  1  2  1  0
  2  3  1  0
  2  4  1  0
  4  5  2  0
  4  6  1  0
  6  7  1  0
  7  8  2  0
  8  9  1  0
  9 10  2  0
 10 11  1  0
 11 12  2  0
 11 13  1  0
 10 14  1  0
 14 15  1  0
 15 16  1  0
 15 17  1  0
 15 18  1  0
 14 19  2  0
 19  7  1  0
M  CHG  2  11   1  13  -1
M  END
>  <supplier_code>  (367) 
DB00499

>  <zinc_id>  (367) 
ZINC000003812944

>  <catalog_short_name>  (367) 
dbfda

$$$$

     RDKit          3D

 19 20  0  0  0  0  0  0  0  0999 V2000
    5.1599    0.1609    2.4401 C   0  0  0  0  0  0  0  0  0  0  0  0
    3.7737    0.5606    2.0476 C   0  0  0  0  0  0  0  0  0  0  0  0
    2.6926   -0.2817    2.2817 C   0  0  0  0  0  0  0  0  0  0  0  0
    1.5950   -0.2650    1.4284 C   0  0  0  0  0  0  0  0  0  0  0  0
    1.6719    0.3600    0.1893 C   0  0  0  0  0  0  0  0  0  0  0  0
    1.1880   -0.2775   -1.0401 C   0  0  0  0  0  0  0  0  0  0  0  0
    1.9873   -0.8779   -1.7913 O   0  0  0  0  0  0  0  0  0  0  0  0
   -0.2355   -0.5863   -1.1808 C   0  0  0  0  0  0  0  0  0  0  0  0
   -0.8302   -1.5044   -2.0298 C   0  0  0  0  0  0  0  0  0  0  0  0
   -2.1544   -1.1346   -2.2098 C   0  0  0  0  0  0  0  0  0  0  0  0
   -2.3843   -0.1038   -1.3322 C   0  0  0  0  0  0  0  0  0  0  0  0
   -3.7262    0.4646   -1.0629 C   0  0  0  0  0  0  0  0  0  0  0  0
   -4.0420    0.1688    0.3573 C   0  0  0  0  0  0  0  0  0  0  0  0
   -3.6455   -0.8731    0.9127 O   0  0  0  0  0  0  0  0  0  0  0  0
   -4.9740    0.9743    1.0022 O   0  0  0  0  0  0  0  0  0  0  0  0
   -1.1736    0.3661   -0.9522 N   0  0  0  0  0  0  0  0  0  0  0  0
   -1.0237    1.6508   -0.2994 C   0  0  0  0  0  0  0  0  0  0  0  0
    2.5637    1.4244    0.1381 C   0  0  0  0  0  0  0  0  0  0  0  0
    3.5574    1.5554    1.1010 C   0  0  0  0  0  0  0  0  0  0  0  0
  1  2  1  0
  2  3  2  0
  3  4  1  0
  4  5  2  0
  5  6  1  0
  6  7  2  0
  6  8  1  0
  8  9  2  0
  9 10  1  0
 10 11  2  0
 11 12  1  0
 12 13  1  0
 13 14  2  0
 13 15  1  0
 11 16  1  0
 16 17  1  0
  5 18  1  0
 18 19  2  0
 19  2  1  0
 16  8  1  0
M  END
>  <supplier_code>  (368) 
DB00500

>  <zinc_id>  (368) 
ZINC000000002191

>  <catalog_short_name>  (368) 
dbfda

$$$$

     RDKit          3D

 17 17  0  0  0  0  0  0  0  0999 V2000
   -3.6229   -0.2021    2.0047 C   0  0  0  0  0  0  0  0  0  0  0  0
   -3.4803    1.1123    1.3815 N   0  0  0  0  0  0  0  0  0  0  0  0
   -2.8263    1.1562    0.1309 C   0  0  0  0  0  0  0  0  0  0  0  0
   -3.2415    0.3369   -0.7745 N   0  0  0  0  0  0  0  0  0  0  0  0
   -4.0218   -0.7599   -0.3436 C   0  0  0  0  0  0  0  0  0  0  0  0
   -4.9472   -1.4431   -0.5555 N   0  0  0  0  0  0  0  0  0  0  0  0
   -1.8374    2.1082   -0.2312 N   0  0  0  0  0  0  0  0  0  0  0  0
   -1.0576    2.0121   -1.4639 C   0  0  0  0  0  0  0  0  0  0  0  0
   -0.2565    0.7188   -1.3615 C   0  0  0  0  0  0  0  0  0  0  0  0
    0.7300    0.8082    0.1429 S   0  0  0  0  0  0  0  0  0  0  0  0
    1.3930   -0.8356    0.4888 C   0  0  0  0  0  0  0  0  0  0  0  0
    2.8788   -0.8589    0.3912 C   0  0  0  0  0  0  0  0  0  0  0  0
    3.7248   -0.9167    1.4216 N   0  0  0  0  0  0  0  0  0  0  0  0
    4.9609   -1.0833    0.9091 C   0  0  0  0  0  0  0  0  0  0  0  0
    4.9020   -0.8466   -0.4164 N   0  0  0  0  0  0  0  0  0  0  0  0
    3.6067   -0.8029   -0.7811 C   0  0  0  0  0  0  0  0  0  0  0  0
    3.0954   -0.5035   -2.1557 C   0  0  0  0  0  0  0  0  0  0  0  0
  1  2  1  0
  2  3  1  0
  3  4  2  0
  4  5  1  0
  5  6  3  0
  3  7  1  0
  7  8  1  0
  8  9  1  0
  9 10  1  0
 10 11  1  0
 11 12  1  0
 12 13  1  0
 13 14  2  0
 14 15  1  0
 15 16  1  0
 16 17  1  0
 16 12  2  0
M  END
>  <supplier_code>  (369) 
DB00501

>  <zinc_id>  (369) 
ZINC000018115268

>  <catalog_short_name>  (369) 
dbfda

$$$$

     RDKit          3D

 26 28  0  0  0  0  0  0  0  0999 V2000
    3.2159   -2.2986   -0.8342 O   0  0  0  0  0  0  0  0  0  0  0  0
    3.0677   -1.1844   -0.2447 C   0  0  0  0  0  0  0  0  0  0  0  0
    2.0447   -0.2743   -0.8489 C   0  0  0  0  0  0  0  0  0  0  0  0
    1.5472    0.6449    0.2574 C   0  0  0  0  0  0  0  0  0  0  0  0
    0.4530   -0.1022    1.0067 C   0  0  0  0  0  0  0  0  0  0  0  0
   -0.1510   -1.0249    0.0821 N   0  0  0  0  0  0  0  0  0  0  0  0
   -1.0078   -0.3059   -0.8221 C   0  0  0  0  0  0  0  0  0  0  0  0
   -2.1759   -1.1321   -1.2922 C   0  0  0  0  0  0  0  0  0  0  0  0
   -3.0296   -1.5202   -0.0945 C   0  0  0  0  0  0  0  0  0  0  0  0
   -3.7228   -2.6814   -0.4469 O   0  0  0  0  0  0  0  0  0  0  0  0
   -4.0100   -0.4110    0.1029 C   0  0  0  0  0  0  0  0  0  0  0  0
   -3.4756    0.8385    0.3843 C   0  0  0  0  0  0  0  0  0  0  0  0
   -4.2563    1.9695    0.2701 C   0  0  0  0  0  0  0  0  0  0  0  0
   -5.5522    1.9189   -0.2126 C   0  0  0  0  0  0  0  0  0  0  0  0
   -6.6570    3.2069    0.2047 Cl  0  0  0  0  0  0  0  0  0  0  0  0
   -6.0101    0.6823   -0.6150 C   0  0  0  0  0  0  0  0  0  0  0  0
   -5.2510   -0.4717   -0.4988 C   0  0  0  0  0  0  0  0  0  0  0  0
   -2.1919   -1.7009    1.1434 C   0  0  0  0  0  0  0  0  0  0  0  0
   -0.7963   -2.1443    0.7212 C   0  0  0  0  0  0  0  0  0  0  0  0
    4.3217   -0.5289    0.1538 C   0  0  0  0  0  0  0  0  0  0  0  0
    4.3549    0.4355    1.1536 C   0  0  0  0  0  0  0  0  0  0  0  0
    5.3128    1.4415    1.1281 C   0  0  0  0  0  0  0  0  0  0  0  0
    6.0418    1.6844   -0.0295 C   0  0  0  0  0  0  0  0  0  0  0  0
    6.2846    2.9515   -0.4690 F   0  0  0  0  0  0  0  0  0  0  0  0
    6.1915    0.5824   -0.8645 C   0  0  0  0  0  0  0  0  0  0  0  0
    5.4516   -0.5756   -0.6547 C   0  0  0  0  0  0  0  0  0  0  0  0
  1  2  2  0
  2  3  1  0
  3  4  1  0
  4  5  1  0
  5  6  1  0
  6  7  1  0
  7  8  1  0
  8  9  1  0
  9 10  1  0
  9 11  1  0
 11 12  2  0
 12 13  1  0
 13 14  2  0
 14 15  1  0
 14 16  1  0
 16 17  2  0
  9 18  1  0
 18 19  1  0
  2 20  1  0
 20 21  2  0
 21 22  1  0
 22 23  2  0
 23 24  1  0
 23 25  1  0
 25 26  2  0
 19  6  1  0
 26 20  1  0
 17 11  1  0
M  END
>  <supplier_code>  (370) 
DB00502

>  <zinc_id>  (370) 
ZINC000000537822

>  <catalog_short_name>  (370) 
dbfda

$$$$

     RDKit          3D

 50 53  0  0  0  0  0  0  0  0999 V2000
   10.5266   -0.3220    0.0928 C   0  0  0  0  0  0  0  0  0  0  0  0
   10.0795    0.9288   -0.6103 C   0  0  0  0  0  0  0  0  0  0  0  0
   11.1628    1.9809   -0.6021 C   0  0  0  0  0  0  0  0  0  0  0  0
    8.8535    1.4983    0.0379 C   0  0  0  0  0  0  0  0  0  0  0  0
    7.6147    0.9642   -0.0267 N   0  0  0  0  0  0  0  0  0  0  0  0
    6.7132    1.6635    0.6519 C   0  0  0  0  0  0  0  0  0  0  0  0
    5.4183    1.0598    1.1047 C   0  0  0  0  0  0  0  0  0  0  0  0
    4.4016    1.1297    0.0724 N   0  0  0  0  0  0  0  0  0  0  0  0
    4.6742    1.9001   -1.1328 C   0  0  0  0  0  0  0  0  0  0  0  0
    3.5394   -0.0164    0.0105 C   0  0  0  0  0  0  0  0  0  0  0  0
    2.9124   -0.3948    1.0192 O   0  0  0  0  0  0  0  0  0  0  0  0
    3.3340   -0.6479   -1.2066 N   0  0  0  0  0  0  0  0  0  0  0  0
    2.7123   -2.0967   -1.2253 C   0  0  2  0  0  0  0  0  0  0  0  0
    1.5149   -1.7014   -0.2025 C   0  0  0  0  0  0  0  0  0  0  0  0
    1.2101   -2.6591    0.5752 O   0  0  0  0  0  0  0  0  0  0  0  0
    0.3744   -1.1087   -0.8273 N   0  0  0  0  0  0  0  0  0  0  0  0
   -0.9179   -2.0165   -0.9038 C   0  0  1  0  0  0  0  0  0  0  0  0
   -1.1454   -1.9472    0.7283 C   0  0  0  0  0  0  0  0  0  0  0  0
   -1.7816   -3.2582    1.0769 C   0  0  0  0  0  0  0  0  0  0  0  0
   -1.6641   -3.7634    2.3675 C   0  0  0  0  0  0  0  0  0  0  0  0
   -1.2004   -5.0547    2.6045 C   0  0  0  0  0  0  0  0  0  0  0  0
   -1.2326   -5.9690    1.5574 C   0  0  0  0  0  0  0  0  0  0  0  0
   -1.9606   -5.5923    0.4342 C   0  0  0  0  0  0  0  0  0  0  0  0
   -2.0324   -4.2380    0.1224 C   0  0  0  0  0  0  0  0  0  0  0  0
   -2.0309   -0.8443   -1.1653 C   0  0  0  0  0  0  0  0  0  0  0  0
   -1.1540    0.5228   -1.3244 C   0  0  2  0  0  0  0  0  0  0  0  0
   -0.9716    0.6797    0.1741 O   0  0  0  0  0  0  0  0  0  0  0  0
   -2.5963    1.4637   -1.4206 C   0  0  2  0  0  0  0  0  0  0  0  0
   -1.8952    2.7512   -0.6992 C   0  0  0  0  0  0  0  0  0  0  0  0
   -3.1020    3.5455   -0.3057 C   0  0  0  0  0  0  0  0  0  0  0  0
   -3.0788    4.3891    0.7981 C   0  0  0  0  0  0  0  0  0  0  0  0
   -3.9882    5.4358    0.8634 C   0  0  0  0  0  0  0  0  0  0  0  0
   -5.0426    5.5596   -0.0233 C   0  0  0  0  0  0  0  0  0  0  0  0
   -5.2373    4.4925   -0.8907 C   0  0  0  0  0  0  0  0  0  0  0  0
   -4.1715    3.6575   -1.1577 C   0  0  0  0  0  0  0  0  0  0  0  0
   -3.2366    0.9652   -0.0842 N   0  0  0  0  0  0  0  0  0  0  0  0
   -4.5269    0.4142   -0.1750 C   0  0  0  0  0  0  0  0  0  0  0  0
   -5.0331   -0.0021   -1.2505 O   0  0  0  0  0  0  0  0  0  0  0  0
   -5.0202   -0.2730    0.9139 O   0  0  0  0  0  0  0  0  0  0  0  0
   -6.3011   -0.4929    1.2258 C   0  0  0  0  0  0  0  0  0  0  0  0
   -7.4094   -0.1866    0.3745 C   0  0  0  0  0  0  0  0  0  0  0  0
   -7.8208    0.8355   -0.4165 C   0  0  0  0  0  0  0  0  0  0  0  0
   -9.1128    1.0006   -0.5335 N   0  0  0  0  0  0  0  0  0  0  0  0
   -9.8241   -0.1428   -0.5612 C   0  0  0  0  0  0  0  0  0  0  0  0
   -8.8810   -1.0651    0.5421 S   0  0  0  0  0  0  0  0  0  0  0  0
    3.6957   -2.6435   -0.0150 C   0  0  0  0  0  0  0  0  0  0  0  0
    3.3142   -4.0887    0.1845 C   0  0  0  0  0  0  0  0  0  0  0  0
    5.0761   -2.5059   -0.5892 C   0  0  0  0  0  0  0  0  0  0  0  0
    6.7791    3.0222    0.3582 C   0  0  0  0  0  0  0  0  0  0  0  0
    8.4618    3.1706    0.0385 S   0  0  0  0  0  0  0  0  0  0  0  0
  1  2  1  0
  2  3  1  0
  2  4  1  0
  4  5  2  0
  5  6  1  0
  6  7  1  0
  7  8  1  0
  8  9  1  0
  8 10  1  0
 10 11  2  0
 10 12  1  0
 13 12  1  1
 13 14  1  0
 14 15  2  0
 14 16  1  0
 17 16  1  1
 17 18  1  0
 18 19  1  0
 19 20  2  0
 20 21  1  0
 21 22  2  0
 22 23  1  0
 23 24  2  0
 17 25  1  0
 26 25  1  1
 26 27  1  0
 26 28  1  0
 28 29  1  1
 29 30  1  0
 30 31  2  0
 31 32  1  0
 32 33  2  0
 33 34  1  0
 34 35  2  0
 28 36  1  0
 36 37  1  0
 37 38  2  0
 37 39  1  0
 39 40  1  0
 40 41  1  0
 41 42  2  0
 42 43  1  0
 43 44  2  0
 44 45  1  0
 13 46  1  0
 46 47  1  0
 46 48  1  0
  6 49  2  0
 49 50  1  0
 50  4  1  0
 24 19  1  0
 35 30  1  0
 45 41  1  0
M  END
>  <supplier_code>  (371) 
DB00503

>  <zinc_id>  (371) 
ZINC000003944422

>  <catalog_short_name>  (371) 
dbfda

$$$$

     RDKit          3D

 21 22  0  0  0  0  0  0  0  0999 V2000
   -2.9725    3.5757   -0.2925 C   0  0  0  0  0  0  0  0  0  0  0  0
   -3.3483    2.1394   -0.1344 C   0  0  0  0  0  0  0  0  0  0  0  0
   -4.3757    1.8512    0.5336 O   0  0  0  0  0  0  0  0  0  0  0  0
   -2.3122    1.2119   -0.1923 O   0  0  0  0  0  0  0  0  0  0  0  0
   -2.5502   -0.0677    0.3166 C   0  0  0  0  0  0  0  0  0  0  0  0
   -3.1163   -0.2602    1.5709 C   0  0  0  0  0  0  0  0  0  0  0  0
   -3.4024   -1.5533    1.9938 C   0  0  0  0  0  0  0  0  0  0  0  0
   -3.2291   -2.5652    1.0645 C   0  0  0  0  0  0  0  0  0  0  0  0
   -2.4084   -2.3829   -0.0420 C   0  0  0  0  0  0  0  0  0  0  0  0
   -1.9700   -1.1121   -0.3935 C   0  0  0  0  0  0  0  0  0  0  0  0
   -0.6426   -0.9693   -1.0086 C   0  0  0  0  0  0  0  0  0  0  0  0
   -0.4332    0.0031   -1.7932 O   0  0  0  0  0  0  0  0  0  0  0  0
    0.4822   -1.7176   -0.5873 N   0  0  0  0  0  0  0  0  0  0  0  0
    1.7603   -1.0956   -0.4279 C   0  0  0  0  0  0  0  0  0  0  0  0
    2.8537   -1.7067    0.0912 N   0  0  0  0  0  0  0  0  0  0  0  0
    3.9719   -1.0404   -0.1631 C   0  0  0  0  0  0  0  0  0  0  0  0
    3.8680    0.3061    0.1703 C   0  0  0  0  0  0  0  0  0  0  0  0
    4.9000    1.3017    0.1424 N   0  0  0  0  0  0  0  0  0  0  0  0
    4.8827    2.2705   -0.6297 O   0  0  0  0  0  0  0  0  0  0  0  0
    5.8450    1.2680    1.1234 O   0  0  0  0  0  0  0  0  0  0  0  0
    2.1972    0.5435   -0.1565 S   0  0  0  0  0  0  0  0  0  0  0  0
  1  2  1  0
  2  3  2  0
  2  4  1  0
  4  5  1  0
  5  6  2  0
  6  7  1  0
  7  8  2  0
  8  9  1  0
  9 10  2  0
 10 11  1  0
 11 12  2  0
 11 13  1  0
 13 14  1  0
 14 15  2  0
 15 16  1  0
 16 17  2  0
 17 18  1  0
 18 19  2  0
 18 20  1  0
 17 21  1  0
 10  5  1  0
 21 14  1  0
M  CHG  2  18   1  20  -1
M  END
>  <supplier_code>  (372) 
DB00507

>  <zinc_id>  (372) 
ZINC000003956788

>  <catalog_short_name>  (372) 
dbfda

$$$$

     RDKit          3D

  9  8  0  0  0  0  0  0  0  0999 V2000
   -3.6516    0.3306    0.0663 N   0  0  0  0  0  0  0  0  0  0  0  0
   -2.3604    1.0129    0.0831 C   0  0  0  0  0  0  0  0  0  0  0  0
   -1.4155    0.1241   -0.7180 C   0  0  0  0  0  0  0  0  0  0  0  0
   -1.0467   -1.0794    0.1367 C   0  0  0  0  0  0  0  0  0  0  0  0
    0.3470   -1.5557   -0.1595 C   0  0  0  0  0  0  0  0  0  0  0  0
    1.2846   -0.8294    0.7962 C   0  0  0  0  0  0  0  0  0  0  0  0
    2.0519    0.2439    0.0916 C   0  0  0  0  0  0  0  0  0  0  0  0
    1.4622    1.2436   -0.4195 O   0  0  0  0  0  0  0  0  0  0  0  0
    3.3284    0.5093    0.5976 O   0  0  0  0  0  0  0  0  0  0  0  0
  1  2  1  0
  2  3  1  0
  3  4  1  0
  4  5  1  0
  5  6  1  0
  6  7  1  0
  7  8  2  0
  7  9  1  0
M  END
>  <supplier_code>  (373) 
DB00513

>  <zinc_id>  (373) 
ZINC000001529425

>  <catalog_short_name>  (373) 
dbfda

$$$$

     RDKit          3D

 20 23  0  0  0  0  0  0  0  0999 V2000
    4.1371    0.4261    1.5962 C   0  0  0  0  0  0  0  0  0  0  0  0
    4.0054    0.0697    0.2416 O   0  0  0  0  0  0  0  0  0  0  0  0
    2.7621    0.0101   -0.3999 C   0  0  0  0  0  0  0  0  0  0  0  0
    2.5813    0.9027   -1.4280 C   0  0  0  0  0  0  0  0  0  0  0  0
    1.3255    1.1100   -1.9259 C   0  0  0  0  0  0  0  0  0  0  0  0
    0.2837    0.3855   -1.4226 C   0  0  0  0  0  0  0  0  0  0  0  0
    0.3751   -0.4825   -0.3428 C   0  0  0  0  0  0  0  0  0  0  0  0
    1.6545   -0.5425    0.2142 C   0  0  0  0  0  0  0  0  0  0  0  0
   -0.6411   -0.7773    0.5430 C   0  0  2  0  0  0  0  0  0  0  0  0
   -0.7778   -2.2676    0.6953 C   0  0  0  0  0  0  0  0  0  0  0  0
   -2.1884   -2.6978    0.9612 C   0  0  0  0  0  0  0  0  0  0  0  0
   -3.0578   -2.4156   -0.2590 C   0  0  0  0  0  0  0  0  0  0  0  0
   -2.4514   -1.1913   -0.9395 C   0  0  0  0  0  0  0  0  0  0  0  0
   -2.1396   -0.2697    0.3666 C   0  0  2  0  0  0  0  0  0  0  0  0
   -1.9196    1.1994   -0.4850 C   0  0  2  0  0  0  0  0  0  0  0  0
   -1.0965    0.6130   -1.7616 C   0  0  0  0  0  0  0  0  0  0  0  0
   -0.6947    1.6828    0.3585 N   0  0  0  0  0  0  0  0  0  0  0  0
   -0.8980    3.1295    0.3539 C   0  0  0  0  0  0  0  0  0  0  0  0
   -0.8810    1.2722    1.7163 C   0  0  0  0  0  0  0  0  0  0  0  0
   -0.3787   -0.1566    1.9174 C   0  0  0  0  0  0  0  0  0  0  0  0
  1  2  1  0
  2  3  1  0
  3  4  2  0
  4  5  1  0
  5  6  2  0
  6  7  1  0
  7  8  2  0
  9  7  1  6
  9 10  1  0
 10 11  1  0
 11 12  1  0
 12 13  1  0
 14 13  1  6
 14 15  1  0
 15 16  1  6
 15 17  1  0
 17 18  1  0
 17 19  1  0
 19 20  1  0
  8  3  1  0
 14  9  1  0
 16  6  1  0
 20  9  1  0
M  END
>  <supplier_code>  (374) 
DB00514

>  <zinc_id>  (374) 
ZINC000003201907

>  <catalog_short_name>  (374) 
dbfda

$$$$

     RDKit          3D

 18 19  0  0  0  0  0  0  0  0999 V2000
    5.4157    1.6630    0.1931 C   0  0  0  0  0  0  0  0  0  0  0  0
    4.8059    0.2691    0.1047 C   0  0  0  0  0  0  0  0  0  0  0  0
    4.7187   -0.3825    1.4794 C   0  0  0  0  0  0  0  0  0  0  0  0
    3.5476   -1.7714    1.3029 S   0  0  0  0  0  0  0  0  0  0  0  0
    2.1061   -1.0969    0.4668 C   0  0  0  0  0  0  0  0  0  0  0  0
    2.2024   -0.5597   -0.8117 C   0  0  0  0  0  0  0  0  0  0  0  0
    1.0826   -0.7399   -1.6149 C   0  0  0  0  0  0  0  0  0  0  0  0
   -0.1607   -0.9218   -1.0394 C   0  0  0  0  0  0  0  0  0  0  0  0
   -1.4415   -0.8237   -1.4721 N   0  0  0  0  0  0  0  0  0  0  0  0
   -2.2243   -0.5332   -0.4046 C   0  0  0  0  0  0  0  0  0  0  0  0
   -3.4484   -0.1053   -0.3925 N   0  0  0  0  0  0  0  0  0  0  0  0
   -3.8454    1.0461    0.3637 C   0  0  0  0  0  0  0  0  0  0  0  0
   -3.3499    1.2724    1.5070 O   0  0  0  0  0  0  0  0  0  0  0  0
   -4.4068    2.1165   -0.3235 O   0  0  0  0  0  0  0  0  0  0  0  0
   -4.1249    3.4728    0.0062 C   0  0  0  0  0  0  0  0  0  0  0  0
   -1.4671   -0.4932    0.7199 N   0  0  0  0  0  0  0  0  0  0  0  0
   -0.2819   -1.0309    0.3405 C   0  0  0  0  0  0  0  0  0  0  0  0
    0.8717   -1.3814    1.0208 C   0  0  0  0  0  0  0  0  0  0  0  0
  1  2  1  0
  2  3  1  0
  3  4  1  0
  4  5  1  0
  5  6  2  0
  6  7  1  0
  7  8  2  0
  8  9  1  0
  9 10  1  0
 10 11  2  0
 11 12  1  0
 12 13  2  0
 12 14  1  0
 14 15  1  0
 10 16  1  0
 16 17  1  0
 17 18  2  0
 18  5  1  0
 17  8  1  0
M  END
>  <supplier_code>  (375) 
DB00518

>  <zinc_id>  (375) 
ZINC000017146904

>  <catalog_short_name>  (375) 
dbfda

$$$$

     RDKit          3D

 31 33  0  0  0  0  0  0  0  0999 V2000
   -4.3253    4.2419    0.7962 C   0  0  0  0  0  0  0  0  0  0  0  0
   -3.4869    4.1815   -0.2600 C   0  0  0  0  0  0  0  0  0  0  0  0
   -2.7709    3.1222   -0.6711 O   0  0  0  0  0  0  0  0  0  0  0  0
   -2.2467    2.0680    0.0136 C   0  0  0  0  0  0  0  0  0  0  0  0
   -2.7653    1.7426    1.0140 O   0  0  0  0  0  0  0  0  0  0  0  0
   -1.3850    1.1586   -0.9858 C   0  0  2  0  0  0  0  0  0  0  0  0
   -2.5946    0.0688   -1.2265 C   0  0  0  0  0  0  0  0  0  0  0  0
   -3.0037   -0.4893    0.0481 C   0  0  0  0  0  0  0  0  0  0  0  0
   -3.3792   -1.9067    0.0672 C   0  0  0  0  0  0  0  0  0  0  0  0
   -3.7655   -2.3984    1.3102 C   0  0  0  0  0  0  0  0  0  0  0  0
   -4.2671   -3.6619    1.4320 C   0  0  0  0  0  0  0  0  0  0  0  0
   -4.3996   -4.4581    0.3286 C   0  0  0  0  0  0  0  0  0  0  0  0
   -4.1130   -3.9504   -0.9123 C   0  0  0  0  0  0  0  0  0  0  0  0
   -3.5974   -2.6778   -1.0444 C   0  0  0  0  0  0  0  0  0  0  0  0
   -0.6912    0.3161    0.1576 N   0  0  0  0  0  0  0  0  0  0  0  0
   -0.1427    1.5243    1.0148 C   0  0  1  0  0  0  0  0  0  0  0  0
    0.5380    0.5268    2.1318 C   0  0  0  0  0  0  0  0  0  0  0  0
    1.2037    1.6707    0.1572 C   0  0  0  0  0  0  0  0  0  0  0  0
    1.3550    2.9286    0.0840 O   0  0  0  0  0  0  0  0  0  0  0  0
    2.0976    0.6457   -0.1469 N   0  0  0  0  0  0  0  0  0  0  0  0
    3.1838    1.3513   -1.0491 C   0  0  2  0  0  0  0  0  0  0  0  0
    3.6454    0.0815   -1.9274 C   0  0  0  0  0  0  0  0  0  0  0  0
    2.9051   -0.8044   -2.2294 O   0  0  0  0  0  0  0  0  0  0  0  0
    4.7025    0.3675   -2.7721 O   0  0  0  0  0  0  0  0  0  0  0  0
    4.4161    1.2744    0.0426 C   0  0  0  0  0  0  0  0  0  0  0  0
    4.2897   -0.3250    0.0540 C   0  0  1  0  0  0  0  0  0  0  0  0
    5.1760   -0.5689    1.3896 C   0  0  0  0  0  0  0  0  0  0  0  0
    4.5593   -1.8695    1.8426 C   0  0  0  0  0  0  0  0  0  0  0  0
    3.5894   -2.4857    0.9041 C   0  0  0  0  0  0  0  0  0  0  0  0
    2.3875   -1.5940    0.5866 C   0  0  0  0  0  0  0  0  0  0  0  0
    2.8850   -0.0806    0.9799 C   0  0  2  0  0  0  0  0  0  0  0  0
  1  2  1  0
  2  3  1  0
  3  4  1  0
  4  5  2  0
  6  4  1  1
  6  7  1  0
  7  8  1  0
  8  9  1  0
  9 10  2  0
 10 11  1  0
 11 12  2  0
 12 13  1  0
 13 14  2  0
  6 15  1  0
 16 15  1  6
 16 17  1  0
 16 18  1  0
 18 19  2  0
 18 20  1  0
 20 21  1  0
 21 22  1  6
 22 23  2  0
 22 24  1  0
 21 25  1  0
 26 25  1  1
 26 27  1  0
 27 28  1  0
 28 29  1  0
 29 30  1  0
 31 30  1  6
 14  9  1  0
 31 20  1  0
 31 26  1  0
M  END
>  <supplier_code>  (376) 
DB00519

>  <zinc_id>  (376) 
ZINC000001853205

>  <catalog_short_name>  (376) 
dbfda

$$$$

     RDKit          3D

 21 22  0  0  0  0  0  0  0  0999 V2000
   -4.8392    0.1531   -0.4082 C   0  0  0  0  0  0  0  0  0  0  0  0
   -4.6801    0.1791    0.2200 C   0  0  0  0  0  0  0  0  0  0  0  0
   -5.2471   -0.9482    1.0391 C   0  0  0  0  0  0  0  0  0  0  0  0
   -5.1480    1.4705    0.8877 C   0  0  0  0  0  0  0  0  0  0  0  0
   -3.2533    0.2399    0.1469 N   0  0  0  0  0  0  0  0  0  0  0  0
   -2.5012   -0.3409    1.1787 C   0  0  0  0  0  0  0  0  0  0  0  0
   -2.1760   -1.9004    0.7462 C   0  0  1  0  0  0  0  0  0  0  0  0
   -1.8060   -1.5131   -0.6768 O   0  0  0  0  0  0  0  0  0  0  0  0
   -0.6132   -1.7998    1.2619 C   0  0  0  0  0  0  0  0  0  0  0  0
   -0.0783   -0.6318    0.7517 O   0  0  0  0  0  0  0  0  0  0  0  0
    1.0739   -0.6558   -0.0461 C   0  0  0  0  0  0  0  0  0  0  0  0
    1.2342   -1.5326   -1.1082 C   0  0  0  0  0  0  0  0  0  0  0  0
    1.7092   -1.0003   -2.3041 C   0  0  0  0  0  0  0  0  0  0  0  0
    2.4743    0.1606   -2.2495 C   0  0  0  0  0  0  0  0  0  0  0  0
    2.7262    0.8101   -1.0464 C   0  0  0  0  0  0  0  0  0  0  0  0
    1.9455    0.4267    0.0373 C   0  0  0  0  0  0  0  0  0  0  0  0
    2.0325    1.0668    1.3679 C   0  0  0  0  0  0  0  0  0  0  0  0
    3.2793    1.8712    1.5733 C   0  0  0  0  0  0  0  0  0  0  0  0
    4.3662    1.4610    0.6608 C   0  0  0  0  0  0  0  0  0  0  0  0
    5.4855    1.1361    1.1193 O   0  0  0  0  0  0  0  0  0  0  0  0
    4.0157    1.3478   -0.7243 N   0  0  0  0  0  0  0  0  0  0  0  0
  1  2  1  0
  2  3  1  0
  2  4  1  0
  2  5  1  0
  5  6  1  0
  7  6  1  1
  7  8  1  0
  7  9  1  0
  9 10  1  0
 10 11  1  0
 11 12  2  0
 12 13  1  0
 13 14  2  0
 14 15  1  0
 15 16  2  0
 16 17  1  0
 17 18  1  0
 18 19  1  0
 19 20  2  0
 19 21  1  0
 16 11  1  0
 21 15  1  0
M  END
>  <supplier_code>  (377) 
DB00521

>  <zinc_id>  (377) 
ZINC000000000128

>  <catalog_short_name>  (377) 
dbfda

$$$$

     RDKit          3D

 21 22  0  0  0  0  0  0  0  0999 V2000
    5.1435    0.6788    1.0491 C   0  0  0  0  0  0  0  0  0  0  0  0
    5.0078    0.5316    0.6553 C   0  0  0  0  0  0  0  0  0  0  0  0
    4.7754    1.6768   -0.2947 C   0  0  0  0  0  0  0  0  0  0  0  0
    5.9496   -0.4633    0.0139 C   0  0  0  0  0  0  0  0  0  0  0  0
    3.8358   -0.0385    1.2050 N   0  0  0  0  0  0  0  0  0  0  0  0
    2.6742    0.4841    0.5597 C   0  0  0  0  0  0  0  0  0  0  0  0
    1.5837   -0.7560    0.5223 C   0  0  2  0  0  0  0  0  0  0  0  0
    2.6203   -1.7547    0.0279 O   0  0  0  0  0  0  0  0  0  0  0  0
    1.1236   -0.3785   -1.0176 C   0  0  0  0  0  0  0  0  0  0  0  0
   -0.1696   -0.9197   -1.0941 O   0  0  0  0  0  0  0  0  0  0  0  0
   -1.0649   -0.8425   -0.0415 C   0  0  0  0  0  0  0  0  0  0  0  0
   -1.0089   -1.6886    1.0589 C   0  0  0  0  0  0  0  0  0  0  0  0
   -1.5047   -1.1681    2.2478 C   0  0  0  0  0  0  0  0  0  0  0  0
   -2.3622   -0.0762    2.2145 C   0  0  0  0  0  0  0  0  0  0  0  0
   -2.7676    0.4230    0.9852 C   0  0  0  0  0  0  0  0  0  0  0  0
   -2.1619   -0.0033   -0.1909 C   0  0  0  0  0  0  0  0  0  0  0  0
   -2.6979    0.3985   -1.5067 C   0  0  0  0  0  0  0  0  0  0  0  0
   -4.2208    0.3270   -1.4844 C   0  0  0  0  0  0  0  0  0  0  0  0
   -4.7543    1.1398   -0.3466 C   0  0  0  0  0  0  0  0  0  0  0  0
   -5.9956    1.2951   -0.3132 O   0  0  0  0  0  0  0  0  0  0  0  0
   -4.0055    1.1345    0.8682 N   0  0  0  0  0  0  0  0  0  0  0  0
  1  2  1  0
  2  3  1  0
  2  4  1  0
  2  5  1  0
  5  6  1  0
  7  6  1  6
  7  8  1  0
  7  9  1  0
  9 10  1  0
 10 11  1  0
 11 12  2  0
 12 13  1  0
 13 14  2  0
 14 15  1  0
 15 16  2  0
 16 17  1  0
 17 18  1  0
 18 19  1  0
 19 20  2  0
 19 21  1  0
 16 11  1  0
 21 15  1  0
M  END
>  <supplier_code>  (378) 
DB00521

>  <zinc_id>  (378) 
ZINC000000896463

>  <catalog_short_name>  (378) 
dbfda

$$$$

     RDKit          3D

 22 22  0  0  0  0  0  0  0  0999 V2000
    5.1128    2.5460    0.4042 C   0  0  0  0  0  0  0  0  0  0  0  0
    4.0650    1.6964   -0.2433 C   0  0  0  0  0  0  0  0  0  0  0  0
    2.8335    1.4532    0.5179 C   0  0  0  0  0  0  0  0  0  0  0  0
    1.9140    0.5872    0.1486 C   0  0  0  0  0  0  0  0  0  0  0  0
    1.3086   -0.3799    1.0738 C   0  0  0  0  0  0  0  0  0  0  0  0
    0.3169   -1.1141    0.5660 C   0  0  0  0  0  0  0  0  0  0  0  0
    0.0907   -2.4645    1.1718 C   0  0  0  0  0  0  0  0  0  0  0  0
   -0.7663   -0.3471   -0.0536 C   0  0  0  0  0  0  0  0  0  0  0  0
   -1.7267   -0.8832   -0.7693 C   0  0  0  0  0  0  0  0  0  0  0  0
   -3.1349   -0.4774   -0.6751 C   0  0  0  0  0  0  0  0  0  0  0  0
   -4.0567   -1.4408   -0.7180 C   0  0  0  0  0  0  0  0  0  0  0  0
   -3.8492   -2.6030   -1.6026 C   0  0  0  0  0  0  0  0  0  0  0  0
   -5.3368   -1.1834    0.0132 C   0  0  0  0  0  0  0  0  0  0  0  0
   -4.9260   -0.7531    1.4167 C   0  0  0  0  0  0  0  0  0  0  0  0
   -3.9940    0.4229    1.3879 C   0  0  0  0  0  0  0  0  0  0  0  0
   -3.5637    0.7791   -0.0056 C   0  0  0  0  0  0  0  0  0  0  0  0
   -2.4843    1.8212    0.0162 C   0  0  0  0  0  0  0  0  0  0  0  0
   -4.7763    1.2951   -0.7643 C   0  0  0  0  0  0  0  0  0  0  0  0
    4.4819    0.9243   -1.2207 C   0  0  0  0  0  0  0  0  0  0  0  0
    5.8316    0.3469   -1.2735 C   0  0  0  0  0  0  0  0  0  0  0  0
    6.7764    0.7807   -0.5591 O   0  0  0  0  0  0  0  0  0  0  0  0
    5.8836   -1.0065   -1.6217 O   0  0  0  0  0  0  0  0  0  0  0  0
  1  2  1  0
  2  3  1  0
  3  4  2  0
  4  5  1  0
  5  6  2  0
  6  7  1  0
  6  8  1  0
  8  9  2  0
  9 10  1  0
 10 11  2  0
 11 12  1  0
 11 13  1  0
 13 14  1  0
 14 15  1  0
 15 16  1  0
 16 17  1  0
 16 18  1  0
  2 19  2  0
 19 20  1  0
 20 21  2  0
 20 22  1  0
 16 10  1  0
M  END
>  <supplier_code>  (379) 
DB00523

>  <zinc_id>  (379) 
ZINC000012661824

>  <catalog_short_name>  (379) 
dbfda

$$$$

     RDKit          3D

 24 26  0  0  0  0  0  0  0  0999 V2000
    2.6087    0.2599   -2.0633 C   0  0  0  0  0  0  0  0  0  0  0  0
    3.2596    0.6360   -1.1611 C   0  0  0  0  0  0  0  0  0  0  0  0
    4.1360    1.7000   -1.3428 C   0  0  0  0  0  0  0  0  0  0  0  0
    4.6191    2.4530   -0.2790 C   0  0  0  0  0  0  0  0  0  0  0  0
    4.4178    1.9896    1.0160 C   0  0  0  0  0  0  0  0  0  0  0  0
    3.6876    0.8204    1.1972 C   0  0  0  0  0  0  0  0  0  0  0  0
    3.0265    0.1995    0.1414 C   0  0  0  0  0  0  0  0  0  0  0  0
    1.7645   -0.4201    0.3333 N   0  0  0  0  0  0  0  0  0  0  0  0
    0.6880    0.2465    1.0056 C   0  0  0  0  0  0  0  0  0  0  0  0
    0.8267    1.4356    1.3978 O   0  0  0  0  0  0  0  0  0  0  0  0
   -0.6457   -0.3192    0.7646 C   0  0  0  0  0  0  0  0  0  0  0  0
   -1.7850    0.4530    0.8620 C   0  0  0  0  0  0  0  0  0  0  0  0
   -2.9847   -0.1027    0.4333 C   0  0  0  0  0  0  0  0  0  0  0  0
   -4.3696    0.9131    0.1651 S   0  0  0  0  0  0  0  0  0  0  0  0
   -4.0089    2.2084   -0.9350 N   0  0  0  0  0  0  0  0  0  0  0  0
   -5.4815    0.1093   -0.4440 O   0  0  0  0  0  0  0  0  0  0  0  0
   -4.7743    1.5244    1.4723 O   0  0  0  0  0  0  0  0  0  0  0  0
   -3.0355   -1.4814    0.2691 C   0  0  0  0  0  0  0  0  0  0  0  0
   -4.6068   -2.2503    0.4129 Cl  0  0  0  0  0  0  0  0  0  0  0  0
   -1.8852   -2.1755   -0.0288 C   0  0  0  0  0  0  0  0  0  0  0  0
   -0.6526   -1.6112    0.2598 C   0  0  0  0  0  0  0  0  0  0  0  0
    0.5488   -2.2910   -0.0871 N   0  0  0  0  0  0  0  0  0  0  0  0
    1.7947   -1.9243    0.8191 C   0  0  1  0  0  0  0  0  0  0  0  0
    2.8518   -2.3727   -0.3696 C   0  0  0  0  0  0  0  0  0  0  0  0
  1  2  1  0
  2  3  2  0
  3  4  1  0
  4  5  2  0
  5  6  1  0
  6  7  2  0
  7  8  1  0
  8  9  1  0
  9 10  2  0
  9 11  1  0
 11 12  2  0
 12 13  1  0
 13 14  1  0
 14 15  1  0
 14 16  2  0
 14 17  2  0
 13 18  2  0
 18 19  1  0
 18 20  1  0
 20 21  2  0
 21 22  1  0
 22 23  1  0
 23 24  1  6
  7  2  1  0
 23  8  1  0
 21 11  1  0
M  END
>  <supplier_code>  (380) 
DB00524

>  <zinc_id>  (380) 
ZINC000000601254

>  <catalog_short_name>  (380) 
dbfda

$$$$

     RDKit          3D

 24 26  0  0  0  0  0  0  0  0999 V2000
    3.0209   -0.6175   -2.2412 C   0  0  0  0  0  0  0  0  0  0  0  0
    3.6526   -0.4584   -1.0961 C   0  0  0  0  0  0  0  0  0  0  0  0
    5.0406   -0.4775   -1.0482 C   0  0  0  0  0  0  0  0  0  0  0  0
    5.6919   -0.3587    0.1723 C   0  0  0  0  0  0  0  0  0  0  0  0
    4.9711   -0.6575    1.3194 C   0  0  0  0  0  0  0  0  0  0  0  0
    3.5931   -0.8371    1.2374 C   0  0  0  0  0  0  0  0  0  0  0  0
    2.8928   -0.5750    0.0645 C   0  0  0  0  0  0  0  0  0  0  0  0
    1.6097   -0.0020    0.0280 N   0  0  0  0  0  0  0  0  0  0  0  0
    0.5090   -0.7727   -0.4483 C   0  0  0  0  0  0  0  0  0  0  0  0
    0.6012   -1.9255   -0.9105 O   0  0  0  0  0  0  0  0  0  0  0  0
   -0.7914   -0.0965   -0.5059 C   0  0  0  0  0  0  0  0  0  0  0  0
   -1.9921   -0.7991   -0.5321 C   0  0  0  0  0  0  0  0  0  0  0  0
   -3.1581   -0.0766   -0.2941 C   0  0  0  0  0  0  0  0  0  0  0  0
   -4.5010   -0.7398    0.6304 S   0  0  0  0  0  0  0  0  0  0  0  0
   -5.3119    0.4969    1.5420 N   0  0  0  0  0  0  0  0  0  0  0  0
   -4.0105   -1.7566    1.6129 O   0  0  0  0  0  0  0  0  0  0  0  0
   -5.5136   -1.3942   -0.2842 O   0  0  0  0  0  0  0  0  0  0  0  0
   -3.1173    1.2817   -0.5943 C   0  0  0  0  0  0  0  0  0  0  0  0
   -4.6452    2.0862   -0.8061 Cl  0  0  0  0  0  0  0  0  0  0  0  0
   -1.9021    1.9615   -0.5532 C   0  0  0  0  0  0  0  0  0  0  0  0
   -0.7413    1.2664   -0.2340 C   0  0  0  0  0  0  0  0  0  0  0  0
    0.3536    1.8661    0.4573 N   0  0  0  0  0  0  0  0  0  0  0  0
    1.1868    0.8159    1.3404 C   0  0  2  0  0  0  0  0  0  0  0  0
    2.5612    1.7700    1.2645 C   0  0  0  0  0  0  0  0  0  0  0  0
  1  2  1  0
  2  3  2  0
  3  4  1  0
  4  5  2  0
  5  6  1  0
  6  7  2  0
  7  8  1  0
  8  9  1  0
  9 10  2  0
  9 11  1  0
 11 12  2  0
 12 13  1  0
 13 14  1  0
 14 15  1  0
 14 16  2  0
 14 17  2  0
 13 18  2  0
 18 19  1  0
 18 20  1  0
 20 21  2  0
 21 22  1  0
 22 23  1  0
 23 24  1  6
  7  2  1  0
 23  8  1  0
 21 11  1  0
M  END
>  <supplier_code>  (381) 
DB00524

>  <zinc_id>  (381) 
ZINC000000896755

>  <catalog_short_name>  (381) 
dbfda

$$$$

     RDKit          3D

 22 24  0  0  0  0  0  0  0  0999 V2000
    6.4191   -1.0118    0.6169 C   0  0  0  0  0  0  0  0  0  0  0  0
    5.2756   -0.0457    0.6321 C   0  0  0  0  0  0  0  0  0  0  0  0
    5.5619    1.2967    0.4083 C   0  0  0  0  0  0  0  0  0  0  0  0
    4.6299    2.1003   -0.2327 C   0  0  0  0  0  0  0  0  0  0  0  0
    3.3873    1.6098   -0.5860 C   0  0  0  0  0  0  0  0  0  0  0  0
    3.0192    0.3309   -0.1916 C   0  0  0  0  0  0  0  0  0  0  0  0
    1.8856   -0.3006   -0.7991 N   0  0  0  0  0  0  0  0  0  0  0  0
    1.9964   -1.6810   -1.2631 C   0  0  0  0  0  0  0  0  0  0  0  0
    0.6527    0.4032   -0.9004 C   0  0  0  0  0  0  0  0  0  0  0  0
    0.2903    1.6737    0.0394 S   0  0  0  0  0  0  0  0  0  0  0  0
   -0.3868   -0.1858   -1.6198 O   0  0  0  0  0  0  0  0  0  0  0  0
   -1.3988   -0.7967   -0.8733 C   0  0  0  0  0  0  0  0  0  0  0  0
   -2.1872   -1.7972   -1.4286 C   0  0  0  0  0  0  0  0  0  0  0  0
   -3.5507   -1.8345   -1.1633 C   0  0  0  0  0  0  0  0  0  0  0  0
   -4.1484   -0.9513   -0.2796 C   0  0  0  0  0  0  0  0  0  0  0  0
   -5.4125   -0.4233   -0.5047 C   0  0  0  0  0  0  0  0  0  0  0  0
   -5.8457    0.7441    0.1072 C   0  0  0  0  0  0  0  0  0  0  0  0
   -5.1046    1.1617    1.2040 C   0  0  0  0  0  0  0  0  0  0  0  0
   -3.8753    0.5760    1.4812 C   0  0  0  0  0  0  0  0  0  0  0  0
   -3.2850   -0.2035    0.5120 C   0  0  0  0  0  0  0  0  0  0  0  0
   -1.9176   -0.2006    0.2696 C   0  0  0  0  0  0  0  0  0  0  0  0
    3.9946   -0.4645    0.3591 C   0  0  0  0  0  0  0  0  0  0  0  0
  1  2  1  0
  2  3  2  0
  3  4  1  0
  4  5  2  0
  5  6  1  0
  6  7  1  0
  7  8  1  0
  7  9  1  0
  9 10  2  0
  9 11  1  0
 11 12  1  0
 12 13  2  0
 13 14  1  0
 14 15  2  0
 15 16  1  0
 16 17  2  0
 17 18  1  0
 18 19  2  0
 19 20  1  0
 20 21  2  0
  6 22  2  0
 22  2  1  0
 21 12  1  0
 20 15  1  0
M  END
>  <supplier_code>  (382) 
DB00525

>  <zinc_id>  (382) 
ZINC000000057522

>  <catalog_short_name>  (382) 
dbfda

$$$$

     RDKit          3D

 25 26  0  0  0  0  0  0  0  0999 V2000
    6.2294    1.0658   -1.4047 C   0  0  0  0  0  0  0  0  0  0  0  0
    6.6970   -0.3162   -1.7908 C   0  0  0  0  0  0  0  0  0  0  0  0
    5.5613   -1.1678   -2.3430 C   0  0  0  0  0  0  0  0  0  0  0  0
    4.3068   -1.0224   -1.5270 C   0  0  0  0  0  0  0  0  0  0  0  0
    3.4882    0.0067   -2.0705 O   0  0  0  0  0  0  0  0  0  0  0  0
    2.4369    0.5551   -1.3301 C   0  0  0  0  0  0  0  0  0  0  0  0
    1.1075    0.3637   -1.6859 C   0  0  0  0  0  0  0  0  0  0  0  0
    0.1799    0.1837   -0.6689 C   0  0  0  0  0  0  0  0  0  0  0  0
   -1.2589    0.1094   -0.9331 C   0  0  0  0  0  0  0  0  0  0  0  0
   -1.9203    1.1377   -1.2557 O   0  0  0  0  0  0  0  0  0  0  0  0
   -1.9721   -1.1072   -0.8690 N   0  0  0  0  0  0  0  0  0  0  0  0
   -3.3247   -1.1771   -0.3780 C   0  0  0  0  0  0  0  0  0  0  0  0
   -3.7382    0.0456    0.4010 C   0  0  0  0  0  0  0  0  0  0  0  0
   -5.1053   -0.1475    0.8383 N   0  0  0  0  0  0  0  0  0  0  0  0
   -6.0279    0.2849   -0.1889 C   0  0  0  0  0  0  0  0  0  0  0  0
   -5.6305   -0.2235   -1.5602 C   0  0  0  0  0  0  0  0  0  0  0  0
   -5.3661    0.5579    2.0633 C   0  0  0  0  0  0  0  0  0  0  0  0
   -4.8571   -0.1621    3.2793 C   0  0  0  0  0  0  0  0  0  0  0  0
    0.5724    0.3298    0.6548 C   0  0  0  0  0  0  0  0  0  0  0  0
   -0.0793   -0.3905    1.6298 C   0  0  0  0  0  0  0  0  0  0  0  0
    0.4513   -0.4145    2.9145 C   0  0  0  0  0  0  0  0  0  0  0  0
    1.6941    0.1439    3.1877 C   0  0  0  0  0  0  0  0  0  0  0  0
    2.1440    1.0545    2.2402 C   0  0  0  0  0  0  0  0  0  0  0  0
    1.7727    0.9828    0.9063 C   0  0  0  0  0  0  0  0  0  0  0  0
    2.6390    1.1096   -0.1093 N   0  0  0  0  0  0  0  0  0  0  0  0
  1  2  1  0
  2  3  1  0
  3  4  1  0
  4  5  1  0
  5  6  1  0
  6  7  2  0
  7  8  1  0
  8  9  1  0
  9 10  2  0
  9 11  1  0
 11 12  1  0
 12 13  1  0
 13 14  1  0
 14 15  1  0
 15 16  1  0
 14 17  1  0
 17 18  1  0
  8 19  2  0
 19 20  1  0
 20 21  2  0
 21 22  1  0
 22 23  2  0
 23 24  1  0
 24 25  2  0
 25  6  1  0
 24 19  1  0
M  END
>  <supplier_code>  (383) 
DB00527

>  <zinc_id>  (383) 
ZINC000001530939

>  <catalog_short_name>  (383) 
dbfda

$$$$

     RDKit          3D

  7  6  0  0  0  0  0  0  0  0999 V2000
    1.5136   -1.2809   -0.3426 O   0  0  0  0  0  0  0  0  0  0  0  0
    1.0845   -0.1206   -0.1519 C   0  0  0  0  0  0  0  0  0  0  0  0
    1.8735    0.9040    0.3807 O   0  0  0  0  0  0  0  0  0  0  0  0
   -0.6992    0.0643   -0.0208 P   0  0  0  0  0  0  0  0  0  0  0  0
   -1.3895   -1.1102   -0.6774 O   0  0  0  0  0  0  0  0  0  0  0  0
   -1.2043    1.4728   -0.7844 O   0  0  0  0  0  0  0  0  0  0  0  0
   -1.1786    0.0707    1.5965 O   0  0  0  0  0  0  0  0  0  0  0  0
  1  2  2  0
  2  3  1  0
  2  4  1  0
  4  5  2  0
  4  6  1  0
  4  7  1  0
M  END
>  <supplier_code>  (384) 
DB00529

>  <zinc_id>  (384) 
ZINC000008101109

>  <catalog_short_name>  (384) 
dbfda

$$$$

     RDKit          3D

 29 31  0  0  0  0  0  0  0  0999 V2000
    5.8811    3.9931   -0.8661 C   0  0  0  0  0  0  0  0  0  0  0  0
    5.7764    2.8769   -0.3959 C   0  0  0  0  0  0  0  0  0  0  0  0
    5.2267    1.6561    0.1358 C   0  0  0  0  0  0  0  0  0  0  0  0
    5.5385    1.3268    1.4428 C   0  0  0  0  0  0  0  0  0  0  0  0
    4.8663    0.2802    2.0593 C   0  0  0  0  0  0  0  0  0  0  0  0
    3.8462   -0.3788    1.3850 C   0  0  0  0  0  0  0  0  0  0  0  0
    3.5223   -0.0831    0.0662 C   0  0  0  0  0  0  0  0  0  0  0  0
    2.1567   -0.1743   -0.2889 N   0  0  0  0  0  0  0  0  0  0  0  0
    1.4546   -1.3627   -0.5698 C   0  0  0  0  0  0  0  0  0  0  0  0
    1.9994   -2.5071   -0.9918 N   0  0  0  0  0  0  0  0  0  0  0  0
    1.2309   -3.4766   -1.5464 C   0  0  0  0  0  0  0  0  0  0  0  0
    0.0095   -3.1497   -2.0347 N   0  0  0  0  0  0  0  0  0  0  0  0
   -0.6384   -2.0515   -1.5951 C   0  0  0  0  0  0  0  0  0  0  0  0
   -1.9925   -1.8460   -1.8196 C   0  0  0  0  0  0  0  0  0  0  0  0
   -2.6584   -1.0291   -0.9156 C   0  0  0  0  0  0  0  0  0  0  0  0
   -3.9728   -0.6920   -1.2451 O   0  0  0  0  0  0  0  0  0  0  0  0
   -4.1147    0.2941   -2.2632 C   0  0  0  0  0  0  0  0  0  0  0  0
   -4.6726    1.5568   -1.6356 C   0  0  0  0  0  0  0  0  0  0  0  0
   -5.9592    1.3002   -1.1621 O   0  0  0  0  0  0  0  0  0  0  0  0
   -6.8611    1.1907   -2.2098 C   0  0  0  0  0  0  0  0  0  0  0  0
   -1.9911   -0.2361    0.0020 C   0  0  0  0  0  0  0  0  0  0  0  0
   -2.7087    0.0771    1.1622 O   0  0  0  0  0  0  0  0  0  0  0  0
   -2.3821    1.1875    1.9709 C   0  0  0  0  0  0  0  0  0  0  0  0
   -1.7643    0.7351    3.2895 C   0  0  0  0  0  0  0  0  0  0  0  0
   -2.5328    1.1482    4.3815 O   0  0  0  0  0  0  0  0  0  0  0  0
   -3.1036    0.0252    4.9581 C   0  0  0  0  0  0  0  0  0  0  0  0
   -0.6090   -0.2842   -0.0044 C   0  0  0  0  0  0  0  0  0  0  0  0
    0.0864   -1.2152   -0.7676 C   0  0  0  0  0  0  0  0  0  0  0  0
    4.3666    0.8388   -0.5414 C   0  0  0  0  0  0  0  0  0  0  0  0
  1  2  3  0
  2  3  1  0
  3  4  2  0
  4  5  1  0
  5  6  2  0
  6  7  1  0
  7  8  1  0
  8  9  1  0
  9 10  2  0
 10 11  1  0
 11 12  2  0
 12 13  1  0
 13 14  2  0
 14 15  1  0
 15 16  1  0
 16 17  1  0
 17 18  1  0
 18 19  1  0
 19 20  1  0
 15 21  2  0
 21 22  1  0
 22 23  1  0
 23 24  1  0
 24 25  1  0
 25 26  1  0
 21 27  1  0
 27 28  2  0
  7 29  2  0
 29  3  1  0
 28  9  1  0
 28 13  1  0
M  END
>  <supplier_code>  (385) 
DB00530

>  <zinc_id>  (385) 
ZINC000001546066

>  <catalog_short_name>  (385) 
dbfda

$$$$

     RDKit          3D

 14 14  0  0  0  0  0  0  0  0999 V2000
    1.2069   -0.8885   -1.4687 O   0  0  0  0  0  0  0  0  0  0  0  0
    0.7597   -0.1906   -0.2004 P   0  0  2  0  0  0  0  0  0  0  0  0
   -0.9323    0.0364   -0.2800 N   0  0  0  0  0  0  0  0  0  0  0  0
   -1.7125   -1.0072   -0.8243 C   0  0  0  0  0  0  0  0  0  0  0  0
   -1.7320   -2.2792   -0.0339 C   0  0  0  0  0  0  0  0  0  0  0  0
   -3.3455   -2.5574    0.6635 Cl  0  0  0  0  0  0  0  0  0  0  0  0
   -1.5240    0.8286    0.7422 C   0  0  0  0  0  0  0  0  0  0  0  0
   -1.3782    2.2853    0.3102 C   0  0  0  0  0  0  0  0  0  0  0  0
   -2.9803    3.0582    0.2054 Cl  0  0  0  0  0  0  0  0  0  0  0  0
    1.5288    1.3847   -0.0687 N   0  0  0  0  0  0  0  0  0  0  0  0
    2.9590    1.2234   -0.2051 C   0  0  0  0  0  0  0  0  0  0  0  0
    3.3098   -0.1956    0.1981 C   0  0  0  0  0  0  0  0  0  0  0  0
    2.5643   -0.6184    1.4552 C   0  0  0  0  0  0  0  0  0  0  0  0
    1.2763   -1.0796    1.1440 O   0  0  0  0  0  0  0  0  0  0  0  0
  1  2  2  0
  2  3  1  6
  3  4  1  0
  4  5  1  0
  5  6  1  0
  3  7  1  0
  7  8  1  0
  8  9  1  0
  2 10  1  0
 10 11  1  0
 11 12  1  0
 12 13  1  0
 13 14  1  0
 14  2  1  0
M  END
>  <supplier_code>  (386) 
DB00531

>  <zinc_id>  (386) 
ZINC000000155694

>  <catalog_short_name>  (386) 
dbfda

$$$$

     RDKit          3D

 14 14  0  0  0  0  0  0  0  0999 V2000
    0.9378    1.1530    1.0346 O   0  0  0  0  0  0  0  0  0  0  0  0
    0.6573    0.0737    0.0643 P   0  0  1  0  0  0  0  0  0  0  0  0
   -1.0112   -0.0989   -0.3430 N   0  0  0  0  0  0  0  0  0  0  0  0
   -1.9344    0.1591    0.7027 C   0  0  0  0  0  0  0  0  0  0  0  0
   -1.5218    1.2242    1.6731 C   0  0  0  0  0  0  0  0  0  0  0  0
   -1.6872    0.5351    3.3148 Cl  0  0  0  0  0  0  0  0  0  0  0  0
   -1.3460    0.4716   -1.6195 C   0  0  0  0  0  0  0  0  0  0  0  0
   -2.6562   -0.0920   -2.0862 C   0  0  0  0  0  0  0  0  0  0  0  0
   -3.1373   -1.5341   -1.1493 Cl  0  0  0  0  0  0  0  0  0  0  0  0
    1.4966    0.4566   -1.4398 N   0  0  0  0  0  0  0  0  0  0  0  0
    2.9353    0.4661   -1.2461 C   0  0  0  0  0  0  0  0  0  0  0  0
    3.2450   -0.0109    0.1644 C   0  0  0  0  0  0  0  0  0  0  0  0
    2.6937   -1.4083    0.3251 C   0  0  0  0  0  0  0  0  0  0  0  0
    1.3285   -1.3952    0.6048 O   0  0  0  0  0  0  0  0  0  0  0  0
  1  2  2  0
  2  3  1  6
  3  4  1  0
  4  5  1  0
  5  6  1  0
  3  7  1  0
  7  8  1  0
  8  9  1  0
  2 10  1  0
 10 11  1  0
 11 12  1  0
 12 13  1  0
 13 14  1  0
 14  2  1  0
M  END
>  <supplier_code>  (387) 
DB00531

>  <zinc_id>  (387) 
ZINC000100008275

>  <catalog_short_name>  (387) 
dbfda

$$$$

     RDKit          3D

 26 28  0  0  0  0  0  0  0  0999 V2000
    6.3667   -0.4139   -0.4274 C   0  0  0  0  0  0  0  0  0  0  0  0
    5.4776   -1.0490   -1.0633 C   0  0  0  0  0  0  0  0  0  0  0  0
    4.0967   -0.6160   -0.9207 C   0  0  0  0  0  0  0  0  0  0  0  0
    3.5178   -0.6648    0.2800 C   0  0  0  0  0  0  0  0  0  0  0  0
    4.2252   -1.0826    1.4900 C   0  0  0  0  0  0  0  0  0  0  0  0
    4.3225   -0.2609    2.4490 O   0  0  0  0  0  0  0  0  0  0  0  0
    4.2483   -2.4267    1.8780 O   0  0  0  0  0  0  0  0  0  0  0  0
    2.1046   -0.5020    0.4664 N   0  0  0  0  0  0  0  0  0  0  0  0
    1.1672    0.5335    0.8507 C   0  0  0  0  0  0  0  0  0  0  0  0
    0.9536    0.8846    2.0553 O   0  0  0  0  0  0  0  0  0  0  0  0
    0.0394   -0.4456    0.2032 C   0  0  1  0  0  0  0  0  0  0  0  0
   -0.5427    0.6399   -0.8165 N   0  0  0  0  0  0  0  0  0  0  0  0
   -1.7418    1.2527   -0.3929 C   0  0  0  0  0  0  0  0  0  0  0  0
   -1.6592    1.7728    0.7622 O   0  0  0  0  0  0  0  0  0  0  0  0
   -3.0511    1.0618   -1.0339 C   0  0  0  0  0  0  0  0  0  0  0  0
   -3.6265    2.1547   -1.4415 N   0  0  0  0  0  0  0  0  0  0  0  0
   -2.9326    3.3271   -1.6606 O   0  0  0  0  0  0  0  0  0  0  0  0
   -3.9722   -0.0092   -0.5917 C   0  0  0  0  0  0  0  0  0  0  0  0
   -3.4297   -1.2809   -0.4033 C   0  0  0  0  0  0  0  0  0  0  0  0
   -4.6719   -2.0626    0.4915 S   0  0  0  0  0  0  0  0  0  0  0  0
   -5.7508   -0.7259    0.5592 C   0  0  0  0  0  0  0  0  0  0  0  0
   -7.0655   -0.6448    1.1280 N   0  0  0  0  0  0  0  0  0  0  0  0
   -4.8555    0.2752    0.3841 N   0  0  0  0  0  0  0  0  0  0  0  0
    1.3355   -0.9242   -0.7794 C   0  0  1  0  0  0  0  0  0  0  0  0
    1.8156    0.6920   -1.6786 S   0  0  0  0  0  0  0  0  0  0  0  0
    3.6287    0.5145   -1.7878 C   0  0  0  0  0  0  0  0  0  0  0  0
  1  2  2  0
  2  3  1  0
  3  4  2  0
  4  5  1  0
  5  6  2  0
  5  7  1  0
  4  8  1  0
  8  9  1  0
  9 10  2  0
  9 11  1  0
 11 12  1  6
 12 13  1  0
 13 14  2  0
 13 15  1  0
 15 16  2  0
 16 17  1  0
 15 18  1  0
 18 19  2  0
 19 20  1  0
 20 21  1  0
 21 22  1  0
 21 23  2  0
 11 24  1  0
 24 25  1  6
 25 26  1  0
 26  3  1  0
 24  8  1  0
 23 18  1  0
M  END
>  <supplier_code>  (388) 
DB00535

>  <zinc_id>  (388) 
ZINC000003927198

>  <catalog_short_name>  (388) 
dbfda

$$$$

     RDKit          3D

  4  3  0  0  0  0  0  0  0  0999 V2000
   -0.0787    1.3244   -0.0348 N   0  0  0  0  0  0  0  0  0  0  0  0
   -0.0093    0.0374    0.1015 C   0  0  0  0  0  0  0  0  0  0  0  0
   -1.1716   -0.7549   -0.0128 N   0  0  0  0  0  0  0  0  0  0  0  0
    1.2596   -0.6069   -0.0539 N   0  0  0  0  0  0  0  0  0  0  0  0
  1  2  2  0
  2  3  1  0
  2  4  1  0
M  END
>  <supplier_code>  (389) 
DB00536

>  <zinc_id>  (389) 
ZINC000008101126

>  <catalog_short_name>  (389) 
dbfda

$$$$

     RDKit          3D

 24 27  0  0  0  0  0  0  0  0999 V2000
   -5.1224   -0.7034   -1.3669 O   0  0  0  0  0  0  0  0  0  0  0  0
   -4.6877   -0.0577   -0.3682 C   0  0  0  0  0  0  0  0  0  0  0  0
   -5.3014   -0.3567    0.8502 O   0  0  0  0  0  0  0  0  0  0  0  0
   -3.2357    0.1597   -0.3277 C   0  0  0  0  0  0  0  0  0  0  0  0
   -2.6964    1.3728    0.0333 C   0  0  0  0  0  0  0  0  0  0  0  0
   -1.3502    1.5205    0.0395 N   0  0  0  0  0  0  0  0  0  0  0  0
   -0.7300    2.8015    0.3327 C   0  0  0  0  0  0  0  0  0  0  0  0
   -0.1088    3.5175   -0.8408 C   0  0  0  0  0  0  0  0  0  0  0  0
   -1.3667    4.0695   -0.1136 C   0  0  0  0  0  0  0  0  0  0  0  0
   -0.5737    0.4166    0.1588 C   0  0  0  0  0  0  0  0  0  0  0  0
    0.8013    0.5841    0.0466 C   0  0  0  0  0  0  0  0  0  0  0  0
    1.6303   -0.5144   -0.1438 C   0  0  0  0  0  0  0  0  0  0  0  0
    3.0470   -0.3861   -0.1311 N   0  0  0  0  0  0  0  0  0  0  0  0
    3.8559   -1.4906   -0.6145 C   0  0  0  0  0  0  0  0  0  0  0  0
    5.0460   -1.6043    0.3298 C   0  0  0  0  0  0  0  0  0  0  0  0
    5.8456   -0.4106    0.1185 N   0  0  0  0  0  0  0  0  0  0  0  0
    5.1200    0.8054    0.3724 C   0  0  0  0  0  0  0  0  0  0  0  0
    3.6778    0.5912    0.7255 C   0  0  0  0  0  0  0  0  0  0  0  0
    1.0727   -1.7769   -0.1113 C   0  0  0  0  0  0  0  0  0  0  0  0
    1.8416   -2.7842   -0.6192 F   0  0  0  0  0  0  0  0  0  0  0  0
   -0.2779   -1.9283    0.0718 C   0  0  0  0  0  0  0  0  0  0  0  0
   -1.1323   -0.8373    0.1532 C   0  0  0  0  0  0  0  0  0  0  0  0
   -2.4721   -0.9921   -0.1807 C   0  0  0  0  0  0  0  0  0  0  0  0
   -2.8831   -1.9959   -0.8329 O   0  0  0  0  0  0  0  0  0  0  0  0
  1  2  2  0
  2  3  1  0
  2  4  1  0
  4  5  2  0
  5  6  1  0
  6  7  1  0
  7  8  1  0
  8  9  1  0
  6 10  1  0
 10 11  2  0
 11 12  1  0
 12 13  1  0
 13 14  1  0
 14 15  1  0
 15 16  1  0
 16 17  1  0
 17 18  1  0
 12 19  2  0
 19 20  1  0
 19 21  1  0
 21 22  2  0
 22 23  1  0
 23 24  2  0
 23  4  1  0
  9  7  1  0
 22 10  1  0
 18 13  1  0
M  END
>  <supplier_code>  (390) 
DB00537

>  <zinc_id>  (390) 
ZINC000000020220

>  <catalog_short_name>  (390) 
dbfda

$$$$

     RDKit          3D

 35 34  0  0  0  0  0  0  0  0999 V2000
   -7.1279    4.1427    1.3277 C   0  0  0  0  0  0  0  0  0  0  0  0
   -6.5622    3.1440    0.5593 O   0  0  0  0  0  0  0  0  0  0  0  0
   -5.8126    3.6766   -0.4732 C   0  0  0  0  0  0  0  0  0  0  0  0
   -4.3845    3.1682   -0.3473 C   0  0  0  0  0  0  0  0  0  0  0  0
   -4.3327    1.8021   -0.8107 N   0  0  0  0  0  0  0  0  0  0  0  0
   -4.7311    0.7397    0.0525 C   0  0  0  0  0  0  0  0  0  0  0  0
   -4.7759    0.9952    1.2891 O   0  0  0  0  0  0  0  0  0  0  0  0
   -4.7473   -0.6455   -0.4745 C   0  0  0  0  0  0  0  0  0  0  0  0
   -3.5043   -1.3411   -0.2821 N   0  0  0  0  0  0  0  0  0  0  0  0
   -2.3404   -0.5429   -0.5686 C   0  0  0  0  0  0  0  0  0  0  0  0
   -1.6057   -0.1201    0.6671 C   0  0  0  0  0  0  0  0  0  0  0  0
   -0.1999   -0.3669    0.6428 N   0  0  0  0  0  0  0  0  0  0  0  0
    0.4736   -0.0232   -0.5635 C   0  0  0  0  0  0  0  0  0  0  0  0
    1.8765   -0.5560   -0.5022 C   0  0  0  0  0  0  0  0  0  0  0  0
    2.8021    0.3034    0.1801 N   0  0  0  0  0  0  0  0  0  0  0  0
    2.2009    1.1349    1.1875 C   0  0  0  0  0  0  0  0  0  0  0  0
    2.3553    2.5559    0.7944 C   0  0  0  0  0  0  0  0  0  0  0  0
    2.9284    2.8872   -0.2864 O   0  0  0  0  0  0  0  0  0  0  0  0
    1.7873    3.5522    1.5646 O   0  0  0  0  0  0  0  0  0  0  0  0
    3.8920   -0.4889    0.7155 C   0  0  0  0  0  0  0  0  0  0  0  0
    4.8922   -0.8489   -0.3211 C   0  0  0  0  0  0  0  0  0  0  0  0
    4.6616   -0.7320   -1.5624 O   0  0  0  0  0  0  0  0  0  0  0  0
    6.2466   -1.1213    0.0569 N   0  0  0  0  0  0  0  0  0  0  0  0
    7.3013   -0.9299   -0.9337 C   0  0  0  0  0  0  0  0  0  0  0  0
    7.4971    0.5412   -1.1618 C   0  0  0  0  0  0  0  0  0  0  0  0
    7.8245    1.1255    0.0715 O   0  0  0  0  0  0  0  0  0  0  0  0
    6.9138    2.1445    0.3799 C   0  0  0  0  0  0  0  0  0  0  0  0
    0.2306   -1.5554    1.2902 C   0  0  0  0  0  0  0  0  0  0  0  0
    0.3418   -2.7408    0.4307 C   0  0  0  0  0  0  0  0  0  0  0  0
    0.5527   -3.8467    1.0152 O   0  0  0  0  0  0  0  0  0  0  0  0
   -0.1753   -2.8427   -0.8539 O   0  0  0  0  0  0  0  0  0  0  0  0
   -3.4468   -1.9685    1.0294 C   0  0  0  0  0  0  0  0  0  0  0  0
   -3.5693   -3.4397    0.7795 C   0  0  0  0  0  0  0  0  0  0  0  0
   -2.6172   -3.9398    0.1067 O   0  0  0  0  0  0  0  0  0  0  0  0
   -4.8453   -3.8630    0.3918 O   0  0  0  0  0  0  0  0  0  0  0  0
  1  2  1  0
  2  3  1  0
  3  4  1  0
  4  5  1  0
  5  6  1  0
  6  7  2  0
  6  8  1  0
  8  9  1  0
  9 10  1  0
 10 11  1  0
 11 12  1  0
 12 13  1  0
 13 14  1  0
 14 15  1  0
 15 16  1  0
 16 17  1  0
 17 18  2  0
 17 19  1  0
 15 20  1  0
 20 21  1  0
 21 22  2  0
 21 23  1  0
 23 24  1  0
 24 25  1  0
 25 26  1  0
 26 27  1  0
 12 28  1  0
 28 29  1  0
 29 30  2  0
 29 31  1  0
  9 32  1  0
 32 33  1  0
 33 34  2  0
 33 35  1  0
M  END
>  <supplier_code>  (391) 
DB00538

>  <zinc_id>  (391) 
ZINC000022447798

>  <catalog_short_name>  (391) 
dbfda

$$$$

     RDKit          3D

 29 31  0  0  0  0  0  0  0  0999 V2000
    6.4542    0.4359    0.7972 C   0  0  0  0  0  0  0  0  0  0  0  0
    6.9835   -0.7206    0.0961 N   0  0  0  0  0  0  0  0  0  0  0  0
    7.8608   -0.3533   -0.9910 C   0  0  0  0  0  0  0  0  0  0  0  0
    5.9481   -1.6072   -0.3757 C   0  0  0  0  0  0  0  0  0  0  0  0
    4.8879   -0.8516   -1.1237 C   0  0  0  0  0  0  0  0  0  0  0  0
    3.6719   -1.5448   -1.2207 O   0  0  0  0  0  0  0  0  0  0  0  0
    2.4823   -0.9189   -0.8377 C   0  0  0  0  0  0  0  0  0  0  0  0
    1.3314   -1.1293   -1.5829 C   0  0  0  0  0  0  0  0  0  0  0  0
    0.2018   -0.4133   -1.2241 C   0  0  0  0  0  0  0  0  0  0  0  0
   -0.0108   -0.1408    0.1092 C   0  0  0  0  0  0  0  0  0  0  0  0
   -1.2069    0.5555    0.5980 C   0  0  0  0  0  0  0  0  0  0  0  0
   -2.3241   -0.1712    0.6250 C   0  0  0  0  0  0  0  0  0  0  0  0
   -3.3879    0.2173    1.6035 C   0  0  0  0  0  0  0  0  0  0  0  0
   -3.4105   -0.7170    2.7971 C   0  0  0  0  0  0  0  0  0  0  0  0
   -2.0754   -1.8808    2.7599 Cl  0  0  0  0  0  0  0  0  0  0  0  0
   -2.6412   -0.9904   -0.5519 C   0  0  0  0  0  0  0  0  0  0  0  0
   -3.0681   -0.3937   -1.7325 C   0  0  0  0  0  0  0  0  0  0  0  0
   -4.0748   -0.9022   -2.5099 C   0  0  0  0  0  0  0  0  0  0  0  0
   -4.4066   -2.2387   -2.3613 C   0  0  0  0  0  0  0  0  0  0  0  0
   -4.0223   -2.8625   -1.1804 C   0  0  0  0  0  0  0  0  0  0  0  0
   -3.0248   -2.3174   -0.3969 C   0  0  0  0  0  0  0  0  0  0  0  0
   -1.1360    1.8996    1.1833 C   0  0  0  0  0  0  0  0  0  0  0  0
   -1.9104    2.1923    2.2977 C   0  0  0  0  0  0  0  0  0  0  0  0
   -2.3716    3.4787    2.5255 C   0  0  0  0  0  0  0  0  0  0  0  0
   -2.1251    4.5008    1.6228 C   0  0  0  0  0  0  0  0  0  0  0  0
   -1.2216    4.2526    0.5984 C   0  0  0  0  0  0  0  0  0  0  0  0
   -0.9237    2.9492    0.3029 C   0  0  0  0  0  0  0  0  0  0  0  0
    1.1240   -0.1008    0.9100 C   0  0  0  0  0  0  0  0  0  0  0  0
    2.3958   -0.2277    0.3633 C   0  0  0  0  0  0  0  0  0  0  0  0
  1  2  1  0
  2  3  1  0
  2  4  1  0
  4  5  1  0
  5  6  1  0
  6  7  1  0
  7  8  2  0
  8  9  1  0
  9 10  2  0
 10 11  1  0
 11 12  2  0
 12 13  1  0
 13 14  1  0
 14 15  1  0
 12 16  1  0
 16 17  2  0
 17 18  1  0
 18 19  2  0
 19 20  1  0
 20 21  2  0
 11 22  1  0
 22 23  2  0
 23 24  1  0
 24 25  2  0
 25 26  1  0
 26 27  2  0
 10 28  1  0
 28 29  2  0
 29  7  1  0
 21 16  1  0
 27 22  1  0
M  END
>  <supplier_code>  (392) 
DB00539

>  <zinc_id>  (392) 
ZINC000012404516

>  <catalog_short_name>  (392) 
dbfda

$$$$

     RDKit          3D

 20 22  0  0  0  0  0  0  0  0999 V2000
    5.2340   -1.2409   -0.0628 C   0  0  0  0  0  0  0  0  0  0  0  0
    4.6498    0.0686    0.1863 N   0  0  0  0  0  0  0  0  0  0  0  0
    3.2416   -0.0751    0.4784 C   0  0  0  0  0  0  0  0  0  0  0  0
    2.4516    0.5337   -0.6605 C   0  0  0  0  0  0  0  0  0  0  0  0
    1.2396   -0.2434   -0.9883 C   0  0  0  0  0  0  0  0  0  0  0  0
    0.0787   -0.0944   -0.3736 C   0  0  0  0  0  0  0  0  0  0  0  0
   -0.3336    1.3035   -0.2037 C   0  0  0  0  0  0  0  0  0  0  0  0
    0.7577    2.1493   -0.0942 C   0  0  0  0  0  0  0  0  0  0  0  0
    0.5086    3.3920    0.4755 C   0  0  0  0  0  0  0  0  0  0  0  0
   -0.7400    3.7176    0.9820 C   0  0  0  0  0  0  0  0  0  0  0  0
   -1.8192    3.0261    0.4917 C   0  0  0  0  0  0  0  0  0  0  0  0
   -1.6353    1.7416   -0.0057 C   0  0  0  0  0  0  0  0  0  0  0  0
   -2.9271    1.0014   -0.1498 C   0  0  0  0  0  0  0  0  0  0  0  0
   -2.9459   -0.2596    0.6749 C   0  0  0  0  0  0  0  0  0  0  0  0
   -2.0743   -1.3262    0.0928 C   0  0  0  0  0  0  0  0  0  0  0  0
   -2.6294   -2.5926    0.2386 C   0  0  0  0  0  0  0  0  0  0  0  0
   -1.9003   -3.7386   -0.0545 C   0  0  0  0  0  0  0  0  0  0  0  0
   -0.5282   -3.6368    0.1052 C   0  0  0  0  0  0  0  0  0  0  0  0
    0.0766   -2.4224   -0.1847 C   0  0  0  0  0  0  0  0  0  0  0  0
   -0.7051   -1.3038   -0.1248 C   0  0  0  0  0  0  0  0  0  0  0  0
  1  2  1  0
  2  3  1  0
  3  4  1  0
  4  5  1  0
  5  6  2  3
  6  7  1  0
  7  8  2  0
  8  9  1  0
  9 10  2  0
 10 11  1  0
 11 12  2  0
 12 13  1  0
 13 14  1  0
 14 15  1  0
 15 16  2  0
 16 17  1  0
 17 18  2  0
 18 19  1  0
 19 20  2  0
 20  6  1  0
 12  7  1  0
 20 15  1  0
M  END
>  <supplier_code>  (393) 
DB00540

>  <zinc_id>  (393) 
ZINC000001530741

>  <catalog_short_name>  (393) 
dbfda

$$$$

     RDKit          3D

 60 68  0  0  0  0  0  0  0  0999 V2000
   -6.0747   -2.4796    1.9803 C   0  0  0  0  0  0  0  0  0  0  0  0
   -4.9554   -2.3259    2.2705 C   0  0  0  0  0  0  0  0  0  0  0  0
   -4.4545   -0.9868    1.7265 C   0  0  2  0  0  0  0  0  0  0  0  0
   -4.5189   -0.0416    2.6982 C   0  0  0  0  0  0  0  0  0  0  0  0
   -3.9464   -0.4380    3.8504 C   0  0  0  0  0  0  0  0  0  0  0  0
   -3.2737   -1.7621    3.5988 C   0  0  0  0  0  0  0  0  0  0  0  0
   -2.3839   -1.6563    2.5737 N   0  0  0  0  0  0  0  0  0  0  0  0
   -1.2572   -0.8401    2.6274 C   0  0  0  0  0  0  0  0  0  0  0  0
   -1.9352    0.4811    2.2639 C   0  0  0  0  0  0  0  0  0  0  0  0
   -2.4021    0.0620    0.9416 C   0  0  2  0  0  0  0  0  0  0  0  0
   -1.4490    0.1191   -0.1104 C   0  0  0  0  0  0  0  0  0  0  0  0
   -0.1116   -0.2673   -0.0669 C   0  0  0  0  0  0  0  0  0  0  0  0
    0.8966    0.3608   -0.7509 C   0  0  0  0  0  0  0  0  0  0  0  0
    2.3593    0.1591   -0.4830 C   0  0  1  0  0  0  0  0  0  0  0  0
    2.9332    1.5447   -0.5186 C   0  0  0  0  0  0  0  0  0  0  0  0
    2.3434    2.3909    0.2134 O   0  0  0  0  0  0  0  0  0  0  0  0
    4.0335    1.9043   -1.2512 O   0  0  0  0  0  0  0  0  0  0  0  0
    4.8353    2.9550   -0.7178 C   0  0  0  0  0  0  0  0  0  0  0  0
    2.4787   -0.3335    0.9145 C   0  0  0  0  0  0  0  0  0  0  0  0
    3.9306    0.2752    1.3330 C   0  0  2  0  0  0  0  0  0  0  0  0
    4.4222   -1.1531    1.9678 C   0  0  0  0  0  0  0  0  0  0  0  0
    5.8511   -0.8542    1.8055 N   0  0  0  0  0  0  0  0  0  0  0  0
    5.9923    0.4316    2.4900 C   0  0  0  0  0  0  0  0  0  0  0  0
    4.8664    0.6767    3.4830 C   0  0  2  0  0  0  0  0  0  0  0  0
    5.1439    1.9119    4.0726 O   0  0  0  0  0  0  0  0  0  0  0  0
    4.8338   -0.3670    4.5721 C   0  0  0  0  0  0  0  0  0  0  0  0
    3.8659    0.1325    5.6279 C   0  0  0  0  0  0  0  0  0  0  0  0
    3.4986    0.8030    2.8110 C   0  0  0  0  0  0  0  0  0  0  0  0
    5.9405   -0.6968    0.3484 C   0  0  0  0  0  0  0  0  0  0  0  0
    4.8427   -1.4968   -0.3447 C   0  0  0  0  0  0  0  0  0  0  0  0
    4.3013   -0.8378   -1.5453 C   0  0  0  0  0  0  0  0  0  0  0  0
    4.6413   -1.1088   -2.8681 C   0  0  0  0  0  0  0  0  0  0  0  0
    5.7988   -1.4600   -3.5196 C   0  0  0  0  0  0  0  0  0  0  0  0
    5.7449   -1.9475   -4.8113 C   0  0  0  0  0  0  0  0  0  0  0  0
    4.5782   -1.9425   -5.5363 C   0  0  0  0  0  0  0  0  0  0  0  0
    3.4041   -1.6253   -4.8936 C   0  0  0  0  0  0  0  0  0  0  0  0
    3.4536   -1.1445   -3.5891 C   0  0  0  0  0  0  0  0  0  0  0  0
    2.4192   -0.9959   -2.7603 N   0  0  0  0  0  0  0  0  0  0  0  0
    2.9139   -0.7056   -1.5294 C   0  0  0  0  0  0  0  0  0  0  0  0
    0.5293    1.2270   -1.7580 C   0  0  0  0  0  0  0  0  0  0  0  0
    1.4838    1.8508   -2.5662 O   0  0  0  0  0  0  0  0  0  0  0  0
    1.1600    2.4369   -3.7971 C   0  0  0  0  0  0  0  0  0  0  0  0
   -0.7009    1.8543   -1.6236 C   0  0  0  0  0  0  0  0  0  0  0  0
   -1.5872    1.3997   -0.6453 C   0  0  0  0  0  0  0  0  0  0  0  0
   -2.9398    1.6883   -0.7254 N   0  0  0  0  0  0  0  0  0  0  0  0
   -3.4907    3.0012   -0.9095 C   0  0  0  0  0  0  0  0  0  0  0  0
   -3.3435    3.5586   -2.0177 O   0  0  0  0  0  0  0  0  0  0  0  0
   -3.6627    0.9657    0.4723 C   0  0  1  0  0  0  0  0  0  0  0  0
   -4.3447   -0.1067   -0.5267 C   0  0  1  0  0  0  0  0  0  0  0  0
   -5.1388    0.7177   -1.3421 O   0  0  0  0  0  0  0  0  0  0  0  0
   -3.6043   -0.9529   -1.3118 C   0  0  0  0  0  0  0  0  0  0  0  0
   -4.1146   -2.1165   -1.4808 O   0  0  0  0  0  0  0  0  0  0  0  0
   -3.1802   -0.5290   -2.5844 O   0  0  0  0  0  0  0  0  0  0  0  0
   -2.5597   -1.4209   -3.5068 C   0  0  0  0  0  0  0  0  0  0  0  0
   -5.4216   -0.8752    0.4340 C   0  0  2  0  0  0  0  0  0  0  0  0
   -6.0429    0.4612    0.9031 O   0  0  0  0  0  0  0  0  0  0  0  0
   -7.4081    0.3865    0.9972 C   0  0  0  0  0  0  0  0  0  0  0  0
   -8.1744    1.2006    1.9776 C   0  0  0  0  0  0  0  0  0  0  0  0
   -8.0134   -0.0532   -0.0169 O   0  0  0  0  0  0  0  0  0  0  0  0
   -3.0064   -1.4350    1.1539 C   0  0  2  0  0  0  0  0  0  0  0  0
  1  2  1  0
  3  2  1  1
  3  4  1  0
  4  5  2  0
  5  6  1  0
  6  7  1  0
  7  8  1  0
  8  9  1  0
 10  9  1  1
 10 11  1  0
 11 12  2  0
 12 13  1  0
 14 13  1  6
 14 15  1  0
 15 16  2  0
 15 17  1  0
 17 18  1  0
 14 19  1  0
 20 19  1  6
 20 21  1  0
 21 22  1  0
 22 23  1  0
 23 24  1  0
 24 25  1  1
 24 26  1  0
 26 27  1  0
 24 28  1  0
 22 29  1  0
 29 30  1  0
 30 31  1  0
 31 32  1  0
 32 33  2  0
 33 34  1  0
 34 35  2  0
 35 36  1  0
 36 37  2  0
 37 38  1  0
 38 39  1  0
 13 40  2  0
 40 41  1  0
 41 42  1  0
 40 43  1  0
 43 44  2  0
 44 45  1  0
 45 46  1  0
 46 47  2  0
 48 45  1  6
 48 49  1  0
 49 50  1  6
 49 51  1  0
 51 52  2  0
 51 53  1  0
 53 54  1  0
 49 55  1  0
 55 56  1  1
 56 57  1  0
 57 58  1  0
 57 59  2  0
 10 60  1  0
 55  3  1  0
 60  3  1  0
 60  7  1  1
 48 10  1  0
 44 11  1  0
 39 14  1  0
 28 20  1  0
 39 31  2  0
 37 32  1  0
M  END
>  <supplier_code>  (394) 
DB00541

>  <zinc_id>  (394) 
ZINC000085432549

>  <catalog_short_name>  (394) 
dbfda

$$$$

     RDKit          3D

 31 33  0  0  0  0  0  0  0  0999 V2000
   -3.9961    4.0890    1.4419 C   0  0  0  0  0  0  0  0  0  0  0  0
   -3.6280    4.4933    0.0345 C   0  0  0  0  0  0  0  0  0  0  0  0
   -3.0437    3.4008   -0.6709 O   0  0  0  0  0  0  0  0  0  0  0  0
   -2.5224    2.3121    0.0454 C   0  0  0  0  0  0  0  0  0  0  0  0
   -2.2277    2.5681    1.2051 O   0  0  0  0  0  0  0  0  0  0  0  0
   -1.4518    1.6047   -0.9297 C   0  0  2  0  0  0  0  0  0  0  0  0
   -2.2722    0.1834   -1.0043 C   0  0  0  0  0  0  0  0  0  0  0  0
   -3.7222    0.4604   -0.9813 C   0  0  0  0  0  0  0  0  0  0  0  0
   -4.3935   -0.7715   -0.5143 C   0  0  0  0  0  0  0  0  0  0  0  0
   -3.9308   -1.4900    0.5798 C   0  0  0  0  0  0  0  0  0  0  0  0
   -4.2531   -2.8276    0.7643 C   0  0  0  0  0  0  0  0  0  0  0  0
   -5.2573   -3.3865   -0.0135 C   0  0  0  0  0  0  0  0  0  0  0  0
   -5.8449   -2.5957   -0.9669 C   0  0  0  0  0  0  0  0  0  0  0  0
   -5.5329   -1.2642   -1.1319 C   0  0  0  0  0  0  0  0  0  0  0  0
   -0.5454    1.0617    0.2450 N   0  0  0  0  0  0  0  0  0  0  0  0
    0.6988    0.6700   -0.6401 C   0  0  1  0  0  0  0  0  0  0  0  0
    1.6397    1.8269    0.0609 C   0  0  0  0  0  0  0  0  0  0  0  0
    2.6979    2.0247   -1.0149 C   0  0  0  0  0  0  0  0  0  0  0  0
    3.7726    0.9887   -0.9316 C   0  0  0  0  0  0  0  0  0  0  0  0
    4.9863    1.5009   -1.3022 C   0  0  0  0  0  0  0  0  0  0  0  0
    6.0595    0.6305   -1.3206 C   0  0  0  0  0  0  0  0  0  0  0  0
    5.8980   -0.7211   -1.0634 C   0  0  0  0  0  0  0  0  0  0  0  0
    4.6334   -1.1961   -0.7623 C   0  0  0  0  0  0  0  0  0  0  0  0
    3.7091   -0.2579   -0.3194 C   0  0  0  0  0  0  0  0  0  0  0  0
    2.6268   -0.8578    0.4058 N   0  0  0  0  0  0  0  0  0  0  0  0
    2.7259   -2.2341    0.7132 C   0  0  0  0  0  0  0  0  0  0  0  0
    3.5540   -2.6452    1.8409 C   0  0  0  0  0  0  0  0  0  0  0  0
    4.7950   -2.9105    1.7507 O   0  0  0  0  0  0  0  0  0  0  0  0
    2.9306   -3.5262    2.7410 O   0  0  0  0  0  0  0  0  0  0  0  0
    1.2474   -0.4624    0.3577 C   0  0  0  0  0  0  0  0  0  0  0  0
    0.6466   -0.6682    1.3810 O   0  0  0  0  0  0  0  0  0  0  0  0
  1  2  1  0
  2  3  1  0
  3  4  1  0
  4  5  2  0
  6  4  1  1
  6  7  1  0
  7  8  1  0
  8  9  1  0
  9 10  2  0
 10 11  1  0
 11 12  2  0
 12 13  1  0
 13 14  2  0
  6 15  1  0
 16 15  1  1
 16 17  1  0
 17 18  1  0
 18 19  1  0
 19 20  2  0
 20 21  1  0
 21 22  2  0
 22 23  1  0
 23 24  2  0
 24 25  1  0
 25 26  1  0
 26 27  1  0
 27 28  2  0
 27 29  1  0
 25 30  1  0
 30 31  2  0
 14  9  1  0
 30 16  1  0
 24 19  1  0
M  END
>  <supplier_code>  (395) 
DB00542

>  <zinc_id>  (395) 
ZINC000003781943

>  <catalog_short_name>  (395) 
dbfda

$$$$

     RDKit          3D

 22 25  0  0  0  0  0  0  0  0999 V2000
   -2.5158    3.9016    0.4899 Cl  0  0  0  0  0  0  0  0  0  0  0  0
   -1.6349    2.7171   -0.4683 C   0  0  0  0  0  0  0  0  0  0  0  0
   -0.8156    3.0955   -1.5242 C   0  0  0  0  0  0  0  0  0  0  0  0
    0.3868    2.4656   -1.7835 C   0  0  0  0  0  0  0  0  0  0  0  0
    0.5697    1.1812   -1.2850 C   0  0  0  0  0  0  0  0  0  0  0  0
   -0.3606    0.6806   -0.3801 C   0  0  0  0  0  0  0  0  0  0  0  0
   -1.4957    1.4016   -0.0441 C   0  0  0  0  0  0  0  0  0  0  0  0
   -0.3087   -0.5214    0.4631 C   0  0  0  0  0  0  0  0  0  0  0  0
   -1.5875   -1.1585    0.5826 N   0  0  0  0  0  0  0  0  0  0  0  0
   -2.6159   -0.4984    1.3611 C   0  0  0  0  0  0  0  0  0  0  0  0
   -3.9407   -1.1134    0.9292 C   0  0  0  0  0  0  0  0  0  0  0  0
   -3.7789   -2.5626    0.8763 N   0  0  0  0  0  0  0  0  0  0  0  0
   -3.0087   -2.9741   -0.2783 C   0  0  0  0  0  0  0  0  0  0  0  0
   -2.0351   -1.8571   -0.6191 C   0  0  0  0  0  0  0  0  0  0  0  0
    0.7131   -1.2984    0.5552 N   0  0  0  0  0  0  0  0  0  0  0  0
    2.0975   -1.1127    0.2685 C   0  0  0  0  0  0  0  0  0  0  0  0
    2.9237   -1.6561    1.2443 C   0  0  0  0  0  0  0  0  0  0  0  0
    4.2593   -1.3060    1.3515 C   0  0  0  0  0  0  0  0  0  0  0  0
    4.6811   -0.1633    0.6837 C   0  0  0  0  0  0  0  0  0  0  0  0
    3.9536    0.1765   -0.4480 C   0  0  0  0  0  0  0  0  0  0  0  0
    2.6129   -0.1548   -0.5948 C   0  0  0  0  0  0  0  0  0  0  0  0
    1.9003    0.7572   -1.3801 O   0  0  0  0  0  0  0  0  0  0  0  0
  1  2  1  0
  2  3  2  0
  3  4  1  0
  4  5  2  0
  5  6  1  0
  6  7  2  0
  6  8  1  0
  8  9  1  0
  9 10  1  0
 10 11  1  0
 11 12  1  0
 12 13  1  0
 13 14  1  0
  8 15  2  0
 15 16  1  0
 16 17  2  0
 17 18  1  0
 18 19  2  0
 19 20  1  0
 20 21  2  0
 21 22  1  0
  7  2  1  0
 14  9  1  0
 21 16  1  0
 22  5  1  0
M  END
>  <supplier_code>  (396) 
DB00543

>  <zinc_id>  (396) 
ZINC000000000931

>  <catalog_short_name>  (396) 
dbfda

$$$$

     RDKit          3D

  9  9  0  0  0  0  0  0  0  0999 V2000
    2.5367   -0.7053    0.5573 O   0  0  0  0  0  0  0  0  0  0  0  0
    1.4922   -0.4195   -0.1004 C   0  0  0  0  0  0  0  0  0  0  0  0
    1.2873    0.8022   -0.6475 N   0  0  0  0  0  0  0  0  0  0  0  0
    0.1179    1.4617   -0.4555 C   0  0  0  0  0  0  0  0  0  0  0  0
   -0.9826    0.7298   -0.0329 C   0  0  0  0  0  0  0  0  0  0  0  0
   -2.1245    1.3386    0.4041 F   0  0  0  0  0  0  0  0  0  0  0  0
   -0.8413   -0.6504    0.0566 C   0  0  0  0  0  0  0  0  0  0  0  0
   -1.8821   -1.3581    0.2064 O   0  0  0  0  0  0  0  0  0  0  0  0
    0.3964   -1.1991    0.0120 N   0  0  0  0  0  0  0  0  0  0  0  0
  1  2  2  0
  2  3  1  0
  3  4  1  0
  4  5  2  0
  5  6  1  0
  5  7  1  0
  7  8  2  0
  7  9  1  0
  9  2  1  0
M  END
>  <supplier_code>  (397) 
DB00544

>  <zinc_id>  (397) 
ZINC000038212689

>  <catalog_short_name>  (397) 
dbfda

$$$$

     RDKit          3D

 13 13  0  0  0  0  0  0  0  0999 V2000
    3.0412   -0.8447    1.3436 C   0  0  0  0  0  0  0  0  0  0  0  0
    2.9605   -0.0609    0.1137 N   0  0  0  0  0  0  0  0  0  0  0  0
    3.3922    1.3263    0.2701 C   0  0  0  0  0  0  0  0  0  0  0  0
    1.8131   -0.2830   -0.7164 C   0  0  0  0  0  0  0  0  0  0  0  0
    1.6621    0.3526   -1.8016 O   0  0  0  0  0  0  0  0  0  0  0  0
    0.7190   -1.0204   -0.3035 O   0  0  0  0  0  0  0  0  0  0  0  0
   -0.6046   -0.6245   -0.5320 C   0  0  0  0  0  0  0  0  0  0  0  0
   -1.5673   -1.5865   -0.2466 C   0  0  0  0  0  0  0  0  0  0  0  0
   -2.7584   -1.2696    0.3955 C   0  0  0  0  0  0  0  0  0  0  0  0
   -2.9599    0.0158    0.8832 C   0  0  0  0  0  0  0  0  0  0  0  0
   -2.1377    0.9651    0.3967 N   0  0  0  0  0  0  0  0  0  0  0  0
   -2.5288    2.3486    0.5230 C   0  0  0  0  0  0  0  0  0  0  0  0
   -1.0314    0.6812   -0.3258 C   0  0  0  0  0  0  0  0  0  0  0  0
  1  2  1  0
  2  3  1  0
  2  4  1  0
  4  5  2  0
  4  6  1  0
  6  7  1  0
  7  8  2  0
  8  9  1  0
  9 10  2  0
 10 11  1  0
 11 12  1  0
 11 13  2  0
 13  7  1  0
M  CHG  1  11   1
M  END
>  <supplier_code>  (398) 
DB00545

>  <zinc_id>  (398) 
ZINC000000002009

>  <catalog_short_name>  (398) 
dbfda

$$$$

     RDKit          3D

 27 30  0  0  0  0  0  0  0  0999 V2000
    2.6000   -2.9313   -1.2820 C   0  0  0  0  0  0  0  0  0  0  0  0
    3.1512   -2.1311    0.0202 C   0  0  2  0  0  0  0  0  0  0  0  0
    1.7040   -2.1695    0.7274 C   0  0  0  0  0  0  0  0  0  0  0  0
    0.9195   -1.2411   -0.3180 C   0  0  1  0  0  0  0  0  0  0  0  0
   -0.2167   -0.6242    0.7723 C   0  0  2  0  0  0  0  0  0  0  0  0
   -1.1122   -1.9731    0.8403 C   0  0  0  0  0  0  0  0  0  0  0  0
   -2.2585   -1.3511    1.6187 C   0  0  0  0  0  0  0  0  0  0  0  0
   -2.7358   -0.0700    1.0980 C   0  0  0  0  0  0  0  0  0  0  0  0
   -4.0349    0.2042    1.2447 C   0  0  0  0  0  0  0  0  0  0  0  0
   -4.8488    0.7029    0.1268 C   0  0  0  0  0  0  0  0  0  0  0  0
   -6.0959    0.5590    0.0649 O   0  0  0  0  0  0  0  0  0  0  0  0
   -4.0512    1.1929   -1.0071 C   0  0  0  0  0  0  0  0  0  0  0  0
   -2.8925    1.6978   -0.6147 C   0  0  0  0  0  0  0  0  0  0  0  0
   -1.9861    0.8790    0.2123 C   0  0  1  0  0  0  0  0  0  0  0  0
   -1.2838    1.8635    1.1418 C   0  0  0  0  0  0  0  0  0  0  0  0
   -1.0489    0.0314   -0.4350 C   0  0  2  0  0  0  0  0  0  0  0  0
   -1.5270   -0.9316   -1.2596 F   0  0  0  0  0  0  0  0  0  0  0  0
    0.0494    0.7434   -1.4073 C   0  0  1  0  0  0  0  0  0  0  0  0
   -0.5521    2.1351   -1.2887 O   0  0  0  0  0  0  0  0  0  0  0  0
    1.1855    1.1048   -0.2637 C   0  0  0  0  0  0  0  0  0  0  0  0
    1.8866   -0.0362    0.1670 C   0  0  1  0  0  0  0  0  0  0  0  0
    2.2323   -0.1231    1.5691 C   0  0  0  0  0  0  0  0  0  0  0  0
    3.0078   -0.6471   -0.7892 C   0  0  1  0  0  0  0  0  0  0  0  0
    4.2140    0.0031    0.0477 C   0  0  0  0  0  0  0  0  0  0  0  0
    5.2555   -0.6540    0.0444 O   0  0  0  0  0  0  0  0  0  0  0  0
    4.4539    1.4293   -0.3580 C   0  0  0  0  0  0  0  0  0  0  0  0
    3.9849    2.3370    0.5653 O   0  0  0  0  0  0  0  0  0  0  0  0
  2  1  1  6
  2  3  1  0
  4  3  1  1
  4  5  1  0
  5  6  1  6
  6  7  1  0
  7  8  1  0
  8  9  2  0
  9 10  1  0
 10 11  2  0
 10 12  1  0
 12 13  2  0
 13 14  1  0
 14 15  1  1
 14 16  1  0
 16 17  1  6
 16 18  1  0
 18 19  1  1
 18 20  1  0
 20 21  1  0
 21 22  1  1
 21 23  1  0
 23 24  1  1
 24 25  2  0
 24 26  1  0
 26 27  1  0
 23  2  1  0
 21  4  1  0
 16  5  1  0
 14  8  1  0
M  END
>  <supplier_code>  (399) 
DB00547

>  <zinc_id>  (399) 
ZINC000004212854

>  <catalog_short_name>  (399) 
dbfda

$$$$

     RDKit          3D

 13 12  0  0  0  0  0  0  0  0999 V2000
    3.3686    0.8903   -1.6501 O   0  0  0  0  0  0  0  0  0  0  0  0
    3.9153    0.2531   -0.7137 C   0  0  0  0  0  0  0  0  0  0  0  0
    5.1823   -0.3031   -0.9136 O   0  0  0  0  0  0  0  0  0  0  0  0
    3.0499   -0.4507    0.2687 C   0  0  0  0  0  0  0  0  0  0  0  0
    1.9729    0.4414    0.8312 C   0  0  0  0  0  0  0  0  0  0  0  0
    1.0664    1.0048   -0.2331 C   0  0  0  0  0  0  0  0  0  0  0  0
   -0.0089    0.0368   -0.6621 C   0  0  0  0  0  0  0  0  0  0  0  0
   -1.3883    0.4596   -0.1636 C   0  0  0  0  0  0  0  0  0  0  0  0
   -1.5637   -0.1916    1.1789 C   0  0  0  0  0  0  0  0  0  0  0  0
   -2.9840   -0.3091    1.6283 C   0  0  0  0  0  0  0  0  0  0  0  0
   -3.9664   -0.3583    0.5350 C   0  0  0  0  0  0  0  0  0  0  0  0
   -5.0464    0.2922    0.6715 O   0  0  0  0  0  0  0  0  0  0  0  0
   -3.5976   -0.6575   -0.7775 O   0  0  0  0  0  0  0  0  0  0  0  0
  1  2  2  0
  2  3  1  0
  2  4  1  0
  4  5  1  0
  5  6  1  0
  6  7  1  0
  7  8  1  0
  8  9  1  0
  9 10  1  0
 10 11  1  0
 11 12  2  0
 11 13  1  0
M  END
>  <supplier_code>  (400) 
DB00548

>  <zinc_id>  (400) 
ZINC000001531036

>  <catalog_short_name>  (400) 
dbfda

$$$$

     RDKit          3D

 41 45  0  0  0  0  0  0  0  0999 V2000
   -1.9242   -3.1703   -2.8679 C   0  0  0  0  0  0  0  0  0  0  0  0
   -0.9665   -3.0100   -1.8266 O   0  0  0  0  0  0  0  0  0  0  0  0
   -1.3480   -2.2122   -0.7572 C   0  0  0  0  0  0  0  0  0  0  0  0
   -2.6805   -2.1497   -0.3773 C   0  0  0  0  0  0  0  0  0  0  0  0
   -3.0746   -1.6326    0.8446 C   0  0  0  0  0  0  0  0  0  0  0  0
   -4.4489   -1.1937    1.1057 C   0  0  0  0  0  0  0  0  0  0  0  0
   -4.8399   -1.2020    2.4480 O   0  0  0  0  0  0  0  0  0  0  0  0
   -5.0636   -0.3471    0.3349 N   0  0  0  0  0  0  0  0  0  0  0  0
   -6.0769    0.9015    0.9372 S   0  0  0  0  0  0  0  0  0  0  0  0
   -6.3054    0.7750    2.4233 O   0  0  0  0  0  0  0  0  0  0  0  0
   -5.3986    2.2182    0.6396 O   0  0  0  0  0  0  0  0  0  0  0  0
   -7.6278    0.9332    0.1532 C   0  0  0  0  0  0  0  0  0  0  0  0
   -8.5241    1.9009    0.5214 C   0  0  0  0  0  0  0  0  0  0  0  0
   -9.5787    2.2458   -0.2934 C   0  0  0  0  0  0  0  0  0  0  0  0
   -9.7512    1.5178   -1.4604 C   0  0  0  0  0  0  0  0  0  0  0  0
   -9.1903    0.2498   -1.5039 C   0  0  0  0  0  0  0  0  0  0  0  0
   -8.0335    0.0002   -0.7782 C   0  0  0  0  0  0  0  0  0  0  0  0
   -7.2034   -1.2078   -0.9749 C   0  0  0  0  0  0  0  0  0  0  0  0
   -2.0584   -1.1761    1.6743 C   0  0  0  0  0  0  0  0  0  0  0  0
   -0.7847   -0.9569    1.1646 C   0  0  0  0  0  0  0  0  0  0  0  0
   -0.3628   -1.7425    0.1009 C   0  0  0  0  0  0  0  0  0  0  0  0
    1.0461   -2.1716   -0.0732 C   0  0  0  0  0  0  0  0  0  0  0  0
    1.8049   -1.1557   -0.8670 C   0  0  0  0  0  0  0  0  0  0  0  0
    1.3153   -0.5643   -2.0250 C   0  0  0  0  0  0  0  0  0  0  0  0
    2.1210    0.4572   -2.3569 N   0  0  0  0  0  0  0  0  0  0  0  0
    1.8766    1.3880   -3.4402 C   0  0  0  0  0  0  0  0  0  0  0  0
    2.9564    0.7130   -1.3415 C   0  0  0  0  0  0  0  0  0  0  0  0
    3.4928    1.8931   -0.8411 C   0  0  0  0  0  0  0  0  0  0  0  0
    4.2456    1.8900    0.3270 C   0  0  0  0  0  0  0  0  0  0  0  0
    4.4343    0.7228    1.0582 C   0  0  0  0  0  0  0  0  0  0  0  0
    5.6920    0.4329    1.6811 N   0  0  0  0  0  0  0  0  0  0  0  0
    6.8639    1.2036    1.4334 C   0  0  0  0  0  0  0  0  0  0  0  0
    6.6766    2.4378    1.2203 O   0  0  0  0  0  0  0  0  0  0  0  0
    8.1018    0.6601    1.1632 O   0  0  0  0  0  0  0  0  0  0  0  0
    9.1218    1.3456    0.4404 C   0  0  0  0  0  0  0  0  0  0  0  0
   10.4538    0.6678    0.7195 C   0  0  0  0  0  0  0  0  0  0  0  0
   10.5158   -0.5372   -0.1929 C   0  0  0  0  0  0  0  0  0  0  0  0
    9.2461   -0.4851   -1.0193 C   0  0  0  0  0  0  0  0  0  0  0  0
    8.8984    0.9943   -1.0256 C   0  0  0  0  0  0  0  0  0  0  0  0
    3.5298   -0.2918    0.7675 C   0  0  0  0  0  0  0  0  0  0  0  0
    2.8488   -0.3420   -0.4430 C   0  0  0  0  0  0  0  0  0  0  0  0
  1  2  1  0
  2  3  1  0
  3  4  2  0
  4  5  1  0
  5  6  1  0
  6  7  1  0
  6  8  2  0
  8  9  1  0
  9 10  2  0
  9 11  2  0
  9 12  1  0
 12 13  2  0
 13 14  1  0
 14 15  2  0
 15 16  1  0
 16 17  2  0
 17 18  1  0
  5 19  2  0
 19 20  1  0
 20 21  2  0
 21 22  1  0
 22 23  1  0
 23 24  2  0
 24 25  1  0
 25 26  1  0
 25 27  1  0
 27 28  2  0
 28 29  1  0
 29 30  2  0
 30 31  1  0
 31 32  1  0
 32 33  2  0
 32 34  1  0
 34 35  1  0
 35 36  1  0
 36 37  1  0
 37 38  1  0
 38 39  1  0
 30 40  1  0
 40 41  2  0
 21  3  1  0
 41 23  1  0
 17 12  1  0
 41 27  1  0
 39 35  1  0
M  END
>  <supplier_code>  (401) 
DB00549

>  <zinc_id>  (401) 
ZINC000000896717

>  <catalog_short_name>  (401) 
dbfda

$$$$

     RDKit          3D

 11 11  0  0  0  0  0  0  0  0999 V2000
    4.2823   -0.3884   -0.3208 C   0  0  0  0  0  0  0  0  0  0  0  0
    2.8425   -0.8209   -0.1057 C   0  0  0  0  0  0  0  0  0  0  0  0
    1.9972    0.3611    0.2555 C   0  0  0  0  0  0  0  0  0  0  0  0
    0.5516    0.1504   -0.0576 C   0  0  0  0  0  0  0  0  0  0  0  0
   -0.1569    1.1169   -0.7599 C   0  0  0  0  0  0  0  0  0  0  0  0
   -1.5181    1.1971   -0.4879 C   0  0  0  0  0  0  0  0  0  0  0  0
   -2.1640    2.2759   -0.6076 O   0  0  0  0  0  0  0  0  0  0  0  0
   -2.1450    0.1682    0.1321 N   0  0  0  0  0  0  0  0  0  0  0  0
   -1.4402   -0.9317    0.4355 C   0  0  0  0  0  0  0  0  0  0  0  0
   -2.1486   -2.1517    1.2746 S   0  0  0  0  0  0  0  0  0  0  0  0
   -0.1008   -0.9768    0.2418 N   0  0  0  0  0  0  0  0  0  0  0  0
  1  2  1  0
  2  3  1  0
  3  4  1  0
  4  5  2  0
  5  6  1  0
  6  7  2  0
  6  8  1  0
  8  9  1  0
  9 10  2  0
  9 11  1  0
 11  4  1  0
M  END
>  <supplier_code>  (402) 
DB00550

>  <zinc_id>  (402) 
ZINC000004640636

>  <catalog_short_name>  (402) 
dbfda

$$$$

     RDKit          3D

  5  4  0  0  0  0  0  0  0  0999 V2000
   -1.6641   -0.5963    0.4527 C   0  0  0  0  0  0  0  0  0  0  0  0
   -0.4414    0.0469   -0.1120 C   0  0  0  0  0  0  0  0  0  0  0  0
   -0.5331    1.2628   -0.3827 O   0  0  0  0  0  0  0  0  0  0  0  0
    0.7398   -0.6597   -0.4547 N   0  0  0  0  0  0  0  0  0  0  0  0
    1.8989   -0.0537   -0.0618 O   0  0  0  0  0  0  0  0  0  0  0  0
  1  2  1  0
  2  3  2  0
  2  4  1  0
  4  5  1  0
M  END
>  <supplier_code>  (403) 
DB00551

>  <zinc_id>  (403) 
ZINC000004658603

>  <catalog_short_name>  (403) 
dbfda

$$$$

     RDKit          3D

 19 21  0  0  0  0  0  0  0  0999 V2000
    4.7044    1.8641    0.4026 O   0  0  0  0  0  0  0  0  0  0  0  0
    4.3479    1.2071   -0.0835 C   0  0  0  0  0  0  0  0  0  0  0  0
    3.2959    0.2289    0.7412 C   0  0  1  0  0  0  0  0  0  0  0  0
    2.0938    0.7926    0.0074 O   0  0  0  0  0  0  0  0  0  0  0  0
    1.2196   -0.2116    0.7938 C   0  0  1  0  0  0  0  0  0  0  0  0
   -0.0157   -0.1488   -0.2388 N   0  0  0  0  0  0  0  0  0  0  0  0
   -0.1942    0.8260   -1.1047 C   0  0  0  0  0  0  0  0  0  0  0  0
   -1.3832    1.4489   -0.8850 N   0  0  0  0  0  0  0  0  0  0  0  0
   -2.0546    0.7562    0.0815 C   0  0  0  0  0  0  0  0  0  0  0  0
   -1.2600   -0.3332    0.2838 C   0  0  0  0  0  0  0  0  0  0  0  0
   -1.6022   -1.3242    1.2363 N   0  0  0  0  0  0  0  0  0  0  0  0
   -2.7409   -1.9426    1.3947 C   0  0  0  0  0  0  0  0  0  0  0  0
   -3.9254   -1.4359    0.7442 N   0  0  0  0  0  0  0  0  0  0  0  0
   -4.2243   -0.0117    0.8800 C   0  0  0  0  0  0  0  0  0  0  0  0
   -3.5840    0.6656   -0.5048 C   0  0  1  0  0  0  0  0  0  0  0  0
   -3.8933    2.0720    0.0443 O   0  0  0  0  0  0  0  0  0  0  0  0
    1.8516   -1.5620    0.0434 C   0  0  0  0  0  0  0  0  0  0  0  0
    3.2564   -0.9501   -0.5347 C   0  0  2  0  0  0  0  0  0  0  0  0
    4.1080   -1.9412    0.2527 O   0  0  0  0  0  0  0  0  0  0  0  0
  1  2  1  0
  3  2  1  6
  3  4  1  0
  4  5  1  0
  5  6  1  6
  6  7  1  0
  7  8  2  0
  8  9  1  0
  9 10  2  0
 10 11  1  0
 11 12  2  0
 12 13  1  0
 13 14  1  0
 14 15  1  0
 15 16  1  1
  5 17  1  0
 17 18  1  0
 18 19  1  1
 18  3  1  0
 10  6  1  0
 15  9  1  0
M  END
>  <supplier_code>  (404) 
DB00552

>  <zinc_id>  (404) 
ZINC000003806262

>  <catalog_short_name>  (404) 
dbfda

$$$$

     RDKit          3D

 16 18  0  0  0  0  0  0  0  0999 V2000
    0.5547    3.1535    0.1652 C   0  0  0  0  0  0  0  0  0  0  0  0
   -0.3075    2.2758   -0.5325 O   0  0  0  0  0  0  0  0  0  0  0  0
   -0.4394    0.9354   -0.2482 C   0  0  0  0  0  0  0  0  0  0  0  0
   -1.7189    0.4058   -0.1457 C   0  0  0  0  0  0  0  0  0  0  0  0
   -2.8943    0.8913    0.2017 O   0  0  0  0  0  0  0  0  0  0  0  0
   -3.6492   -0.0712    0.7036 C   0  0  0  0  0  0  0  0  0  0  0  0
   -3.1322   -1.2387    0.1560 C   0  0  0  0  0  0  0  0  0  0  0  0
   -1.8779   -0.9548   -0.3698 C   0  0  0  0  0  0  0  0  0  0  0  0
   -0.7512   -1.7367   -0.6009 C   0  0  0  0  0  0  0  0  0  0  0  0
    0.5158   -1.2450   -0.3296 C   0  0  0  0  0  0  0  0  0  0  0  0
    1.6375   -2.0572   -0.3179 C   0  0  0  0  0  0  0  0  0  0  0  0
    2.8232   -1.4263    0.0120 C   0  0  0  0  0  0  0  0  0  0  0  0
    2.8443   -0.1090    0.4443 C   0  0  0  0  0  0  0  0  0  0  0  0
    3.9761    0.4313    0.5479 O   0  0  0  0  0  0  0  0  0  0  0  0
    1.7544    0.6350    0.3990 O   0  0  0  0  0  0  0  0  0  0  0  0
    0.6645    0.1110   -0.0851 C   0  0  0  0  0  0  0  0  0  0  0  0
  1  2  1  0
  2  3  1  0
  3  4  2  0
  4  5  1  0
  5  6  1  0
  6  7  2  0
  7  8  1  0
  8  9  2  0
  9 10  1  0
 10 11  1  0
 11 12  2  0
 12 13  1  0
 13 14  2  0
 13 15  1  0
 15 16  1  0
 16  3  1  0
  8  4  1  0
 16 10  2  0
M  END
>  <supplier_code>  (405) 
DB00553

>  <zinc_id>  (405) 
ZINC000002548959

>  <catalog_short_name>  (405) 
dbfda

$$$$

     RDKit          3D

 23 25  0  0  0  0  0  0  0  0999 V2000
   -0.9943   -3.1037   -1.0089 C   0  0  0  0  0  0  0  0  0  0  0  0
   -1.3555   -1.9458   -0.2405 N   0  0  0  0  0  0  0  0  0  0  0  0
   -0.3393   -1.0238    0.1720 C   0  0  0  0  0  0  0  0  0  0  0  0
    1.0638   -1.4381    0.0007 C   0  0  0  0  0  0  0  0  0  0  0  0
    1.3752   -1.8267   -1.1658 O   0  0  0  0  0  0  0  0  0  0  0  0
    2.1168   -0.9511    0.7998 N   0  0  0  0  0  0  0  0  0  0  0  0
    3.3684   -0.4724    0.2881 C   0  0  0  0  0  0  0  0  0  0  0  0
    4.3378   -0.2763    1.2678 C   0  0  0  0  0  0  0  0  0  0  0  0
    5.2632    0.7390    1.2185 C   0  0  0  0  0  0  0  0  0  0  0  0
    5.0774    1.7693    0.3404 C   0  0  0  0  0  0  0  0  0  0  0  0
    4.0810    1.6034   -0.6137 C   0  0  0  0  0  0  0  0  0  0  0  0
    3.4345    0.4172   -0.7324 N   0  0  0  0  0  0  0  0  0  0  0  0
   -0.6636    0.1498    0.7203 C   0  0  0  0  0  0  0  0  0  0  0  0
    0.4253    0.8268    1.2839 O   0  0  0  0  0  0  0  0  0  0  0  0
   -1.6890    0.9942    0.0919 C   0  0  0  0  0  0  0  0  0  0  0  0
   -1.6767    2.3786    0.2240 C   0  0  0  0  0  0  0  0  0  0  0  0
   -2.6541    3.0851   -0.4231 C   0  0  0  0  0  0  0  0  0  0  0  0
   -3.8971    2.4721   -0.5230 C   0  0  0  0  0  0  0  0  0  0  0  0
   -4.0313    1.1188   -0.2759 C   0  0  0  0  0  0  0  0  0  0  0  0
   -2.8881    0.3780   -0.1735 C   0  0  0  0  0  0  0  0  0  0  0  0
   -2.9806   -1.3453   -0.3547 S   0  0  0  0  0  0  0  0  0  0  0  0
   -3.7816   -1.8811    0.7864 O   0  0  0  0  0  0  0  0  0  0  0  0
   -3.5922   -1.6678   -1.6824 O   0  0  0  0  0  0  0  0  0  0  0  0
  1  2  1  0
  2  3  1  0
  3  4  1  0
  4  5  2  0
  4  6  1  0
  6  7  1  0
  7  8  2  0
  8  9  1  0
  9 10  2  0
 10 11  1  0
 11 12  2  0
  3 13  2  0
 13 14  1  0
 13 15  1  0
 15 16  2  0
 16 17  1  0
 17 18  2  0
 18 19  1  0
 19 20  2  0
 20 21  1  0
 21 22  2  0
 21 23  2  0
 21  2  1  0
 12  7  1  0
 20 15  1  0
M  END
>  <supplier_code>  (406) 
DB00554

>  <zinc_id>  (406) 
ZINC000051133897

>  <catalog_short_name>  (406) 
dbfda

$$$$

     RDKit          3D

 16 17  0  0  0  0  0  0  0  0999 V2000
   -4.2533    0.0606   -1.2788 N   0  0  0  0  0  0  0  0  0  0  0  0
   -3.2135    0.3399   -0.3392 C   0  0  0  0  0  0  0  0  0  0  0  0
   -2.3371    1.3569   -0.5223 N   0  0  0  0  0  0  0  0  0  0  0  0
   -1.0583    1.2522   -0.1602 N   0  0  0  0  0  0  0  0  0  0  0  0
   -0.6420    0.0971    0.4163 C   0  0  0  0  0  0  0  0  0  0  0  0
    0.7076   -0.4088    0.2995 C   0  0  0  0  0  0  0  0  0  0  0  0
    0.9730   -1.6313   -0.3067 C   0  0  0  0  0  0  0  0  0  0  0  0
    2.1147   -1.8615   -1.0340 C   0  0  0  0  0  0  0  0  0  0  0  0
    3.1370   -0.9510   -1.0130 C   0  0  0  0  0  0  0  0  0  0  0  0
    2.9372    0.2691   -0.3848 C   0  0  0  0  0  0  0  0  0  0  0  0
    4.2068    1.4646   -0.3445 Cl  0  0  0  0  0  0  0  0  0  0  0  0
    1.7429    0.5135    0.2707 C   0  0  0  0  0  0  0  0  0  0  0  0
    1.3805    2.2072    0.5910 Cl  0  0  0  0  0  0  0  0  0  0  0  0
   -1.5892   -0.7568    0.9709 C   0  0  0  0  0  0  0  0  0  0  0  0
   -1.2197   -1.4221    2.1864 N   0  0  0  0  0  0  0  0  0  0  0  0
   -2.8868   -0.5296    0.6489 N   0  0  0  0  0  0  0  0  0  0  0  0
  1  2  1  0
  2  3  2  0
  3  4  1  0
  4  5  2  0
  5  6  1  0
  6  7  2  0
  7  8  1  0
  8  9  2  0
  9 10  1  0
 10 11  1  0
 10 12  2  0
 12 13  1  0
  5 14  1  0
 14 15  1  0
 14 16  2  0
 16  2  1  0
 12  6  1  0
M  END
>  <supplier_code>  (407) 
DB00555

>  <zinc_id>  (407) 
ZINC000000013156

>  <catalog_short_name>  (407) 
dbfda

$$$$

     RDKit          3D

 11 10  0  0  0  0  0  0  0  0999 V2000
    1.2485   -0.0868   -1.6345 F   0  0  0  0  0  0  0  0  0  0  0  0
    1.2241    0.2353   -0.2883 C   0  0  0  0  0  0  0  0  0  0  0  0
    2.3575   -0.3579    0.2626 F   0  0  0  0  0  0  0  0  0  0  0  0
    1.3412    1.5930   -0.0851 F   0  0  0  0  0  0  0  0  0  0  0  0
    0.0447   -0.3340    0.4347 C   0  0  0  0  0  0  0  0  0  0  0  0
    0.1604    0.0781    1.7586 F   0  0  0  0  0  0  0  0  0  0  0  0
    0.1353   -1.7225    0.4220 F   0  0  0  0  0  0  0  0  0  0  0  0
   -1.2847    0.0649   -0.1304 C   0  0  0  0  0  0  0  0  0  0  0  0
   -1.2378    1.2040   -0.8940 F   0  0  0  0  0  0  0  0  0  0  0  0
   -1.8720   -1.0052   -0.7992 F   0  0  0  0  0  0  0  0  0  0  0  0
   -2.1171    0.3310    0.9535 F   0  0  0  0  0  0  0  0  0  0  0  0
  1  2  1  0
  2  3  1  0
  2  4  1  0
  2  5  1  0
  5  6  1  0
  5  7  1  0
  5  8  1  0
  8  9  1  0
  8 10  1  0
  8 11  1  0
M  END
>  <supplier_code>  (408) 
DB00556

>  <zinc_id>  (408) 
ZINC000008214651

>  <catalog_short_name>  (408) 
dbfda

$$$$

     RDKit          3D

 26 28  0  0  0  0  0  0  0  0999 V2000
    6.7021    0.7867   -0.7164 O   0  0  0  0  0  0  0  0  0  0  0  0
    6.5375    0.7664   -0.3746 C   0  0  0  0  0  0  0  0  0  0  0  0
    5.7870    0.1064    0.7760 C   0  0  0  0  0  0  0  0  0  0  0  0
    4.9250   -0.8304    0.1837 O   0  0  0  0  0  0  0  0  0  0  0  0
    4.3921   -0.3432   -1.0084 C   0  0  0  0  0  0  0  0  0  0  0  0
    3.2333    0.5692   -0.6304 C   0  0  0  0  0  0  0  0  0  0  0  0
    2.4997   -0.0403    0.4793 N   0  0  0  0  0  0  0  0  0  0  0  0
    1.7300    1.0137    1.1006 C   0  0  0  0  0  0  0  0  0  0  0  0
    0.4092    1.0820    0.3857 C   0  0  0  0  0  0  0  0  0  0  0  0
   -0.4224   -0.0728    0.7040 N   0  0  0  0  0  0  0  0  0  0  0  0
   -1.3077   -0.0745   -0.6443 C   0  0  1  0  0  0  0  0  0  0  0  0
   -1.9299   -1.5661   -0.3362 C   0  0  0  0  0  0  0  0  0  0  0  0
   -1.3744   -2.5576   -1.1074 C   0  0  0  0  0  0  0  0  0  0  0  0
   -1.6129   -3.8694   -0.7192 C   0  0  0  0  0  0  0  0  0  0  0  0
   -2.3859   -4.1096    0.4059 C   0  0  0  0  0  0  0  0  0  0  0  0
   -2.8125   -3.0655    1.2179 C   0  0  0  0  0  0  0  0  0  0  0  0
   -2.3563   -1.7861    0.9240 C   0  0  0  0  0  0  0  0  0  0  0  0
   -2.5753    0.6874    0.0923 C   0  0  0  0  0  0  0  0  0  0  0  0
   -3.5244    0.9140   -0.9018 C   0  0  0  0  0  0  0  0  0  0  0  0
   -4.1838    2.1298   -1.0404 C   0  0  0  0  0  0  0  0  0  0  0  0
   -3.9285    3.1151   -0.1153 C   0  0  0  0  0  0  0  0  0  0  0  0
   -4.6635    4.7132   -0.1821 Cl  0  0  0  0  0  0  0  0  0  0  0  0
   -3.0132    2.9307    0.9142 C   0  0  0  0  0  0  0  0  0  0  0  0
   -2.1729    1.8417    0.7531 C   0  0  0  0  0  0  0  0  0  0  0  0
    0.3691   -1.2715    0.5995 C   0  0  0  0  0  0  0  0  0  0  0  0
    1.6785   -1.0693   -0.1045 C   0  0  0  0  0  0  0  0  0  0  0  0
  1  2  1  0
  2  3  1  0
  3  4  1  0
  4  5  1  0
  5  6  1  0
  6  7  1  0
  7  8  1  0
  8  9  1  0
  9 10  1  0
 11 10  1  1
 11 12  1  0
 12 13  2  0
 13 14  1  0
 14 15  2  0
 15 16  1  0
 16 17  2  0
 11 18  1  0
 18 19  2  0
 19 20  1  0
 20 21  2  0
 21 22  1  0
 21 23  1  0
 23 24  2  0
 10 25  1  0
 25 26  1  0
 26  7  1  0
 17 12  1  0
 24 18  1  0
M  END
>  <supplier_code>  (409) 
DB00557

>  <zinc_id>  (409) 
ZINC000019364222

>  <catalog_short_name>  (409) 
dbfda

$$$$

     RDKit          3D

 26 28  0  0  0  0  0  0  0  0999 V2000
    7.2025    0.2930    0.8210 O   0  0  0  0  0  0  0  0  0  0  0  0
    6.9539    0.2945    0.9182 C   0  0  0  0  0  0  0  0  0  0  0  0
    5.4897    0.3761    0.4883 C   0  0  0  0  0  0  0  0  0  0  0  0
    5.5577    0.5338   -0.9055 O   0  0  0  0  0  0  0  0  0  0  0  0
    4.5448   -0.2697   -1.4542 C   0  0  0  0  0  0  0  0  0  0  0  0
    3.4190    0.6808   -1.7709 C   0  0  0  0  0  0  0  0  0  0  0  0
    2.1374    0.1301   -1.6049 N   0  0  0  0  0  0  0  0  0  0  0  0
    1.7506   -0.3255   -0.3409 C   0  0  0  0  0  0  0  0  0  0  0  0
    0.3758   -0.8817   -0.2409 C   0  0  0  0  0  0  0  0  0  0  0  0
   -0.3245   -0.8791   -1.3236 N   0  0  0  0  0  0  0  0  0  0  0  0
   -1.8454   -0.5335   -1.3758 C   0  0  2  0  0  0  0  0  0  0  0  0
   -1.7865    0.8737   -0.5867 C   0  0  0  0  0  0  0  0  0  0  0  0
   -3.0625    1.4276   -0.6651 C   0  0  0  0  0  0  0  0  0  0  0  0
   -3.4738    2.3008    0.3344 C   0  0  0  0  0  0  0  0  0  0  0  0
   -2.6473    2.5638    1.4088 C   0  0  0  0  0  0  0  0  0  0  0  0
   -1.3707    2.0548    1.4066 C   0  0  0  0  0  0  0  0  0  0  0  0
   -1.0323    1.1762    0.4111 C   0  0  0  0  0  0  0  0  0  0  0  0
   -2.2723   -1.4310   -0.0974 C   0  0  0  0  0  0  0  0  0  0  0  0
   -1.7819   -1.2589    1.1060 C   0  0  0  0  0  0  0  0  0  0  0  0
   -2.5008   -1.6560    2.2251 C   0  0  0  0  0  0  0  0  0  0  0  0
   -3.8762   -1.4581    2.1956 C   0  0  0  0  0  0  0  0  0  0  0  0
   -4.7291   -0.7126    3.5472 Cl  0  0  0  0  0  0  0  0  0  0  0  0
   -4.4666   -1.5673    0.9420 C   0  0  0  0  0  0  0  0  0  0  0  0
   -3.6593   -1.5691   -0.1935 C   0  0  0  0  0  0  0  0  0  0  0  0
    0.2098   -0.8550   -2.6256 C   0  0  0  0  0  0  0  0  0  0  0  0
    1.1883    0.3174   -2.6191 C   0  0  0  0  0  0  0  0  0  0  0  0
  1  2  1  0
  2  3  1  0
  3  4  1  0
  4  5  1  0
  5  6  1  0
  6  7  1  0
  7  8  1  0
  8  9  1  0
  9 10  1  0
 11 10  1  1
 11 12  1  0
 12 13  2  0
 13 14  1  0
 14 15  2  0
 15 16  1  0
 16 17  2  0
 11 18  1  0
 18 19  2  0
 19 20  1  0
 20 21  2  0
 21 22  1  0
 21 23  1  0
 23 24  2  0
 10 25  1  0
 25 26  1  0
 26  7  1  0
 17 12  1  0
 24 18  1  0
M  END
>  <supplier_code>  (410) 
DB00557

>  <zinc_id>  (410) 
ZINC000019364224

>  <catalog_short_name>  (410) 
dbfda

$$$$

     RDKit          3D

 23 23  0  0  0  0  0  0  0  0999 V2000
   -2.3931    2.3123   -2.0893 C   0  0  0  0  0  0  0  0  0  0  0  0
   -1.2551    2.1233   -1.4103 C   0  0  0  0  0  0  0  0  0  0  0  0
   -0.2868    1.9919   -2.1684 O   0  0  0  0  0  0  0  0  0  0  0  0
   -1.2479    1.4855   -0.2015 N   0  0  0  0  0  0  0  0  0  0  0  0
   -0.0395    0.6918    0.3743 C   0  0  1  0  0  0  0  0  0  0  0  0
   -0.6009   -0.7732   -0.3200 C   0  0  2  0  0  0  0  0  0  0  0  0
   -1.7964   -0.8433    0.9277 C   0  0  2  0  0  0  0  0  0  0  0  0
   -1.2436   -2.0478    1.6535 O   0  0  0  0  0  0  0  0  0  0  0  0
   -2.8301   -1.8976   -0.0017 C   0  0  2  0  0  0  0  0  0  0  0  0
   -2.9970   -0.8651   -1.1153 O   0  0  0  0  0  0  0  0  0  0  0  0
   -4.1936   -1.3405    0.7747 C   0  0  0  0  0  0  0  0  0  0  0  0
   -3.8839   -1.4600    2.1275 O   0  0  0  0  0  0  0  0  0  0  0  0
    0.4866   -1.5534    0.4375 O   0  0  0  0  0  0  0  0  0  0  0  0
    1.7652   -1.1674    0.0088 C   0  0  0  0  0  0  0  0  0  0  0  0
    2.6618   -2.3410   -0.0994 C   0  0  0  0  0  0  0  0  0  0  0  0
    2.7912   -2.9512   -1.2025 O   0  0  0  0  0  0  0  0  0  0  0  0
    3.7482   -2.4078    0.7784 O   0  0  0  0  0  0  0  0  0  0  0  0
    1.6704   -0.4370   -1.0645 C   0  0  0  0  0  0  0  0  0  0  0  0
    1.0681    1.0644   -0.8991 C   0  0  2  0  0  0  0  0  0  0  0  0
    2.2114    1.4579    0.1363 N   0  0  0  0  0  0  0  0  0  0  0  0
    1.9309    2.5585    0.9633 C   0  0  0  0  0  0  0  0  0  0  0  0
    1.6566    3.6355    0.2860 N   0  0  0  0  0  0  0  0  0  0  0  0
    2.7775    2.7641    2.1040 N   0  0  0  0  0  0  0  0  0  0  0  0
  1  2  1  0
  2  3  2  0
  2  4  1  0
  5  4  1  6
  5  6  1  0
  6  7  1  0
  7  8  1  1
  7  9  1  0
  9 10  1  6
  9 11  1  0
 11 12  1  0
  6 13  1  1
 13 14  1  0
 14 15  1  0
 15 16  2  0
 15 17  1  0
 14 18  2  0
 18 19  1  0
 19 20  1  1
 20 21  1  0
 21 22  2  0
 21 23  1  0
 19  5  1  0
M  END
>  <supplier_code>  (411) 
DB00558

>  <zinc_id>  (411) 
ZINC000003918138

>  <catalog_short_name>  (411) 
dbfda

$$$$

     RDKit          3D

 39 42  0  0  0  0  0  0  0  0999 V2000
   -5.0153   -2.9508    0.8482 C   0  0  0  0  0  0  0  0  0  0  0  0
   -3.6219   -2.6503    0.8860 O   0  0  0  0  0  0  0  0  0  0  0  0
   -2.7948   -3.4152    0.0690 C   0  0  0  0  0  0  0  0  0  0  0  0
   -2.9632   -4.7919    0.0853 C   0  0  0  0  0  0  0  0  0  0  0  0
   -2.2988   -5.5746   -0.8294 C   0  0  0  0  0  0  0  0  0  0  0  0
   -1.2884   -4.9948   -1.5848 C   0  0  0  0  0  0  0  0  0  0  0  0
   -1.1250   -3.6156   -1.5750 C   0  0  0  0  0  0  0  0  0  0  0  0
   -1.9157   -2.7886   -0.7855 C   0  0  0  0  0  0  0  0  0  0  0  0
   -2.2093   -1.5398   -1.2909 O   0  0  0  0  0  0  0  0  0  0  0  0
   -2.0076   -0.3511   -0.6000 C   0  0  0  0  0  0  0  0  0  0  0  0
   -0.7578    0.2446   -0.7097 C   0  0  0  0  0  0  0  0  0  0  0  0
    0.3852   -0.6101   -0.5830 N   0  0  0  0  0  0  0  0  0  0  0  0
    1.7058    0.0183    0.3105 S   0  0  0  0  0  0  0  0  0  0  0  0
    2.1098    1.3787   -0.2049 O   0  0  0  0  0  0  0  0  0  0  0  0
    1.2682    0.1861    1.7274 O   0  0  0  0  0  0  0  0  0  0  0  0
    3.1032   -1.0226    0.2790 C   0  0  0  0  0  0  0  0  0  0  0  0
    3.8790   -1.1461    1.4255 C   0  0  0  0  0  0  0  0  0  0  0  0
    5.2646   -1.2345    1.3744 C   0  0  0  0  0  0  0  0  0  0  0  0
    5.9161   -1.1941    0.1471 C   0  0  0  0  0  0  0  0  0  0  0  0
    7.2001   -0.4437   -0.0182 C   0  0  0  0  0  0  0  0  0  0  0  0
    6.8874    1.0181   -0.2812 C   0  0  0  0  0  0  0  0  0  0  0  0
    7.9741   -0.5073    1.2691 C   0  0  0  0  0  0  0  0  0  0  0  0
    8.0457   -0.9996   -1.1295 C   0  0  0  0  0  0  0  0  0  0  0  0
    5.1202   -1.5262   -0.9429 C   0  0  0  0  0  0  0  0  0  0  0  0
    3.7391   -1.3753   -0.9053 C   0  0  0  0  0  0  0  0  0  0  0  0
   -0.6447    1.5803   -0.6231 N   0  0  0  0  0  0  0  0  0  0  0  0
   -1.6996    2.3919   -0.3670 C   0  0  0  0  0  0  0  0  0  0  0  0
   -1.4147    3.7702    0.0540 C   0  0  0  0  0  0  0  0  0  0  0  0
   -0.2882    4.3420   -0.3974 N   0  0  0  0  0  0  0  0  0  0  0  0
   -0.0047    5.6421   -0.3107 C   0  0  0  0  0  0  0  0  0  0  0  0
   -1.0117    6.4787    0.1369 C   0  0  0  0  0  0  0  0  0  0  0  0
   -2.2253    5.9115    0.4236 C   0  0  0  0  0  0  0  0  0  0  0  0
   -2.4741    4.5969    0.2312 N   0  0  0  0  0  0  0  0  0  0  0  0
   -2.8731    1.7898   -0.1527 N   0  0  0  0  0  0  0  0  0  0  0  0
   -3.0942    0.5081   -0.5346 C   0  0  0  0  0  0  0  0  0  0  0  0
   -4.3382    0.1126   -1.0335 O   0  0  0  0  0  0  0  0  0  0  0  0
   -5.4757    0.7820   -0.5075 C   0  0  0  0  0  0  0  0  0  0  0  0
   -5.7031    0.4438    0.9468 C   0  0  0  0  0  0  0  0  0  0  0  0
   -5.3534    1.5366    1.7514 O   0  0  0  0  0  0  0  0  0  0  0  0
  1  2  1  0
  2  3  1  0
  3  4  2  0
  4  5  1  0
  5  6  2  0
  6  7  1  0
  7  8  2  0
  8  9  1  0
  9 10  1  0
 10 11  1  0
 11 12  1  0
 12 13  1  0
 13 14  2  0
 13 15  2  0
 13 16  1  0
 16 17  2  0
 17 18  1  0
 18 19  2  0
 19 20  1  0
 20 21  1  0
 20 22  1  0
 20 23  1  0
 19 24  1  0
 24 25  2  0
 11 26  2  0
 26 27  1  0
 27 28  1  0
 28 29  2  0
 29 30  1  0
 30 31  2  0
 31 32  1  0
 32 33  2  0
 27 34  2  0
 34 35  1  0
 35 36  1  0
 36 37  1  0
 37 38  1  0
 38 39  1  0
  8  3  1  0
 35 10  2  0
 25 16  1  0
 33 28  1  0
M  END
>  <supplier_code>  (412) 
DB00559

>  <zinc_id>  (412) 
ZINC000001538857

>  <catalog_short_name>  (412) 
dbfda

$$$$

     RDKit          3D

 42 45  0  0  0  0  0  0  0  0999 V2000
    1.6700   -2.8778    2.5244 C   0  0  0  0  0  0  0  0  0  0  0  0
    1.7797   -2.6247    1.7617 N   0  0  0  0  0  0  0  0  0  0  0  0
    1.9977   -3.6277    0.7102 C   0  0  0  0  0  0  0  0  0  0  0  0
    2.0687   -1.2991    1.2796 C   0  0  0  0  0  0  0  0  0  0  0  0
    3.2247   -1.0421    0.5473 C   0  0  0  0  0  0  0  0  0  0  0  0
    3.3437    0.1983   -0.0700 C   0  0  0  0  0  0  0  0  0  0  0  0
    4.5914    0.8561   -0.2576 N   0  0  0  0  0  0  0  0  0  0  0  0
    5.1694    1.6049    0.7916 C   0  0  0  0  0  0  0  0  0  0  0  0
    4.3923    2.3566    1.4347 O   0  0  0  0  0  0  0  0  0  0  0  0
    6.5287    1.3622    1.3521 C   0  0  0  0  0  0  0  0  0  0  0  0
    7.2604    0.3961    0.5686 N   0  0  0  0  0  0  0  0  0  0  0  0
    8.0713    1.0594   -0.4186 C   0  0  0  0  0  0  0  0  0  0  0  0
    9.5008    0.6048   -0.2849 C   0  0  0  0  0  0  0  0  0  0  0  0
    8.0272    2.5580   -0.2924 C   0  0  0  0  0  0  0  0  0  0  0  0
    7.5732    0.6821   -1.7997 C   0  0  0  0  0  0  0  0  0  0  0  0
    2.2232    0.7048   -0.6955 C   0  0  0  0  0  0  0  0  0  0  0  0
    2.2903    1.4503   -1.8496 O   0  0  0  0  0  0  0  0  0  0  0  0
    1.0081    0.2710   -0.2463 C   0  0  0  0  0  0  0  0  0  0  0  0
    0.9468   -0.6171    0.8226 C   0  0  0  0  0  0  0  0  0  0  0  0
   -0.3561   -0.6326    1.5138 C   0  0  0  0  0  0  0  0  0  0  0  0
   -1.3349   -1.4942    0.5313 C   0  0  1  0  0  0  0  0  0  0  0  0
   -2.6983   -0.7932    1.1110 C   0  0  0  0  0  0  0  0  0  0  0  0
   -3.6792   -1.8226    0.3159 C   0  0  1  0  0  0  0  0  0  0  0  0
   -5.1303   -1.2527    1.0275 C   0  0  2  0  0  0  0  0  0  0  0  0
   -5.9679   -1.1623   -0.3007 N   0  0  0  0  0  0  0  0  0  0  0  0
   -7.0600   -0.2833    0.1347 C   0  0  0  0  0  0  0  0  0  0  0  0
   -6.5947   -2.4895   -0.2311 C   0  0  0  0  0  0  0  0  0  0  0  0
   -4.7959    0.3062    1.1022 C   0  0  0  0  0  0  0  0  0  0  0  0
   -5.5376    0.8775    2.1474 O   0  0  0  0  0  0  0  0  0  0  0  0
   -4.5737    0.9993    0.0571 C   0  0  0  0  0  0  0  0  0  0  0  0
   -4.1467    2.3939    0.2425 C   0  0  0  0  0  0  0  0  0  0  0  0
   -4.0684    3.2273   -0.9202 N   0  0  0  0  0  0  0  0  0  0  0  0
   -3.5343    2.7625    1.2735 O   0  0  0  0  0  0  0  0  0  0  0  0
   -4.2037    0.2440   -1.1083 C   0  0  0  0  0  0  0  0  0  0  0  0
   -4.0003    0.9032   -2.1720 O   0  0  0  0  0  0  0  0  0  0  0  0
   -3.6909   -1.0441   -1.0798 C   0  0  2  0  0  0  0  0  0  0  0  0
   -4.2357   -1.9205   -2.0400 O   0  0  0  0  0  0  0  0  0  0  0  0
   -2.2594   -0.9243   -1.5146 C   0  0  0  0  0  0  0  0  0  0  0  0
   -2.1127   -0.5731   -2.8639 O   0  0  0  0  0  0  0  0  0  0  0  0
   -1.3258   -0.4524   -0.6825 C   0  0  0  0  0  0  0  0  0  0  0  0
   -0.2336    0.3533   -1.0241 C   0  0  0  0  0  0  0  0  0  0  0  0
   -0.1278    0.7615   -2.2215 O   0  0  0  0  0  0  0  0  0  0  0  0
  1  2  1  0
  2  3  1  0
  2  4  1  0
  4  5  2  0
  5  6  1  0
  6  7  1  0
  7  8  1  0
  8  9  2  0
  8 10  1  0
 10 11  1  0
 11 12  1  0
 12 13  1  0
 12 14  1  0
 12 15  1  0
  6 16  2  0
 16 17  1  0
 16 18  1  0
 18 19  2  0
 19 20  1  0
 21 20  1  1
 21 22  1  0
 23 22  1  1
 23 24  1  0
 24 25  1  6
 25 26  1  0
 25 27  1  0
 24 28  1  0
 28 29  1  0
 28 30  2  0
 30 31  1  0
 31 32  1  0
 31 33  2  0
 30 34  1  0
 34 35  2  0
 34 36  1  0
 36 37  1  6
 36 38  1  0
 38 39  1  0
 38 40  2  0
 40 41  1  0
 41 42  2  0
 19  4  1  0
 40 21  1  0
 41 18  1  0
 36 23  1  0
M  END
>  <supplier_code>  (413) 
DB00560

>  <zinc_id>  (413) 
ZINC000014879972

>  <catalog_short_name>  (413) 
dbfda

$$$$

     RDKit          3D

 28 31  0  0  0  0  0  0  0  0999 V2000
   -1.2583    1.5932    4.4587 C   0  0  0  0  0  0  0  0  0  0  0  0
   -1.7567    0.5671    3.4962 C   0  0  0  0  0  0  0  0  0  0  0  0
   -1.0410    0.6452    2.2243 N   0  0  0  0  0  0  0  0  0  0  0  0
    0.0778   -0.2400    2.0106 C   0  0  0  0  0  0  0  0  0  0  0  0
    0.5150    0.2280    0.4898 C   0  0  1  0  0  0  0  0  0  0  0  0
    1.0241   -1.3000    0.1243 C   0  0  0  0  0  0  0  0  0  0  0  0
    2.4656   -1.2014   -0.2399 C   0  0  0  0  0  0  0  0  0  0  0  0
    3.2398   -0.3179    0.5897 N   0  0  0  0  0  0  0  0  0  0  0  0
    4.3666   -0.9802    1.1623 C   0  0  0  0  0  0  0  0  0  0  0  0
    5.6984   -0.4287    0.7827 C   0  0  0  0  0  0  0  0  0  0  0  0
    5.6645   -0.1210   -0.5811 O   0  0  0  0  0  0  0  0  0  0  0  0
    4.8791    1.0116   -0.7018 C   0  0  0  0  0  0  0  0  0  0  0  0
    3.5092    0.8658   -0.1492 C   0  0  0  0  0  0  0  0  0  0  0  0
   -1.0123    0.0295   -0.0777 C   0  0  0  0  0  0  0  0  0  0  0  0
   -1.3121   -1.3327   -0.3571 C   0  0  0  0  0  0  0  0  0  0  0  0
   -0.9876   -1.8911   -1.5904 C   0  0  0  0  0  0  0  0  0  0  0  0
   -1.2524   -3.2467   -1.7623 C   0  0  0  0  0  0  0  0  0  0  0  0
   -2.4228   -3.7522   -1.2099 C   0  0  0  0  0  0  0  0  0  0  0  0
   -3.1449   -2.9320   -0.3520 C   0  0  0  0  0  0  0  0  0  0  0  0
   -2.4008   -1.9345    0.2667 C   0  0  0  0  0  0  0  0  0  0  0  0
   -1.1159    0.9732   -1.2375 C   0  0  0  0  0  0  0  0  0  0  0  0
   -0.4135    2.1738   -1.2551 C   0  0  0  0  0  0  0  0  0  0  0  0
   -0.9555    3.3404   -1.7635 C   0  0  0  0  0  0  0  0  0  0  0  0
   -2.3184    3.3981   -2.0320 C   0  0  0  0  0  0  0  0  0  0  0  0
   -2.8792    2.1816   -2.4043 C   0  0  0  0  0  0  0  0  0  0  0  0
   -2.3953    1.0512   -1.7761 C   0  0  0  0  0  0  0  0  0  0  0  0
   -1.7933    0.6033    1.0254 C   0  0  0  0  0  0  0  0  0  0  0  0
   -2.9802    1.0163    0.8592 O   0  0  0  0  0  0  0  0  0  0  0  0
  1  2  1  0
  2  3  1  0
  3  4  1  0
  4  5  1  0
  5  6  1  6
  6  7  1  0
  7  8  1  0
  8  9  1  0
  9 10  1  0
 10 11  1  0
 11 12  1  0
 12 13  1  0
  5 14  1  0
 14 15  1  0
 15 16  2  0
 16 17  1  0
 17 18  2  0
 18 19  1  0
 19 20  2  0
 14 21  1  0
 21 22  2  0
 22 23  1  0
 23 24  2  0
 24 25  1  0
 25 26  2  0
 14 27  1  0
 27 28  2  0
 27  3  1  0
 13  8  1  0
 20 15  1  0
 26 21  1  0
M  END
>  <supplier_code>  (414) 
DB00561

>  <zinc_id>  (414) 
ZINC000019632668

>  <catalog_short_name>  (414) 
dbfda

$$$$

     RDKit          3D

 28 31  0  0  0  0  0  0  0  0999 V2000
   -0.5369   -0.7815    4.2336 C   0  0  0  0  0  0  0  0  0  0  0  0
    0.1700    0.0951    3.4582 C   0  0  0  0  0  0  0  0  0  0  0  0
   -0.0718   -0.1451    2.0587 N   0  0  0  0  0  0  0  0  0  0  0  0
    0.4574   -1.2329    1.2923 C   0  0  0  0  0  0  0  0  0  0  0  0
    0.3905   -0.6499   -0.2251 C   0  0  2  0  0  0  0  0  0  0  0  0
    1.0140    0.7970    0.1943 C   0  0  0  0  0  0  0  0  0  0  0  0
    2.2551    0.5469    0.9717 C   0  0  0  0  0  0  0  0  0  0  0  0
    3.4004    0.1511    0.2891 N   0  0  0  0  0  0  0  0  0  0  0  0
    4.3173   -0.7197    0.9132 C   0  0  0  0  0  0  0  0  0  0  0  0
    5.6596   -0.7396    0.2389 C   0  0  0  0  0  0  0  0  0  0  0  0
    5.9015    0.5192   -0.2818 O   0  0  0  0  0  0  0  0  0  0  0  0
    5.0700    0.8514   -1.3374 C   0  0  0  0  0  0  0  0  0  0  0  0
    3.6105    0.5224   -1.0449 C   0  0  0  0  0  0  0  0  0  0  0  0
   -1.1412   -0.1411   -0.0462 C   0  0  0  0  0  0  0  0  0  0  0  0
   -1.3390    0.9680   -0.9974 C   0  0  0  0  0  0  0  0  0  0  0  0
   -0.5096    1.1718   -2.0909 C   0  0  0  0  0  0  0  0  0  0  0  0
   -0.5723    2.4135   -2.7108 C   0  0  0  0  0  0  0  0  0  0  0  0
   -1.6488    3.2632   -2.4983 C   0  0  0  0  0  0  0  0  0  0  0  0
   -2.5385    3.0107   -1.4616 C   0  0  0  0  0  0  0  0  0  0  0  0
   -2.2036    1.9837   -0.6082 C   0  0  0  0  0  0  0  0  0  0  0  0
   -2.0222   -1.2903   -0.2716 C   0  0  0  0  0  0  0  0  0  0  0  0
   -1.8325   -2.2588   -1.2210 C   0  0  0  0  0  0  0  0  0  0  0  0
   -2.8357   -3.1840   -1.4830 C   0  0  0  0  0  0  0  0  0  0  0  0
   -4.0675   -3.1111   -0.8444 C   0  0  0  0  0  0  0  0  0  0  0  0
   -4.3347   -2.0015   -0.0524 C   0  0  0  0  0  0  0  0  0  0  0  0
   -3.2574   -1.2688    0.3654 C   0  0  0  0  0  0  0  0  0  0  0  0
   -1.1453    0.3861    1.3165 C   0  0  0  0  0  0  0  0  0  0  0  0
   -2.1892    0.8441    1.8431 O   0  0  0  0  0  0  0  0  0  0  0  0
  1  2  1  0
  2  3  1  0
  3  4  1  0
  4  5  1  0
  5  6  1  1
  6  7  1  0
  7  8  1  0
  8  9  1  0
  9 10  1  0
 10 11  1  0
 11 12  1  0
 12 13  1  0
  5 14  1  0
 14 15  1  0
 15 16  2  0
 16 17  1  0
 17 18  2  0
 18 19  1  0
 19 20  2  0
 14 21  1  0
 21 22  2  0
 22 23  1  0
 23 24  2  0
 24 25  1  0
 25 26  2  0
 14 27  1  0
 27 28  2  0
 27  3  1  0
 13  8  1  0
 20 15  1  0
 26 21  1  0
M  END
>  <supplier_code>  (415) 
DB00561

>  <zinc_id>  (415) 
ZINC000019632670

>  <catalog_short_name>  (415) 
dbfda

$$$$

     RDKit          3D

 33 35  0  0  0  0  0  0  0  0999 V2000
   -1.9518   -1.2794    0.2526 C   0  0  0  0  0  0  0  0  0  0  0  0
   -1.7452   -0.5926    0.3853 N   0  0  0  0  0  0  0  0  0  0  0  0
   -2.2400   -0.1850    1.7067 C   0  0  0  0  0  0  0  0  0  0  0  0
   -3.7310   -0.2391    1.5317 C   0  0  0  0  0  0  0  0  0  0  0  0
   -4.3043   -1.4902    1.3342 C   0  0  0  0  0  0  0  0  0  0  0  0
   -5.4653   -1.6568    0.6489 N   0  0  0  0  0  0  0  0  0  0  0  0
   -6.0378   -0.5594    0.0965 C   0  0  0  0  0  0  0  0  0  0  0  0
   -7.3832   -0.4605   -0.0426 N   0  0  0  0  0  0  0  0  0  0  0  0
   -7.9523    0.6949   -0.4650 C   0  0  0  0  0  0  0  0  0  0  0  0
   -9.3459    0.7750   -0.6618 N   0  0  0  0  0  0  0  0  0  0  0  0
   -7.2182    1.7800   -0.7670 N   0  0  0  0  0  0  0  0  0  0  0  0
   -5.9064    1.7580   -0.5276 C   0  0  0  0  0  0  0  0  0  0  0  0
   -5.0903    2.9129   -0.6357 N   0  0  0  0  0  0  0  0  0  0  0  0
   -5.3744    0.6621    0.0955 C   0  0  0  0  0  0  0  0  0  0  0  0
   -4.1960    0.7718    0.7541 N   0  0  0  0  0  0  0  0  0  0  0  0
   -0.4525   -0.1858   -0.0847 C   0  0  0  0  0  0  0  0  0  0  0  0
    0.5494   -1.0691    0.3027 C   0  0  0  0  0  0  0  0  0  0  0  0
    1.8229   -0.5114    0.2931 C   0  0  0  0  0  0  0  0  0  0  0  0
    2.1379    0.3248   -0.7717 C   0  0  0  0  0  0  0  0  0  0  0  0
    3.5696    0.5017   -1.0659 C   0  0  0  0  0  0  0  0  0  0  0  0
    4.1396    1.6215   -0.9995 O   0  0  0  0  0  0  0  0  0  0  0  0
    4.3333   -0.6363   -1.0177 N   0  0  0  0  0  0  0  0  0  0  0  0
    5.8809   -0.5985   -0.7629 C   0  0  1  0  0  0  0  0  0  0  0  0
    5.8317    0.6711    0.2898 C   0  0  0  0  0  0  0  0  0  0  0  0
    6.9288    0.3221    1.2699 C   0  0  0  0  0  0  0  0  0  0  0  0
    8.2182    0.2870    0.5422 C   0  0  0  0  0  0  0  0  0  0  0  0
    8.7079   -0.8439    0.2636 O   0  0  0  0  0  0  0  0  0  0  0  0
    9.0282    1.4025    0.5156 O   0  0  0  0  0  0  0  0  0  0  0  0
    5.7633   -1.7240    0.3936 C   0  0  0  0  0  0  0  0  0  0  0  0
    5.0984   -1.4713    1.3902 O   0  0  0  0  0  0  0  0  0  0  0  0
    5.4248   -2.9313   -0.2358 O   0  0  0  0  0  0  0  0  0  0  0  0
    1.1324    1.0549   -1.3185 C   0  0  0  0  0  0  0  0  0  0  0  0
   -0.1726    0.8944   -0.8513 C   0  0  0  0  0  0  0  0  0  0  0  0
  1  2  1  0
  2  3  1  0
  3  4  1  0
  4  5  2  0
  5  6  1  0
  6  7  2  0
  7  8  1  0
  8  9  2  0
  9 10  1  0
  9 11  1  0
 11 12  2  0
 12 13  1  0
 12 14  1  0
 14 15  2  0
  2 16  1  0
 16 17  2  0
 17 18  1  0
 18 19  2  0
 19 20  1  0
 20 21  2  0
 20 22  1  0
 23 22  1  6
 23 24  1  0
 24 25  1  0
 25 26  1  0
 26 27  2  0
 26 28  1  0
 23 29  1  0
 29 30  2  0
 29 31  1  0
 19 32  1  0
 32 33  2  0
 15  4  1  0
 33 16  1  0
 14  7  1  0
M  END
>  <supplier_code>  (416) 
DB00563

>  <zinc_id>  (416) 
ZINC000001529323

>  <catalog_short_name>  (416) 
dbfda

$$$$

     RDKit          3D

 18 20  0  0  0  0  0  0  0  0999 V2000
   -1.4286    2.5481   -0.8532 N   0  0  0  0  0  0  0  0  0  0  0  0
   -0.5450    2.1388    0.1997 C   0  0  0  0  0  0  0  0  0  0  0  0
   -0.6191    2.7556    1.3066 O   0  0  0  0  0  0  0  0  0  0  0  0
   -0.1534    0.7644    0.3164 N   0  0  0  0  0  0  0  0  0  0  0  0
    1.2566    0.5335    0.2857 C   0  0  0  0  0  0  0  0  0  0  0  0
    1.9134    1.5374   -0.4155 C   0  0  0  0  0  0  0  0  0  0  0  0
    3.1624    1.3487   -0.9588 C   0  0  0  0  0  0  0  0  0  0  0  0
    3.6303    0.0559   -1.0402 C   0  0  0  0  0  0  0  0  0  0  0  0
    3.1107   -0.8743   -0.1473 C   0  0  0  0  0  0  0  0  0  0  0  0
    1.8840   -0.6934    0.4668 C   0  0  0  0  0  0  0  0  0  0  0  0
    1.2751   -1.9403    0.9470 C   0  0  0  0  0  0  0  0  0  0  0  0
   -0.0165   -2.2800    0.9404 C   0  0  0  0  0  0  0  0  0  0  0  0
   -1.2003   -1.5244    0.5116 C   0  0  0  0  0  0  0  0  0  0  0  0
   -2.2000   -2.3365   -0.0082 C   0  0  0  0  0  0  0  0  0  0  0  0
   -3.0650   -1.8045   -0.9585 C   0  0  0  0  0  0  0  0  0  0  0  0
   -3.3366   -0.4512   -0.8121 C   0  0  0  0  0  0  0  0  0  0  0  0
   -2.4132    0.3636   -0.1795 C   0  0  0  0  0  0  0  0  0  0  0  0
   -1.2547   -0.1415    0.3992 C   0  0  0  0  0  0  0  0  0  0  0  0
  1  2  1  0
  2  3  2  0
  2  4  1  0
  4  5  1  0
  5  6  2  0
  6  7  1  0
  7  8  2  0
  8  9  1  0
  9 10  2  0
 10 11  1  0
 11 12  2  0
 12 13  1  0
 13 14  2  0
 14 15  1  0
 15 16  2  0
 16 17  1  0
 17 18  2  0
 18  4  1  0
 10  5  1  0
 18 13  1  0
M  END
>  <supplier_code>  (417) 
DB00564

>  <zinc_id>  (417) 
ZINC000000004785

>  <catalog_short_name>  (417) 
dbfda

$$$$

     RDKit          3D

 67 72  0  0  0  0  0  0  0  0999 V2000
   12.5757   -3.5147    0.6308 C   0  0  0  0  0  0  0  0  0  0  0  0
   12.0712   -2.9880   -0.3121 O   0  0  0  0  0  0  0  0  0  0  0  0
   10.8173   -2.4126   -0.2696 C   0  0  0  0  0  0  0  0  0  0  0  0
   10.1843   -1.8902   -1.3909 C   0  0  0  0  0  0  0  0  0  0  0  0
    8.8280   -1.6646   -1.3994 C   0  0  0  0  0  0  0  0  0  0  0  0
    8.1722   -1.6439   -0.1985 C   0  0  0  0  0  0  0  0  0  0  0  0
    6.7371   -1.3252   -0.0931 C   0  0  0  0  0  0  0  0  0  0  0  0
    6.4908   -0.1001   -1.1987 C   0  0  2  0  0  0  0  0  0  0  0  0
    6.6960    1.0605   -0.0546 C   0  0  0  0  0  0  0  0  0  0  0  0
    7.9408    0.9621    0.5663 C   0  0  0  0  0  0  0  0  0  0  0  0
    8.8239    2.0239    0.6405 C   0  0  0  0  0  0  0  0  0  0  0  0
   10.1408    1.8774    1.0893 O   0  0  0  0  0  0  0  0  0  0  0  0
   10.5035    2.3613    2.3802 C   0  0  0  0  0  0  0  0  0  0  0  0
    8.5230    3.2333    0.0263 C   0  0  0  0  0  0  0  0  0  0  0  0
    9.5368    4.1328   -0.3263 O   0  0  0  0  0  0  0  0  0  0  0  0
   10.4574    3.8174   -1.3689 C   0  0  0  0  0  0  0  0  0  0  0  0
    7.2175    3.4091   -0.4182 C   0  0  0  0  0  0  0  0  0  0  0  0
    6.5386    2.2637   -0.7452 C   0  0  0  0  0  0  0  0  0  0  0  0
    5.3989    2.2244   -1.7174 C   0  0  0  0  0  0  0  0  0  0  0  0
    4.4540    1.2265   -1.1329 C   0  0  0  0  0  0  0  0  0  0  0  0
    4.9075   -0.1088   -1.0497 N   0  0  0  0  0  0  0  0  0  0  0  0
    4.5254   -0.7796   -2.2936 C   0  0  0  0  0  0  0  0  0  0  0  0
    4.5308   -0.7697    0.1165 C   0  0  0  0  0  0  0  0  0  0  0  0
    4.1005   -2.2146   -0.1122 C   0  0  0  0  0  0  0  0  0  0  0  0
    2.7207   -2.4215    0.3978 C   0  0  0  0  0  0  0  0  0  0  0  0
    2.4900   -2.6345    1.6265 O   0  0  0  0  0  0  0  0  0  0  0  0
    1.5948   -2.4033   -0.4185 O   0  0  0  0  0  0  0  0  0  0  0  0
    0.3859   -1.8146   -0.0205 C   0  0  0  0  0  0  0  0  0  0  0  0
    0.4874   -1.0313    1.2634 C   0  0  0  0  0  0  0  0  0  0  0  0
    0.9661    0.3801    1.0647 C   0  0  0  0  0  0  0  0  0  0  0  0
    0.0595    1.1737    0.1312 C   0  0  0  0  0  0  0  0  0  0  0  0
   -1.2543    0.4624    0.1336 C   0  0  0  0  0  0  0  0  0  0  0  0
   -1.8295    0.3245   -1.1582 O   0  0  0  0  0  0  0  0  0  0  0  0
   -3.0162    1.0083   -1.4418 C   0  0  0  0  0  0  0  0  0  0  0  0
   -2.9826    2.2423   -1.1462 O   0  0  0  0  0  0  0  0  0  0  0  0
   -4.2026    0.3599   -2.0530 C   0  0  0  0  0  0  0  0  0  0  0  0
   -4.9238   -0.5564   -1.0745 C   0  0  0  0  0  0  0  0  0  0  0  0
   -5.6208    0.2727   -0.1202 N   0  0  0  0  0  0  0  0  0  0  0  0
   -5.9580    1.5029   -0.7450 C   0  0  0  0  0  0  0  0  0  0  0  0
   -5.0007    0.3546    1.1580 C   0  0  0  0  0  0  0  0  0  0  0  0
   -5.9243    0.6012    2.3079 C   0  0  0  0  0  0  0  0  0  0  0  0
   -7.1874    1.2842    1.9153 C   0  0  0  0  0  0  0  0  0  0  0  0
   -7.5644    2.5164    2.3864 C   0  0  0  0  0  0  0  0  0  0  0  0
   -8.4901    3.2580    1.6625 C   0  0  0  0  0  0  0  0  0  0  0  0
   -8.5431    4.6225    1.9653 O   0  0  0  0  0  0  0  0  0  0  0  0
   -8.3201    5.0221    3.2970 C   0  0  0  0  0  0  0  0  0  0  0  0
   -8.8554    2.8445    0.3866 C   0  0  0  0  0  0  0  0  0  0  0  0
   -9.1196    3.8318   -0.5699 O   0  0  0  0  0  0  0  0  0  0  0  0
  -10.4194    4.3173   -0.7932 C   0  0  0  0  0  0  0  0  0  0  0  0
   -8.5858    1.5408   -0.0223 C   0  0  0  0  0  0  0  0  0  0  0  0
   -7.7162    0.8571    0.7125 C   0  0  0  0  0  0  0  0  0  0  0  0
   -6.9987   -0.4910    0.1461 C   0  0  1  0  0  0  0  0  0  0  0  0
   -7.4829   -0.2838   -1.4407 C   0  0  0  0  0  0  0  0  0  0  0  0
   -8.5769   -1.3075   -1.5091 C   0  0  0  0  0  0  0  0  0  0  0  0
   -9.9093   -0.9616   -1.6996 C   0  0  0  0  0  0  0  0  0  0  0  0
  -10.8683   -1.5306   -0.8683 C   0  0  0  0  0  0  0  0  0  0  0  0
  -10.5716   -2.6807   -0.1467 C   0  0  0  0  0  0  0  0  0  0  0  0
  -11.2480   -3.0117    1.0233 O   0  0  0  0  0  0  0  0  0  0  0  0
  -10.9921   -2.3096    2.2227 C   0  0  0  0  0  0  0  0  0  0  0  0
   -9.4654   -3.3849   -0.6077 C   0  0  0  0  0  0  0  0  0  0  0  0
   -9.2478   -4.6439   -0.0365 O   0  0  0  0  0  0  0  0  0  0  0  0
  -10.2989   -5.5887   -0.0380 C   0  0  0  0  0  0  0  0  0  0  0  0
   -8.3947   -2.6036   -1.0370 C   0  0  0  0  0  0  0  0  0  0  0  0
    8.7683   -2.2233    0.9021 C   0  0  0  0  0  0  0  0  0  0  0  0
   10.1408   -2.4113    0.9364 C   0  0  0  0  0  0  0  0  0  0  0  0
   10.8497   -2.4266    2.1215 O   0  0  0  0  0  0  0  0  0  0  0  0
   10.9335   -1.2372    2.8909 C   0  0  0  0  0  0  0  0  0  0  0  0
  1  2  1  0
  2  3  1  0
  3  4  2  0
  4  5  1  0
  5  6  2  0
  6  7  1  0
  8  7  1  1
  8  9  1  0
  9 10  2  0
 10 11  1  0
 11 12  1  0
 12 13  1  0
 11 14  2  0
 14 15  1  0
 15 16  1  0
 14 17  1  0
 17 18  2  0
 18 19  1  0
 19 20  1  0
 20 21  1  0
 21 22  1  0
 21 23  1  0
 23 24  1  0
 24 25  1  0
 25 26  2  0
 25 27  1  0
 27 28  1  0
 28 29  1  0
 29 30  1  0
 30 31  1  0
 31 32  1  0
 32 33  1  0
 33 34  1  0
 34 35  2  0
 34 36  1  0
 36 37  1  0
 37 38  1  0
 38 39  1  0
 38 40  1  0
 40 41  1  0
 41 42  1  0
 42 43  2  0
 43 44  1  0
 44 45  1  0
 45 46  1  0
 44 47  2  0
 47 48  1  0
 48 49  1  0
 47 50  1  0
 50 51  2  0
 51 52  1  0
 52 53  1  6
 53 54  1  0
 54 55  2  0
 55 56  1  0
 56 57  2  0
 57 58  1  0
 58 59  1  0
 57 60  1  0
 60 61  1  0
 61 62  1  0
 60 63  2  0
  6 64  1  0
 64 65  2  0
 65 66  1  0
 66 67  1  0
 65  3  1  0
 21  8  1  0
 52 38  1  0
 63 54  1  0
 18  9  1  0
 51 42  1  0
M  CHG  2  21   1  38   1
M  END
>  <supplier_code>  (418) 
DB00565

>  <zinc_id>  (418) 
ZINC000096006013

>  <catalog_short_name>  (418) 
dbfda

$$$$

     RDKit          3D

 67 72  0  0  0  0  0  0  0  0999 V2000
  -11.4885    0.0888    1.0221 C   0  0  0  0  0  0  0  0  0  0  0  0
  -11.5965    1.3548    1.6582 O   0  0  0  0  0  0  0  0  0  0  0  0
  -10.4132    2.1009    1.6899 C   0  0  0  0  0  0  0  0  0  0  0  0
   -9.3596    1.7774    2.5369 C   0  0  0  0  0  0  0  0  0  0  0  0
   -8.0799    2.0902    2.0911 C   0  0  0  0  0  0  0  0  0  0  0  0
   -7.8493    2.3867    0.7516 C   0  0  0  0  0  0  0  0  0  0  0  0
   -6.4839    2.2670    0.2793 C   0  0  0  0  0  0  0  0  0  0  0  0
   -6.5335    2.0083   -1.3457 C   0  0  2  0  0  0  0  0  0  0  0  0
   -7.3470    0.6240   -1.2672 C   0  0  0  0  0  0  0  0  0  0  0  0
   -7.3811   -0.1373   -0.1830 C   0  0  0  0  0  0  0  0  0  0  0  0
   -8.0057   -1.3545   -0.2520 C   0  0  0  0  0  0  0  0  0  0  0  0
   -8.6183   -1.9098    0.8774 O   0  0  0  0  0  0  0  0  0  0  0  0
   -8.3329   -1.3391    2.1401 C   0  0  0  0  0  0  0  0  0  0  0  0
   -8.1649   -1.9366   -1.5022 C   0  0  0  0  0  0  0  0  0  0  0  0
   -8.7714   -3.1911   -1.5969 O   0  0  0  0  0  0  0  0  0  0  0  0
   -8.7049   -4.0742   -0.4805 C   0  0  0  0  0  0  0  0  0  0  0  0
   -7.7489   -1.2314   -2.6243 C   0  0  0  0  0  0  0  0  0  0  0  0
   -7.4025    0.1134   -2.5625 C   0  0  0  0  0  0  0  0  0  0  0  0
   -6.3241    0.6638   -3.4536 C   0  0  0  0  0  0  0  0  0  0  0  0
   -5.0790    0.5319   -2.5961 C   0  0  0  0  0  0  0  0  0  0  0  0
   -5.1252    1.2861   -1.3735 N   0  0  1  0  0  0  0  0  0  0  0  0
   -4.2173    2.4169   -1.5821 C   0  0  0  0  0  0  0  0  0  0  0  0
   -4.9001    0.6588   -0.2459 C   0  0  0  0  0  0  0  0  0  0  0  0
   -4.0576    0.1543    0.6653 C   0  0  0  0  0  0  0  0  0  0  0  0
   -3.1040   -0.9114    0.3317 C   0  0  0  0  0  0  0  0  0  0  0  0
   -3.0039   -1.3809   -0.8142 O   0  0  0  0  0  0  0  0  0  0  0  0
   -2.6133   -1.6636    1.3893 O   0  0  0  0  0  0  0  0  0  0  0  0
   -1.3179   -2.2319    1.2429 C   0  0  0  0  0  0  0  0  0  0  0  0
   -0.3433   -1.1107    0.9148 C   0  0  0  0  0  0  0  0  0  0  0  0
    0.9403   -1.4315    1.6661 C   0  0  0  0  0  0  0  0  0  0  0  0
    1.5524   -2.6002    0.9007 C   0  0  0  0  0  0  0  0  0  0  0  0
    1.3682   -2.2385   -0.5701 C   0  0  0  0  0  0  0  0  0  0  0  0
    1.8351   -0.8941   -0.6806 O   0  0  0  0  0  0  0  0  0  0  0  0
    2.8713   -0.5941   -1.5392 C   0  0  0  0  0  0  0  0  0  0  0  0
    3.0299   -1.3989   -2.5090 O   0  0  0  0  0  0  0  0  0  0  0  0
    3.6285    0.6459   -1.5960 C   0  0  0  0  0  0  0  0  0  0  0  0
    4.4629    1.0311   -0.4648 C   0  0  0  0  0  0  0  0  0  0  0  0
    5.0927    0.0287    0.3202 N   0  0  1  0  0  0  0  0  0  0  0  0
    4.5721    0.1782    1.6734 C   0  0  0  0  0  0  0  0  0  0  0  0
    5.0584   -1.2946   -0.1768 C   0  0  0  0  0  0  0  0  0  0  0  0
    5.0748   -2.1263    1.1081 C   0  0  0  0  0  0  0  0  0  0  0  0
    6.4526   -1.7791    1.6134 C   0  0  0  0  0  0  0  0  0  0  0  0
    7.1425   -2.8961    2.0872 C   0  0  0  0  0  0  0  0  0  0  0  0
    8.4751   -3.1309    1.7672 C   0  0  0  0  0  0  0  0  0  0  0  0
    9.0529   -4.4027    1.8482 O   0  0  0  0  0  0  0  0  0  0  0  0
    8.2849   -5.5102    1.3818 C   0  0  0  0  0  0  0  0  0  0  0  0
    9.1945   -2.1524    1.0898 C   0  0  0  0  0  0  0  0  0  0  0  0
   10.4879   -2.3647    0.6473 O   0  0  0  0  0  0  0  0  0  0  0  0
   10.7753   -2.6483   -0.7195 C   0  0  0  0  0  0  0  0  0  0  0  0
    8.5605   -0.9175    1.0045 C   0  0  0  0  0  0  0  0  0  0  0  0
    7.1806   -0.9562    0.8320 C   0  0  0  0  0  0  0  0  0  0  0  0
    6.6001    0.4817    0.4003 C   0  0  1  0  0  0  0  0  0  0  0  0
    6.8290    0.1568   -1.1993 C   0  0  0  0  0  0  0  0  0  0  0  0
    7.8230    1.1681   -1.6082 C   0  0  0  0  0  0  0  0  0  0  0  0
    7.3861    2.4649   -1.8507 C   0  0  0  0  0  0  0  0  0  0  0  0
    8.3010    3.5106   -1.8656 C   0  0  0  0  0  0  0  0  0  0  0  0
    9.6065    3.2981   -1.4657 C   0  0  0  0  0  0  0  0  0  0  0  0
   10.4209    4.3899   -1.1508 O   0  0  0  0  0  0  0  0  0  0  0  0
   11.7282    4.5358   -1.6935 C   0  0  0  0  0  0  0  0  0  0  0  0
   10.0498    2.0014   -1.2374 C   0  0  0  0  0  0  0  0  0  0  0  0
   11.1529    1.7926   -0.4036 O   0  0  0  0  0  0  0  0  0  0  0  0
   10.9385    1.5812    0.9900 C   0  0  0  0  0  0  0  0  0  0  0  0
    9.1842    0.9802   -1.5949 C   0  0  0  0  0  0  0  0  0  0  0  0
   -8.8615    3.0535    0.0994 C   0  0  0  0  0  0  0  0  0  0  0  0
  -10.1600    2.8808    0.5670 C   0  0  0  0  0  0  0  0  0  0  0  0
  -11.1931    3.7505    0.2002 O   0  0  0  0  0  0  0  0  0  0  0  0
  -12.5311    3.3553    0.0600 C   0  0  0  0  0  0  0  0  0  0  0  0
  1  2  1  0
  2  3  1  0
  3  4  2  0
  4  5  1  0
  5  6  2  0
  6  7  1  0
  8  7  1  1
  8  9  1  0
  9 10  2  0
 10 11  1  0
 11 12  1  0
 12 13  1  0
 11 14  2  0
 14 15  1  0
 15 16  1  0
 14 17  1  0
 17 18  2  0
 18 19  1  0
 19 20  1  0
 20 21  1  0
 21 22  1  6
 21 23  1  0
 23 24  1  0
 24 25  1  0
 25 26  2  0
 25 27  1  0
 27 28  1  0
 28 29  1  0
 29 30  1  0
 30 31  1  0
 31 32  1  0
 32 33  1  0
 33 34  1  0
 34 35  2  0
 34 36  1  0
 36 37  1  0
 38 37  1  6
 38 39  1  0
 38 40  1  0
 40 41  1  0
 41 42  1  0
 42 43  2  0
 43 44  1  0
 44 45  1  0
 45 46  1  0
 44 47  2  0
 47 48  1  0
 48 49  1  0
 47 50  1  0
 50 51  2  0
 51 52  1  0
 52 53  1  6
 53 54  1  0
 54 55  2  0
 55 56  1  0
 56 57  2  0
 57 58  1  0
 58 59  1  0
 57 60  1  0
 60 61  1  0
 61 62  1  0
 60 63  2  0
  6 64  1  0
 64 65  2  0
 65 66  1  0
 66 67  1  0
 65  3  1  0
 21  8  1  0
 52 38  1  0
 63 54  1  0
 18  9  1  0
 51 42  1  0
M  CHG  2  21   1  38   1
M  END
>  <supplier_code>  (419) 
DB00565

>  <zinc_id>  (419) 
ZINC000238809664

>  <catalog_short_name>  (419) 
dbfda

$$$$

     RDKit          3D

 10  9  0  0  0  0  0  0  0  0999 V2000
   -2.1625   -1.3188   -0.7911 O   0  0  0  0  0  0  0  0  0  0  0  0
   -1.6177   -0.5018   -0.0225 C   0  0  0  0  0  0  0  0  0  0  0  0
   -2.1112   -0.1426    1.2084 O   0  0  0  0  0  0  0  0  0  0  0  0
   -0.4989    0.3427   -0.6886 C   0  0  1  0  0  0  0  0  0  0  0  0
   -1.2712    2.0376   -0.3259 S   0  0  0  0  0  0  0  0  0  0  0  0
    0.4782    0.3420    0.6198 C   0  0  2  0  0  0  0  0  0  0  0  0
    1.4831    1.8542    0.0539 S   0  0  0  0  0  0  0  0  0  0  0  0
    1.5070   -0.7043    0.1249 C   0  0  0  0  0  0  0  0  0  0  0  0
    1.4552   -1.2580   -0.9641 O   0  0  0  0  0  0  0  0  0  0  0  0
    2.7380   -0.6508    0.7852 O   0  0  0  0  0  0  0  0  0  0  0  0
  1  2  2  0
  2  3  1  0
  4  2  1  1
  4  5  1  0
  4  6  1  0
  6  7  1  6
  6  8  1  0
  8  9  2  0
  8 10  1  0
M  END
>  <supplier_code>  (420) 
DB00566

>  <zinc_id>  (420) 
ZINC000003831474

>  <catalog_short_name>  (420) 
dbfda

$$$$

     RDKit          3D

 10  9  0  0  0  0  0  0  0  0999 V2000
   -2.2563   -0.5580    0.9721 O   0  0  0  0  0  0  0  0  0  0  0  0
   -1.8979   -0.2744    0.1869 C   0  0  0  0  0  0  0  0  0  0  0  0
   -2.2555    0.9963   -0.2773 O   0  0  0  0  0  0  0  0  0  0  0  0
   -0.4767   -0.8080   -0.1437 C   0  0  1  0  0  0  0  0  0  0  0  0
   -0.4264   -0.2613   -1.9583 S   0  0  0  0  0  0  0  0  0  0  0  0
    0.3017    0.5072    0.4229 C   0  0  1  0  0  0  0  0  0  0  0  0
    0.8418   -0.3073    2.0479 S   0  0  0  0  0  0  0  0  0  0  0  0
    1.6202    0.2379   -0.3481 C   0  0  0  0  0  0  0  0  0  0  0  0
    2.1315   -0.8973   -0.3330 O   0  0  0  0  0  0  0  0  0  0  0  0
    2.4175    1.3651   -0.5694 O   0  0  0  0  0  0  0  0  0  0  0  0
  1  2  2  0
  2  3  1  0
  4  2  1  1
  4  5  1  0
  4  6  1  0
  6  7  1  1
  6  8  1  0
  8  9  2  0
  8 10  1  0
M  END
>  <supplier_code>  (421) 
DB00566

>  <zinc_id>  (421) 
ZINC000003831475

>  <catalog_short_name>  (421) 
dbfda

$$$$

     RDKit          3D

 10  9  0  0  0  0  0  0  0  0999 V2000
    1.9202    1.3527    0.6300 O   0  0  0  0  0  0  0  0  0  0  0  0
    1.7994    0.1744    0.4297 C   0  0  0  0  0  0  0  0  0  0  0  0
    2.9189   -0.6479    0.6019 O   0  0  0  0  0  0  0  0  0  0  0  0
    0.4893   -0.6148    0.7064 C   0  0  2  0  0  0  0  0  0  0  0  0
    0.3972   -1.3571   -1.0457 S   0  0  0  0  0  0  0  0  0  0  0  0
   -0.5318    0.6660    0.5921 C   0  0  1  0  0  0  0  0  0  0  0  0
   -0.2190    1.1501   -1.2212 S   0  0  0  0  0  0  0  0  0  0  0  0
   -1.8477   -0.1115    0.3350 C   0  0  0  0  0  0  0  0  0  0  0  0
   -1.9143   -1.2612   -0.0517 O   0  0  0  0  0  0  0  0  0  0  0  0
   -3.0121    0.6494    0.4787 O   0  0  0  0  0  0  0  0  0  0  0  0
  1  2  2  0
  2  3  1  0
  4  2  1  6
  4  5  1  0
  4  6  1  0
  6  7  1  6
  6  8  1  0
  8  9  2  0
  8 10  1  0
M  END
>  <supplier_code>  (422) 
DB00566

>  <zinc_id>  (422) 
ZINC000003831477

>  <catalog_short_name>  (422) 
dbfda

$$$$

     RDKit          3D

 24 26  0  0  0  0  0  0  0  0999 V2000
    5.6838   -0.5170    0.8661 C   0  0  0  0  0  0  0  0  0  0  0  0
    4.2315   -0.5501    0.8521 C   0  0  0  0  0  0  0  0  0  0  0  0
    3.6052    0.4383    0.2094 C   0  0  0  0  0  0  0  0  0  0  0  0
    4.3502    1.3646   -0.6535 C   0  0  0  0  0  0  0  0  0  0  0  0
    5.2551    0.9710   -1.4495 O   0  0  0  0  0  0  0  0  0  0  0  0
    3.8639    2.6420   -0.9139 O   0  0  0  0  0  0  0  0  0  0  0  0
    2.1834    0.5441    0.0963 N   0  0  0  0  0  0  0  0  0  0  0  0
    1.1600    0.2355   -0.8843 C   0  0  0  0  0  0  0  0  0  0  0  0
    0.9591    0.5958   -2.0551 O   0  0  0  0  0  0  0  0  0  0  0  0
    0.0869    0.3890    0.3327 C   0  0  1  0  0  0  0  0  0  0  0  0
   -0.5422   -1.0731    0.1304 N   0  0  0  0  0  0  0  0  0  0  0  0
   -1.6259   -0.9933   -0.7780 C   0  0  0  0  0  0  0  0  0  0  0  0
   -1.7841   -0.1429   -1.6571 O   0  0  0  0  0  0  0  0  0  0  0  0
   -2.9882   -1.7643   -0.2799 C   0  0  2  0  0  0  0  0  0  0  0  0
   -3.4444   -2.0691   -1.7924 N   0  0  0  0  0  0  0  0  0  0  0  0
   -3.8523   -0.3675   -0.2365 C   0  0  0  0  0  0  0  0  0  0  0  0
   -3.4010    0.5076    0.7324 C   0  0  0  0  0  0  0  0  0  0  0  0
   -4.1341    1.6835    0.8355 C   0  0  0  0  0  0  0  0  0  0  0  0
   -5.3837    1.7711    0.2302 C   0  0  0  0  0  0  0  0  0  0  0  0
   -5.9312    0.6630   -0.4083 C   0  0  0  0  0  0  0  0  0  0  0  0
   -5.1634   -0.4854   -0.5726 C   0  0  0  0  0  0  0  0  0  0  0  0
    1.4295   -0.0895    1.2605 C   0  0  1  0  0  0  0  0  0  0  0  0
    1.8237   -1.8363    0.6020 S   0  0  0  0  0  0  0  0  0  0  0  0
    3.6181   -1.9171    0.9379 C   0  0  0  0  0  0  0  0  0  0  0  0
  1  2  1  0
  2  3  2  0
  3  4  1  0
  4  5  2  0
  4  6  1  0
  3  7  1  0
  7  8  1  0
  8  9  2  0
  8 10  1  0
 10 11  1  6
 11 12  1  0
 12 13  2  0
 14 12  1  6
 14 15  1  0
 14 16  1  0
 16 17  2  0
 17 18  1  0
 18 19  2  0
 19 20  1  0
 20 21  2  0
 10 22  1  0
 22 23  1  6
 23 24  1  0
 24  2  1  0
 22  7  1  0
 21 16  1  0
M  END
>  <supplier_code>  (423) 
DB00567

>  <zinc_id>  (423) 
ZINC000003830500

>  <catalog_short_name>  (423) 
dbfda

$$$$

     RDKit          3D

 59 67  0  0  0  0  0  0  0  0999 V2000
    6.6340    0.2371   -2.2278 C   0  0  0  0  0  0  0  0  0  0  0  0
    5.7841    0.2126   -2.3092 C   0  0  0  0  0  0  0  0  0  0  0  0
    4.9903    0.4952   -1.0318 C   0  0  2  0  0  0  0  0  0  0  0  0
    5.1948    1.7990   -0.6881 C   0  0  0  0  0  0  0  0  0  0  0  0
    4.9239    2.6455   -1.7013 C   0  0  0  0  0  0  0  0  0  0  0  0
    4.2243    1.8639   -2.7827 C   0  0  0  0  0  0  0  0  0  0  0  0
    3.1468    1.1735   -2.3120 N   0  0  0  0  0  0  0  0  0  0  0  0
    2.0311    1.8307   -1.7799 C   0  0  0  0  0  0  0  0  0  0  0  0
    2.6001    2.1160   -0.3886 C   0  0  0  0  0  0  0  0  0  0  0  0
    2.8026    0.7260   -0.0285 C   0  0  2  0  0  0  0  0  0  0  0  0
    1.6058    0.0967    0.4233 C   0  0  0  0  0  0  0  0  0  0  0  0
    0.3619   -0.1602   -0.1272 C   0  0  0  0  0  0  0  0  0  0  0  0
   -0.8234    0.0806    0.5662 C   0  0  0  0  0  0  0  0  0  0  0  0
   -2.1369   -0.4008    0.0544 C   0  0  1  0  0  0  0  0  0  0  0  0
   -1.8106   -1.6174   -0.7513 C   0  0  0  0  0  0  0  0  0  0  0  0
   -1.2505   -1.4399   -1.8756 O   0  0  0  0  0  0  0  0  0  0  0  0
   -1.2179   -2.6335    0.0105 O   0  0  0  0  0  0  0  0  0  0  0  0
   -0.6670   -3.7502   -0.6799 C   0  0  0  0  0  0  0  0  0  0  0  0
   -2.9546   -0.7595    1.2752 C   0  0  0  0  0  0  0  0  0  0  0  0
   -4.5073   -0.7572    0.7840 C   0  0  1  0  0  0  0  0  0  0  0  0
   -4.3719   -2.2634    0.1698 C   0  0  0  0  0  0  0  0  0  0  0  0
   -5.6331   -2.3403   -0.5110 N   0  0  0  0  0  0  0  0  0  0  0  0
   -6.6808   -1.9854    0.3654 C   0  0  0  0  0  0  0  0  0  0  0  0
   -6.4174   -1.8784    1.8093 C   0  0  2  0  0  0  0  0  0  0  0  0
   -6.6417   -3.1132    2.4421 O   0  0  0  0  0  0  0  0  0  0  0  0
   -7.5262   -0.9763    2.3552 C   0  0  0  0  0  0  0  0  0  0  0  0
   -8.7449   -1.0887    1.4440 C   0  0  0  0  0  0  0  0  0  0  0  0
   -5.0741   -1.3211    2.2034 C   0  0  0  0  0  0  0  0  0  0  0  0
   -5.6227   -1.3020   -1.5427 C   0  0  0  0  0  0  0  0  0  0  0  0
   -4.2599   -0.8596   -1.9246 C   0  0  0  0  0  0  0  0  0  0  0  0
   -3.8867    0.4940   -1.5170 C   0  0  0  0  0  0  0  0  0  0  0  0
   -4.5571    1.7067   -1.4631 C   0  0  0  0  0  0  0  0  0  0  0  0
   -5.8912    2.0733   -1.5616 C   0  0  0  0  0  0  0  0  0  0  0  0
   -6.2838    3.3193   -1.0844 C   0  0  0  0  0  0  0  0  0  0  0  0
   -5.3024    4.2723   -0.8386 C   0  0  0  0  0  0  0  0  0  0  0  0
   -3.9689    3.9465   -1.0549 C   0  0  0  0  0  0  0  0  0  0  0  0
   -3.5699    2.6239   -1.1655 C   0  0  0  0  0  0  0  0  0  0  0  0
   -2.3966    1.9609   -1.0321 N   0  0  0  0  0  0  0  0  0  0  0  0
   -2.7347    0.6742   -0.7580 C   0  0  0  0  0  0  0  0  0  0  0  0
   -0.7869    0.7597    1.7787 C   0  0  0  0  0  0  0  0  0  0  0  0
   -1.7816    1.7169    1.9773 O   0  0  0  0  0  0  0  0  0  0  0  0
   -1.4942    3.0258    2.4639 C   0  0  0  0  0  0  0  0  0  0  0  0
    0.4272    0.7898    2.4547 C   0  0  0  0  0  0  0  0  0  0  0  0
    1.5637    0.4499    1.7724 C   0  0  0  0  0  0  0  0  0  0  0  0
    2.8088    0.0038    2.2377 N   0  0  0  0  0  0  0  0  0  0  0  0
    3.3380   -0.1912    3.5683 C   0  0  0  0  0  0  0  0  0  0  0  0
    3.8573    0.5626    1.1912 C   0  0  1  0  0  0  0  0  0  0  0  0
    4.3668   -0.9296    0.8449 C   0  0  1  0  0  0  0  0  0  0  0  0
    4.9923   -1.3772    2.0236 O   0  0  0  0  0  0  0  0  0  0  0  0
    3.4894   -1.8904    0.4052 C   0  0  0  0  0  0  0  0  0  0  0  0
    2.8422   -2.5552    1.2800 O   0  0  0  0  0  0  0  0  0  0  0  0
    4.0030   -2.8036   -0.5392 O   0  0  0  0  0  0  0  0  0  0  0  0
    3.4085   -4.0270   -0.8420 C   0  0  0  0  0  0  0  0  0  0  0  0
    5.6508   -0.6759   -0.1277 C   0  0  2  0  0  0  0  0  0  0  0  0
    6.2778    0.3256    0.8699 O   0  0  0  0  0  0  0  0  0  0  0  0
    7.6367    0.3818    0.9029 C   0  0  0  0  0  0  0  0  0  0  0  0
    8.2772    1.3887    1.8007 C   0  0  0  0  0  0  0  0  0  0  0  0
    8.2860   -0.6627    0.6323 O   0  0  0  0  0  0  0  0  0  0  0  0
    3.4693    0.0076   -1.3171 C   0  0  2  0  0  0  0  0  0  0  0  0
  1  2  1  0
  3  2  1  6
  3  4  1  0
  4  5  2  0
  5  6  1  0
  6  7  1  0
  7  8  1  0
  8  9  1  0
 10  9  1  6
 10 11  1  0
 11 12  2  0
 12 13  1  0
 14 13  1  1
 14 15  1  0
 15 16  2  0
 15 17  1  0
 17 18  1  0
 14 19  1  0
 20 19  1  1
 20 21  1  0
 21 22  1  0
 22 23  1  0
 23 24  1  0
 24 25  1  1
 24 26  1  0
 26 27  1  0
 24 28  1  0
 22 29  1  0
 29 30  1  0
 30 31  1  0
 31 32  1  0
 32 33  2  0
 33 34  1  0
 34 35  2  0
 35 36  1  0
 36 37  2  0
 37 38  1  0
 38 39  1  0
 13 40  2  0
 40 41  1  0
 41 42  1  0
 40 43  1  0
 43 44  2  0
 44 45  1  0
 45 46  1  0
 47 45  1  1
 47 48  1  0
 48 49  1  1
 48 50  1  0
 50 51  2  0
 50 52  1  0
 52 53  1  0
 48 54  1  0
 54 55  1  1
 55 56  1  0
 56 57  1  0
 56 58  2  0
 10 59  1  0
 54  3  1  0
 59  3  1  0
 59  7  1  6
 47 10  1  0
 44 11  1  0
 39 14  1  0
 28 20  1  0
 39 31  2  0
 37 32  1  0
M  END
>  <supplier_code>  (424) 
DB00570

>  <zinc_id>  (424) 
ZINC000085432544

>  <catalog_short_name>  (424) 
dbfda

$$$$

     RDKit          3D

 59 67  0  0  0  0  0  0  0  0999 V2000
    5.7369    2.7603   -1.4354 C   0  0  0  0  0  0  0  0  0  0  0  0
    5.4063    3.0771   -0.3567 C   0  0  0  0  0  0  0  0  0  0  0  0
    4.7216    1.9121    0.3605 C   0  0  2  0  0  0  0  0  0  0  0  0
    4.6614    2.1430    1.6950 C   0  0  0  0  0  0  0  0  0  0  0  0
    4.2073    3.3766    1.9929 C   0  0  0  0  0  0  0  0  0  0  0  0
    3.6925    3.9807    0.7118 C   0  0  0  0  0  0  0  0  0  0  0  0
    2.7773    3.1849    0.0741 N   0  0  0  0  0  0  0  0  0  0  0  0
    1.5620    2.8482    0.6823 C   0  0  0  0  0  0  0  0  0  0  0  0
    2.0779    1.7415    1.6054 C   0  0  0  0  0  0  0  0  0  0  0  0
    2.5351    0.8688    0.5242 C   0  0  2  0  0  0  0  0  0  0  0  0
    1.4699    0.1953   -0.0898 C   0  0  0  0  0  0  0  0  0  0  0  0
    0.0968    0.4825   -0.0457 C   0  0  0  0  0  0  0  0  0  0  0  0
   -0.8636   -0.3726   -0.5187 C   0  0  0  0  0  0  0  0  0  0  0  0
   -2.2454   -0.4872    0.0455 C   0  0  1  0  0  0  0  0  0  0  0  0
   -2.0597   -0.6414    1.5236 C   0  0  0  0  0  0  0  0  0  0  0  0
   -1.3075    0.0822    2.2049 O   0  0  0  0  0  0  0  0  0  0  0  0
   -2.9241   -1.4836    2.2163 O   0  0  0  0  0  0  0  0  0  0  0  0
   -2.6366   -1.9655    3.5083 C   0  0  0  0  0  0  0  0  0  0  0  0
   -3.0391    0.7428   -0.1953 C   0  0  0  0  0  0  0  0  0  0  0  0
   -3.7137    1.2022    1.2208 C   0  0  2  0  0  0  0  0  0  0  0  0
   -5.2190    0.8090    0.7278 C   0  0  0  0  0  0  0  0  0  0  0  0
   -5.3992    1.2946   -0.5778 N   0  0  0  0  0  0  0  0  0  0  0  0
   -5.8237    2.6338   -0.5908 C   0  0  0  0  0  0  0  0  0  0  0  0
   -5.1913    3.2163    0.6747 C   0  0  2  0  0  0  0  0  0  0  0  0
   -5.9616    3.0131    1.7954 O   0  0  0  0  0  0  0  0  0  0  0  0
   -5.1047    4.7072    0.4392 C   0  0  0  0  0  0  0  0  0  0  0  0
   -6.4028    5.4091    0.7220 C   0  0  0  0  0  0  0  0  0  0  0  0
   -3.7996    2.7507    0.7378 C   0  0  0  0  0  0  0  0  0  0  0  0
   -5.6712    0.4258   -1.6232 C   0  0  0  0  0  0  0  0  0  0  0  0
   -4.3921   -0.3462   -1.9325 C   0  0  0  0  0  0  0  0  0  0  0  0
   -4.2301   -1.5155   -1.0149 C   0  0  0  0  0  0  0  0  0  0  0  0
   -4.7010   -2.8066   -1.2141 C   0  0  0  0  0  0  0  0  0  0  0  0
   -5.8914   -3.3271   -1.7048 C   0  0  0  0  0  0  0  0  0  0  0  0
   -6.1561   -4.6878   -1.6441 C   0  0  0  0  0  0  0  0  0  0  0  0
   -5.0907   -5.5427   -1.4429 C   0  0  0  0  0  0  0  0  0  0  0  0
   -3.8855   -5.0427   -0.9656 C   0  0  0  0  0  0  0  0  0  0  0  0
   -3.8506   -3.7058   -0.5862 C   0  0  0  0  0  0  0  0  0  0  0  0
   -2.8992   -2.9491   -0.0102 N   0  0  0  0  0  0  0  0  0  0  0  0
   -2.9618   -1.6733   -0.4678 C   0  0  0  0  0  0  0  0  0  0  0  0
   -0.3603   -1.4919   -1.1735 C   0  0  0  0  0  0  0  0  0  0  0  0
   -1.1329   -1.9710   -2.1998 O   0  0  0  0  0  0  0  0  0  0  0  0
   -0.9836   -1.4081   -3.5011 C   0  0  0  0  0  0  0  0  0  0  0  0
    0.8659   -2.0033   -0.7770 C   0  0  0  0  0  0  0  0  0  0  0  0
    1.7461   -1.1627   -0.0993 C   0  0  0  0  0  0  0  0  0  0  0  0
    2.7464   -1.4909    0.7846 N   0  0  0  0  0  0  0  0  0  0  0  0
    3.3214   -2.7620    1.1829 C   0  0  0  0  0  0  0  0  0  0  0  0
    3.6227   -0.2086    1.0489 C   0  0  1  0  0  0  0  0  0  0  0  0
    4.4556   -0.4016   -0.3282 C   0  0  1  0  0  0  0  0  0  0  0  0
    5.2082   -1.5418    0.0601 O   0  0  0  0  0  0  0  0  0  0  0  0
    3.9128   -0.6302   -1.5308 C   0  0  0  0  0  0  0  0  0  0  0  0
    4.0924   -1.7939   -2.0577 O   0  0  0  0  0  0  0  0  0  0  0  0
    3.3409    0.0468   -2.6163 O   0  0  0  0  0  0  0  0  0  0  0  0
    3.7453   -0.0486   -3.9447 C   0  0  0  0  0  0  0  0  0  0  0  0
    5.6453    0.7094   -0.2043 C   0  0  2  0  0  0  0  0  0  0  0  0
    6.0596    0.2646    1.2230 O   0  0  0  0  0  0  0  0  0  0  0  0
    7.2404   -0.4617    1.2708 C   0  0  0  0  0  0  0  0  0  0  0  0
    7.5389   -1.4756    2.3183 C   0  0  0  0  0  0  0  0  0  0  0  0
    8.0618   -0.3210    0.3175 O   0  0  0  0  0  0  0  0  0  0  0  0
    3.3494    1.8416   -0.4949 C   0  0  2  0  0  0  0  0  0  0  0  0
  1  2  1  0
  3  2  1  6
  3  4  1  0
  4  5  2  0
  5  6  1  0
  6  7  1  0
  7  8  1  0
  8  9  1  0
 10  9  1  1
 10 11  1  0
 11 12  2  0
 12 13  1  0
 14 13  1  6
 14 15  1  0
 15 16  2  0
 15 17  1  0
 17 18  1  0
 14 19  1  0
 20 19  1  6
 20 21  1  0
 21 22  1  0
 22 23  1  0
 23 24  1  0
 24 25  1  1
 24 26  1  0
 26 27  1  0
 24 28  1  0
 22 29  1  0
 29 30  1  0
 30 31  1  0
 31 32  1  0
 32 33  2  0
 33 34  1  0
 34 35  2  0
 35 36  1  0
 36 37  2  0
 37 38  1  0
 38 39  1  0
 13 40  2  0
 40 41  1  0
 41 42  1  0
 40 43  1  0
 43 44  2  0
 44 45  1  0
 45 46  1  0
 47 45  1  6
 47 48  1  0
 48 49  1  1
 48 50  1  0
 50 51  2  0
 50 52  1  0
 52 53  1  0
 48 54  1  0
 54 55  1  1
 55 56  1  0
 56 57  1  0
 56 58  2  0
 10 59  1  0
 54  3  1  0
 59  3  1  0
 59  7  1  1
 47 10  1  0
 44 11  1  0
 39 14  1  0
 28 20  1  0
 39 31  2  0
 37 32  1  0
M  END
>  <supplier_code>  (425) 
DB00570

>  <zinc_id>  (425) 
ZINC000085555528

>  <catalog_short_name>  (425) 
dbfda

$$$$

     RDKit          3D

 19 20  0  0  0  0  0  0  0  0999 V2000
    4.8465    1.2500   -0.0510 C   0  0  0  0  0  0  0  0  0  0  0  0
    5.0107    0.1487    0.5808 C   0  0  0  0  0  0  0  0  0  0  0  0
    5.4230   -0.8909   -0.4438 C   0  0  0  0  0  0  0  0  0  0  0  0
    3.8058   -0.2371    1.2727 N   0  0  0  0  0  0  0  0  0  0  0  0
    2.7586   -0.6740    0.3540 C   0  0  0  0  0  0  0  0  0  0  0  0
    1.9230    0.7415    0.2160 C   0  0  1  0  0  0  0  0  0  0  0  0
    1.2955    0.3121   -1.0994 O   0  0  0  0  0  0  0  0  0  0  0  0
    0.6728    0.1743    1.1244 C   0  0  0  0  0  0  0  0  0  0  0  0
    0.1769   -0.9657    0.5459 O   0  0  0  0  0  0  0  0  0  0  0  0
   -1.1339   -1.0477    0.1153 C   0  0  0  0  0  0  0  0  0  0  0  0
   -1.6205   -2.2437   -0.3369 C   0  0  0  0  0  0  0  0  0  0  0  0
   -2.9938   -2.3617   -0.4568 C   0  0  0  0  0  0  0  0  0  0  0  0
   -3.8349   -1.2589   -0.4465 C   0  0  0  0  0  0  0  0  0  0  0  0
   -3.2339   -0.0181   -0.3236 C   0  0  0  0  0  0  0  0  0  0  0  0
   -4.0053    1.1193   -0.4391 C   0  0  0  0  0  0  0  0  0  0  0  0
   -3.3703    2.3348   -0.2924 C   0  0  0  0  0  0  0  0  0  0  0  0
   -2.1625    2.3656    0.3867 C   0  0  0  0  0  0  0  0  0  0  0  0
   -1.6271    1.1887    0.8997 C   0  0  0  0  0  0  0  0  0  0  0  0
   -1.9305    0.0628    0.1429 C   0  0  0  0  0  0  0  0  0  0  0  0
  1  2  1  0
  2  3  1  0
  2  4  1  0
  4  5  1  0
  6  5  1  1
  6  7  1  0
  6  8  1  0
  8  9  1  0
  9 10  1  0
 10 11  2  0
 11 12  1  0
 12 13  2  0
 13 14  1  0
 14 15  2  0
 15 16  1  0
 16 17  2  0
 17 18  1  0
 18 19  2  0
 19 10  1  0
 19 14  1  0
M  END
>  <supplier_code>  (426) 
DB00571

>  <zinc_id>  (426) 
ZINC000000020240

>  <catalog_short_name>  (426) 
dbfda

$$$$

     RDKit          3D

 19 20  0  0  0  0  0  0  0  0999 V2000
    5.5475    0.2514    0.2934 C   0  0  0  0  0  0  0  0  0  0  0  0
    4.7932   -0.7417   -0.5813 C   0  0  0  0  0  0  0  0  0  0  0  0
    4.9077   -2.0860    0.1152 C   0  0  0  0  0  0  0  0  0  0  0  0
    3.3995   -0.3104   -0.6623 N   0  0  0  0  0  0  0  0  0  0  0  0
    3.1054    0.3359    0.5743 C   0  0  0  0  0  0  0  0  0  0  0  0
    1.5612   -0.1775    0.9927 C   0  0  2  0  0  0  0  0  0  0  0  0
    1.8803   -1.6469    0.6242 O   0  0  0  0  0  0  0  0  0  0  0  0
    0.9630    0.1314   -0.5503 C   0  0  0  0  0  0  0  0  0  0  0  0
    0.1691    1.2514   -0.2343 O   0  0  0  0  0  0  0  0  0  0  0  0
   -1.1753    1.3895   -0.4510 C   0  0  0  0  0  0  0  0  0  0  0  0
   -1.7408    2.4320   -1.1766 C   0  0  0  0  0  0  0  0  0  0  0  0
   -3.0702    2.3917   -1.5527 C   0  0  0  0  0  0  0  0  0  0  0  0
   -3.8063    1.2343   -1.3312 C   0  0  0  0  0  0  0  0  0  0  0  0
   -3.2773    0.2016   -0.5707 C   0  0  0  0  0  0  0  0  0  0  0  0
   -3.9463   -0.9865   -0.3463 C   0  0  0  0  0  0  0  0  0  0  0  0
   -3.3311   -1.9818    0.3722 C   0  0  0  0  0  0  0  0  0  0  0  0
   -2.2404   -1.6734    1.1551 C   0  0  0  0  0  0  0  0  0  0  0  0
   -1.7250   -0.4059    1.0578 C   0  0  0  0  0  0  0  0  0  0  0  0
   -2.0142    0.3911   -0.0179 C   0  0  0  0  0  0  0  0  0  0  0  0
  1  2  1  0
  2  3  1  0
  2  4  1  0
  4  5  1  0
  6  5  1  6
  6  7  1  0
  6  8  1  0
  8  9  1  0
  9 10  1  0
 10 11  2  0
 11 12  1  0
 12 13  2  0
 13 14  1  0
 14 15  2  0
 15 16  1  0
 16 17  2  0
 17 18  1  0
 18 19  2  0
 19 10  1  0
 19 14  1  0
M  END
>  <supplier_code>  (427) 
DB00571

>  <zinc_id>  (427) 
ZINC000000056556

>  <catalog_short_name>  (427) 
dbfda

$$$$

     RDKit          3D

 21 23  0  0  0  0  0  0  0  0999 V2000
    3.9202    1.7664   -0.8015 C   0  0  0  0  0  0  0  0  0  0  0  0
    3.7479    1.3189   -0.4941 N   0  0  0  0  0  0  0  0  0  0  0  0
    3.3530    1.0415    0.9924 C   0  0  2  0  0  0  0  0  0  0  0  0
    3.8510   -0.5120    1.1234 C   0  0  0  0  0  0  0  0  0  0  0  0
    4.9937   -0.4721    0.3081 C   0  0  0  0  0  0  0  0  0  0  0  0
    4.2183   -0.0453   -1.0749 C   0  0  1  0  0  0  0  0  0  0  0  0
    2.8138   -0.8677   -0.7814 C   0  0  0  0  0  0  0  0  0  0  0  0
    1.7502    0.3898   -0.8922 C   0  0  1  0  0  0  0  0  0  0  0  0
    0.5696   -0.5783   -0.8104 O   0  0  0  0  0  0  0  0  0  0  0  0
   -0.5285    0.1913   -0.3452 C   0  0  0  0  0  0  0  0  0  0  0  0
   -0.4757    0.1213    0.8765 O   0  0  0  0  0  0  0  0  0  0  0  0
   -1.8617   -0.4387   -1.0315 C   0  0  1  0  0  0  0  0  0  0  0  0
   -1.4714   -1.8846   -0.4657 C   0  0  0  0  0  0  0  0  0  0  0  0
   -2.0819   -2.9057   -0.2480 O   0  0  0  0  0  0  0  0  0  0  0  0
   -2.8656   -0.0455    0.1770 C   0  0  0  0  0  0  0  0  0  0  0  0
   -3.1786    1.2867    0.1398 C   0  0  0  0  0  0  0  0  0  0  0  0
   -4.4123    1.7054    0.6166 C   0  0  0  0  0  0  0  0  0  0  0  0
   -5.3433    0.7786    1.0178 C   0  0  0  0  0  0  0  0  0  0  0  0
   -4.8906   -0.5089    1.2356 C   0  0  0  0  0  0  0  0  0  0  0  0
   -3.8851   -0.9411    0.3728 C   0  0  0  0  0  0  0  0  0  0  0  0
    1.7768    0.6000    0.7346 C   0  0  0  0  0  0  0  0  0  0  0  0
  1  2  1  0
  2  3  1  0
  3  4  1  6
  4  5  1  0
  6  5  1  1
  6  7  1  0
  7  8  1  0
  8  9  1  1
  9 10  1  0
 10 11  2  0
 12 10  1  1
 12 13  1  0
 13 14  1  0
 12 15  1  0
 15 16  2  0
 16 17  1  0
 17 18  2  0
 18 19  1  0
 19 20  2  0
  8 21  1  0
  6  2  1  0
 20 15  1  0
 21  3  1  0
M  END
>  <supplier_code>  (428) 
DB00572

>  <zinc_id>  (428) 
ZINC000100009278

>  <catalog_short_name>  (428) 
dbfda

$$$$

     RDKit          3D

 21 23  0  0  0  0  0  0  0  0999 V2000
    4.6328   -0.0543   -0.7974 C   0  0  0  0  0  0  0  0  0  0  0  0
    3.6815   -0.2923   -0.2798 N   0  0  0  0  0  0  0  0  0  0  0  0
    2.6250    0.3063   -1.2468 C   0  0  2  0  0  0  0  0  0  0  0  0
    2.1447    1.5929   -0.3528 C   0  0  0  0  0  0  0  0  0  0  0  0
    3.3586    1.8879    0.3468 C   0  0  0  0  0  0  0  0  0  0  0  0
    3.5168    0.4267    1.0823 C   0  0  1  0  0  0  0  0  0  0  0  0
    1.9080    0.1096    1.3258 C   0  0  0  0  0  0  0  0  0  0  0  0
    1.8996   -1.3671    0.5952 C   0  0  1  0  0  0  0  0  0  0  0  0
    0.4886   -1.7770    1.0437 O   0  0  0  0  0  0  0  0  0  0  0  0
   -0.5379   -0.9558    0.8544 C   0  0  0  0  0  0  0  0  0  0  0  0
   -0.3913    0.1471    1.3479 O   0  0  0  0  0  0  0  0  0  0  0  0
   -2.0365   -1.4861    0.6663 C   0  0  2  0  0  0  0  0  0  0  0  0
   -1.6596   -2.1208   -0.8011 C   0  0  0  0  0  0  0  0  0  0  0  0
   -2.8670   -2.5156   -1.2598 O   0  0  0  0  0  0  0  0  0  0  0  0
   -2.5876   -0.0909    0.0906 C   0  0  0  0  0  0  0  0  0  0  0  0
   -2.3472    0.3309   -1.1320 C   0  0  0  0  0  0  0  0  0  0  0  0
   -2.6769    1.6049   -1.5290 C   0  0  0  0  0  0  0  0  0  0  0  0
   -3.2805    2.4325   -0.6208 C   0  0  0  0  0  0  0  0  0  0  0  0
   -3.7870    1.9010    0.5575 C   0  0  0  0  0  0  0  0  0  0  0  0
   -3.4661    0.5933    0.9050 C   0  0  0  0  0  0  0  0  0  0  0  0
    1.3819   -0.6731   -0.7960 C   0  0  0  0  0  0  0  0  0  0  0  0
  1  2  1  0
  2  3  1  0
  3  4  1  1
  4  5  1  0
  6  5  1  6
  6  7  1  0
  7  8  1  0
  8  9  1  1
  9 10  1  0
 10 11  2  0
 12 10  1  1
 12 13  1  0
 13 14  1  0
 12 15  1  0
 15 16  2  0
 16 17  1  0
 17 18  2  0
 18 19  1  0
 19 20  2  0
  8 21  1  0
  6  2  1  0
 20 15  1  0
 21  3  1  0
M  END
>  <supplier_code>  (429) 
DB00572

>  <zinc_id>  (429) 
ZINC000100009280

>  <catalog_short_name>  (429) 
dbfda

$$$$

     RDKit          3D

 18 19  0  0  0  0  0  0  0  0999 V2000
   -3.2015    2.2612    0.3459 C   0  0  0  0  0  0  0  0  0  0  0  0
   -3.2379    0.8995   -0.6168 C   0  0  2  0  0  0  0  0  0  0  0  0
   -4.2102    0.0493    0.3778 C   0  0  0  0  0  0  0  0  0  0  0  0
   -4.2553    0.3510    1.5560 O   0  0  0  0  0  0  0  0  0  0  0  0
   -4.0876   -1.3038    0.0439 O   0  0  0  0  0  0  0  0  0  0  0  0
   -1.8851    0.2874    0.0460 C   0  0  0  0  0  0  0  0  0  0  0  0
   -1.7536    0.3014    1.3798 C   0  0  0  0  0  0  0  0  0  0  0  0
   -0.5963   -0.2860    1.8819 C   0  0  0  0  0  0  0  0  0  0  0  0
    0.3150   -0.8973    1.0279 C   0  0  0  0  0  0  0  0  0  0  0  0
    0.2534   -0.5931   -0.3274 C   0  0  0  0  0  0  0  0  0  0  0  0
    1.3705   -0.7310   -1.1580 O   0  0  0  0  0  0  0  0  0  0  0  0
    2.6163   -0.4084   -0.6172 C   0  0  0  0  0  0  0  0  0  0  0  0
    2.7672    0.8908   -0.1758 C   0  0  0  0  0  0  0  0  0  0  0  0
    3.9599    1.2615    0.3959 C   0  0  0  0  0  0  0  0  0  0  0  0
    4.8806    0.2689    0.6833 C   0  0  0  0  0  0  0  0  0  0  0  0
    4.5344   -1.0514    0.5861 C   0  0  0  0  0  0  0  0  0  0  0  0
    3.3711   -1.4123   -0.0489 C   0  0  0  0  0  0  0  0  0  0  0  0
   -0.8411    0.1124   -0.8167 C   0  0  0  0  0  0  0  0  0  0  0  0
  2  1  1  1
  2  3  1  0
  3  4  2  0
  3  5  1  0
  2  6  1  0
  6  7  2  0
  7  8  1  0
  8  9  2  0
  9 10  1  0
 10 11  1  0
 11 12  1  0
 12 13  2  0
 13 14  1  0
 14 15  2  0
 15 16  1  0
 16 17  2  0
 10 18  2  0
 18  6  1  0
 17 12  1  0
M  END
>  <supplier_code>  (430) 
DB00573

>  <zinc_id>  (430) 
ZINC000000000301

>  <catalog_short_name>  (430) 
dbfda

$$$$

     RDKit          3D

 18 19  0  0  0  0  0  0  0  0999 V2000
    3.5254   -1.7937    0.7442 C   0  0  0  0  0  0  0  0  0  0  0  0
    3.3474   -0.1344    0.8817 C   0  0  1  0  0  0  0  0  0  0  0  0
    4.3727    0.1652   -0.3582 C   0  0  0  0  0  0  0  0  0  0  0  0
    4.2416   -0.5230   -1.3617 O   0  0  0  0  0  0  0  0  0  0  0  0
    5.0422    1.3663   -0.2479 O   0  0  0  0  0  0  0  0  0  0  0  0
    2.0300   -0.0495   -0.0803 C   0  0  0  0  0  0  0  0  0  0  0  0
    1.8074   -1.0074   -0.9796 C   0  0  0  0  0  0  0  0  0  0  0  0
    0.6535   -0.8962   -1.7429 C   0  0  0  0  0  0  0  0  0  0  0  0
   -0.4824   -0.5101   -1.0423 C   0  0  0  0  0  0  0  0  0  0  0  0
   -0.3000    0.3520    0.0316 C   0  0  0  0  0  0  0  0  0  0  0  0
   -1.3567    0.8440    0.7693 O   0  0  0  0  0  0  0  0  0  0  0  0
   -2.6553    0.4893    0.4252 C   0  0  0  0  0  0  0  0  0  0  0  0
   -3.3848   -0.3568    1.2449 C   0  0  0  0  0  0  0  0  0  0  0  0
   -4.7308   -0.5472    0.9849 C   0  0  0  0  0  0  0  0  0  0  0  0
   -5.3182    0.2148    0.0110 C   0  0  0  0  0  0  0  0  0  0  0  0
   -4.5498    0.7666   -0.9778 C   0  0  0  0  0  0  0  0  0  0  0  0
   -3.2140    0.9989   -0.7334 C   0  0  0  0  0  0  0  0  0  0  0  0
    0.9719    0.6211    0.4942 C   0  0  0  0  0  0  0  0  0  0  0  0
  2  1  1  6
  2  3  1  0
  3  4  2  0
  3  5  1  0
  2  6  1  0
  6  7  2  0
  7  8  1  0
  8  9  2  0
  9 10  1  0
 10 11  1  0
 11 12  1  0
 12 13  2  0
 13 14  1  0
 14 15  2  0
 15 16  1  0
 16 17  2  0
 10 18  2  0
 18  6  1  0
 17 12  1  0
M  END
>  <supplier_code>  (431) 
DB00573

>  <zinc_id>  (431) 
ZINC000000402909

>  <catalog_short_name>  (431) 
dbfda

$$$$

     RDKit          3D

 14 15  0  0  0  0  0  0  0  0999 V2000
   -1.6076    2.7793   -0.4718 Cl  0  0  0  0  0  0  0  0  0  0  0  0
   -1.6374    1.0196   -0.5170 C   0  0  0  0  0  0  0  0  0  0  0  0
   -2.5291    0.3401   -1.3172 C   0  0  0  0  0  0  0  0  0  0  0  0
   -2.8503   -0.9588   -0.9446 C   0  0  0  0  0  0  0  0  0  0  0  0
   -2.2978   -1.5253    0.1978 C   0  0  0  0  0  0  0  0  0  0  0  0
   -1.1795   -0.9495    0.7786 C   0  0  0  0  0  0  0  0  0  0  0  0
   -0.4463   -1.5921    2.2432 Cl  0  0  0  0  0  0  0  0  0  0  0  0
   -0.8828    0.3580    0.4466 C   0  0  0  0  0  0  0  0  0  0  0  0
    0.4487    0.8396    0.6570 N   0  0  0  0  0  0  0  0  0  0  0  0
    1.4955    0.1787    0.3013 C   0  0  0  0  0  0  0  0  0  0  0  0
    1.7254   -0.4347   -0.9687 N   0  0  0  0  0  0  0  0  0  0  0  0
    3.1578   -0.5178   -1.2256 C   0  0  0  0  0  0  0  0  0  0  0  0
    3.8144    0.2381   -0.0942 C   0  0  0  0  0  0  0  0  0  0  0  0
    2.7889    0.2249    0.9147 N   0  0  0  0  0  0  0  0  0  0  0  0
  1  2  1  0
  2  3  2  0
  3  4  1  0
  4  5  2  0
  5  6  1  0
  6  7  1  0
  6  8  2  0
  8  9  1  0
  9 10  2  3
 10 11  1  0
 11 12  1  0
 12 13  1  0
 13 14  1  0
  8  2  1  0
 14 10  1  0
M  END
>  <supplier_code>  (432) 
DB00575

>  <zinc_id>  (432) 
ZINC000000896484

>  <catalog_short_name>  (432) 
dbfda

$$$$

     RDKit          3D

 23 24  0  0  0  0  0  0  0  0999 V2000
    5.8396    0.7341   -0.7980 C   0  0  0  0  0  0  0  0  0  0  0  0
    5.0117    0.6811   -0.4194 C   0  0  0  0  0  0  0  0  0  0  0  0
    4.5848    1.8933    0.3647 C   0  0  0  0  0  0  0  0  0  0  0  0
    5.2090   -0.4671    0.7795 C   0  0  2  0  0  0  0  0  0  0  0  0
    5.6026   -1.5872   -0.2968 N   0  0  0  0  0  0  0  0  0  0  0  0
    3.6162   -0.8371    0.7805 C   0  0  0  0  0  0  0  0  0  0  0  0
    3.0473    0.0495    1.4550 O   0  0  0  0  0  0  0  0  0  0  0  0
    3.0845   -1.4592   -0.2812 O   0  0  0  0  0  0  0  0  0  0  0  0
    1.6811   -1.3998   -0.5067 C   0  0  0  0  0  0  0  0  0  0  0  0
    1.4689   -0.2552   -1.4665 C   0  0  0  0  0  0  0  0  0  0  0  0
    0.4694    0.6108   -1.0365 O   0  0  0  0  0  0  0  0  0  0  0  0
   -0.2091   -0.0397   -0.0154 C   0  0  0  0  0  0  0  0  0  0  0  0
   -1.4728   -0.5972   -0.4645 N   0  0  0  0  0  0  0  0  0  0  0  0
   -1.8419   -1.8654   -0.2078 C   0  0  0  0  0  0  0  0  0  0  0  0
   -3.1776   -1.9470   -0.1292 N   0  0  0  0  0  0  0  0  0  0  0  0
   -3.6834   -0.6926   -0.2115 C   0  0  0  0  0  0  0  0  0  0  0  0
   -2.6071    0.1439   -0.4803 C   0  0  0  0  0  0  0  0  0  0  0  0
   -2.8813    1.4632   -0.5598 N   0  0  0  0  0  0  0  0  0  0  0  0
   -4.0246    2.0118   -0.0960 C   0  0  0  0  0  0  0  0  0  0  0  0
   -3.9433    3.3511    0.4081 N   0  0  0  0  0  0  0  0  0  0  0  0
   -5.0361    1.1978    0.2440 N   0  0  0  0  0  0  0  0  0  0  0  0
   -4.9153   -0.1214    0.0871 C   0  0  0  0  0  0  0  0  0  0  0  0
   -5.8227   -0.8677    0.5539 O   0  0  0  0  0  0  0  0  0  0  0  0
  1  2  1  0
  2  3  1  0
  4  2  1  6
  4  5  1  0
  4  6  1  0
  6  7  2  0
  6  8  1  0
  8  9  1  0
  9 10  1  0
 10 11  1  0
 11 12  1  0
 12 13  1  0
 13 14  1  0
 14 15  2  0
 15 16  1  0
 16 17  2  0
 17 18  1  0
 18 19  2  0
 19 20  1  0
 19 21  1  0
 21 22  1  0
 22 23  2  0
 17 13  1  0
 22 16  1  0
M  END
>  <supplier_code>  (433) 
DB00577

>  <zinc_id>  (433) 
ZINC000001530713

>  <catalog_short_name>  (433) 
dbfda

$$$$

     RDKit          3D

 23 24  0  0  0  0  0  0  0  0999 V2000
    1.3261   -2.5368    2.1686 O   0  0  0  0  0  0  0  0  0  0  0  0
    1.2836   -2.5160    1.0101 C   0  0  0  0  0  0  0  0  0  0  0  0
    2.1973   -1.1689    0.8184 C   0  0  1  0  0  0  0  0  0  0  0  0
    2.6111   -1.4604   -0.6074 O   0  0  0  0  0  0  0  0  0  0  0  0
    3.1131   -0.1878   -0.9860 C   0  0  2  0  0  0  0  0  0  0  0  0
    2.9826    0.0750   -2.3143 O   0  0  0  0  0  0  0  0  0  0  0  0
    4.4542   -0.2532   -0.4140 C   0  0  0  0  0  0  0  0  0  0  0  0
    5.4029    0.6344   -0.3712 O   0  0  0  0  0  0  0  0  0  0  0  0
    2.1502    0.8519   -0.1646 C   0  0  1  0  0  0  0  0  0  0  0  0
    1.3540    1.4134   -1.3255 O   0  0  0  0  0  0  0  0  0  0  0  0
    0.9292   -0.3351    0.0414 C   0  0  2  0  0  0  0  0  0  0  0  0
    0.3314    0.2785    1.2700 O   0  0  0  0  0  0  0  0  0  0  0  0
   -1.0985   -0.2316    1.0686 C   0  0  2  0  0  0  0  0  0  0  0  0
   -1.1304    0.2259   -0.3756 O   0  0  0  0  0  0  0  0  0  0  0  0
   -2.3487   -0.4714   -0.8952 C   0  0  2  0  0  0  0  0  0  0  0  0
   -3.0182    0.9052   -1.4527 C   0  0  0  0  0  0  0  0  0  0  0  0
   -2.1015    1.2024   -2.4473 O   0  0  0  0  0  0  0  0  0  0  0  0
   -3.2054   -0.7190    0.5558 C   0  0  2  0  0  0  0  0  0  0  0  0
   -4.5290   -0.5834   -0.1733 O   0  0  0  0  0  0  0  0  0  0  0  0
   -3.3694    0.7508    1.3846 C   0  0  2  0  0  0  0  0  0  0  0  0
   -3.9406    1.6319    0.3182 O   0  0  0  0  0  0  0  0  0  0  0  0
   -1.7726    1.3248    1.3343 C   0  0  1  0  0  0  0  0  0  0  0  0
   -1.6212    1.1692    2.8122 O   0  0  0  0  0  0  0  0  0  0  0  0
  1  2  1  0
  3  2  1  1
  3  4  1  0
  4  5  1  0
  5  6  1  6
  5  7  1  0
  7  8  1  0
  5  9  1  0
  9 10  1  6
  9 11  1  0
 11 12  1  1
 13 12  1  1
 13 14  1  0
 14 15  1  0
 15 16  1  6
 16 17  1  0
 15 18  1  0
 18 19  1  6
 18 20  1  0
 20 21  1  6
 20 22  1  0
 22 23  1  1
 11  3  1  0
 22 13  1  0
M  END
>  <supplier_code>  (434) 
DB00581

>  <zinc_id>  (434) 
ZINC000003977952

>  <catalog_short_name>  (434) 
dbfda

$$$$

     RDKit          3D

 25 27  0  0  0  0  0  0  0  0999 V2000
    0.9304    0.1382    2.5261 C   0  0  0  0  0  0  0  0  0  0  0  0
    0.9980    0.7303    0.9822 C   0  0  1  0  0  0  0  0  0  0  0  0
    1.9720   -0.4191    0.3896 C   0  0  0  0  0  0  0  0  0  0  0  0
    2.7423    0.1659   -0.5674 N   0  0  0  0  0  0  0  0  0  0  0  0
    3.9599   -0.3339   -0.8653 C   0  0  0  0  0  0  0  0  0  0  0  0
    4.5376   -1.2739   -0.0884 N   0  0  0  0  0  0  0  0  0  0  0  0
    3.7238   -1.9331    0.7579 C   0  0  0  0  0  0  0  0  0  0  0  0
    2.6506   -1.2076    1.2630 C   0  0  0  0  0  0  0  0  0  0  0  0
    1.8216   -1.7439    2.2106 F   0  0  0  0  0  0  0  0  0  0  0  0
   -0.3974    0.0189    0.4906 C   0  0  2  0  0  0  0  0  0  0  0  0
   -1.1122   -0.3898    1.5668 O   0  0  0  0  0  0  0  0  0  0  0  0
   -0.1369   -0.9548   -0.5744 C   0  0  0  0  0  0  0  0  0  0  0  0
   -1.2122   -1.9407   -0.5166 N   0  0  0  0  0  0  0  0  0  0  0  0
   -1.0972   -3.2358   -0.1320 C   0  0  0  0  0  0  0  0  0  0  0  0
   -2.3310   -3.5910    0.2983 N   0  0  0  0  0  0  0  0  0  0  0  0
   -3.2128   -2.7153   -0.2396 C   0  0  0  0  0  0  0  0  0  0  0  0
   -2.4889   -1.5788   -0.3834 N   0  0  0  0  0  0  0  0  0  0  0  0
   -1.1916    1.1389   -0.1154 C   0  0  0  0  0  0  0  0  0  0  0  0
   -2.1310    1.8526    0.6195 C   0  0  0  0  0  0  0  0  0  0  0  0
   -2.2967    3.2081    0.3594 C   0  0  0  0  0  0  0  0  0  0  0  0
   -1.7086    3.7573   -0.7648 C   0  0  0  0  0  0  0  0  0  0  0  0
   -1.4664    5.0900   -0.7930 F   0  0  0  0  0  0  0  0  0  0  0  0
   -1.1835    2.8829   -1.7058 C   0  0  0  0  0  0  0  0  0  0  0  0
   -1.0590    1.5277   -1.4251 C   0  0  0  0  0  0  0  0  0  0  0  0
   -0.3111    0.8070   -2.2691 F   0  0  0  0  0  0  0  0  0  0  0  0
  2  1  1  1
  2  3  1  0
  3  4  2  0
  4  5  1  0
  5  6  2  0
  6  7  1  0
  7  8  2  0
  8  9  1  0
  2 10  1  0
 10 11  1  1
 10 12  1  0
 12 13  1  0
 13 14  1  0
 14 15  2  0
 15 16  1  0
 16 17  2  0
 10 18  1  0
 18 19  2  0
 19 20  1  0
 20 21  2  0
 21 22  1  0
 21 23  1  0
 23 24  2  0
 24 25  1  0
  8  3  1  0
 17 13  1  0
 24 18  1  0
M  END
>  <supplier_code>  (435) 
DB00582

>  <zinc_id>  (435) 
ZINC000000014864

>  <catalog_short_name>  (435) 
dbfda

$$$$

     RDKit          3D

 11 10  0  0  0  0  0  0  0  0999 V2000
   -2.7997    0.5779    0.5773 C   0  0  0  0  0  0  0  0  0  0  0  0
   -2.1453    0.4768   -0.0300 N   0  0  0  0  0  0  0  0  0  0  0  0
   -2.6391   -0.2441   -1.2037 C   0  0  0  0  0  0  0  0  0  0  0  0
   -1.8304    1.8356   -0.4946 C   0  0  0  0  0  0  0  0  0  0  0  0
   -1.0055   -0.1727    0.5651 C   0  0  0  0  0  0  0  0  0  0  0  0
    0.0699   -0.4325   -0.6559 C   0  0  2  0  0  0  0  0  0  0  0  0
    0.5605   -1.7237   -0.0214 O   0  0  0  0  0  0  0  0  0  0  0  0
    1.2427    0.4403    0.1099 C   0  0  0  0  0  0  0  0  0  0  0  0
    2.4939   -0.0026   -0.5488 C   0  0  0  0  0  0  0  0  0  0  0  0
    3.5185   -0.2548    0.1546 O   0  0  0  0  0  0  0  0  0  0  0  0
    2.5345   -0.5003   -1.8507 O   0  0  0  0  0  0  0  0  0  0  0  0
  1  2  1  0
  2  3  1  0
  2  4  1  0
  2  5  1  0
  6  5  1  1
  6  7  1  0
  6  8  1  0
  8  9  1  0
  9 10  2  0
  9 11  1  0
M  CHG  1   2   1
M  END
>  <supplier_code>  (436) 
DB00583

>  <zinc_id>  (436) 
ZINC000003079340

>  <catalog_short_name>  (436) 
dbfda

$$$$

     RDKit          3D

 27 28  0  0  0  0  0  0  0  0999 V2000
   -0.7801    5.7886    0.2996 C   0  0  0  0  0  0  0  0  0  0  0  0
    0.1191    4.9126    0.4050 C   0  0  0  0  0  0  0  0  0  0  0  0
   -0.0703    3.6709   -0.2454 O   0  0  0  0  0  0  0  0  0  0  0  0
   -0.9770    2.8149    0.3930 C   0  0  0  0  0  0  0  0  0  0  0  0
   -2.0786    3.2378    0.7379 O   0  0  0  0  0  0  0  0  0  0  0  0
   -0.8864    1.3199   -0.1994 C   0  0  2  0  0  0  0  0  0  0  0  0
   -1.9082    0.6909    0.9299 C   0  0  0  0  0  0  0  0  0  0  0  0
   -3.1348    0.6151    0.0301 C   0  0  0  0  0  0  0  0  0  0  0  0
   -3.8799   -0.6696    0.2209 C   0  0  0  0  0  0  0  0  0  0  0  0
   -3.8477   -1.6410   -0.7736 C   0  0  0  0  0  0  0  0  0  0  0  0
   -4.9266   -2.4300   -1.0856 C   0  0  0  0  0  0  0  0  0  0  0  0
   -6.1649   -2.1255   -0.5588 C   0  0  0  0  0  0  0  0  0  0  0  0
   -6.2120   -1.2795    0.5338 C   0  0  0  0  0  0  0  0  0  0  0  0
   -5.1207   -0.4972    0.8260 C   0  0  0  0  0  0  0  0  0  0  0  0
    0.3761    1.0093    0.6745 N   0  0  0  0  0  0  0  0  0  0  0  0
    0.6227   -0.5257    0.4545 C   0  0  1  0  0  0  0  0  0  0  0  0
   -0.1123   -0.6595   -1.0139 C   0  0  0  0  0  0  0  0  0  0  0  0
    2.0650   -0.2484   -0.2133 C   0  0  0  0  0  0  0  0  0  0  0  0
    2.1414    0.5219   -1.1592 O   0  0  0  0  0  0  0  0  0  0  0  0
    2.9214   -1.3157    0.1157 N   0  0  0  0  0  0  0  0  0  0  0  0
    3.2583   -1.5741    1.4840 C   0  0  0  0  0  0  0  0  0  0  0  0
    4.5174   -0.7898    1.6637 C   0  0  0  0  0  0  0  0  0  0  0  0
    4.9639   -0.2955    0.3355 C   0  0  0  0  0  0  0  0  0  0  0  0
    4.2741   -1.3837   -0.6864 C   0  0  1  0  0  0  0  0  0  0  0  0
    4.8046   -2.6671    0.1367 C   0  0  0  0  0  0  0  0  0  0  0  0
    5.9720   -2.6627    0.5167 O   0  0  0  0  0  0  0  0  0  0  0  0
    4.0636   -3.8172   -0.0933 O   0  0  0  0  0  0  0  0  0  0  0  0
  1  2  1  0
  2  3  1  0
  3  4  1  0
  4  5  2  0
  6  4  1  1
  6  7  1  0
  7  8  1  0
  8  9  1  0
  9 10  2  0
 10 11  1  0
 11 12  2  0
 12 13  1  0
 13 14  2  0
  6 15  1  0
 16 15  1  1
 16 17  1  0
 16 18  1  0
 18 19  2  0
 18 20  1  0
 20 21  1  0
 21 22  1  0
 22 23  1  0
 23 24  1  0
 24 25  1  1
 25 26  2  0
 25 27  1  0
 14  9  1  0
 24 20  1  0
M  END
>  <supplier_code>  (437) 
DB00584

>  <zinc_id>  (437) 
ZINC000003791297

>  <catalog_short_name>  (437) 
dbfda

$$$$

     RDKit          3D

 21 21  0  0  0  0  0  0  0  0999 V2000
    5.2907   -1.2617   -0.2330 C   0  0  0  0  0  0  0  0  0  0  0  0
    4.4860   -0.6259    0.7986 N   0  0  0  0  0  0  0  0  0  0  0  0
    3.7440    0.5375    0.4123 C   0  0  0  0  0  0  0  0  0  0  0  0
    4.4202    1.5885   -0.0077 C   0  0  0  0  0  0  0  0  0  0  0  0
    5.7557    1.8432    0.3869 N   0  0  0  0  0  0  0  0  0  0  0  0
    6.5918    1.9738   -0.5431 O   0  0  0  0  0  0  0  0  0  0  0  0
    6.1081    2.3279    1.6254 O   0  0  0  0  0  0  0  0  0  0  0  0
    2.4447    0.3015   -0.1401 N   0  0  0  0  0  0  0  0  0  0  0  0
    2.2229   -0.4466   -1.3538 C   0  0  0  0  0  0  0  0  0  0  0  0
    1.6828   -1.8307   -1.1137 C   0  0  0  0  0  0  0  0  0  0  0  0
    0.1018   -1.7576   -0.2416 S   0  0  0  0  0  0  0  0  0  0  0  0
   -1.3078   -1.6876   -1.3650 C   0  0  0  0  0  0  0  0  0  0  0  0
   -2.5312   -1.5174   -0.5160 C   0  0  0  0  0  0  0  0  0  0  0  0
   -3.1637   -2.6280    0.0358 C   0  0  0  0  0  0  0  0  0  0  0  0
   -4.3820   -1.8480    0.9640 S   0  0  0  0  0  0  0  0  0  0  0  0
   -4.1439   -0.2563    0.3666 C   0  0  0  0  0  0  0  0  0  0  0  0
   -4.6869    1.0591    0.8323 C   0  0  0  0  0  0  0  0  0  0  0  0
   -6.0382    1.2810    0.3838 N   0  0  0  0  0  0  0  0  0  0  0  0
   -6.2522    2.7277    0.4068 C   0  0  0  0  0  0  0  0  0  0  0  0
   -6.9491    0.7401    1.3898 C   0  0  0  0  0  0  0  0  0  0  0  0
   -3.3938   -0.5206   -0.7214 N   0  0  0  0  0  0  0  0  0  0  0  0
  1  2  1  0
  2  3  1  0
  3  4  2  0
  4  5  1  0
  5  6  2  0
  5  7  1  0
  3  8  1  0
  8  9  1  0
  9 10  1  0
 10 11  1  0
 11 12  1  0
 12 13  1  0
 13 14  2  0
 14 15  1  0
 15 16  1  0
 16 17  1  0
 17 18  1  0
 18 19  1  0
 18 20  1  0
 16 21  2  0
 21 13  1  0
M  CHG  2   5   1   7  -1
M  END
>  <supplier_code>  (438) 
DB00585

>  <zinc_id>  (438) 
ZINC000001530736

>  <catalog_short_name>  (438) 
dbfda

$$$$

     RDKit          3D

 21 21  0  0  0  0  0  0  0  0999 V2000
   -5.2018   -2.8017   -0.1509 C   0  0  0  0  0  0  0  0  0  0  0  0
   -4.9131   -1.7993    0.8462 N   0  0  0  0  0  0  0  0  0  0  0  0
   -4.2077   -0.6004    0.5383 C   0  0  0  0  0  0  0  0  0  0  0  0
   -4.6714    0.6091    0.8556 C   0  0  0  0  0  0  0  0  0  0  0  0
   -4.4798    1.6726   -0.0764 N   0  0  0  0  0  0  0  0  0  0  0  0
   -3.8120    2.6536    0.3065 O   0  0  0  0  0  0  0  0  0  0  0  0
   -5.5479    1.9472   -0.9138 O   0  0  0  0  0  0  0  0  0  0  0  0
   -2.9827   -0.6964   -0.1815 N   0  0  0  0  0  0  0  0  0  0  0  0
   -1.8827    0.1957    0.1304 C   0  0  0  0  0  0  0  0  0  0  0  0
   -0.7723   -0.0689   -0.8766 C   0  0  0  0  0  0  0  0  0  0  0  0
   -0.1766   -1.7670   -0.5926 S   0  0  0  0  0  0  0  0  0  0  0  0
    0.9931   -1.7575    0.8052 C   0  0  0  0  0  0  0  0  0  0  0  0
    1.9575   -0.6418    0.5342 C   0  0  0  0  0  0  0  0  0  0  0  0
    1.5155    0.6785    0.5227 C   0  0  0  0  0  0  0  0  0  0  0  0
    3.0010    1.4813    0.2008 S   0  0  0  0  0  0  0  0  0  0  0  0
    3.9358    0.0927   -0.1837 C   0  0  0  0  0  0  0  0  0  0  0  0
    5.3880   -0.0308   -0.5273 C   0  0  0  0  0  0  0  0  0  0  0  0
    6.0935    0.0674    0.7497 N   0  0  0  0  0  0  0  0  0  0  0  0
    7.4312    0.5943    0.5733 C   0  0  0  0  0  0  0  0  0  0  0  0
    5.3836    0.9858    1.6343 C   0  0  0  0  0  0  0  0  0  0  0  0
    2.9489   -0.8145   -0.3615 N   0  0  0  0  0  0  0  0  0  0  0  0
  1  2  1  0
  2  3  1  0
  3  4  2  0
  4  5  1  0
  5  6  2  0
  5  7  1  0
  3  8  1  0
  8  9  1  0
  9 10  1  0
 10 11  1  0
 11 12  1  0
 12 13  1  0
 13 14  2  0
 14 15  1  0
 15 16  1  0
 16 17  1  0
 17 18  1  0
 18 19  1  0
 18 20  1  0
 16 21  2  0
 21 13  1  0
M  CHG  2   5   1   7  -1
M  END
>  <supplier_code>  (439) 
DB00585

>  <zinc_id>  (439) 
ZINC000001530737

>  <catalog_short_name>  (439) 
dbfda

$$$$

     RDKit          3D

 19 20  0  0  0  0  0  0  0  0999 V2000
    3.0462    2.8428   -0.1495 O   0  0  0  0  0  0  0  0  0  0  0  0
    3.3276    1.6275   -0.2496 C   0  0  0  0  0  0  0  0  0  0  0  0
    4.5278    1.1997    0.3144 O   0  0  0  0  0  0  0  0  0  0  0  0
    2.4106    0.6689   -0.8975 C   0  0  0  0  0  0  0  0  0  0  0  0
    1.8763   -0.3476    0.0490 C   0  0  0  0  0  0  0  0  0  0  0  0
    2.6199   -1.3973    0.5259 C   0  0  0  0  0  0  0  0  0  0  0  0
    2.0006   -2.5998    0.7639 C   0  0  0  0  0  0  0  0  0  0  0  0
    0.6506   -2.8153    0.5312 C   0  0  0  0  0  0  0  0  0  0  0  0
   -0.1276   -1.6777    0.3590 C   0  0  0  0  0  0  0  0  0  0  0  0
    0.4951   -0.4512    0.1591 C   0  0  0  0  0  0  0  0  0  0  0  0
   -0.2380    0.7530   -0.0425 N   0  0  0  0  0  0  0  0  0  0  0  0
   -1.6470    0.6767   -0.2930 C   0  0  0  0  0  0  0  0  0  0  0  0
   -2.0803   -0.1331   -1.3227 C   0  0  0  0  0  0  0  0  0  0  0  0
   -1.0734   -0.2805   -2.7537 Cl  0  0  0  0  0  0  0  0  0  0  0  0
   -3.3866   -0.5941   -1.3405 C   0  0  0  0  0  0  0  0  0  0  0  0
   -4.0453   -0.7493   -0.1268 C   0  0  0  0  0  0  0  0  0  0  0  0
   -3.7240    0.2051    0.8303 C   0  0  0  0  0  0  0  0  0  0  0  0
   -2.5815    0.9814    0.6897 C   0  0  0  0  0  0  0  0  0  0  0  0
   -2.0508    2.0909    1.9446 Cl  0  0  0  0  0  0  0  0  0  0  0  0
  1  2  2  0
  2  3  1  0
  2  4  1  0
  4  5  1  0
  5  6  2  0
  6  7  1  0
  7  8  2  0
  8  9  1  0
  9 10  2  0
 10 11  1  0
 11 12  1  0
 12 13  2  0
 13 14  1  0
 13 15  1  0
 15 16  2  0
 16 17  1  0
 17 18  2  0
 18 19  1  0
 10  5  1  0
 18 12  1  0
M  END
>  <supplier_code>  (440) 
DB00586

>  <zinc_id>  (440) 
ZINC000000001281

>  <catalog_short_name>  (440) 
dbfda

$$$$

     RDKit          3D

 34 37  0  0  0  0  0  0  0  0999 V2000
   -4.6632    2.2111    2.9652 C   0  0  0  0  0  0  0  0  0  0  0  0
   -3.7192    1.1560    2.7153 C   0  0  0  0  0  0  0  0  0  0  0  0
   -3.5246    1.0107    1.2387 C   0  0  0  0  0  0  0  0  0  0  0  0
   -3.4667    2.0919    0.6001 O   0  0  0  0  0  0  0  0  0  0  0  0
   -3.0559   -0.1730    0.7149 O   0  0  0  0  0  0  0  0  0  0  0  0
   -2.3836   -0.1221   -0.5073 C   0  0  2  0  0  0  0  0  0  0  0  0
   -3.2363    0.6750   -1.4185 C   0  0  0  0  0  0  0  0  0  0  0  0
   -2.9132    1.5789   -2.1433 O   0  0  0  0  0  0  0  0  0  0  0  0
   -4.9625    0.2115   -1.6384 S   0  0  0  0  0  0  0  0  0  0  0  0
   -5.3541   -1.1647   -0.5346 C   0  0  0  0  0  0  0  0  0  0  0  0
   -6.5854   -1.6280   -0.9272 F   0  0  0  0  0  0  0  0  0  0  0  0
   -2.4515   -1.5923   -1.1979 C   0  0  2  0  0  0  0  0  0  0  0  0
   -2.2655   -2.4094    0.2048 C   0  0  0  0  0  0  0  0  0  0  0  0
   -0.8627   -1.7104   -1.5637 C   0  0  0  0  0  0  0  0  0  0  0  0
   -0.2919   -1.2000   -0.1438 C   0  0  1  0  0  0  0  0  0  0  0  0
    1.1671   -0.6416   -0.7966 C   0  0  2  0  0  0  0  0  0  0  0  0
    1.8994   -2.0477   -0.4392 C   0  0  0  0  0  0  0  0  0  0  0  0
    3.3760   -1.7274   -1.1065 C   0  0  2  0  0  0  0  0  0  0  0  0
    3.9367   -3.0305   -0.5983 F   0  0  0  0  0  0  0  0  0  0  0  0
    3.8622   -0.9228    0.2247 C   0  0  0  0  0  0  0  0  0  0  0  0
    5.1732   -0.6742    0.1341 C   0  0  0  0  0  0  0  0  0  0  0  0
    5.7607    0.6012    0.5530 C   0  0  0  0  0  0  0  0  0  0  0  0
    7.0126    0.7524    0.6843 O   0  0  0  0  0  0  0  0  0  0  0  0
    4.8865    1.7755    0.7078 C   0  0  0  0  0  0  0  0  0  0  0  0
    3.6584    1.3999    1.0862 C   0  0  0  0  0  0  0  0  0  0  0  0
    3.0551    0.3395    0.2697 C   0  0  1  0  0  0  0  0  0  0  0  0
    3.2352    0.8884   -1.1485 C   0  0  0  0  0  0  0  0  0  0  0  0
    1.6470    0.0085    0.5792 C   0  0  2  0  0  0  0  0  0  0  0  0
    1.3671   -0.7283    1.6272 F   0  0  0  0  0  0  0  0  0  0  0  0
    0.9461    1.4755    0.7382 C   0  0  1  0  0  0  0  0  0  0  0  0
    0.9986    1.8061   -0.7423 O   0  0  0  0  0  0  0  0  0  0  0  0
   -0.6025    0.9439    0.6870 C   0  0  0  0  0  0  0  0  0  0  0  0
   -0.9724    0.2330   -0.4555 C   0  0  2  0  0  0  0  0  0  0  0  0
   -0.6707    0.6133   -1.8579 C   0  0  0  0  0  0  0  0  0  0  0  0
  1  2  1  0
  2  3  1  0
  3  4  2  0
  3  5  1  0
  6  5  1  1
  6  7  1  0
  7  8  2  0
  7  9  1  0
  9 10  1  0
 10 11  1  0
  6 12  1  0
 12 13  1  1
 12 14  1  0
 15 14  1  6
 15 16  1  0
 16 17  1  1
 17 18  1  0
 18 19  1  1
 18 20  1  0
 20 21  2  0
 21 22  1  0
 22 23  2  0
 22 24  1  0
 24 25  2  0
 25 26  1  0
 26 27  1  6
 26 28  1  0
 28 29  1  1
 28 30  1  0
 30 31  1  6
 30 32  1  0
 32 33  1  0
 33 34  1  6
 33  6  1  0
 33 15  1  0
 28 16  1  0
 26 20  1  0
M  END
>  <supplier_code>  (441) 
DB00588

>  <zinc_id>  (441) 
ZINC000003920027

>  <catalog_short_name>  (441) 
dbfda

$$$$

     RDKit          3D

 33 37  0  0  0  0  0  0  0  0999 V2000
   -8.2354   -1.7478    0.0392 C   0  0  0  0  0  0  0  0  0  0  0  0
   -7.6467   -1.6471   -0.3212 O   0  0  0  0  0  0  0  0  0  0  0  0
   -6.4789   -0.9587   -0.6638 C   0  0  0  0  0  0  0  0  0  0  0  0
   -5.2842   -1.6537   -0.6893 C   0  0  0  0  0  0  0  0  0  0  0  0
   -4.1140   -1.0051   -0.3137 C   0  0  0  0  0  0  0  0  0  0  0  0
   -2.9292   -1.6627   -0.3139 N   0  0  0  0  0  0  0  0  0  0  0  0
   -1.8704   -1.1116    0.3185 C   0  0  0  0  0  0  0  0  0  0  0  0
   -0.5255   -1.4657   -0.0345 N   0  0  0  0  0  0  0  0  0  0  0  0
    0.4565   -1.1590    1.0040 C   0  0  0  0  0  0  0  0  0  0  0  0
    1.0414    0.1854    0.5774 C   0  0  0  0  0  0  0  0  0  0  0  0
    1.8619   -0.1586   -0.5842 N   0  0  0  0  0  0  0  0  0  0  0  0
    3.1735   -0.6477   -0.2521 C   0  0  0  0  0  0  0  0  0  0  0  0
    3.1563   -1.5935    0.5976 O   0  0  0  0  0  0  0  0  0  0  0  0
    4.0415    0.6327    0.3304 C   0  0  2  0  0  0  0  0  0  0  0  0
    4.4856    1.0898   -1.2270 C   0  0  0  0  0  0  0  0  0  0  0  0
    5.6021    1.9374   -0.9939 O   0  0  0  0  0  0  0  0  0  0  0  0
    6.7391    1.4902   -0.3124 C   0  0  0  0  0  0  0  0  0  0  0  0
    8.0227    1.7159   -0.7961 C   0  0  0  0  0  0  0  0  0  0  0  0
    9.0936    1.2002   -0.1167 C   0  0  0  0  0  0  0  0  0  0  0  0
    8.8490    0.3810    0.9749 C   0  0  0  0  0  0  0  0  0  0  0  0
    7.5575    0.0326    1.3434 C   0  0  0  0  0  0  0  0  0  0  0  0
    6.4806    0.5303    0.6601 C   0  0  0  0  0  0  0  0  0  0  0  0
    5.3339   -0.2530    0.4780 O   0  0  0  0  0  0  0  0  0  0  0  0
    1.1943   -0.7923   -1.6822 C   0  0  0  0  0  0  0  0  0  0  0  0
   -0.1629   -1.3186   -1.4094 C   0  0  0  0  0  0  0  0  0  0  0  0
   -2.1338   -0.0630    1.1362 N   0  0  0  0  0  0  0  0  0  0  0  0
   -3.1646    0.7799    0.8998 C   0  0  0  0  0  0  0  0  0  0  0  0
   -3.2328    2.0819    1.4680 N   0  0  0  0  0  0  0  0  0  0  0  0
   -4.1320    0.3399    0.0291 C   0  0  0  0  0  0  0  0  0  0  0  0
   -5.2759    1.0511   -0.2175 C   0  0  0  0  0  0  0  0  0  0  0  0
   -6.4616    0.4239   -0.5375 C   0  0  0  0  0  0  0  0  0  0  0  0
   -7.6951    1.0649   -0.3950 O   0  0  0  0  0  0  0  0  0  0  0  0
   -7.7462    2.3012    0.2980 C   0  0  0  0  0  0  0  0  0  0  0  0
  1  2  1  0
  2  3  1  0
  3  4  2  0
  4  5  1  0
  5  6  2  0
  6  7  1  0
  7  8  1  0
  8  9  1  0
  9 10  1  0
 10 11  1  0
 11 12  1  0
 12 13  2  0
 14 12  1  6
 14 15  1  0
 15 16  1  0
 16 17  1  0
 17 18  2  0
 18 19  1  0
 19 20  2  0
 20 21  1  0
 21 22  2  0
 22 23  1  0
 11 24  1  0
 24 25  1  0
  7 26  2  0
 26 27  1  0
 27 28  1  0
 27 29  2  0
 29 30  1  0
 30 31  2  0
 31 32  1  0
 32 33  1  0
 31  3  1  0
 29  5  1  0
 25  8  1  0
 23 14  1  0
 22 17  1  0
M  END
>  <supplier_code>  (442) 
DB00590

>  <zinc_id>  (442) 
ZINC000094566092

>  <catalog_short_name>  (442) 
dbfda

$$$$

     RDKit          3D

 33 37  0  0  0  0  0  0  0  0999 V2000
    7.1375   -1.6839    1.4744 C   0  0  0  0  0  0  0  0  0  0  0  0
    6.9248   -1.2587    1.0596 O   0  0  0  0  0  0  0  0  0  0  0  0
    5.9841   -0.2606    0.7906 C   0  0  0  0  0  0  0  0  0  0  0  0
    4.6960   -0.4722    1.2006 C   0  0  0  0  0  0  0  0  0  0  0  0
    3.6767    0.1667    0.5130 C   0  0  0  0  0  0  0  0  0  0  0  0
    2.4063    0.0452    0.8937 N   0  0  0  0  0  0  0  0  0  0  0  0
    1.3530    0.5083    0.1764 C   0  0  0  0  0  0  0  0  0  0  0  0
    0.0970   -0.0869    0.5427 N   0  0  0  0  0  0  0  0  0  0  0  0
   -0.2343   -1.2481   -0.2590 C   0  0  0  0  0  0  0  0  0  0  0  0
   -1.4414   -1.9895    0.2302 C   0  0  0  0  0  0  0  0  0  0  0  0
   -2.1161   -1.0724    1.1534 N   0  0  0  0  0  0  0  0  0  0  0  0
   -2.5627    0.1317    0.6545 C   0  0  0  0  0  0  0  0  0  0  0  0
   -2.5323    1.2578    1.2112 O   0  0  0  0  0  0  0  0  0  0  0  0
   -3.8025    0.1762   -0.4086 C   0  0  1  0  0  0  0  0  0  0  0  0
   -3.9857   -1.4871   -0.5165 C   0  0  0  0  0  0  0  0  0  0  0  0
   -5.1980   -1.5019   -1.2680 O   0  0  0  0  0  0  0  0  0  0  0  0
   -6.2488   -0.6631   -0.9703 C   0  0  0  0  0  0  0  0  0  0  0  0
   -7.3494   -0.4774   -1.7954 C   0  0  0  0  0  0  0  0  0  0  0  0
   -8.1003    0.6770   -1.6031 C   0  0  0  0  0  0  0  0  0  0  0  0
   -8.3045    1.0760   -0.2859 C   0  0  0  0  0  0  0  0  0  0  0  0
   -7.2353    0.8155    0.5667 C   0  0  0  0  0  0  0  0  0  0  0  0
   -6.1430    0.0682    0.2084 C   0  0  0  0  0  0  0  0  0  0  0  0
   -4.8616    0.2562    0.7450 O   0  0  0  0  0  0  0  0  0  0  0  0
   -1.3264   -0.9247    2.3784 C   0  0  0  0  0  0  0  0  0  0  0  0
   -0.1915    0.0076    1.9715 C   0  0  0  0  0  0  0  0  0  0  0  0
    1.6100    0.9318   -1.0782 N   0  0  0  0  0  0  0  0  0  0  0  0
    2.8775    1.2702   -1.4228 C   0  0  0  0  0  0  0  0  0  0  0  0
    3.2039    1.5389   -2.7913 N   0  0  0  0  0  0  0  0  0  0  0  0
    3.9341    0.9430   -0.5965 C   0  0  0  0  0  0  0  0  0  0  0  0
    5.2340    1.3054   -0.8508 C   0  0  0  0  0  0  0  0  0  0  0  0
    6.2664    0.6895   -0.1543 C   0  0  0  0  0  0  0  0  0  0  0  0
    7.5247    0.7873   -0.7444 O   0  0  0  0  0  0  0  0  0  0  0  0
    8.7077    0.4739   -0.0396 C   0  0  0  0  0  0  0  0  0  0  0  0
  1  2  1  0
  2  3  1  0
  3  4  2  0
  4  5  1  0
  5  6  2  0
  6  7  1  0
  7  8  1  0
  8  9  1  0
  9 10  1  0
 10 11  1  0
 11 12  1  0
 12 13  2  0
 14 12  1  1
 14 15  1  0
 15 16  1  0
 16 17  1  0
 17 18  2  0
 18 19  1  0
 19 20  2  0
 20 21  1  0
 21 22  2  0
 22 23  1  0
 11 24  1  0
 24 25  1  0
  7 26  2  0
 26 27  1  0
 27 28  1  0
 27 29  2  0
 29 30  1  0
 30 31  2  0
 31 32  1  0
 32 33  1  0
 31  3  1  0
 29  5  1  0
 25  8  1  0
 23 14  1  0
 22 17  1  0
M  END
>  <supplier_code>  (443) 
DB00590

>  <zinc_id>  (443) 
ZINC000094566093

>  <catalog_short_name>  (443) 
dbfda

$$$$

     RDKit          3D

 32 36  0  0  0  0  0  0  0  0999 V2000
   -2.7884   -2.2850   -0.1351 C   0  0  0  0  0  0  0  0  0  0  0  0
   -3.2503   -1.6504   -0.2690 C   0  0  0  0  0  0  0  0  0  0  0  0
   -4.5915   -2.3556   -0.4484 C   0  0  0  0  0  0  0  0  0  0  0  0
   -2.9165   -0.8445   -1.3124 O   0  0  0  0  0  0  0  0  0  0  0  0
   -3.1835    0.5643   -0.8266 C   0  0  2  0  0  0  0  0  0  0  0  0
   -1.7116    1.1367   -1.3302 C   0  0  0  0  0  0  0  0  0  0  0  0
   -0.8904   -0.0862   -0.6766 C   0  0  1  0  0  0  0  0  0  0  0  0
    0.5845    0.7141   -0.4701 C   0  0  2  0  0  0  0  0  0  0  0  0
    1.0498    0.6568   -2.0271 C   0  0  0  0  0  0  0  0  0  0  0  0
    2.4612    1.4555   -1.6770 C   0  0  2  0  0  0  0  0  0  0  0  0
    3.0115    1.1829   -3.0575 F   0  0  0  0  0  0  0  0  0  0  0  0
    3.1938    0.1372   -1.0720 C   0  0  0  0  0  0  0  0  0  0  0  0
    4.4839    0.4765   -0.9620 C   0  0  0  0  0  0  0  0  0  0  0  0
    5.3832   -0.2197   -0.0358 C   0  0  0  0  0  0  0  0  0  0  0  0
    6.6392   -0.0616   -0.1134 O   0  0  0  0  0  0  0  0  0  0  0  0
    4.7922   -1.3496    0.6939 C   0  0  0  0  0  0  0  0  0  0  0  0
    3.4812   -1.5033    0.5633 C   0  0  0  0  0  0  0  0  0  0  0  0
    2.6300   -0.3305    0.2423 C   0  0  1  0  0  0  0  0  0  0  0  0
    2.6967    0.7634    1.2635 C   0  0  0  0  0  0  0  0  0  0  0  0
    1.2986   -0.6794   -0.1122 C   0  0  2  0  0  0  0  0  0  0  0  0
    1.1022   -1.5655   -1.1268 F   0  0  0  0  0  0  0  0  0  0  0  0
    0.3890   -1.3867    1.0396 C   0  0  1  0  0  0  0  0  0  0  0  0
    1.4732   -1.3252    2.1090 O   0  0  0  0  0  0  0  0  0  0  0  0
   -0.3346   -0.0337    1.6519 C   0  0  0  0  0  0  0  0  0  0  0  0
   -1.3461    0.4568    0.7793 C   0  0  1  0  0  0  0  0  0  0  0  0
   -1.1578    1.9836    0.7677 C   0  0  0  0  0  0  0  0  0  0  0  0
   -2.7115    0.2356    0.7146 C   0  0  1  0  0  0  0  0  0  0  0  0
   -3.4763    1.3119    1.4358 C   0  0  0  0  0  0  0  0  0  0  0  0
   -3.0777    1.7848    2.4991 O   0  0  0  0  0  0  0  0  0  0  0  0
   -4.8930    1.6515    1.0884 C   0  0  0  0  0  0  0  0  0  0  0  0
   -4.9736    2.4025   -0.0942 O   0  0  0  0  0  0  0  0  0  0  0  0
   -3.3675   -0.9288    0.8983 O   0  0  0  0  0  0  0  0  0  0  0  0
  1  2  1  0
  2  3  1  0
  2  4  1  0
  5  4  1  6
  5  6  1  0
  7  6  1  6
  7  8  1  0
  8  9  1  6
  9 10  1  0
 10 11  1  6
 10 12  1  0
 12 13  2  0
 13 14  1  0
 14 15  2  0
 14 16  1  0
 16 17  2  0
 17 18  1  0
 18 19  1  1
 18 20  1  0
 20 21  1  6
 20 22  1  0
 22 23  1  1
 22 24  1  0
 24 25  1  0
 25 26  1  6
 25 27  1  0
 27 28  1  1
 28 29  2  0
 28 30  1  0
 30 31  1  0
 27 32  1  0
 32  2  1  0
 27  5  1  0
 25  7  1  0
 20  8  1  0
 18 12  1  0
M  END
>  <supplier_code>  (444) 
DB00591

>  <zinc_id>  (444) 
ZINC000003977981

>  <catalog_short_name>  (444) 
dbfda

$$$$

     RDKit          3D

 10 10  0  0  0  0  0  0  0  0999 V2000
   -2.6319   -0.1946   -0.8663 C   0  0  0  0  0  0  0  0  0  0  0  0
   -1.3566   -0.7096   -1.0918 C   0  0  0  0  0  0  0  0  0  0  0  0
   -0.5216   -0.4679    0.1601 C   0  0  1  0  0  0  0  0  0  0  0  0
   -1.2558   -0.8913    1.4074 C   0  0  0  0  0  0  0  0  0  0  0  0
    0.8058   -1.1957    0.0931 C   0  0  0  0  0  0  0  0  0  0  0  0
    1.8311   -0.1498   -0.1047 C   0  0  0  0  0  0  0  0  0  0  0  0
    3.0280   -0.3716   -0.3896 O   0  0  0  0  0  0  0  0  0  0  0  0
    1.2546    1.0923    0.2268 N   0  0  0  0  0  0  0  0  0  0  0  0
   -0.1614    0.9743    0.2423 C   0  0  0  0  0  0  0  0  0  0  0  0
   -0.9922    1.9139    0.3228 O   0  0  0  0  0  0  0  0  0  0  0  0
  1  2  1  0
  3  2  1  6
  3  4  1  0
  3  5  1  0
  5  6  1  0
  6  7  2  0
  6  8  1  0
  8  9  1  0
  9 10  2  0
  9  3  1  0
M  END
>  <supplier_code>  (445) 
DB00593

>  <zinc_id>  (445) 
ZINC000001530805

>  <catalog_short_name>  (445) 
dbfda

$$$$

     RDKit          3D

 10 10  0  0  0  0  0  0  0  0999 V2000
   -2.5956    1.1968   -0.2625 C   0  0  0  0  0  0  0  0  0  0  0  0
   -1.7009    0.3644   -1.0417 C   0  0  0  0  0  0  0  0  0  0  0  0
   -0.3700    0.3028   -0.3754 C   0  0  2  0  0  0  0  0  0  0  0  0
    0.2547    1.6375   -0.0974 C   0  0  0  0  0  0  0  0  0  0  0  0
    0.6551   -0.5159   -1.1523 C   0  0  0  0  0  0  0  0  0  0  0  0
    1.7235   -0.6126   -0.1063 C   0  0  0  0  0  0  0  0  0  0  0  0
    2.8177    0.0148   -0.2497 O   0  0  0  0  0  0  0  0  0  0  0  0
    0.9957   -0.7901    1.1161 N   0  0  0  0  0  0  0  0  0  0  0  0
   -0.3837   -0.4591    0.9106 C   0  0  0  0  0  0  0  0  0  0  0  0
   -1.3963   -1.1386    1.2586 O   0  0  0  0  0  0  0  0  0  0  0  0
  1  2  1  0
  3  2  1  6
  3  4  1  0
  3  5  1  0
  5  6  1  0
  6  7  2  0
  6  8  1  0
  8  9  1  0
  9 10  2  0
  9  3  1  0
M  END
>  <supplier_code>  (446) 
DB00593

>  <zinc_id>  (446) 
ZINC000001530806

>  <catalog_short_name>  (446) 
dbfda

$$$$

     RDKit          3D

 15 15  0  0  0  0  0  0  0  0999 V2000
    3.6843    0.8813   -0.3577 N   0  0  0  0  0  0  0  0  0  0  0  0
    3.4581   -0.4915   -0.0194 C   0  0  0  0  0  0  0  0  0  0  0  0
    4.5954   -1.2963    0.2413 N   0  0  0  0  0  0  0  0  0  0  0  0
    2.2430   -0.8935    0.1140 N   0  0  0  0  0  0  0  0  0  0  0  0
    1.1743   -0.0175    0.4385 C   0  0  0  0  0  0  0  0  0  0  0  0
    1.1951    0.5104    1.5908 O   0  0  0  0  0  0  0  0  0  0  0  0
   -0.1481   -0.1058   -0.1940 C   0  0  0  0  0  0  0  0  0  0  0  0
   -1.0100   -1.0848    0.1744 N   0  0  0  0  0  0  0  0  0  0  0  0
   -2.3422   -0.8383    0.1387 C   0  0  0  0  0  0  0  0  0  0  0  0
   -3.5243   -2.1260    0.3477 Cl  0  0  0  0  0  0  0  0  0  0  0  0
   -2.8349    0.4432   -0.0699 C   0  0  0  0  0  0  0  0  0  0  0  0
   -3.9840    0.8621    0.6564 N   0  0  0  0  0  0  0  0  0  0  0  0
   -2.0177    1.3104   -0.7133 N   0  0  0  0  0  0  0  0  0  0  0  0
   -0.6994    1.0096   -0.8063 C   0  0  0  0  0  0  0  0  0  0  0  0
    0.2102    1.8366   -1.5411 N   0  0  0  0  0  0  0  0  0  0  0  0
  1  2  1  0
  2  3  1  0
  2  4  2  3
  4  5  1  0
  5  6  2  0
  5  7  1  0
  7  8  2  0
  8  9  1  0
  9 10  1  0
  9 11  2  0
 11 12  1  0
 11 13  1  0
 13 14  2  0
 14 15  1  0
 14  7  1  0
M  END
>  <supplier_code>  (447) 
DB00594

>  <zinc_id>  (447) 
ZINC000004340269

>  <catalog_short_name>  (447) 
dbfda

$$$$

     RDKit          3D

 33 36  0  0  0  0  0  0  0  0999 V2000
   -3.8981   -3.8908    0.1685 C   0  0  0  0  0  0  0  0  0  0  0  0
   -4.4430   -2.8867    0.4771 C   0  0  0  0  0  0  0  0  0  0  0  0
   -3.5780   -1.7127    0.7865 C   0  0  0  0  0  0  0  0  0  0  0  0
   -3.4429   -1.2560    1.9622 O   0  0  0  0  0  0  0  0  0  0  0  0
   -2.6482   -1.1821   -0.0800 O   0  0  0  0  0  0  0  0  0  0  0  0
   -2.5645    0.2327   -0.2546 C   0  0  2  0  0  0  0  0  0  0  0  0
   -3.6840    0.9751    0.2923 C   0  0  0  0  0  0  0  0  0  0  0  0
   -4.8050    0.5207    0.1663 O   0  0  0  0  0  0  0  0  0  0  0  0
   -3.5748    2.3183    0.9180 C   0  0  0  0  0  0  0  0  0  0  0  0
   -5.0968    3.2178    0.6844 Cl  0  0  0  0  0  0  0  0  0  0  0  0
   -2.6809    0.2236   -1.8810 C   0  0  1  0  0  0  0  0  0  0  0  0
   -3.1795    1.7765   -1.9923 C   0  0  0  0  0  0  0  0  0  0  0  0
   -1.1194    0.5946   -2.1885 C   0  0  0  0  0  0  0  0  0  0  0  0
   -0.5617   -0.3295   -0.9850 C   0  0  1  0  0  0  0  0  0  0  0  0
    0.9497    0.4275   -0.9327 C   0  0  2  0  0  0  0  0  0  0  0  0
    1.5898   -0.7683   -1.8303 C   0  0  0  0  0  0  0  0  0  0  0  0
    3.1355   -0.2095   -1.9992 C   0  0  2  0  0  0  0  0  0  0  0  0
    3.5715   -1.4823   -2.6871 F   0  0  0  0  0  0  0  0  0  0  0  0
    3.5811   -0.7910   -0.5435 C   0  0  0  0  0  0  0  0  0  0  0  0
    4.9094   -0.6955   -0.4368 C   0  0  0  0  0  0  0  0  0  0  0  0
    5.5736   -0.0927    0.7253 C   0  0  0  0  0  0  0  0  0  0  0  0
    6.8338    0.0419    0.7844 O   0  0  0  0  0  0  0  0  0  0  0  0
    4.7468    0.0719    1.9278 C   0  0  0  0  0  0  0  0  0  0  0  0
    3.4799   -0.3271    1.7932 C   0  0  0  0  0  0  0  0  0  0  0  0
    2.8455   -0.0162    0.5043 C   0  0  1  0  0  0  0  0  0  0  0  0
    3.1835    1.4306    0.1660 C   0  0  0  0  0  0  0  0  0  0  0  0
    1.3925   -0.2940    0.4263 C   0  0  2  0  0  0  0  0  0  0  0  0
    0.9612   -1.5274    0.5142 F   0  0  0  0  0  0  0  0  0  0  0  0
    0.7906    0.5947    1.6612 C   0  0  1  0  0  0  0  0  0  0  0  0
    0.8377    1.9157    0.9101 O   0  0  0  0  0  0  0  0  0  0  0  0
   -0.7872    0.2901    1.3229 C   0  0  0  0  0  0  0  0  0  0  0  0
   -1.2095    0.7272    0.0476 C   0  0  2  0  0  0  0  0  0  0  0  0
   -1.1085    2.1029   -0.4278 C   0  0  0  0  0  0  0  0  0  0  0  0
  1  2  1  0
  2  3  1  0
  3  4  2  0
  3  5  1  0
  6  5  1  1
  6  7  1  0
  7  8  2  0
  7  9  1  0
  9 10  1  0
  6 11  1  0
 11 12  1  1
 11 13  1  0
 14 13  1  6
 14 15  1  0
 15 16  1  6
 16 17  1  0
 17 18  1  6
 17 19  1  0
 19 20  2  0
 20 21  1  0
 21 22  2  0
 21 23  1  0
 23 24  2  0
 24 25  1  0
 25 26  1  6
 25 27  1  0
 27 28  1  6
 27 29  1  0
 29 30  1  6
 29 31  1  0
 31 32  1  0
 32 33  1  6
 32  6  1  0
 32 14  1  0
 27 15  1  0
 25 19  1  0
M  END
>  <supplier_code>  (448) 
DB00596

>  <zinc_id>  (448) 
ZINC000003920028

>  <catalog_short_name>  (448) 
dbfda

$$$$

     RDKit          3D

 29 32  0  0  0  0  0  0  0  0999 V2000
    3.1081   -2.9619    0.0808 C   0  0  0  0  0  0  0  0  0  0  0  0
    3.0022   -1.7877   -1.0453 C   0  0  1  0  0  0  0  0  0  0  0  0
    1.3807   -1.9317   -1.1880 C   0  0  0  0  0  0  0  0  0  0  0  0
    1.0451   -0.3717   -0.9602 C   0  0  1  0  0  0  0  0  0  0  0  0
   -0.4859   -0.6587   -0.3315 C   0  0  2  0  0  0  0  0  0  0  0  0
   -1.1413   -0.8418   -1.7917 C   0  0  0  0  0  0  0  0  0  0  0  0
   -2.7154   -1.1688   -1.4173 C   0  0  2  0  0  0  0  0  0  0  0  0
   -3.1841    0.0153   -2.2369 F   0  0  0  0  0  0  0  0  0  0  0  0
   -2.8129   -0.3658   -0.0181 C   0  0  0  0  0  0  0  0  0  0  0  0
   -3.9464   -0.6322    0.6473 C   0  0  0  0  0  0  0  0  0  0  0  0
   -4.5646    0.5520    1.2793 C   0  0  0  0  0  0  0  0  0  0  0  0
   -5.7716    0.4289    1.6516 O   0  0  0  0  0  0  0  0  0  0  0  0
   -4.2703    1.7715    0.4993 C   0  0  0  0  0  0  0  0  0  0  0  0
   -3.0908    1.9181   -0.1160 C   0  0  0  0  0  0  0  0  0  0  0  0
   -2.0852    0.8795    0.2857 C   0  0  1  0  0  0  0  0  0  0  0  0
   -2.0531    0.7734    1.8214 C   0  0  0  0  0  0  0  0  0  0  0  0
   -0.8520    0.9010   -0.2986 C   0  0  2  0  0  0  0  0  0  0  0  0
   -0.7859    1.4493   -1.5679 F   0  0  0  0  0  0  0  0  0  0  0  0
    0.4454    1.6978    0.2380 C   0  0  1  0  0  0  0  0  0  0  0  0
   -0.2979    2.4253    1.3488 O   0  0  0  0  0  0  0  0  0  0  0  0
    1.0018    0.5342    1.2631 C   0  0  0  0  0  0  0  0  0  0  0  0
    1.6643   -0.5078    0.5375 C   0  0  1  0  0  0  0  0  0  0  0  0
    1.0498   -1.7586    1.1542 C   0  0  0  0  0  0  0  0  0  0  0  0
    2.9740   -0.5638    0.0324 C   0  0  2  0  0  0  0  0  0  0  0  0
    3.1811    0.4478   -0.9329 O   0  0  0  0  0  0  0  0  0  0  0  0
    4.1728   -0.6152    0.8416 C   0  0  0  0  0  0  0  0  0  0  0  0
    4.4784   -1.5228    1.6184 O   0  0  0  0  0  0  0  0  0  0  0  0
    5.4294    0.1135    0.4363 C   0  0  0  0  0  0  0  0  0  0  0  0
    5.1243    1.7810   -0.0391 Cl  0  0  0  0  0  0  0  0  0  0  0  0
  2  1  1  1
  2  3  1  0
  4  3  1  6
  4  5  1  0
  5  6  1  6
  6  7  1  0
  7  8  1  6
  7  9  1  0
  9 10  2  0
 10 11  1  0
 11 12  2  0
 11 13  1  0
 13 14  2  0
 14 15  1  0
 15 16  1  1
 15 17  1  0
 17 18  1  6
 17 19  1  0
 19 20  1  1
 19 21  1  0
 21 22  1  0
 22 23  1  1
 22 24  1  0
 24 25  1  6
 24 26  1  0
 26 27  2  0
 26 28  1  0
 28 29  1  0
 24  2  1  0
 22  4  1  0
 17  5  1  0
 15  9  1  0
M  END
>  <supplier_code>  (449) 
DB00596

>  <zinc_id>  (449) 
ZINC000004214603

>  <catalog_short_name>  (449) 
dbfda

$$$$

     RDKit          3D

 33 36  0  0  0  0  0  0  0  0999 V2000
   -3.8289    3.4092   -0.4396 C   0  0  0  0  0  0  0  0  0  0  0  0
   -3.8869    2.9643   -0.7489 C   0  0  0  0  0  0  0  0  0  0  0  0
   -3.8305    1.5275   -0.3447 C   0  0  0  0  0  0  0  0  0  0  0  0
   -4.4912    1.2305    0.6965 O   0  0  0  0  0  0  0  0  0  0  0  0
   -2.7397    0.6935   -0.6052 O   0  0  0  0  0  0  0  0  0  0  0  0
   -2.6061   -0.5524    0.1068 C   0  0  2  0  0  0  0  0  0  0  0  0
   -3.6657   -1.3984   -0.3354 C   0  0  0  0  0  0  0  0  0  0  0  0
   -4.3782   -1.0903   -1.2981 O   0  0  0  0  0  0  0  0  0  0  0  0
   -4.3417   -2.5199    0.3986 C   0  0  0  0  0  0  0  0  0  0  0  0
   -3.4942   -4.0030   -0.0331 Cl  0  0  0  0  0  0  0  0  0  0  0  0
   -2.8973    0.0517    1.5865 C   0  0  1  0  0  0  0  0  0  0  0  0
   -2.9735   -1.3908    2.3446 C   0  0  0  0  0  0  0  0  0  0  0  0
   -1.3388    0.2823    2.0098 C   0  0  0  0  0  0  0  0  0  0  0  0
   -0.7344    0.5583    0.5410 C   0  0  1  0  0  0  0  0  0  0  0  0
    0.8164    0.0874    1.0297 C   0  0  2  0  0  0  0  0  0  0  0  0
    1.3525    1.6190    1.0173 C   0  0  0  0  0  0  0  0  0  0  0  0
    2.6890    1.2887    1.9333 C   0  0  2  0  0  0  0  0  0  0  0  0
    3.2841    2.6415    1.6138 F   0  0  0  0  0  0  0  0  0  0  0  0
    3.4741    0.5829    0.7160 C   0  0  0  0  0  0  0  0  0  0  0  0
    4.7815    0.5397    0.8342 C   0  0  0  0  0  0  0  0  0  0  0  0
    5.5634    0.2586   -0.3831 C   0  0  0  0  0  0  0  0  0  0  0  0
    6.7839    0.6002   -0.2880 O   0  0  0  0  0  0  0  0  0  0  0  0
    4.7895    0.5180   -1.6089 C   0  0  0  0  0  0  0  0  0  0  0  0
    3.4570    0.6127   -1.5831 C   0  0  0  0  0  0  0  0  0  0  0  0
    2.8335   -0.0624   -0.3850 C   0  0  1  0  0  0  0  0  0  0  0  0
    3.4032   -1.4790   -0.4939 C   0  0  0  0  0  0  0  0  0  0  0  0
    1.3736   -0.1569   -0.4616 C   0  0  2  0  0  0  0  0  0  0  0  0
    0.8125    0.6457   -1.3402 F   0  0  0  0  0  0  0  0  0  0  0  0
    0.9243   -1.7095   -0.7325 C   0  0  2  0  0  0  0  0  0  0  0  0
    1.4026   -1.6628   -2.1712 O   0  0  0  0  0  0  0  0  0  0  0  0
   -0.6121   -1.2843   -1.1717 C   0  0  0  0  0  0  0  0  0  0  0  0
   -1.2157   -0.9302    0.1177 C   0  0  2  0  0  0  0  0  0  0  0  0
   -0.7060   -1.8719    1.1541 C   0  0  0  0  0  0  0  0  0  0  0  0
  1  2  1  0
  2  3  1  0
  3  4  2  0
  3  5  1  0
  6  5  1  6
  6  7  1  0
  7  8  2  0
  7  9  1  0
  9 10  1  0
  6 11  1  0
 11 12  1  1
 11 13  1  0
 14 13  1  1
 14 15  1  0
 15 16  1  6
 16 17  1  0
 17 18  1  6
 17 19  1  0
 19 20  2  0
 20 21  1  0
 21 22  2  0
 21 23  1  0
 23 24  2  0
 24 25  1  0
 25 26  1  6
 25 27  1  0
 27 28  1  6
 27 29  1  0
 29 30  1  6
 29 31  1  0
 31 32  1  0
 32 33  1  1
 32  6  1  0
 32 14  1  0
 27 15  1  0
 25 19  1  0
M  END
>  <supplier_code>  (450) 
DB00596

>  <zinc_id>  (450) 
ZINC000072481720

>  <catalog_short_name>  (450) 
dbfda

$$$$

     RDKit          3D

 28 28  0  0  0  0  0  0  0  0999 V2000
    4.7407   -1.6096    2.4260 C   0  0  0  0  0  0  0  0  0  0  0  0
    4.3906   -0.4624    1.2477 C   0  0  1  0  0  0  0  0  0  0  0  0
    4.7301   -1.4684    0.1217 O   0  0  0  0  0  0  0  0  0  0  0  0
    2.7734   -0.9224    1.2288 C   0  0  0  0  0  0  0  0  0  0  0  0
    2.4233   -0.7153   -0.1528 N   0  0  0  0  0  0  0  0  0  0  0  0
    2.1732    0.6570   -0.4923 C   0  0  0  0  0  0  0  0  0  0  0  0
    1.5097    1.4424    0.6037 C   0  0  0  0  0  0  0  0  0  0  0  0
    0.8273    2.5792   -0.0010 N   0  0  0  0  0  0  0  0  0  0  0  0
    0.8392    2.4547   -1.4528 C   0  0  0  0  0  0  0  0  0  0  0  0
    1.1612    3.7443   -2.1064 C   0  0  0  0  0  0  0  0  0  0  0  0
    1.8551    3.7562   -3.1521 O   0  0  0  0  0  0  0  0  0  0  0  0
    0.9615    4.9380   -1.4442 O   0  0  0  0  0  0  0  0  0  0  0  0
   -0.5726    2.5340    0.4125 C   0  0  0  0  0  0  0  0  0  0  0  0
   -1.1684    1.2664   -0.1817 C   0  0  0  0  0  0  0  0  0  0  0  0
   -2.0455    0.6934    0.8014 N   0  0  0  0  0  0  0  0  0  0  0  0
   -3.4445    0.8877    0.5161 C   0  0  0  0  0  0  0  0  0  0  0  0
   -4.0597    1.5391    1.7138 C   0  0  0  0  0  0  0  0  0  0  0  0
   -5.3177    1.4675    1.8436 O   0  0  0  0  0  0  0  0  0  0  0  0
   -3.3352    1.7193    2.8961 O   0  0  0  0  0  0  0  0  0  0  0  0
   -1.7126   -0.6611    1.1571 C   0  0  0  0  0  0  0  0  0  0  0  0
   -1.7765   -1.6206    0.0056 C   0  0  0  0  0  0  0  0  0  0  0  0
   -0.6933   -2.5213   -0.0971 N   0  0  0  0  0  0  0  0  0  0  0  0
   -0.9981   -3.9067   -0.1284 C   0  0  0  0  0  0  0  0  0  0  0  0
   -1.5630   -4.1955   -1.4844 C   0  0  0  0  0  0  0  0  0  0  0  0
   -0.7665   -4.0028   -2.4485 O   0  0  0  0  0  0  0  0  0  0  0  0
   -2.8877   -3.8171   -1.7231 O   0  0  0  0  0  0  0  0  0  0  0  0
    0.5330   -2.1461    0.5083 C   0  0  0  0  0  0  0  0  0  0  0  0
    1.4231   -1.6298   -0.6176 C   0  0  0  0  0  0  0  0  0  0  0  0
  2  1  1  1
  2  3  1  0
  2  4  1  0
  4  5  1  0
  5  6  1  0
  6  7  1  0
  7  8  1  0
  8  9  1  0
  9 10  1  0
 10 11  2  0
 10 12  1  0
  8 13  1  0
 13 14  1  0
 14 15  1  0
 15 16  1  0
 16 17  1  0
 17 18  2  0
 17 19  1  0
 15 20  1  0
 20 21  1  0
 21 22  1  0
 22 23  1  0
 23 24  1  0
 24 25  2  0
 24 26  1  0
 22 27  1  0
 27 28  1  0
 28  5  1  0
M  END
>  <supplier_code>  (451) 
DB00597

>  <zinc_id>  (451) 
ZINC000022016976

>  <catalog_short_name>  (451) 
dbfda

$$$$

     RDKit          3D

 28 28  0  0  0  0  0  0  0  0999 V2000
    4.7012    2.3010    1.0420 C   0  0  0  0  0  0  0  0  0  0  0  0
    4.7672    0.6209    1.0116 C   0  0  2  0  0  0  0  0  0  0  0  0
    5.9550    0.6503    0.0199 O   0  0  0  0  0  0  0  0  0  0  0  0
    3.6624    0.5636   -0.2551 C   0  0  0  0  0  0  0  0  0  0  0  0
    2.4076    0.3536    0.4668 N   0  0  0  0  0  0  0  0  0  0  0  0
    1.6899    1.6233    0.3803 C   0  0  0  0  0  0  0  0  0  0  0  0
    0.7319    1.6110   -0.7983 C   0  0  0  0  0  0  0  0  0  0  0  0
   -0.4955    2.1972   -0.3437 N   0  0  0  0  0  0  0  0  0  0  0  0
   -0.5901    3.6136   -0.5293 C   0  0  0  0  0  0  0  0  0  0  0  0
   -0.5924    4.3325    0.7827 C   0  0  0  0  0  0  0  0  0  0  0  0
   -0.4290    5.5760    0.7718 O   0  0  0  0  0  0  0  0  0  0  0  0
   -1.2747    3.7651    1.8613 O   0  0  0  0  0  0  0  0  0  0  0  0
   -1.6776    1.4691   -0.7028 C   0  0  0  0  0  0  0  0  0  0  0  0
   -2.0818    0.6778    0.5349 C   0  0  0  0  0  0  0  0  0  0  0  0
   -2.6224   -0.5844    0.1352 N   0  0  0  0  0  0  0  0  0  0  0  0
   -3.8642   -0.8410    0.8196 C   0  0  0  0  0  0  0  0  0  0  0  0
   -5.0001   -0.7579   -0.1399 C   0  0  0  0  0  0  0  0  0  0  0  0
   -6.1886   -0.8071    0.2384 O   0  0  0  0  0  0  0  0  0  0  0  0
   -4.7148   -0.8361   -1.4919 O   0  0  0  0  0  0  0  0  0  0  0  0
   -1.7007   -1.6759    0.1547 C   0  0  0  0  0  0  0  0  0  0  0  0
   -0.5849   -1.5365    1.1476 C   0  0  0  0  0  0  0  0  0  0  0  0
    0.3989   -2.5697    0.8308 N   0  0  0  0  0  0  0  0  0  0  0  0
    0.0832   -3.2144   -0.4431 C   0  0  0  0  0  0  0  0  0  0  0  0
    1.0220   -4.3602   -0.6014 C   0  0  0  0  0  0  0  0  0  0  0  0
    0.8536   -5.1811   -1.5336 O   0  0  0  0  0  0  0  0  0  0  0  0
    2.2607   -4.3794    0.0435 O   0  0  0  0  0  0  0  0  0  0  0  0
    1.6884   -1.9324    0.6860 C   0  0  0  0  0  0  0  0  0  0  0  0
    1.5947   -0.6788   -0.1463 C   0  0  0  0  0  0  0  0  0  0  0  0
  2  1  1  6
  2  3  1  0
  2  4  1  0
  4  5  1  0
  5  6  1  0
  6  7  1  0
  7  8  1  0
  8  9  1  0
  9 10  1  0
 10 11  2  0
 10 12  1  0
  8 13  1  0
 13 14  1  0
 14 15  1  0
 15 16  1  0
 16 17  1  0
 17 18  2  0
 17 19  1  0
 15 20  1  0
 20 21  1  0
 21 22  1  0
 22 23  1  0
 23 24  1  0
 24 25  2  0
 24 26  1  0
 22 27  1  0
 27 28  1  0
 28  5  1  0
M  END
>  <supplier_code>  (452) 
DB00597

>  <zinc_id>  (452) 
ZINC000022016981

>  <catalog_short_name>  (452) 
dbfda

$$$$

     RDKit          3D

 24 25  0  0  0  0  0  0  0  0999 V2000
    2.6689    2.5490   -1.1358 C   0  0  0  0  0  0  0  0  0  0  0  0
    1.5516    1.9387   -0.0751 C   0  0  2  0  0  0  0  0  0  0  0  0
    2.5919    0.7705    0.4657 C   0  0  0  0  0  0  0  0  0  0  0  0
    2.9532   -0.0958   -0.6757 C   0  0  0  0  0  0  0  0  0  0  0  0
    4.4121   -0.3552   -0.5884 C   0  0  0  0  0  0  0  0  0  0  0  0
    4.9687   -1.6080   -0.6061 C   0  0  0  0  0  0  0  0  0  0  0  0
    6.3154   -1.7579   -0.7211 C   0  0  0  0  0  0  0  0  0  0  0  0
    7.0541   -0.5982   -0.9211 C   0  0  0  0  0  0  0  0  0  0  0  0
    6.5133    0.6609   -0.7829 C   0  0  0  0  0  0  0  0  0  0  0  0
    5.2451    0.6938   -0.2123 C   0  0  0  0  0  0  0  0  0  0  0  0
    0.8950    1.0181   -1.1933 N   0  0  0  0  0  0  0  0  0  0  0  0
   -0.5435    1.1157   -0.9378 C   0  0  0  0  0  0  0  0  0  0  0  0
   -0.6262    0.0888    0.3798 C   0  0  1  0  0  0  0  0  0  0  0  0
   -0.4228    1.2554    1.3647 O   0  0  0  0  0  0  0  0  0  0  0  0
   -2.2583    0.2561    0.4676 C   0  0  0  0  0  0  0  0  0  0  0  0
   -2.5836   -0.1974    1.7446 C   0  0  0  0  0  0  0  0  0  0  0  0
   -3.7755   -0.8740    1.9828 C   0  0  0  0  0  0  0  0  0  0  0  0
   -4.7157   -0.8018    0.9839 C   0  0  0  0  0  0  0  0  0  0  0  0
   -6.0760   -0.9109    1.2519 O   0  0  0  0  0  0  0  0  0  0  0  0
   -4.2327   -0.7779   -0.3183 C   0  0  0  0  0  0  0  0  0  0  0  0
   -5.2642   -0.6270   -1.3547 C   0  0  0  0  0  0  0  0  0  0  0  0
   -6.0157   -1.8214   -1.5985 N   0  0  0  0  0  0  0  0  0  0  0  0
   -5.7521    0.5257   -1.5641 O   0  0  0  0  0  0  0  0  0  0  0  0
   -2.9030   -0.4472   -0.5478 C   0  0  0  0  0  0  0  0  0  0  0  0
  2  1  1  6
  2  3  1  0
  3  4  1  0
  4  5  1  0
  5  6  2  0
  6  7  1  0
  7  8  2  0
  8  9  1  0
  9 10  2  0
  2 11  1  0
 11 12  1  0
 13 12  1  6
 13 14  1  0
 13 15  1  0
 15 16  2  0
 16 17  1  0
 17 18  2  0
 18 19  1  0
 18 20  1  0
 20 21  1  0
 21 22  1  0
 21 23  2  0
 20 24  2  0
 10  5  1  0
 24 15  1  0
M  END
>  <supplier_code>  (453) 
DB00598

>  <zinc_id>  (453) 
ZINC000000000416

>  <catalog_short_name>  (453) 
dbfda

$$$$

     RDKit          3D

 24 25  0  0  0  0  0  0  0  0999 V2000
    2.5557   -2.6195    1.1326 C   0  0  0  0  0  0  0  0  0  0  0  0
    1.2562   -2.3298    0.1739 C   0  0  2  0  0  0  0  0  0  0  0  0
    2.1816   -1.5984   -0.9747 C   0  0  0  0  0  0  0  0  0  0  0  0
    2.9336   -0.5911   -0.2639 C   0  0  0  0  0  0  0  0  0  0  0  0
    4.2497   -0.1462   -0.5895 C   0  0  0  0  0  0  0  0  0  0  0  0
    5.1696   -0.3439    0.4462 C   0  0  0  0  0  0  0  0  0  0  0  0
    6.3768    0.3142    0.4995 C   0  0  0  0  0  0  0  0  0  0  0  0
    6.4689    1.4853   -0.2164 C   0  0  0  0  0  0  0  0  0  0  0  0
    5.5127    1.8261   -1.1351 C   0  0  0  0  0  0  0  0  0  0  0  0
    4.3117    1.1409   -1.1302 C   0  0  0  0  0  0  0  0  0  0  0  0
    0.9219   -0.9889    0.9282 N   0  0  0  0  0  0  0  0  0  0  0  0
    0.3307   -0.1923   -0.1494 C   0  0  0  0  0  0  0  0  0  0  0  0
   -0.8799   -1.2447   -0.5529 C   0  0  2  0  0  0  0  0  0  0  0  0
   -1.0070   -0.6403   -1.9461 O   0  0  0  0  0  0  0  0  0  0  0  0
   -2.0058   -0.2425    0.0484 C   0  0  0  0  0  0  0  0  0  0  0  0
   -1.8638    0.0716    1.3694 C   0  0  0  0  0  0  0  0  0  0  0  0
   -2.8683    0.8876    1.8855 C   0  0  0  0  0  0  0  0  0  0  0  0
   -3.9954    1.1975    1.1311 C   0  0  0  0  0  0  0  0  0  0  0  0
   -4.7428    2.3593    1.3532 O   0  0  0  0  0  0  0  0  0  0  0  0
   -4.2684    0.3601    0.0518 C   0  0  0  0  0  0  0  0  0  0  0  0
   -5.4135    0.7162   -0.7963 C   0  0  0  0  0  0  0  0  0  0  0  0
   -6.6698    0.1560   -0.4143 N   0  0  0  0  0  0  0  0  0  0  0  0
   -5.2768    0.9259   -2.0394 O   0  0  0  0  0  0  0  0  0  0  0  0
   -3.2775   -0.5032   -0.4018 C   0  0  0  0  0  0  0  0  0  0  0  0
  2  1  1  1
  2  3  1  0
  3  4  1  0
  4  5  1  0
  5  6  2  0
  6  7  1  0
  7  8  2  0
  8  9  1  0
  9 10  2  0
  2 11  1  0
 11 12  1  0
 13 12  1  1
 13 14  1  0
 13 15  1  0
 15 16  2  0
 16 17  1  0
 17 18  2  0
 18 19  1  0
 18 20  1  0
 20 21  1  0
 21 22  1  0
 21 23  2  0
 20 24  2  0
 10  5  1  0
 24 15  1  0
M  END
>  <supplier_code>  (454) 
DB00598

>  <zinc_id>  (454) 
ZINC000000004319

>  <catalog_short_name>  (454) 
dbfda

$$$$

     RDKit          3D

 24 25  0  0  0  0  0  0  0  0999 V2000
    2.6937    1.3269    0.6013 C   0  0  0  0  0  0  0  0  0  0  0  0
    1.4720    1.2044   -0.4990 C   0  0  1  0  0  0  0  0  0  0  0  0
    2.5136    1.0885   -1.7687 C   0  0  0  0  0  0  0  0  0  0  0  0
    3.3090   -0.1396   -1.6429 C   0  0  0  0  0  0  0  0  0  0  0  0
    4.5206   -0.0595   -0.8260 C   0  0  0  0  0  0  0  0  0  0  0  0
    4.8276   -1.1334   -0.0001 C   0  0  0  0  0  0  0  0  0  0  0  0
    5.8964   -0.9373    0.8623 C   0  0  0  0  0  0  0  0  0  0  0  0
    6.7985    0.0636    0.6080 C   0  0  0  0  0  0  0  0  0  0  0  0
    6.6998    0.9116   -0.4871 C   0  0  0  0  0  0  0  0  0  0  0  0
    5.5362    0.7899   -1.2349 C   0  0  0  0  0  0  0  0  0  0  0  0
    1.3625   -0.3592   -0.2895 N   0  0  0  0  0  0  0  0  0  0  0  0
    0.2399   -0.4189    0.6442 C   0  0  0  0  0  0  0  0  0  0  0  0
   -0.9859   -1.0783   -0.2664 C   0  0  2  0  0  0  0  0  0  0  0  0
   -0.7751   -0.0575   -1.3880 O   0  0  0  0  0  0  0  0  0  0  0  0
   -2.1037   -0.1254    0.4454 C   0  0  0  0  0  0  0  0  0  0  0  0
   -2.3387   -0.4939    1.7572 C   0  0  0  0  0  0  0  0  0  0  0  0
   -3.5270   -0.1756    2.3783 C   0  0  0  0  0  0  0  0  0  0  0  0
   -4.5806    0.1615    1.5423 C   0  0  0  0  0  0  0  0  0  0  0  0
   -5.7229    0.6408    2.1882 O   0  0  0  0  0  0  0  0  0  0  0  0
   -4.4277    0.3138    0.1764 C   0  0  0  0  0  0  0  0  0  0  0  0
   -5.6657    0.2415   -0.6059 C   0  0  0  0  0  0  0  0  0  0  0  0
   -6.8746    0.7495   -0.0300 N   0  0  0  0  0  0  0  0  0  0  0  0
   -5.6551   -0.2337   -1.7817 O   0  0  0  0  0  0  0  0  0  0  0  0
   -3.2129    0.0090   -0.3832 C   0  0  0  0  0  0  0  0  0  0  0  0
  2  1  1  1
  2  3  1  0
  3  4  1  0
  4  5  1  0
  5  6  2  0
  6  7  1  0
  7  8  2  0
  8  9  1  0
  9 10  2  0
  2 11  1  0
 11 12  1  0
 13 12  1  1
 13 14  1  0
 13 15  1  0
 15 16  2  0
 16 17  1  0
 17 18  2  0
 18 19  1  0
 18 20  1  0
 20 21  1  0
 21 22  1  0
 21 23  2  0
 20 24  2  0
 10  5  1  0
 24 15  1  0
M  END
>  <supplier_code>  (455) 
DB00598

>  <zinc_id>  (455) 
ZINC000000403010

>  <catalog_short_name>  (455) 
dbfda

$$$$

     RDKit          3D

 24 25  0  0  0  0  0  0  0  0999 V2000
    1.8953   -1.0502   -1.5969 C   0  0  0  0  0  0  0  0  0  0  0  0
    1.5802   -1.4163   -0.0222 C   0  0  1  0  0  0  0  0  0  0  0  0
    2.7065   -0.3442    0.5221 C   0  0  0  0  0  0  0  0  0  0  0  0
    4.0058   -0.9826    0.0872 C   0  0  0  0  0  0  0  0  0  0  0  0
    4.9899    0.1329   -0.0778 C   0  0  0  0  0  0  0  0  0  0  0  0
    5.5117    0.6997    1.0778 C   0  0  0  0  0  0  0  0  0  0  0  0
    6.3623    1.7747    0.9543 C   0  0  0  0  0  0  0  0  0  0  0  0
    6.3764    2.4525   -0.2245 C   0  0  0  0  0  0  0  0  0  0  0  0
    5.5201    2.1184   -1.2265 C   0  0  0  0  0  0  0  0  0  0  0  0
    4.7043    1.0293   -1.1011 C   0  0  0  0  0  0  0  0  0  0  0  0
    0.4324   -0.3336    0.0623 N   0  0  0  0  0  0  0  0  0  0  0  0
   -0.3888   -0.9573    1.0728 C   0  0  0  0  0  0  0  0  0  0  0  0
   -1.1024   -2.2065    0.2347 C   0  0  1  0  0  0  0  0  0  0  0  0
   -1.9443   -2.5990    1.4518 O   0  0  0  0  0  0  0  0  0  0  0  0
   -2.2967   -1.2827   -0.3804 C   0  0  0  0  0  0  0  0  0  0  0  0
   -3.3091   -2.0508   -0.9524 C   0  0  0  0  0  0  0  0  0  0  0  0
   -4.5679   -1.5154   -1.2022 C   0  0  0  0  0  0  0  0  0  0  0  0
   -4.8826   -0.3489   -0.5502 C   0  0  0  0  0  0  0  0  0  0  0  0
   -6.2030   -0.0393   -0.2143 O   0  0  0  0  0  0  0  0  0  0  0  0
   -3.8959    0.4014    0.0306 C   0  0  0  0  0  0  0  0  0  0  0  0
   -4.0708    1.8247    0.2240 C   0  0  0  0  0  0  0  0  0  0  0  0
   -4.7505    2.3593    1.3389 N   0  0  0  0  0  0  0  0  0  0  0  0
   -3.9550    2.5732   -0.7914 O   0  0  0  0  0  0  0  0  0  0  0  0
   -2.7182   -0.2392    0.3765 C   0  0  0  0  0  0  0  0  0  0  0  0
  2  1  1  6
  2  3  1  0
  3  4  1  0
  4  5  1  0
  5  6  2  0
  6  7  1  0
  7  8  2  0
  8  9  1  0
  9 10  2  0
  2 11  1  0
 11 12  1  0
 13 12  1  1
 13 14  1  0
 13 15  1  0
 15 16  2  0
 16 17  1  0
 17 18  2  0
 18 19  1  0
 18 20  1  0
 20 21  1  0
 21 22  1  0
 21 23  2  0
 20 24  2  0
 10  5  1  0
 24 15  1  0
M  END
>  <supplier_code>  (456) 
DB00598

>  <zinc_id>  (456) 
ZINC000000403011

>  <catalog_short_name>  (456) 
dbfda

$$$$

     RDKit          3D

 24 26  0  0  0  0  0  0  0  0999 V2000
   -7.3867    0.0175    0.0957 C   0  0  0  0  0  0  0  0  0  0  0  0
   -6.0040   -0.2213   -0.0712 C   0  0  0  0  0  0  0  0  0  0  0  0
   -5.1959    0.4668    0.6125 O   0  0  0  0  0  0  0  0  0  0  0  0
   -5.4526   -1.3397   -0.7713 N   0  0  0  0  0  0  0  0  0  0  0  0
   -4.3017   -2.0760   -0.2797 C   0  0  0  0  0  0  0  0  0  0  0  0
   -3.0174   -1.0784   -0.6848 C   0  0  1  0  0  0  0  0  0  0  0  0
   -2.0683   -1.7354    0.5298 C   0  0  0  0  0  0  0  0  0  0  0  0
   -0.8340   -1.4977   -0.2152 N   0  0  0  0  0  0  0  0  0  0  0  0
    0.2655   -0.6543    0.1189 C   0  0  0  0  0  0  0  0  0  0  0  0
    0.6667    0.4004   -0.6936 C   0  0  0  0  0  0  0  0  0  0  0  0
    2.0047    0.7247   -0.7982 C   0  0  0  0  0  0  0  0  0  0  0  0
    2.8954    0.3252    0.1870 C   0  0  0  0  0  0  0  0  0  0  0  0
    4.0890    1.1173    0.2617 N   0  0  0  0  0  0  0  0  0  0  0  0
    4.7735    1.2994   -1.0169 C   0  0  0  0  0  0  0  0  0  0  0  0
    5.2107    2.7192   -1.2188 C   0  0  0  0  0  0  0  0  0  0  0  0
    4.2614    3.6669   -0.9453 O   0  0  0  0  0  0  0  0  0  0  0  0
    3.4329    3.3962    0.1187 C   0  0  0  0  0  0  0  0  0  0  0  0
    3.9540    2.3391    1.0524 C   0  0  0  0  0  0  0  0  0  0  0  0
    2.3249   -0.2356    1.3223 C   0  0  0  0  0  0  0  0  0  0  0  0
    3.0697   -0.3430    2.4515 F   0  0  0  0  0  0  0  0  0  0  0  0
    1.1611   -0.9690    1.1340 C   0  0  0  0  0  0  0  0  0  0  0  0
   -1.1051   -2.0144   -1.5244 C   0  0  0  0  0  0  0  0  0  0  0  0
   -0.2661   -2.1776   -2.4613 O   0  0  0  0  0  0  0  0  0  0  0  0
   -2.4777   -2.1303   -1.7120 O   0  0  0  0  0  0  0  0  0  0  0  0
  1  2  1  0
  2  3  2  0
  2  4  1  0
  4  5  1  0
  6  5  1  1
  6  7  1  0
  7  8  1  0
  8  9  1  0
  9 10  2  0
 10 11  1  0
 11 12  2  0
 12 13  1  0
 13 14  1  0
 14 15  1  0
 15 16  1  0
 16 17  1  0
 17 18  1  0
 12 19  1  0
 19 20  1  0
 19 21  2  0
  8 22  1  0
 22 23  2  0
 22 24  1  0
 24  6  1  0
 21  9  1  0
 18 13  1  0
M  END
>  <supplier_code>  (457) 
DB00601

>  <zinc_id>  (457) 
ZINC000002008866

>  <catalog_short_name>  (457) 
dbfda

$$$$

     RDKit          3D

 62 68  0  0  0  0  0  0  0  0999 V2000
   -6.0476    6.0715   -1.4071 C   0  0  0  0  0  0  0  0  0  0  0  0
   -6.2297    5.1357   -1.0466 C   0  0  0  0  0  0  0  0  0  0  0  0
   -5.8021    5.2145    0.5158 C   0  0  1  0  0  0  0  0  0  0  0  0
   -6.8393    4.0575    0.9644 C   0  0  0  0  0  0  0  0  0  0  0  0
   -4.4717    4.1614    0.4361 C   0  0  1  0  0  0  0  0  0  0  0  0
   -5.0815    3.1518   -0.4967 O   0  0  0  0  0  0  0  0  0  0  0  0
   -4.0246    2.2180   -0.6540 C   0  0  2  0  0  0  0  0  0  0  0  0
   -3.3463    2.8197   -1.8757 C   0  0  0  0  0  0  0  0  0  0  0  0
   -2.6287    4.0285   -1.2609 C   0  0  0  0  0  0  0  0  0  0  0  0
   -3.7713    5.0827   -0.8111 C   0  0  2  0  0  0  0  0  0  0  0  0
   -2.7989    5.8254    0.2544 C   0  0  0  0  0  0  0  0  0  0  0  0
   -4.6177    0.8569   -0.8012 C   0  0  0  0  0  0  0  0  0  0  0  0
   -4.9345    0.8293    0.8298 C   0  0  2  0  0  0  0  0  0  0  0  0
   -3.4684    0.2184    1.1827 C   0  0  0  0  0  0  0  0  0  0  0  0
   -2.4272    1.4672    1.0629 C   0  0  1  0  0  0  0  0  0  0  0  0
   -1.7063    0.7877   -0.2740 C   0  0  0  0  0  0  0  0  0  0  0  0
   -0.3009    0.7037   -0.0114 C   0  0  0  0  0  0  0  0  0  0  0  0
    0.5112    0.3310    0.9357 C   0  0  0  0  0  0  0  0  0  0  0  0
    1.1730    1.4492    1.7282 C   0  0  0  0  0  0  0  0  0  0  0  0
    1.6165   -0.6925    0.3303 C   0  0  1  0  0  0  0  0  0  0  0  0
    2.4788   -0.6658    1.5577 O   0  0  0  0  0  0  0  0  0  0  0  0
    3.8671   -0.3291    1.0770 C   0  0  1  0  0  0  0  0  0  0  0  0
    4.3038   -1.9385    0.9829 C   0  0  0  0  0  0  0  0  0  0  0  0
    5.7691   -1.7599    0.2636 C   0  0  2  0  0  0  0  0  0  0  0  0
    6.4684   -2.0157    1.5741 O   0  0  0  0  0  0  0  0  0  0  0  0
    5.9903   -3.2775    1.9710 C   0  0  0  0  0  0  0  0  0  0  0  0
    5.7463   -0.0584    0.5258 C   0  0  1  0  0  0  0  0  0  0  0  0
    7.1291    0.1188    0.0679 O   0  0  0  0  0  0  0  0  0  0  0  0
    7.1487    0.0998   -1.4412 C   0  0  1  0  0  0  0  0  0  0  0  0
    7.5717    1.6991   -1.6499 C   0  0  0  0  0  0  0  0  0  0  0  0
    8.1021    2.1167   -0.1651 C   0  0  2  0  0  0  0  0  0  0  0  0
    8.4884    3.4905   -0.6367 O   0  0  0  0  0  0  0  0  0  0  0  0
    9.2851    3.3742   -1.7372 C   0  0  0  0  0  0  0  0  0  0  0  0
    9.6554    1.4700   -0.4558 C   0  0  1  0  0  0  0  0  0  0  0  0
   10.0107    1.6596    0.9836 O   0  0  0  0  0  0  0  0  0  0  0  0
    9.1312   -0.1266   -0.1433 C   0  0  2  0  0  0  0  0  0  0  0  0
   10.5907   -0.7391   -0.5478 C   0  0  0  0  0  0  0  0  0  0  0  0
    8.6145   -0.3332   -1.5378 O   0  0  0  0  0  0  0  0  0  0  0  0
    4.9046    0.1370   -0.9630 C   0  0  2  0  0  0  0  0  0  0  0  0
    4.4777    1.6916   -0.6546 C   0  0  0  0  0  0  0  0  0  0  0  0
    3.5748   -0.3422   -0.4262 O   0  0  0  0  0  0  0  0  0  0  0  0
    1.0038   -2.1715    0.9532 C   0  0  1  0  0  0  0  0  0  0  0  0
   -0.2919   -1.6242    1.7426 C   0  0  0  0  0  0  0  0  0  0  0  0
    0.1925   -2.4482   -0.3867 C   0  0  0  0  0  0  0  0  0  0  0  0
   -0.3824   -3.6252   -0.1379 C   0  0  0  0  0  0  0  0  0  0  0  0
   -1.7787   -3.6234   -0.1384 C   0  0  0  0  0  0  0  0  0  0  0  0
   -2.6834   -2.7309   -0.4781 C   0  0  0  0  0  0  0  0  0  0  0  0
   -3.2855   -2.3404   -1.8095 C   0  0  0  0  0  0  0  0  0  0  0  0
   -3.7348   -3.4685   -2.2641 O   0  0  0  0  0  0  0  0  0  0  0  0
   -3.9989   -4.3677   -1.0782 C   0  0  2  0  0  0  0  0  0  0  0  0
   -5.6822   -4.4920   -1.4598 C   0  0  2  0  0  0  0  0  0  0  0  0
   -5.8838   -3.0487   -1.8738 O   0  0  0  0  0  0  0  0  0  0  0  0
   -6.1265   -4.3452    0.0809 C   0  0  0  0  0  0  0  0  0  0  0  0
   -6.4767   -5.5794    0.7939 C   0  0  0  0  0  0  0  0  0  0  0  0
   -6.3454   -3.1241    0.3718 C   0  0  0  0  0  0  0  0  0  0  0  0
   -5.1360   -2.1422   -0.1082 C   0  0  1  0  0  0  0  0  0  0  0  0
   -5.0198   -1.5929    1.4009 C   0  0  0  0  0  0  0  0  0  0  0  0
   -5.5780   -2.1918    2.3601 O   0  0  0  0  0  0  0  0  0  0  0  0
   -5.6888   -0.4813    0.9378 O   0  0  0  0  0  0  0  0  0  0  0  0
   -3.9984   -3.2383    0.0671 C   0  0  2  0  0  0  0  0  0  0  0  0
   -3.9496   -3.7714    1.2750 O   0  0  0  0  0  0  0  0  0  0  0  0
   -3.2678    2.4180    0.3033 O   0  0  0  0  0  0  0  0  0  0  0  0
  1  2  1  0
  3  2  1  6
  3  4  1  0
  3  5  1  0
  5  6  1  6
  7  6  1  1
  7  8  1  0
  8  9  1  0
  9 10  1  0
 10 11  1  1
  7 12  1  0
 13 12  1  6
 13 14  1  0
 14 15  1  0
 15 16  1  6
 16 17  1  0
 17 18  2  0
 18 19  1  0
 18 20  1  0
 20 21  1  1
 22 21  1  1
 22 23  1  0
 23 24  1  0
 24 25  1  1
 25 26  1  0
 24 27  1  0
 27 28  1  6
 29 28  1  1
 29 30  1  0
 30 31  1  0
 31 32  1  6
 32 33  1  0
 31 34  1  0
 34 35  1  1
 34 36  1  0
 36 37  1  6
 36 38  1  0
 27 39  1  0
 39 40  1  1
 39 41  1  0
 20 42  1  0
 42 43  1  1
 42 44  1  0
 44 45  2  0
 45 46  1  0
 46 47  2  0
 47 48  1  0
 48 49  1  0
 50 49  1  6
 50 51  1  0
 51 52  1  6
 51 53  1  0
 53 54  1  0
 53 55  2  0
 56 55  1  1
 56 57  1  0
 57 58  2  0
 57 59  1  0
 56 60  1  0
 60 61  1  1
 15 62  1  0
 10  5  1  0
 59 13  1  0
 62  7  1  0
 41 22  1  0
 60 47  1  0
 38 29  1  0
 60 50  1  0
M  END
>  <supplier_code>  (458) 
DB00602

>  <zinc_id>  (458) 
ZINC000253630390

>  <catalog_short_name>  (458) 
dbfda

$$$$

     RDKit          3D

 28 31  0  0  0  0  0  0  0  0999 V2000
   -5.8593   -0.3459   -1.8414 C   0  0  0  0  0  0  0  0  0  0  0  0
   -5.0778    0.3468   -0.8163 C   0  0  0  0  0  0  0  0  0  0  0  0
   -5.6255    1.0431    0.0957 O   0  0  0  0  0  0  0  0  0  0  0  0
   -3.7088    0.6161   -0.9066 O   0  0  0  0  0  0  0  0  0  0  0  0
   -2.8878    0.4279    0.1961 C   0  0  2  0  0  0  0  0  0  0  0  0
   -3.4918   -0.4622    1.2522 C   0  0  0  0  0  0  0  0  0  0  0  0
   -3.8346   -1.9008    0.9815 C   0  0  0  0  0  0  0  0  0  0  0  0
   -4.0558   -0.0156    2.2518 O   0  0  0  0  0  0  0  0  0  0  0  0
   -2.6186    1.6924    1.0172 C   0  0  0  0  0  0  0  0  0  0  0  0
   -1.4018    1.1515    1.8012 C   0  0  0  0  0  0  0  0  0  0  0  0
   -0.5843    1.1975    0.4010 C   0  0  1  0  0  0  0  0  0  0  0  0
    0.6312    0.0859    0.7601 C   0  0  2  0  0  0  0  0  0  0  0  0
    1.5461    1.0919    1.6130 C   0  0  0  0  0  0  0  0  0  0  0  0
    2.5225   -0.1568    2.0489 C   0  0  2  0  0  0  0  0  0  0  0  0
    3.5625    0.8258    2.8415 C   0  0  0  0  0  0  0  0  0  0  0  0
    3.3372   -0.0593    0.6690 C   0  0  0  0  0  0  0  0  0  0  0  0
    4.5051   -0.6882    0.8342 C   0  0  0  0  0  0  0  0  0  0  0  0
    5.3533   -0.7197   -0.3684 C   0  0  0  0  0  0  0  0  0  0  0  0
    6.6005   -0.8576   -0.2875 O   0  0  0  0  0  0  0  0  0  0  0  0
    4.8769    0.2382   -1.4175 C   0  0  0  0  0  0  0  0  0  0  0  0
    3.4346   -0.0043   -1.7201 C   0  0  0  0  0  0  0  0  0  0  0  0
    2.6076   -0.4544   -0.5492 C   0  0  1  0  0  0  0  0  0  0  0  0
    2.2744   -1.8576   -0.6987 C   0  0  0  0  0  0  0  0  0  0  0  0
    1.3326    0.5241   -0.7132 C   0  0  1  0  0  0  0  0  0  0  0  0
    0.3949   -0.5195   -1.5346 C   0  0  0  0  0  0  0  0  0  0  0  0
   -1.0244    0.0493   -1.5544 C   0  0  0  0  0  0  0  0  0  0  0  0
   -1.5353    0.0231   -0.1935 C   0  0  2  0  0  0  0  0  0  0  0  0
   -1.2735   -1.2717    0.4720 C   0  0  0  0  0  0  0  0  0  0  0  0
  1  2  1  0
  2  3  2  0
  2  4  1  0
  5  4  1  6
  5  6  1  0
  6  7  1  0
  6  8  2  0
  5  9  1  0
  9 10  1  0
 11 10  1  1
 11 12  1  0
 12 13  1  1
 13 14  1  0
 14 15  1  1
 14 16  1  0
 16 17  2  0
 17 18  1  0
 18 19  2  0
 18 20  1  0
 20 21  1  0
 21 22  1  0
 22 23  1  6
 22 24  1  0
 24 25  1  6
 25 26  1  0
 26 27  1  0
 27 28  1  1
 27  5  1  0
 27 11  1  0
 24 12  1  0
 22 16  1  0
M  END
>  <supplier_code>  (459) 
DB00603

>  <zinc_id>  (459) 
ZINC000005029557

>  <catalog_short_name>  (459) 
dbfda

$$$$

     RDKit          3D

 25 27  0  0  0  0  0  0  0  0999 V2000
   -2.3321   -2.0838    2.3239 C   0  0  0  0  0  0  0  0  0  0  0  0
   -2.0046   -1.2266    1.3920 C   0  0  0  0  0  0  0  0  0  0  0  0
   -2.7560   -0.2306    0.9362 C   0  0  0  0  0  0  0  0  0  0  0  0
   -4.2128   -0.1417    1.1640 C   0  0  0  0  0  0  0  0  0  0  0  0
   -4.9733   -0.2348   -0.1042 C   0  0  0  0  0  0  0  0  0  0  0  0
   -5.7635    0.7154   -0.3880 O   0  0  0  0  0  0  0  0  0  0  0  0
   -5.3103   -1.4743   -0.6436 O   0  0  0  0  0  0  0  0  0  0  0  0
   -2.0568    0.4955   -0.1203 C   0  0  0  0  0  0  0  0  0  0  0  0
   -2.3565    1.6563   -0.8194 C   0  0  0  0  0  0  0  0  0  0  0  0
   -1.4719    2.1803   -1.7483 C   0  0  0  0  0  0  0  0  0  0  0  0
   -1.5349    3.4624   -2.1686 F   0  0  0  0  0  0  0  0  0  0  0  0
   -0.3980    1.3911   -2.1351 C   0  0  0  0  0  0  0  0  0  0  0  0
    0.0278    0.3519   -1.3430 C   0  0  0  0  0  0  0  0  0  0  0  0
   -0.7880   -0.0435   -0.2940 C   0  0  0  0  0  0  0  0  0  0  0  0
   -0.6925   -1.0692    0.7523 C   0  0  0  0  0  0  0  0  0  0  0  0
    0.3950   -1.7902    0.9302 C   0  0  0  0  0  0  0  0  0  0  0  0
    1.6893   -1.1747    0.6236 C   0  0  0  0  0  0  0  0  0  0  0  0
    2.0111   -0.0101    1.2917 C   0  0  0  0  0  0  0  0  0  0  0  0
    3.2610    0.5587    1.1101 C   0  0  0  0  0  0  0  0  0  0  0  0
    4.2206   -0.1376    0.3932 C   0  0  0  0  0  0  0  0  0  0  0  0
    5.6877    0.8245   -0.0578 S   0  0  0  0  0  0  0  0  0  0  0  0
    6.3579    1.2011    1.6138 C   0  0  0  0  0  0  0  0  0  0  0  0
    6.6450   -0.3284   -0.4789 O   0  0  0  0  0  0  0  0  0  0  0  0
    3.7729   -1.1187   -0.4692 C   0  0  0  0  0  0  0  0  0  0  0  0
    2.5827   -1.7728   -0.2381 C   0  0  0  0  0  0  0  0  0  0  0  0
  1  2  1  0
  2  3  2  0
  3  4  1  0
  4  5  1  0
  5  6  2  0
  5  7  1  0
  3  8  1  0
  8  9  2  0
  9 10  1  0
 10 11  1  0
 10 12  2  0
 12 13  1  0
 13 14  2  0
 14 15  1  0
 15 16  2  0
 16 17  1  0
 17 18  2  0
 18 19  1  0
 19 20  2  0
 21 20  1  1
 21 22  1  0
 21 23  2  0
 20 24  1  0
 24 25  2  0
 15  2  1  0
 25 17  1  0
 14  8  1  0
M  END
>  <supplier_code>  (460) 
DB00605

>  <zinc_id>  (460) 
ZINC000003786192

>  <catalog_short_name>  (460) 
dbfda

$$$$

     RDKit          3D

 25 27  0  0  0  0  0  0  0  0999 V2000
   -2.5851   -2.8114   -0.7929 C   0  0  0  0  0  0  0  0  0  0  0  0
   -2.2205   -1.4411   -0.8076 C   0  0  0  0  0  0  0  0  0  0  0  0
   -2.9746   -0.4450   -0.3465 C   0  0  0  0  0  0  0  0  0  0  0  0
   -4.2412   -0.6146    0.4315 C   0  0  0  0  0  0  0  0  0  0  0  0
   -3.8361   -0.9153    1.8408 C   0  0  0  0  0  0  0  0  0  0  0  0
   -3.8278   -2.1478    2.1409 O   0  0  0  0  0  0  0  0  0  0  0  0
   -2.7359   -0.1909    2.3111 O   0  0  0  0  0  0  0  0  0  0  0  0
   -2.2692    0.8006   -0.5905 C   0  0  0  0  0  0  0  0  0  0  0  0
   -2.6969    2.1010   -0.5172 C   0  0  0  0  0  0  0  0  0  0  0  0
   -1.7838    3.1118   -0.7845 C   0  0  0  0  0  0  0  0  0  0  0  0
   -2.2415    4.3418   -1.1504 F   0  0  0  0  0  0  0  0  0  0  0  0
   -0.4482    2.8075   -0.7264 C   0  0  0  0  0  0  0  0  0  0  0  0
    0.0292    1.5076   -0.8413 C   0  0  0  0  0  0  0  0  0  0  0  0
   -0.9403    0.5133   -0.8026 C   0  0  0  0  0  0  0  0  0  0  0  0
   -0.8657   -0.9313   -1.0528 C   0  0  0  0  0  0  0  0  0  0  0  0
    0.2550   -1.6196   -1.0837 C   0  0  0  0  0  0  0  0  0  0  0  0
    1.5522   -1.0641   -0.6777 C   0  0  0  0  0  0  0  0  0  0  0  0
    1.7250   -0.9076    0.6926 C   0  0  0  0  0  0  0  0  0  0  0  0
    2.9519   -0.4327    1.1028 C   0  0  0  0  0  0  0  0  0  0  0  0
    4.1044   -0.7965    0.4491 C   0  0  0  0  0  0  0  0  0  0  0  0
    5.6540    0.1004    0.7252 S   0  0  0  0  0  0  0  0  0  0  0  0
    5.5136    0.5233    2.5115 C   0  0  0  0  0  0  0  0  0  0  0  0
    5.2860    1.4794    0.1010 O   0  0  0  0  0  0  0  0  0  0  0  0
    3.9272   -1.4278   -0.7770 C   0  0  0  0  0  0  0  0  0  0  0  0
    2.6683   -1.5410   -1.3553 C   0  0  0  0  0  0  0  0  0  0  0  0
  1  2  1  0
  2  3  2  0
  3  4  1  0
  4  5  1  0
  5  6  2  0
  5  7  1  0
  3  8  1  0
  8  9  2  0
  9 10  1  0
 10 11  1  0
 10 12  2  0
 12 13  1  0
 13 14  2  0
 14 15  1  0
 15 16  2  0
 16 17  1  0
 17 18  2  0
 18 19  1  0
 19 20  2  0
 21 20  1  6
 21 22  1  0
 21 23  2  0
 20 24  1  0
 24 25  2  0
 15  2  1  0
 25 17  1  0
 14  8  1  0
M  END
>  <supplier_code>  (461) 
DB00605

>  <zinc_id>  (461) 
ZINC000004475353

>  <catalog_short_name>  (461) 
dbfda

$$$$

     RDKit          3D

 29 32  0  0  0  0  0  0  0  0999 V2000
   -3.6783   -3.4381   -0.7033 C   0  0  0  0  0  0  0  0  0  0  0  0
   -3.2013   -3.5616   -0.7170 C   0  0  0  0  0  0  0  0  0  0  0  0
   -2.3484   -2.4996   -0.2959 O   0  0  0  0  0  0  0  0  0  0  0  0
   -3.0338   -1.3126   -0.0523 C   0  0  0  0  0  0  0  0  0  0  0  0
   -4.4088   -1.2391    0.0892 C   0  0  0  0  0  0  0  0  0  0  0  0
   -5.0436   -0.0073    0.2017 C   0  0  0  0  0  0  0  0  0  0  0  0
   -4.3480    1.1462   -0.1128 C   0  0  0  0  0  0  0  0  0  0  0  0
   -4.8942    2.3967   -0.1485 C   0  0  0  0  0  0  0  0  0  0  0  0
   -4.1339    3.4573   -0.6258 C   0  0  0  0  0  0  0  0  0  0  0  0
   -2.7479    3.3727   -0.6248 C   0  0  0  0  0  0  0  0  0  0  0  0
   -2.1802    2.1401   -0.4065 C   0  0  0  0  0  0  0  0  0  0  0  0
   -2.9876    1.0315   -0.1847 C   0  0  0  0  0  0  0  0  0  0  0  0
   -2.3041   -0.1585    0.0469 C   0  0  0  0  0  0  0  0  0  0  0  0
   -0.9293   -0.1480    0.5665 C   0  0  0  0  0  0  0  0  0  0  0  0
   -0.6378    0.5389    1.5949 O   0  0  0  0  0  0  0  0  0  0  0  0
    0.2245   -0.4867   -0.1796 N   0  0  0  0  0  0  0  0  0  0  0  0
    1.1218    0.7418   -0.6458 C   0  0  2  0  0  0  0  0  0  0  0  0
    1.8879   -0.0934   -1.8004 C   0  0  0  0  0  0  0  0  0  0  0  0
    1.5482    0.2101   -2.9896 O   0  0  0  0  0  0  0  0  0  0  0  0
    3.0912    0.3114   -1.1205 N   0  0  0  0  0  0  0  0  0  0  0  0
    2.4881    0.3686    0.2640 C   0  0  2  0  0  0  0  0  0  0  0  0
    2.4816   -1.5463    0.1910 S   0  0  0  0  0  0  0  0  0  0  0  0
    4.2134   -1.3900    0.1839 C   0  0  0  0  0  0  0  0  0  0  0  0
    4.8959   -1.1420    1.4639 C   0  0  0  0  0  0  0  0  0  0  0  0
    4.8337   -2.6312   -0.4450 C   0  0  0  0  0  0  0  0  0  0  0  0
    4.5726   -0.1641   -0.8686 C   0  0  2  0  0  0  0  0  0  0  0  0
    4.8401    0.9740    0.2788 C   0  0  0  0  0  0  0  0  0  0  0  0
    6.0929    0.8558    0.4961 O   0  0  0  0  0  0  0  0  0  0  0  0
    4.5851    2.2733   -0.1980 O   0  0  0  0  0  0  0  0  0  0  0  0
  1  2  1  0
  2  3  1  0
  3  4  1  0
  4  5  2  0
  5  6  1  0
  6  7  2  0
  7  8  1  0
  8  9  2  0
  9 10  1  0
 10 11  2  0
 11 12  1  0
 12 13  2  0
 13 14  1  0
 14 15  2  0
 14 16  1  0
 17 16  1  1
 17 18  1  0
 18 19  2  0
 18 20  1  0
 20 21  1  0
 21 22  1  6
 22 23  1  0
 23 24  1  0
 23 25  1  0
 23 26  1  0
 26 27  1  1
 27 28  2  0
 27 29  1  0
 13  4  1  0
 21 17  1  0
 12  7  1  0
 26 20  1  0
M  END
>  <supplier_code>  (462) 
DB00607

>  <zinc_id>  (462) 
ZINC000003875980

>  <catalog_short_name>  (462) 
dbfda

$$$$

     RDKit          3D

 22 23  0  0  0  0  0  0  0  0999 V2000
   -4.5343    2.8201    0.2682 C   0  0  0  0  0  0  0  0  0  0  0  0
   -5.4444    1.7478   -0.2712 C   0  0  0  0  0  0  0  0  0  0  0  0
   -5.3898    0.5190    0.4994 N   0  0  0  0  0  0  0  0  0  0  0  0
   -5.8954   -0.5496   -0.3271 C   0  0  0  0  0  0  0  0  0  0  0  0
   -6.4387   -1.6876    0.5089 C   0  0  0  0  0  0  0  0  0  0  0  0
   -4.0208    0.1991    0.8397 C   0  0  0  0  0  0  0  0  0  0  0  0
   -3.1756    0.4842   -0.3713 C   0  0  0  0  0  0  0  0  0  0  0  0
   -1.7938    0.9641    0.0628 C   0  0  0  0  0  0  0  0  0  0  0  0
   -0.9748   -0.4854   -0.0651 C   0  0  1  0  0  0  0  0  0  0  0  0
   -0.2462   -0.0030   -1.4878 C   0  0  0  0  0  0  0  0  0  0  0  0
    0.2422    0.0785    0.8047 N   0  0  0  0  0  0  0  0  0  0  0  0
    1.4102   -0.7414    0.6742 C   0  0  0  0  0  0  0  0  0  0  0  0
    1.3383   -2.1284    0.7048 C   0  0  0  0  0  0  0  0  0  0  0  0
    2.3755   -2.9244    0.2651 C   0  0  0  0  0  0  0  0  0  0  0  0
    3.4799   -2.3355   -0.2454 N   0  0  0  0  0  0  0  0  0  0  0  0
    3.5995   -0.9873   -0.2003 C   0  0  0  0  0  0  0  0  0  0  0  0
    4.8469   -0.3830   -0.3032 C   0  0  0  0  0  0  0  0  0  0  0  0
    5.0153    0.9756   -0.1539 C   0  0  0  0  0  0  0  0  0  0  0  0
    6.6076    1.6758    0.0047 Cl  0  0  0  0  0  0  0  0  0  0  0  0
    3.8707    1.7521   -0.2598 C   0  0  0  0  0  0  0  0  0  0  0  0
    2.6328    1.1839   -0.1459 C   0  0  0  0  0  0  0  0  0  0  0  0
    2.4951   -0.1744    0.0165 C   0  0  0  0  0  0  0  0  0  0  0  0
  1  2  1  0
  2  3  1  0
  3  4  1  0
  4  5  1  0
  3  6  1  0
  6  7  1  0
  7  8  1  0
  9  8  1  1
  9 10  1  0
  9 11  1  0
 11 12  1  0
 12 13  2  0
 13 14  1  0
 14 15  2  0
 15 16  1  0
 16 17  2  0
 17 18  1  0
 18 19  1  0
 18 20  2  0
 20 21  1  0
 21 22  2  0
 22 12  1  0
 22 16  1  0
M  END
>  <supplier_code>  (463) 
DB00608

>  <zinc_id>  (463) 
ZINC000019144226

>  <catalog_short_name>  (463) 
dbfda

$$$$

     RDKit          3D

 22 23  0  0  0  0  0  0  0  0999 V2000
    5.4658   -0.6686   -1.0389 C   0  0  0  0  0  0  0  0  0  0  0  0
    5.5373   -0.7124    0.2125 C   0  0  0  0  0  0  0  0  0  0  0  0
    4.9943    0.4848    0.8546 N   0  0  0  0  0  0  0  0  0  0  0  0
    5.4192    1.5915    0.0362 C   0  0  0  0  0  0  0  0  0  0  0  0
    4.8763    2.9276    0.5156 C   0  0  0  0  0  0  0  0  0  0  0  0
    3.5416    0.2991    0.8207 C   0  0  0  0  0  0  0  0  0  0  0  0
    3.0442    1.1340   -0.3008 C   0  0  0  0  0  0  0  0  0  0  0  0
    1.8001    0.7338   -0.9685 C   0  0  0  0  0  0  0  0  0  0  0  0
    0.9936   -0.2989    0.0533 C   0  0  2  0  0  0  0  0  0  0  0  0
    1.8182   -1.6165   -0.5438 C   0  0  0  0  0  0  0  0  0  0  0  0
   -0.1777   -0.4964   -1.0118 N   0  0  0  0  0  0  0  0  0  0  0  0
   -1.3629   -1.0431   -0.4738 C   0  0  0  0  0  0  0  0  0  0  0  0
   -1.3901   -2.3686   -0.0579 C   0  0  0  0  0  0  0  0  0  0  0  0
   -2.5802   -2.9007    0.3524 C   0  0  0  0  0  0  0  0  0  0  0  0
   -3.6935   -2.1666    0.3354 N   0  0  0  0  0  0  0  0  0  0  0  0
   -3.6741   -0.8343    0.1585 C   0  0  0  0  0  0  0  0  0  0  0  0
   -4.8511   -0.0988    0.0934 C   0  0  0  0  0  0  0  0  0  0  0  0
   -4.8427    1.2492   -0.1422 C   0  0  0  0  0  0  0  0  0  0  0  0
   -6.3152    2.2123   -0.0600 Cl  0  0  0  0  0  0  0  0  0  0  0  0
   -3.6211    1.8144   -0.4441 C   0  0  0  0  0  0  0  0  0  0  0  0
   -2.5160    1.0236   -0.6649 C   0  0  0  0  0  0  0  0  0  0  0  0
   -2.4659   -0.2654   -0.1909 C   0  0  0  0  0  0  0  0  0  0  0  0
  1  2  1  0
  2  3  1  0
  3  4  1  0
  4  5  1  0
  3  6  1  0
  6  7  1  0
  7  8  1  0
  9  8  1  6
  9 10  1  0
  9 11  1  0
 11 12  1  0
 12 13  2  0
 13 14  1  0
 14 15  2  0
 15 16  1  0
 16 17  2  0
 17 18  1  0
 18 19  1  0
 18 20  2  0
 20 21  1  0
 21 22  2  0
 22 12  1  0
 22 16  1  0
M  END
>  <supplier_code>  (464) 
DB00608

>  <zinc_id>  (464) 
ZINC000019144231

>  <catalog_short_name>  (464) 
dbfda

$$$$

     RDKit          3D

 11 11  0  0  0  0  0  0  0  0999 V2000
    1.9321    2.3958    0.0065 C   0  0  0  0  0  0  0  0  0  0  0  0
    2.5949    1.0320   -0.0400 C   0  0  0  0  0  0  0  0  0  0  0  0
    1.5401   -0.0096   -0.2441 C   0  0  0  0  0  0  0  0  0  0  0  0
    0.2298    0.3243   -0.5546 C   0  0  0  0  0  0  0  0  0  0  0  0
   -0.8431   -0.4940   -0.3352 C   0  0  0  0  0  0  0  0  0  0  0  0
   -2.1500    0.1442   -0.1280 C   0  0  0  0  0  0  0  0  0  0  0  0
   -2.6900    0.8960   -1.1998 N   0  0  0  0  0  0  0  0  0  0  0  0
   -2.4570    0.6777    1.3942 S   0  0  0  0  0  0  0  0  0  0  0  0
   -0.5825   -1.7571    0.1607 C   0  0  0  0  0  0  0  0  0  0  0  0
    0.7206   -2.0697    0.4539 C   0  0  0  0  0  0  0  0  0  0  0  0
    1.7050   -1.1395    0.4865 N   0  0  0  0  0  0  0  0  0  0  0  0
  1  2  1  0
  2  3  1  0
  3  4  2  0
  4  5  1  0
  5  6  1  0
  6  7  1  0
  6  8  2  0
  5  9  2  0
  9 10  1  0
 10 11  2  0
 11  3  1  0
M  END
>  <supplier_code>  (465) 
DB00609

>  <zinc_id>  (465) 
ZINC000003872520

>  <catalog_short_name>  (465) 
dbfda

$$$$

     RDKit          3D

 24 28  0  0  0  0  0  0  0  0999 V2000
   -5.2640    1.0550   -0.6269 O   0  0  0  0  0  0  0  0  0  0  0  0
   -3.8770    1.0216   -0.7156 C   0  0  0  0  0  0  0  0  0  0  0  0
   -3.1494    2.1369   -1.0601 C   0  0  0  0  0  0  0  0  0  0  0  0
   -1.7804    2.1589   -0.9590 C   0  0  0  0  0  0  0  0  0  0  0  0
   -1.0568    1.0458   -0.5428 C   0  0  0  0  0  0  0  0  0  0  0  0
   -1.8249   -0.0463   -0.1396 C   0  0  0  0  0  0  0  0  0  0  0  0
   -3.1939   -0.0511   -0.1534 C   0  0  0  0  0  0  0  0  0  0  0  0
   -0.9791   -0.9108    0.7487 C   0  0  1  0  0  0  0  0  0  0  0  0
   -1.6530   -2.2442    0.8822 C   0  0  0  0  0  0  0  0  0  0  0  0
   -1.7226   -3.0174   -0.3979 C   0  0  0  0  0  0  0  0  0  0  0  0
   -0.4541   -3.0576   -1.1868 C   0  0  0  0  0  0  0  0  0  0  0  0
    0.1354   -1.6616   -1.3761 C   0  0  0  0  0  0  0  0  0  0  0  0
    0.2787   -1.1834    0.0667 C   0  0  2  0  0  0  0  0  0  0  0  0
    1.0494   -2.1516    0.6980 O   0  0  0  0  0  0  0  0  0  0  0  0
    1.2261    0.1628   -0.0145 C   0  0  1  0  0  0  0  0  0  0  0  0
    0.0663    1.2642    0.4317 C   0  0  0  0  0  0  0  0  0  0  0  0
    1.7461   -0.0045    1.4780 N   0  0  0  0  0  0  0  0  0  0  0  0
    2.6810    1.0923    1.6442 C   0  0  0  0  0  0  0  0  0  0  0  0
    3.4137    1.4004    0.3457 C   0  0  0  0  0  0  0  0  0  0  0  0
    4.1933    0.1911   -0.1268 C   0  0  0  0  0  0  0  0  0  0  0  0
    5.4394    0.8545    0.4448 C   0  0  0  0  0  0  0  0  0  0  0  0
    4.6916    2.1617    0.6670 C   0  0  0  0  0  0  0  0  0  0  0  0
    0.7040    0.0554    2.3728 C   0  0  0  0  0  0  0  0  0  0  0  0
   -0.6699   -0.2722    2.0529 C   0  0  0  0  0  0  0  0  0  0  0  0
  1  2  1  0
  2  3  2  0
  3  4  1  0
  4  5  2  0
  5  6  1  0
  6  7  2  0
  8  6  1  6
  8  9  1  0
  9 10  1  0
 10 11  1  0
 11 12  1  0
 12 13  1  0
 13 14  1  1
 13 15  1  0
 15 16  1  1
 15 17  1  0
 17 18  1  0
 18 19  1  0
 19 20  1  0
 20 21  1  0
 21 22  1  0
 17 23  1  0
 23 24  1  0
  7  2  1  0
 13  8  1  0
 22 19  1  0
 16  5  1  0
 24  8  1  0
M  END
>  <supplier_code>  (466) 
DB00611

>  <zinc_id>  (466) 
ZINC000003812988

>  <catalog_short_name>  (466) 
dbfda

$$$$

     RDKit          3D

 23 23  0  0  0  0  0  0  0  0999 V2000
    6.3060   -0.8519   -0.7266 C   0  0  0  0  0  0  0  0  0  0  0  0
    6.4882   -0.5223   -0.3794 C   0  0  0  0  0  0  0  0  0  0  0  0
    6.9795    0.8422   -0.8501 C   0  0  0  0  0  0  0  0  0  0  0  0
    5.7899   -0.2893    0.8818 N   0  0  0  0  0  0  0  0  0  0  0  0
    5.2906    1.0492    0.9427 C   0  0  0  0  0  0  0  0  0  0  0  0
    3.7393    0.9564    1.5010 C   0  0  2  0  0  0  0  0  0  0  0  0
    4.1309    0.0023    2.6199 O   0  0  0  0  0  0  0  0  0  0  0  0
    3.3671   -0.2889    0.4795 C   0  0  0  0  0  0  0  0  0  0  0  0
    2.3131   -0.9418    1.1405 O   0  0  0  0  0  0  0  0  0  0  0  0
    0.9869   -0.5720    0.8967 C   0  0  0  0  0  0  0  0  0  0  0  0
    0.1255   -1.4803    0.2936 C   0  0  0  0  0  0  0  0  0  0  0  0
   -1.1431   -1.0462   -0.0684 C   0  0  0  0  0  0  0  0  0  0  0  0
   -1.4843    0.2829   -0.0645 C   0  0  0  0  0  0  0  0  0  0  0  0
   -2.8661    0.7765   -0.2811 C   0  0  0  0  0  0  0  0  0  0  0  0
   -3.0719    0.9171   -1.6627 O   0  0  0  0  0  0  0  0  0  0  0  0
   -4.2732    0.2541   -1.9418 C   0  0  0  0  0  0  0  0  0  0  0  0
   -4.7206   -0.6027   -0.7789 C   0  0  0  0  0  0  0  0  0  0  0  0
   -5.8431    0.0240   -0.2146 O   0  0  0  0  0  0  0  0  0  0  0  0
   -6.9504   -0.6357   -0.7115 C   0  0  0  0  0  0  0  0  0  0  0  0
   -7.4530   -0.0752   -2.0097 C   0  0  0  0  0  0  0  0  0  0  0  0
   -8.0238   -0.8838    0.3027 C   0  0  0  0  0  0  0  0  0  0  0  0
   -0.4480    1.1953    0.0642 C   0  0  0  0  0  0  0  0  0  0  0  0
    0.7606    0.7587    0.5666 C   0  0  0  0  0  0  0  0  0  0  0  0
  1  2  1  0
  2  3  1  0
  2  4  1  0
  4  5  1  0
  6  5  1  6
  6  7  1  0
  6  8  1  0
  8  9  1  0
  9 10  1  0
 10 11  2  0
 11 12  1  0
 12 13  2  0
 13 14  1  0
 14 15  1  0
 15 16  1  0
 16 17  1  0
 17 18  1  0
 18 19  1  0
 19 20  1  0
 19 21  1  0
 13 22  1  0
 22 23  2  0
 23 10  1  0
M  END
>  <supplier_code>  (467) 
DB00612

>  <zinc_id>  (467) 
ZINC000001530569

>  <catalog_short_name>  (467) 
dbfda

$$$$

     RDKit          3D

 23 23  0  0  0  0  0  0  0  0999 V2000
    3.9112   -0.1776    2.8148 C   0  0  0  0  0  0  0  0  0  0  0  0
    4.5273   -0.4917    2.2579 C   0  0  0  0  0  0  0  0  0  0  0  0
    5.9977   -0.1842    2.4509 C   0  0  0  0  0  0  0  0  0  0  0  0
    4.2400   -0.9437    0.9065 N   0  0  0  0  0  0  0  0  0  0  0  0
    4.6796    0.0289   -0.0700 C   0  0  0  0  0  0  0  0  0  0  0  0
    3.2537    0.5483   -0.7158 C   0  0  1  0  0  0  0  0  0  0  0  0
    3.9719    1.3279   -1.8034 O   0  0  0  0  0  0  0  0  0  0  0  0
    3.1359   -0.7880   -1.6753 C   0  0  0  0  0  0  0  0  0  0  0  0
    2.3852   -0.2875   -2.7748 O   0  0  0  0  0  0  0  0  0  0  0  0
    1.0436    0.0130   -2.5841 C   0  0  0  0  0  0  0  0  0  0  0  0
    0.5959    1.0428   -1.7939 C   0  0  0  0  0  0  0  0  0  0  0  0
   -0.7180    1.0045   -1.3431 C   0  0  0  0  0  0  0  0  0  0  0  0
   -1.5721   -0.0399   -1.6274 C   0  0  0  0  0  0  0  0  0  0  0  0
   -2.7226   -0.3237   -0.7441 C   0  0  0  0  0  0  0  0  0  0  0  0
   -2.3421   -0.1218    0.5667 O   0  0  0  0  0  0  0  0  0  0  0  0
   -3.1227    0.7948    1.2458 C   0  0  0  0  0  0  0  0  0  0  0  0
   -4.4905    0.9773    0.7032 C   0  0  0  0  0  0  0  0  0  0  0  0
   -5.4662    0.1704    1.1633 O   0  0  0  0  0  0  0  0  0  0  0  0
   -5.7301    0.1357    2.4961 C   0  0  0  0  0  0  0  0  0  0  0  0
   -5.7801   -1.3402    2.8800 C   0  0  0  0  0  0  0  0  0  0  0  0
   -4.7548    0.8134    3.3945 C   0  0  0  0  0  0  0  0  0  0  0  0
   -1.1702   -0.9051   -2.6323 C   0  0  0  0  0  0  0  0  0  0  0  0
    0.1274   -0.8690   -3.1155 C   0  0  0  0  0  0  0  0  0  0  0  0
  1  2  1  0
  2  3  1  0
  2  4  1  0
  4  5  1  0
  6  5  1  1
  6  7  1  0
  6  8  1  0
  8  9  1  0
  9 10  1  0
 10 11  2  0
 11 12  1  0
 12 13  2  0
 13 14  1  0
 14 15  1  0
 15 16  1  0
 16 17  1  0
 17 18  1  0
 18 19  1  0
 19 20  1  0
 19 21  1  0
 13 22  1  0
 22 23  2  0
 23 10  1  0
M  END
>  <supplier_code>  (468) 
DB00612

>  <zinc_id>  (468) 
ZINC000001530570

>  <catalog_short_name>  (468) 
dbfda

$$$$

     RDKit          3D

 61 66  0  0  0  0  0  0  0  0999 V2000
   -4.5089   -3.0896   -1.3162 C   0  0  0  0  0  0  0  0  0  0  0  0
   -4.6343   -2.3404   -0.9015 O   0  0  0  0  0  0  0  0  0  0  0  0
   -4.2878   -2.5532    0.5597 C   0  0  1  0  0  0  0  0  0  0  0  0
   -2.8634   -3.2125    0.2061 C   0  0  0  0  0  0  0  0  0  0  0  0
   -2.5168   -4.1407    1.0586 C   0  0  0  0  0  0  0  0  0  0  0  0
   -1.2444   -4.5892    0.8821 O   0  0  0  0  0  0  0  0  0  0  0  0
   -0.4127   -4.5961   -0.1682 C   0  0  1  0  0  0  0  0  0  0  0  0
   -0.1646   -6.0607   -0.5466 C   0  0  0  0  0  0  0  0  0  0  0  0
   -0.6360   -4.0218   -1.3746 O   0  0  0  0  0  0  0  0  0  0  0  0
    0.0219   -2.7911   -1.5204 C   0  0  0  0  0  0  0  0  0  0  0  0
    1.0959   -2.7185   -0.6156 C   0  0  0  0  0  0  0  0  0  0  0  0
    1.4199   -1.4488   -0.2877 C   0  0  0  0  0  0  0  0  0  0  0  0
    0.4316   -0.4570   -0.3625 C   0  0  0  0  0  0  0  0  0  0  0  0
   -0.6302   -0.5379   -1.2677 C   0  0  0  0  0  0  0  0  0  0  0  0
   -1.7787    0.2289   -1.1550 O   0  0  0  0  0  0  0  0  0  0  0  0
   -0.5164   -1.6433   -2.1138 C   0  0  0  0  0  0  0  0  0  0  0  0
   -1.5426   -1.6981   -3.1771 C   0  0  0  0  0  0  0  0  0  0  0  0
    0.5830    0.8083    0.4098 C   0  0  0  0  0  0  0  0  0  0  0  0
   -0.2883    0.5645    1.3733 O   0  0  0  0  0  0  0  0  0  0  0  0
    1.8695    1.3559    0.6612 C   0  0  0  0  0  0  0  0  0  0  0  0
    2.8594    0.4257    0.6844 C   0  0  0  0  0  0  0  0  0  0  0  0
    4.2825    0.5730    0.8416 N   0  0  0  0  0  0  0  0  0  0  0  0
    4.9143   -0.5739    0.2657 C   0  0  0  0  0  0  0  0  0  0  0  0
    6.0261   -0.2457   -0.6873 C   0  0  0  0  0  0  0  0  0  0  0  0
    7.2429   -1.0323   -0.2095 C   0  0  0  0  0  0  0  0  0  0  0  0
    7.6616   -0.3445    1.0122 N   0  0  0  0  0  0  0  0  0  0  0  0
    7.6539    1.0726    0.6536 C   0  0  0  0  0  0  0  0  0  0  0  0
    8.8651    1.4773   -0.1302 C   0  0  0  0  0  0  0  0  0  0  0  0
    9.9876    1.9819    0.7315 C   0  0  0  0  0  0  0  0  0  0  0  0
    9.2998    0.4725   -1.1527 C   0  0  0  0  0  0  0  0  0  0  0  0
    6.6125   -0.5816    1.9940 C   0  0  0  0  0  0  0  0  0  0  0  0
    5.4707   -1.4004    1.4018 C   0  0  0  0  0  0  0  0  0  0  0  0
    3.8815   -1.2440   -0.4701 N   0  0  0  0  0  0  0  0  0  0  0  0
    2.7421   -0.8148   -0.1150 C   0  0  0  0  0  0  0  0  0  0  0  0
    2.1961    2.7602    0.7101 N   0  0  0  0  0  0  0  0  0  0  0  0
    1.7512    3.6809   -0.3155 C   0  0  0  0  0  0  0  0  0  0  0  0
    2.7709    4.2936   -0.8492 O   0  0  0  0  0  0  0  0  0  0  0  0
    0.9463    2.8854   -1.2688 C   0  0  0  0  0  0  0  0  0  0  0  0
    1.1388    3.0701   -2.7524 C   0  0  0  0  0  0  0  0  0  0  0  0
    0.0270    3.0214   -0.5025 C   0  0  0  0  0  0  0  0  0  0  0  0
   -0.1508    3.7717    0.8003 C   0  0  0  0  0  0  0  0  0  0  0  0
   -0.8034    4.6202    0.1651 C   0  0  0  0  0  0  0  0  0  0  0  0
   -2.1126    3.6812   -0.1183 C   0  0  2  0  0  0  0  0  0  0  0  0
   -2.4316    4.4758   -1.4905 C   0  0  0  0  0  0  0  0  0  0  0  0
   -3.1454    4.5702    0.8688 C   0  0  2  0  0  0  0  0  0  0  0  0
   -2.5464    4.0731    2.1611 O   0  0  0  0  0  0  0  0  0  0  0  0
   -4.4267    3.4722    0.9384 C   0  0  1  0  0  0  0  0  0  0  0  0
   -4.8327    3.7923   -0.5925 C   0  0  0  0  0  0  0  0  0  0  0  0
   -3.7070    2.0190    0.4826 C   0  0  1  0  0  0  0  0  0  0  0  0
   -2.8816    1.8742    1.7278 O   0  0  0  0  0  0  0  0  0  0  0  0
   -4.9122    1.1282    1.2746 C   0  0  1  0  0  0  0  0  0  0  0  0
   -6.1774    1.8179    0.5738 C   0  0  0  0  0  0  0  0  0  0  0  0
   -4.9827   -0.1516    0.1747 C   0  0  2  0  0  0  0  0  0  0  0  0
   -5.9526   -0.8925    1.0825 O   0  0  0  0  0  0  0  0  0  0  0  0
   -7.1540   -1.2907    0.5747 C   0  0  0  0  0  0  0  0  0  0  0  0
   -7.8960   -2.4006    1.2545 C   0  0  0  0  0  0  0  0  0  0  0  0
   -7.6947   -0.6520   -0.3458 O   0  0  0  0  0  0  0  0  0  0  0  0
   -3.6518   -0.9803    0.8061 C   0  0  2  0  0  0  0  0  0  0  0  0
   -2.8194   -0.8491   -0.5586 C   0  0  0  0  0  0  0  0  0  0  0  0
    0.8662   -3.9078    0.2220 C   0  0  0  0  0  0  0  0  0  0  0  0
    1.6861   -4.7075    0.7856 O   0  0  0  0  0  0  0  0  0  0  0  0
  1  2  1  0
  3  2  1  6
  3  4  1  0
  4  5  2  0
  5  6  1  0
  6  7  1  0
  7  8  1  6
  7  9  1  0
  9 10  1  0
 10 11  2  0
 11 12  1  0
 12 13  2  0
 13 14  1  0
 14 15  1  0
 14 16  2  0
 16 17  1  0
 13 18  1  0
 18 19  2  0
 18 20  1  0
 20 21  2  0
 21 22  1  0
 22 23  1  0
 23 24  1  0
 24 25  1  0
 25 26  1  0
 26 27  1  0
 27 28  1  0
 28 29  1  0
 28 30  1  0
 26 31  1  0
 31 32  1  0
 23 33  1  0
 33 34  2  0
 20 35  1  0
 35 36  1  0
 36 37  2  0
 36 38  1  0
 38 39  1  0
 38 40  2  0
 40 41  1  0
 41 42  2  0
 42 43  1  0
 43 44  1  6
 43 45  1  0
 45 46  1  1
 45 47  1  0
 47 48  1  6
 47 49  1  0
 49 50  1  1
 49 51  1  0
 51 52  1  6
 51 53  1  0
 53 54  1  1
 54 55  1  0
 55 56  1  0
 55 57  2  0
 53 58  1  0
 58 59  1  6
 11 60  1  0
 60 61  2  0
 58  3  1  0
 60  7  1  0
 16 10  1  0
 34 21  1  0
 34 12  1  0
 32 23  1  0
M  END
>  <supplier_code>  (469) 
DB00615

>  <zinc_id>  (469) 
ZINC000169621215

>  <catalog_short_name>  (469) 
dbfda

$$$$

     RDKit          3D

 32 35  0  0  0  0  0  0  0  0999 V2000
   -1.8479    2.5676    1.3613 C   0  0  0  0  0  0  0  0  0  0  0  0
   -2.2962    2.2573    0.8344 N   0  0  0  0  0  0  0  0  0  0  0  0
   -3.2476    3.0537    0.1356 C   0  0  0  0  0  0  0  0  0  0  0  0
   -1.7081    1.2072   -0.1770 C   0  0  2  0  0  0  0  0  0  0  0  0
   -3.1579    0.6124   -0.4957 C   0  0  0  0  0  0  0  0  0  0  0  0
   -3.8417    1.2614   -1.5126 O   0  0  0  0  0  0  0  0  0  0  0  0
   -3.5159   -0.5406   -0.0840 C   0  0  0  0  0  0  0  0  0  0  0  0
   -4.9612   -0.8319   -0.0057 C   0  0  0  0  0  0  0  0  0  0  0  0
   -5.4506   -1.3870   -1.2346 N   0  0  0  0  0  0  0  0  0  0  0  0
   -5.2982   -1.4665    1.0422 O   0  0  0  0  0  0  0  0  0  0  0  0
   -2.5366   -1.6465    0.0437 C   0  0  0  0  0  0  0  0  0  0  0  0
   -2.9934   -2.4852    0.9035 O   0  0  0  0  0  0  0  0  0  0  0  0
   -1.2050   -1.1890    0.2150 C   0  0  1  0  0  0  0  0  0  0  0  0
   -0.6055   -2.1651    1.0431 O   0  0  0  0  0  0  0  0  0  0  0  0
   -0.2083   -1.0346   -0.8059 C   0  0  0  0  0  0  0  0  0  0  0  0
   -0.4380   -1.1112   -2.1772 O   0  0  0  0  0  0  0  0  0  0  0  0
    1.1026   -0.9257   -0.4466 C   0  0  0  0  0  0  0  0  0  0  0  0
    1.7156    0.1631   -1.1918 C   0  0  0  0  0  0  0  0  0  0  0  0
    1.5905    0.0889   -2.4592 O   0  0  0  0  0  0  0  0  0  0  0  0
    2.9912    0.5663   -0.5611 C   0  0  0  0  0  0  0  0  0  0  0  0
    3.9139    1.2697   -1.3344 C   0  0  0  0  0  0  0  0  0  0  0  0
    3.6003    1.5478   -2.6380 O   0  0  0  0  0  0  0  0  0  0  0  0
    5.1768    1.3844   -0.7791 C   0  0  0  0  0  0  0  0  0  0  0  0
    5.5836    0.4491    0.1673 C   0  0  0  0  0  0  0  0  0  0  0  0
    4.6227   -0.2933    0.8462 C   0  0  0  0  0  0  0  0  0  0  0  0
    5.2457   -1.4627    2.0020 Cl  0  0  0  0  0  0  0  0  0  0  0  0
    3.2976   -0.3361    0.3929 C   0  0  0  0  0  0  0  0  0  0  0  0
    2.4454   -0.4575    1.7480 C   0  0  1  0  0  0  0  0  0  0  0  0
    2.2036    1.0391    1.8922 O   0  0  0  0  0  0  0  0  0  0  0  0
    0.9094   -0.8848    1.1279 C   0  0  1  0  0  0  0  0  0  0  0  0
    0.2341    0.5958    1.0375 C   0  0  0  0  0  0  0  0  0  0  0  0
   -1.3210    0.1539    1.1103 C   0  0  1  0  0  0  0  0  0  0  0  0
  1  2  1  0
  2  3  1  0
  4  2  1  1
  4  5  1  0
  5  6  1  0
  5  7  2  0
  7  8  1  0
  8  9  1  0
  8 10  2  0
  7 11  1  0
 11 12  2  0
 11 13  1  0
 13 14  1  1
 13 15  1  0
 15 16  1  0
 15 17  2  0
 17 18  1  0
 18 19  2  0
 18 20  1  0
 20 21  2  0
 21 22  1  0
 21 23  1  0
 23 24  2  0
 24 25  1  0
 25 26  1  0
 25 27  2  0
 27 28  1  0
 28 29  1  6
 28 30  1  0
 30 31  1  6
 32 31  1  6
 32  4  1  0
 32 13  1  0
 30 17  1  0
 27 20  1  0
M  END
>  <supplier_code>  (470) 
DB00618

>  <zinc_id>  (470) 
ZINC000100036924

>  <catalog_short_name>  (470) 
dbfda

$$$$

     RDKit          3D

 37 41  0  0  0  0  0  0  0  0999 V2000
   -2.7432    3.2807    1.7682 C   0  0  0  0  0  0  0  0  0  0  0  0
   -2.2150    2.7603    0.4681 C   0  0  0  0  0  0  0  0  0  0  0  0
   -1.3406    3.5445   -0.2739 C   0  0  0  0  0  0  0  0  0  0  0  0
   -0.2780    2.9566   -0.9497 C   0  0  0  0  0  0  0  0  0  0  0  0
   -0.0013    1.5992   -0.8370 C   0  0  0  0  0  0  0  0  0  0  0  0
    1.3534    1.1680   -0.7531 N   0  0  0  0  0  0  0  0  0  0  0  0
    1.8900    0.5123    0.3930 C   0  0  0  0  0  0  0  0  0  0  0  0
    1.0791   -0.2176    1.0381 O   0  0  0  0  0  0  0  0  0  0  0  0
    3.3163    0.1854    0.5113 C   0  0  0  0  0  0  0  0  0  0  0  0
    3.7567   -1.0768    0.8763 C   0  0  0  0  0  0  0  0  0  0  0  0
    4.8836   -1.6352    0.2923 C   0  0  0  0  0  0  0  0  0  0  0  0
    5.6981   -0.8911   -0.5509 C   0  0  0  0  0  0  0  0  0  0  0  0
    6.3880   -1.5335   -1.6852 C   0  0  0  0  0  0  0  0  0  0  0  0
    7.6626   -2.0938   -1.3634 N   0  0  0  0  0  0  0  0  0  0  0  0
    7.6955   -2.8990   -0.1847 C   0  0  0  0  0  0  0  0  0  0  0  0
    8.3576   -2.2552    0.9963 C   0  0  0  0  0  0  0  0  0  0  0  0
    9.5893   -1.5743    0.6650 N   0  0  0  0  0  0  0  0  0  0  0  0
   10.4855   -2.4671   -0.0635 C   0  0  0  0  0  0  0  0  0  0  0  0
    9.2262   -0.5237   -0.2844 C   0  0  0  0  0  0  0  0  0  0  0  0
    8.7759   -1.2148   -1.5388 C   0  0  0  0  0  0  0  0  0  0  0  0
    5.4452    0.4751   -0.5722 C   0  0  0  0  0  0  0  0  0  0  0  0
    4.2700    1.0133   -0.0646 C   0  0  0  0  0  0  0  0  0  0  0  0
   -1.0615    0.8195   -0.3905 C   0  0  0  0  0  0  0  0  0  0  0  0
   -2.1879    1.4017    0.1785 C   0  0  0  0  0  0  0  0  0  0  0  0
   -3.2474    0.6252    0.7342 N   0  0  0  0  0  0  0  0  0  0  0  0
   -4.6150    0.8349    0.4254 C   0  0  0  0  0  0  0  0  0  0  0  0
   -5.3886    1.4971    1.3206 N   0  0  0  0  0  0  0  0  0  0  0  0
   -6.4942    2.0958    0.8144 C   0  0  0  0  0  0  0  0  0  0  0  0
   -7.0316    1.6026   -0.3686 C   0  0  0  0  0  0  0  0  0  0  0  0
   -6.5376    0.4146   -0.8949 C   0  0  0  0  0  0  0  0  0  0  0  0
   -7.4278   -0.6003   -1.4748 C   0  0  0  0  0  0  0  0  0  0  0  0
   -7.3640   -1.8986   -0.9841 C   0  0  0  0  0  0  0  0  0  0  0  0
   -8.5121   -2.6646   -0.8268 C   0  0  0  0  0  0  0  0  0  0  0  0
   -9.7415   -2.1019   -1.1409 C   0  0  0  0  0  0  0  0  0  0  0  0
   -9.7145   -1.0436   -1.9868 N   0  0  0  0  0  0  0  0  0  0  0  0
   -8.6785   -0.1767   -1.8820 C   0  0  0  0  0  0  0  0  0  0  0  0
   -5.2928    0.0808   -0.4740 N   0  0  0  0  0  0  0  0  0  0  0  0
  1  2  1  0
  2  3  2  0
  3  4  1  0
  4  5  2  0
  5  6  1  0
  6  7  1  0
  7  8  2  0
  7  9  1  0
  9 10  2  0
 10 11  1  0
 11 12  2  0
 12 13  1  0
 13 14  1  0
 14 15  1  0
 15 16  1  0
 16 17  1  0
 17 18  1  0
 17 19  1  0
 19 20  1  0
 12 21  1  0
 21 22  2  0
  5 23  1  0
 23 24  2  0
 24 25  1  0
 25 26  1  0
 26 27  2  0
 27 28  1  0
 28 29  2  0
 29 30  1  0
 30 31  1  0
 31 32  2  0
 32 33  1  0
 33 34  2  0
 34 35  1  0
 35 36  2  0
 30 37  2  0
 24  2  1  0
 37 26  1  0
 22  9  1  0
 36 31  1  0
 20 14  1  0
M  END
>  <supplier_code>  (471) 
DB00619

>  <zinc_id>  (471) 
ZINC000019632618

>  <catalog_short_name>  (471) 
dbfda

$$$$

     RDKit          3D

 28 31  0  0  0  0  0  0  0  0999 V2000
    1.8922   -1.0298    0.9516 C   0  0  0  0  0  0  0  0  0  0  0  0
    1.8191    0.0347   -0.1567 C   0  0  2  0  0  0  0  0  0  0  0  0
    1.1289    1.0931    0.4010 C   0  0  0  0  0  0  0  0  0  0  0  0
   -0.1169    1.7834   -0.4270 C   0  0  2  0  0  0  0  0  0  0  0  0
   -0.7485    2.1883    0.9009 O   0  0  0  0  0  0  0  0  0  0  0  0
   -1.1070    0.5087   -0.6285 C   0  0  1  0  0  0  0  0  0  0  0  0
   -1.1933    0.3848   -2.0317 F   0  0  0  0  0  0  0  0  0  0  0  0
   -0.3380   -0.7773   -0.0601 C   0  0  1  0  0  0  0  0  0  0  0  0
   -1.3263   -1.7979   -0.8350 C   0  0  0  0  0  0  0  0  0  0  0  0
   -2.5071   -1.8580    0.1228 C   0  0  0  0  0  0  0  0  0  0  0  0
   -2.7359   -0.5084    0.7627 C   0  0  0  0  0  0  0  0  0  0  0  0
   -3.8662   -0.2437    1.4600 C   0  0  0  0  0  0  0  0  0  0  0  0
   -4.9848    0.4067    0.7449 C   0  0  0  0  0  0  0  0  0  0  0  0
   -5.8424    1.1169    1.2688 O   0  0  0  0  0  0  0  0  0  0  0  0
   -4.7609    0.1426   -0.6887 C   0  0  0  0  0  0  0  0  0  0  0  0
   -3.5204    0.2557   -1.2049 C   0  0  0  0  0  0  0  0  0  0  0  0
   -2.4355    0.6163   -0.1978 C   0  0  2  0  0  0  0  0  0  0  0  0
   -3.0449    1.9231    0.2319 C   0  0  0  0  0  0  0  0  0  0  0  0
    0.8208   -0.5696   -1.2762 C   0  0  2  0  0  0  0  0  0  0  0  0
    1.5734   -1.9828   -1.1649 C   0  0  0  0  0  0  0  0  0  0  0  0
    2.9827   -1.4032   -1.8000 C   0  0  1  0  0  0  0  0  0  0  0  0
    2.3180   -0.6680   -2.9560 O   0  0  0  0  0  0  0  0  0  0  0  0
    3.0716   -0.0865   -0.8184 C   0  0  1  0  0  0  0  0  0  0  0  0
    3.3923    0.9935   -1.6026 O   0  0  0  0  0  0  0  0  0  0  0  0
    4.1739   -0.5193    0.1120 C   0  0  0  0  0  0  0  0  0  0  0  0
    4.4449   -1.7099    0.2796 O   0  0  0  0  0  0  0  0  0  0  0  0
    5.4631    0.2166    0.2874 C   0  0  0  0  0  0  0  0  0  0  0  0
    5.4468    1.4902   -0.2053 O   0  0  0  0  0  0  0  0  0  0  0  0
  2  1  1  1
  2  3  1  0
  3  4  1  0
  4  5  1  1
  4  6  1  0
  6  7  1  6
  6  8  1  0
  8  9  1  6
  9 10  1  0
 10 11  1  0
 11 12  2  0
 12 13  1  0
 13 14  2  0
 13 15  1  0
 15 16  2  0
 16 17  1  0
 17 18  1  1
  8 19  1  0
 19 20  1  1
 20 21  1  0
 21 22  1  6
 21 23  1  0
 23 24  1  6
 23 25  1  0
 25 26  2  0
 25 27  1  0
 27 28  1  0
 19  2  1  0
 23  2  1  0
 17  6  1  0
 17 11  1  0
M  END
>  <supplier_code>  (472) 
DB00620

>  <zinc_id>  (472) 
ZINC000003882036

>  <catalog_short_name>  (472) 
dbfda

$$$$

     RDKit          3D

 22 25  0  0  0  0  0  0  0  0999 V2000
   -4.4747    0.6751    0.9872 C   0  0  0  0  0  0  0  0  0  0  0  0
   -3.8264   -0.0109    0.0211 C   0  0  2  0  0  0  0  0  0  0  0  0
   -4.4607    0.2153   -1.2124 O   0  0  0  0  0  0  0  0  0  0  0  0
   -3.8745   -1.5272    0.1979 C   0  0  0  0  0  0  0  0  0  0  0  0
   -2.4512   -2.0181   -0.0645 C   0  0  0  0  0  0  0  0  0  0  0  0
   -1.7773   -0.8293    0.8413 C   0  0  1  0  0  0  0  0  0  0  0  0
   -0.2972   -0.8599    0.0002 C   0  0  2  0  0  0  0  0  0  0  0  0
    0.3798   -1.8941    1.0326 C   0  0  0  0  0  0  0  0  0  0  0  0
    1.8091   -1.8883    0.5613 C   0  0  0  0  0  0  0  0  0  0  0  0
    2.5097   -0.5427    1.2214 C   0  0  1  0  0  0  0  0  0  0  0  0
    3.7988   -0.6741    0.1942 C   0  0  0  0  0  0  0  0  0  0  0  0
    4.3203    0.6905    0.0644 C   0  0  0  0  0  0  0  0  0  0  0  0
    5.3823    0.7961   -0.5870 O   0  0  0  0  0  0  0  0  0  0  0  0
    3.6437    1.8451    0.3691 O   0  0  0  0  0  0  0  0  0  0  0  0
    2.2352    1.8526    0.4762 C   0  0  0  0  0  0  0  0  0  0  0  0
    1.7248    0.4894    0.2017 C   0  0  1  0  0  0  0  0  0  0  0  0
    1.7370   -0.0399   -1.1172 C   0  0  0  0  0  0  0  0  0  0  0  0
    0.2524    0.4739    0.9075 C   0  0  1  0  0  0  0  0  0  0  0  0
   -0.3714    1.5524   -0.1622 C   0  0  0  0  0  0  0  0  0  0  0  0
   -1.8267    1.5369    0.3151 C   0  0  0  0  0  0  0  0  0  0  0  0
   -2.3939    0.2854   -0.1872 C   0  0  2  0  0  0  0  0  0  0  0  0
   -2.0394   -0.1282   -1.5718 C   0  0  0  0  0  0  0  0  0  0  0  0
  2  1  1  1
  2  3  1  0
  2  4  1  0
  4  5  1  0
  6  5  1  6
  6  7  1  0
  7  8  1  1
  8  9  1  0
 10  9  1  6
 10 11  1  0
 11 12  1  0
 12 13  2  0
 12 14  1  0
 14 15  1  0
 15 16  1  0
 16 17  1  6
 16 18  1  0
 18 19  1  6
 19 20  1  0
 20 21  1  0
 21 22  1  6
 21  2  1  0
 21  6  1  0
 18  7  1  0
 16 10  1  0
M  END
>  <supplier_code>  (473) 
DB00621

>  <zinc_id>  (473) 
ZINC000003813047

>  <catalog_short_name>  (473) 
dbfda

$$$$

     RDKit          3D

 35 37  0  0  0  0  0  0  0  0999 V2000
   -4.5993    2.9023    1.2749 C   0  0  0  0  0  0  0  0  0  0  0  0
   -3.5766    2.2847    0.9369 O   0  0  0  0  0  0  0  0  0  0  0  0
   -3.0255    2.2894   -0.3182 C   0  0  0  0  0  0  0  0  0  0  0  0
   -3.4773    3.1365   -1.1384 O   0  0  0  0  0  0  0  0  0  0  0  0
   -2.1115    1.3039   -0.8594 C   0  0  0  0  0  0  0  0  0  0  0  0
   -2.3088    0.8273   -2.0406 C   0  0  0  0  0  0  0  0  0  0  0  0
   -3.0270    1.7032   -3.0213 C   0  0  0  0  0  0  0  0  0  0  0  0
   -1.6157   -0.3081   -2.4900 N   0  0  0  0  0  0  0  0  0  0  0  0
   -0.5063   -0.7494   -1.7397 C   0  0  0  0  0  0  0  0  0  0  0  0
    0.6529   -1.4606   -2.3721 C   0  0  0  0  0  0  0  0  0  0  0  0
   -0.2981   -0.2068   -0.5965 C   0  0  0  0  0  0  0  0  0  0  0  0
    0.7172   -0.7889    0.2940 C   0  0  0  0  0  0  0  0  0  0  0  0
    0.7514   -2.0361    0.4993 O   0  0  0  0  0  0  0  0  0  0  0  0
    1.4817    0.0133    1.1467 O   0  0  0  0  0  0  0  0  0  0  0  0
    2.3102   -0.5444    2.1361 C   0  0  0  0  0  0  0  0  0  0  0  0
    3.6060   -0.9424    1.4594 C   0  0  0  0  0  0  0  0  0  0  0  0
    3.9731    0.1561    0.5774 N   0  0  0  0  0  0  0  0  0  0  0  0
    4.4538    1.2904    1.3208 C   0  0  0  0  0  0  0  0  0  0  0  0
    4.8451   -0.2551   -0.4871 C   0  0  0  0  0  0  0  0  0  0  0  0
    6.2752   -0.0739   -0.2096 C   0  0  0  0  0  0  0  0  0  0  0  0
    7.0283   -1.1758    0.1786 C   0  0  0  0  0  0  0  0  0  0  0  0
    8.0863   -1.0468    1.0699 C   0  0  0  0  0  0  0  0  0  0  0  0
    8.5539    0.1957    1.4287 C   0  0  0  0  0  0  0  0  0  0  0  0
    8.0004    1.2810    0.7752 C   0  0  0  0  0  0  0  0  0  0  0  0
    6.8507    1.1668    0.0365 C   0  0  0  0  0  0  0  0  0  0  0  0
   -1.5817    0.2731    0.2907 C   0  0  2  0  0  0  0  0  0  0  0  0
   -2.5640   -0.9630   -0.1782 C   0  0  0  0  0  0  0  0  0  0  0  0
   -2.3826   -2.0562    0.6672 C   0  0  0  0  0  0  0  0  0  0  0  0
   -3.4308   -2.6300    1.3771 C   0  0  0  0  0  0  0  0  0  0  0  0
   -4.7382   -2.2975    1.0421 C   0  0  0  0  0  0  0  0  0  0  0  0
   -4.9613   -1.3546    0.0528 C   0  0  0  0  0  0  0  0  0  0  0  0
   -6.2585   -0.7850   -0.1729 N   0  0  0  0  0  0  0  0  0  0  0  0
   -6.7549   -0.1251    0.7743 O   0  0  0  0  0  0  0  0  0  0  0  0
   -6.4759   -0.2941   -1.4510 O   0  0  0  0  0  0  0  0  0  0  0  0
   -3.8924   -0.5536   -0.2634 C   0  0  0  0  0  0  0  0  0  0  0  0
  1  2  1  0
  2  3  1  0
  3  4  2  0
  3  5  1  0
  5  6  2  0
  6  7  1  0
  6  8  1  0
  8  9  1  0
  9 10  1  0
  9 11  2  0
 11 12  1  0
 12 13  2  0
 12 14  1  0
 14 15  1  0
 15 16  1  0
 16 17  1  0
 17 18  1  0
 17 19  1  0
 19 20  1  0
 20 21  2  0
 21 22  1  0
 22 23  2  0
 23 24  1  0
 24 25  2  0
 11 26  1  0
 26 27  1  6
 27 28  2  0
 28 29  1  0
 29 30  2  0
 30 31  1  0
 31 32  1  0
 32 33  2  0
 32 34  1  0
 31 35  2  0
 26  5  1  0
 35 27  1  0
 25 20  1  0
M  CHG  2  32   1  34  -1
M  END
>  <supplier_code>  (474) 
DB00622

>  <zinc_id>  (474) 
ZINC000019796087

>  <catalog_short_name>  (474) 
dbfda

$$$$

     RDKit          3D

 35 37  0  0  0  0  0  0  0  0999 V2000
   -2.1721    5.2696    1.3350 C   0  0  0  0  0  0  0  0  0  0  0  0
   -1.8303    3.9992    1.2002 O   0  0  0  0  0  0  0  0  0  0  0  0
   -2.3802    3.1131    0.2677 C   0  0  0  0  0  0  0  0  0  0  0  0
   -3.3929    3.5135   -0.3482 O   0  0  0  0  0  0  0  0  0  0  0  0
   -2.0893    1.6888    0.4676 C   0  0  0  0  0  0  0  0  0  0  0  0
   -2.3972    1.1518    1.5915 C   0  0  0  0  0  0  0  0  0  0  0  0
   -2.4646    2.0703    2.7772 C   0  0  0  0  0  0  0  0  0  0  0  0
   -2.1503   -0.2238    1.7837 N   0  0  0  0  0  0  0  0  0  0  0  0
   -1.3370   -0.9010    0.8176 C   0  0  0  0  0  0  0  0  0  0  0  0
   -0.4031   -2.0074    1.2149 C   0  0  0  0  0  0  0  0  0  0  0  0
   -1.0532   -0.2817   -0.2726 C   0  0  0  0  0  0  0  0  0  0  0  0
    0.2823   -0.1841   -0.8769 C   0  0  0  0  0  0  0  0  0  0  0  0
    1.0402   -1.1716   -0.9680 O   0  0  0  0  0  0  0  0  0  0  0  0
    0.8582    1.0818   -0.7898 O   0  0  0  0  0  0  0  0  0  0  0  0
    2.2048    1.3549   -1.0345 C   0  0  0  0  0  0  0  0  0  0  0  0
    3.1091    0.1615   -0.9634 C   0  0  0  0  0  0  0  0  0  0  0  0
    3.8772    0.1585    0.2512 N   0  0  0  0  0  0  0  0  0  0  0  0
    4.6414    1.3612    0.4335 C   0  0  0  0  0  0  0  0  0  0  0  0
    4.6459   -1.0466    0.3891 C   0  0  0  0  0  0  0  0  0  0  0  0
    6.0080   -0.9686   -0.1553 C   0  0  0  0  0  0  0  0  0  0  0  0
    6.4709   -0.0176   -1.0237 C   0  0  0  0  0  0  0  0  0  0  0  0
    7.8088    0.3216   -0.9390 C   0  0  0  0  0  0  0  0  0  0  0  0
    8.7323   -0.4586   -0.2682 C   0  0  0  0  0  0  0  0  0  0  0  0
    8.2803   -1.6727    0.2053 C   0  0  0  0  0  0  0  0  0  0  0  0
    6.9182   -1.9327    0.2618 C   0  0  0  0  0  0  0  0  0  0  0  0
   -2.0664    0.8096   -0.8790 C   0  0  1  0  0  0  0  0  0  0  0  0
   -3.3991   -0.0220   -0.5105 C   0  0  0  0  0  0  0  0  0  0  0  0
   -4.4964    0.6813   -0.9969 C   0  0  0  0  0  0  0  0  0  0  0  0
   -5.7159    0.0177   -0.9754 C   0  0  0  0  0  0  0  0  0  0  0  0
   -5.7230   -1.3547   -0.7325 C   0  0  0  0  0  0  0  0  0  0  0  0
   -4.5409   -2.0744   -0.5890 C   0  0  0  0  0  0  0  0  0  0  0  0
   -4.5238   -3.3705   -0.0258 N   0  0  0  0  0  0  0  0  0  0  0  0
   -5.6225   -3.9853   -0.0326 O   0  0  0  0  0  0  0  0  0  0  0  0
   -3.7226   -3.7267    1.0481 O   0  0  0  0  0  0  0  0  0  0  0  0
   -3.3965   -1.3544   -0.9179 C   0  0  0  0  0  0  0  0  0  0  0  0
  1  2  1  0
  2  3  1  0
  3  4  2  0
  3  5  1  0
  5  6  2  0
  6  7  1  0
  6  8  1  0
  8  9  1  0
  9 10  1  0
  9 11  2  0
 11 12  1  0
 12 13  2  0
 12 14  1  0
 14 15  1  0
 15 16  1  0
 16 17  1  0
 17 18  1  0
 17 19  1  0
 19 20  1  0
 20 21  2  0
 21 22  1  0
 22 23  2  0
 23 24  1  0
 24 25  2  0
 11 26  1  0
 26 27  1  1
 27 28  2  0
 28 29  1  0
 29 30  2  0
 30 31  1  0
 31 32  1  0
 32 33  2  0
 32 34  1  0
 31 35  2  0
 26  5  1  0
 35 27  1  0
 25 20  1  0
M  CHG  2  32   1  34  -1
M  END
>  <supplier_code>  (475) 
DB00622

>  <zinc_id>  (475) 
ZINC000084400879

>  <catalog_short_name>  (475) 
dbfda

$$$$

     RDKit          3D

 30 33  0  0  0  0  0  0  0  0999 V2000
    7.2275   -2.3549   -0.2924 O   0  0  0  0  0  0  0  0  0  0  0  0
    7.1531   -1.1791    0.4488 C   0  0  0  0  0  0  0  0  0  0  0  0
    6.4341   -0.0733   -0.2753 C   0  0  0  0  0  0  0  0  0  0  0  0
    5.0070   -0.2026   -0.1061 N   0  0  0  0  0  0  0  0  0  0  0  0
    4.6241   -1.5166    0.4001 C   0  0  0  0  0  0  0  0  0  0  0  0
    3.1356   -1.6087    0.2304 C   0  0  0  0  0  0  0  0  0  0  0  0
    2.4263   -0.5622    0.8716 N   0  0  0  0  0  0  0  0  0  0  0  0
    1.1145   -0.2969    0.3807 C   0  0  0  0  0  0  0  0  0  0  0  0
    1.0701    0.5020   -0.8888 C   0  0  0  0  0  0  0  0  0  0  0  0
   -0.2244    0.1851   -1.5913 C   0  0  0  0  0  0  0  0  0  0  0  0
   -1.3658    0.8441   -0.9601 N   0  0  0  0  0  0  0  0  0  0  0  0
   -1.4487    2.2569   -1.0724 C   0  0  0  0  0  0  0  0  0  0  0  0
   -0.2862    2.9461   -1.3981 C   0  0  0  0  0  0  0  0  0  0  0  0
   -0.1793    4.3136   -1.2747 C   0  0  0  0  0  0  0  0  0  0  0  0
   -1.0162    4.9428   -0.3623 C   0  0  0  0  0  0  0  0  0  0  0  0
   -2.0704    4.2360    0.1917 C   0  0  0  0  0  0  0  0  0  0  0  0
   -2.3459    2.9743   -0.2897 C   0  0  0  0  0  0  0  0  0  0  0  0
   -3.9815    2.2405   -0.1720 S   0  0  0  0  0  0  0  0  0  0  0  0
   -3.7566    0.5116   -0.6098 C   0  0  0  0  0  0  0  0  0  0  0  0
   -4.7940   -0.3347   -0.3334 C   0  0  0  0  0  0  0  0  0  0  0  0
   -4.5610   -1.6706   -0.0276 C   0  0  0  0  0  0  0  0  0  0  0  0
   -3.2707   -2.1412    0.1838 C   0  0  0  0  0  0  0  0  0  0  0  0
   -3.0162   -3.2396    1.1527 C   0  0  0  0  0  0  0  0  0  0  0  0
   -1.9645   -2.9396    2.0132 F   0  0  0  0  0  0  0  0  0  0  0  0
   -2.7288   -4.4222    0.4989 F   0  0  0  0  0  0  0  0  0  0  0  0
   -4.1188   -3.4645    1.9656 F   0  0  0  0  0  0  0  0  0  0  0  0
   -2.2536   -1.3248   -0.2963 C   0  0  0  0  0  0  0  0  0  0  0  0
   -2.4553    0.0337   -0.5082 C   0  0  0  0  0  0  0  0  0  0  0  0
    3.1587    0.5385    1.3567 C   0  0  0  0  0  0  0  0  0  0  0  0
    4.4870    0.8061    0.7643 C   0  0  0  0  0  0  0  0  0  0  0  0
  1  2  1  0
  2  3  1  0
  3  4  1  0
  4  5  1  0
  5  6  1  0
  6  7  1  0
  7  8  1  0
  8  9  1  0
  9 10  1  0
 10 11  1  0
 11 12  1  0
 12 13  2  0
 13 14  1  0
 14 15  2  0
 15 16  1  0
 16 17  2  0
 17 18  1  0
 18 19  1  0
 19 20  2  0
 20 21  1  0
 21 22  2  0
 22 23  1  0
 23 24  1  0
 23 25  1  0
 23 26  1  0
 22 27  1  0
 27 28  2  0
  7 29  1  0
 29 30  1  0
 30  4  1  0
 28 11  1  0
 17 12  1  0
 28 19  1  0
M  END
>  <supplier_code>  (476) 
DB00623

>  <zinc_id>  (476) 
ZINC000019203912

>  <catalog_short_name>  (476) 
dbfda

$$$$

     RDKit          3D

 21 24  0  0  0  0  0  0  0  0999 V2000
   -2.8770   -0.3625    0.9497 C   0  0  0  0  0  0  0  0  0  0  0  0
   -2.5672   -0.7237   -0.3775 C   0  0  2  0  0  0  0  0  0  0  0  0
   -1.8101   -1.8393   -0.8420 C   0  0  0  0  0  0  0  0  0  0  0  0
   -0.3865   -1.7521   -0.4367 C   0  0  0  0  0  0  0  0  0  0  0  0
    0.2766   -0.4171   -1.1230 C   0  0  1  0  0  0  0  0  0  0  0  0
   -0.6076    0.6245   -0.1002 C   0  0  1  0  0  0  0  0  0  0  0  0
   -0.0835    1.9705   -0.8078 C   0  0  0  0  0  0  0  0  0  0  0  0
    1.3769    2.0907   -0.6368 C   0  0  0  0  0  0  0  0  0  0  0  0
    1.8826    0.9585    0.2136 C   0  0  0  0  0  0  0  0  0  0  0  0
    3.1376    1.1455    0.6367 C   0  0  0  0  0  0  0  0  0  0  0  0
    4.1645    0.1002    0.5445 C   0  0  0  0  0  0  0  0  0  0  0  0
    5.3410    0.3595    0.9472 O   0  0  0  0  0  0  0  0  0  0  0  0
    3.9850   -0.9571   -0.4784 C   0  0  0  0  0  0  0  0  0  0  0  0
    2.6745   -0.7611   -1.2284 C   0  0  0  0  0  0  0  0  0  0  0  0
    1.6124   -0.4240   -0.1852 C   0  0  2  0  0  0  0  0  0  0  0  0
    1.5866   -1.4386    0.8459 C   0  0  0  0  0  0  0  0  0  0  0  0
   -1.8970    0.5155   -1.2107 C   0  0  2  0  0  0  0  0  0  0  0  0
   -2.8644    1.5511   -0.3970 C   0  0  0  0  0  0  0  0  0  0  0  0
   -4.2067    1.0175   -0.6716 C   0  0  0  0  0  0  0  0  0  0  0  0
   -3.8902   -0.4769   -1.3656 C   0  0  2  0  0  0  0  0  0  0  0  0
   -4.8473   -1.1810   -0.3740 O   0  0  0  0  0  0  0  0  0  0  0  0
  2  1  1  1
  2  3  1  0
  3  4  1  0
  5  4  1  1
  5  6  1  0
  6  7  1  6
  7  8  1  0
  8  9  1  0
  9 10  2  0
 10 11  1  0
 11 12  2  0
 11 13  1  0
 13 14  1  0
 14 15  1  0
 15 16  1  1
  6 17  1  0
 17 18  1  1
 18 19  1  0
 19 20  1  0
 20 21  1  1
 17  2  1  0
 20  2  1  0
 15  5  1  0
 15  9  1  0
M  END
>  <supplier_code>  (477) 
DB00624

>  <zinc_id>  (477) 
ZINC000118912393

>  <catalog_short_name>  (477) 
dbfda

$$$$

     RDKit          3D

 21 23  0  0  0  0  0  0  0  0999 V2000
   -0.3941   -3.9168   -0.8257 O   0  0  0  0  0  0  0  0  0  0  0  0
   -0.2354   -2.6660   -0.8762 C   0  0  0  0  0  0  0  0  0  0  0  0
   -1.0102   -1.8641   -1.7605 N   0  0  0  0  0  0  0  0  0  0  0  0
   -1.3128   -0.5292   -1.3362 C   0  0  0  0  0  0  0  0  0  0  0  0
   -2.1961    0.2479   -2.0609 C   0  0  0  0  0  0  0  0  0  0  0  0
   -2.7273    1.3914   -1.4994 C   0  0  0  0  0  0  0  0  0  0  0  0
   -2.6609    1.5362   -0.1240 C   0  0  0  0  0  0  0  0  0  0  0  0
   -3.4417    2.8901    0.6429 Cl  0  0  0  0  0  0  0  0  0  0  0  0
   -1.6963    0.8264    0.5463 C   0  0  0  0  0  0  0  0  0  0  0  0
   -0.9396   -0.1446   -0.0659 C   0  0  0  0  0  0  0  0  0  0  0  0
    0.3117   -0.6938    0.4922 C   0  0  1  0  0  0  0  0  0  0  0  0
    1.4625    0.1449    0.1138 C   0  0  0  0  0  0  0  0  0  0  0  0
    2.3411    0.8616   -0.2766 C   0  0  0  0  0  0  0  0  0  0  0  0
    3.0754    1.7686   -1.1767 C   0  0  0  0  0  0  0  0  0  0  0  0
    3.2200    3.1967   -0.6083 C   0  0  0  0  0  0  0  0  0  0  0  0
    4.3615    2.2603   -0.6086 C   0  0  0  0  0  0  0  0  0  0  0  0
    0.2749   -0.7912    2.0086 C   0  0  0  0  0  0  0  0  0  0  0  0
   -0.3652   -1.9496    2.3738 F   0  0  0  0  0  0  0  0  0  0  0  0
    1.5905   -0.9030    2.4230 F   0  0  0  0  0  0  0  0  0  0  0  0
   -0.2372    0.3325    2.5985 F   0  0  0  0  0  0  0  0  0  0  0  0
    0.5793   -1.9980    0.0198 O   0  0  0  0  0  0  0  0  0  0  0  0
  1  2  2  0
  2  3  1  0
  3  4  1  0
  4  5  2  0
  5  6  1  0
  6  7  2  0
  7  8  1  0
  7  9  1  0
  9 10  2  0
 10 11  1  0
 11 12  1  1
 12 13  3  0
 13 14  1  0
 14 15  1  0
 15 16  1  0
 11 17  1  0
 17 18  1  0
 17 19  1  0
 17 20  1  0
 11 21  1  0
 21  2  1  0
 10  4  1  0
 16 14  1  0
M  END
>  <supplier_code>  (478) 
DB00625

>  <zinc_id>  (478) 
ZINC000002020233

>  <catalog_short_name>  (478) 
dbfda

$$$$

     RDKit          3D

  9  9  0  0  0  0  0  0  0  0999 V2000
    1.9578   -0.8458    0.9895 O   0  0  0  0  0  0  0  0  0  0  0  0
    1.7075   -0.0969   -0.0030 C   0  0  0  0  0  0  0  0  0  0  0  0
    2.7216    0.7495   -0.4082 O   0  0  0  0  0  0  0  0  0  0  0  0
    0.3011    0.0972   -0.3768 C   0  0  0  0  0  0  0  0  0  0  0  0
   -0.3744    1.1888    0.1526 C   0  0  0  0  0  0  0  0  0  0  0  0
   -1.7082    1.0611    0.5193 C   0  0  0  0  0  0  0  0  0  0  0  0
   -2.3290   -0.1791    0.4365 C   0  0  0  0  0  0  0  0  0  0  0  0
   -1.7832   -1.0451   -0.4522 N   0  0  0  0  0  0  0  0  0  0  0  0
   -0.4931   -0.9296   -0.8578 C   0  0  0  0  0  0  0  0  0  0  0  0
  1  2  2  0
  2  3  1  0
  2  4  1  0
  4  5  2  0
  5  6  1  0
  6  7  2  0
  7  8  1  0
  8  9  2  0
  9  4  1  0
M  END
>  <supplier_code>  (479) 
DB00627

>  <zinc_id>  (479) 
ZINC000000001795

>  <catalog_short_name>  (479) 
dbfda

$$$$

     RDKit          3D

 22 24  0  0  0  0  0  0  0  0999 V2000
    3.3776   -2.5868   -0.1792 O   0  0  0  0  0  0  0  0  0  0  0  0
    3.3477   -1.6038   -0.3589 C   0  0  0  0  0  0  0  0  0  0  0  0
    3.4650   -1.0434   -1.5984 O   0  0  0  0  0  0  0  0  0  0  0  0
    2.2151   -0.9173    0.6218 C   0  0  2  0  0  0  0  0  0  0  0  0
    1.0926   -0.9400   -0.5372 N   0  0  0  0  0  0  0  0  0  0  0  0
   -0.0928   -0.4792   -0.2621 C   0  0  0  0  0  0  0  0  0  0  0  0
   -1.2687   -1.3045   -0.3274 C   0  0  0  0  0  0  0  0  0  0  0  0
   -1.3700   -2.4487    0.4598 C   0  0  0  0  0  0  0  0  0  0  0  0
   -2.5285   -2.9191    0.9920 C   0  0  0  0  0  0  0  0  0  0  0  0
   -3.6897   -2.5982    0.3056 C   0  0  0  0  0  0  0  0  0  0  0  0
   -3.6061   -1.6981   -0.7518 C   0  0  0  0  0  0  0  0  0  0  0  0
   -2.4492   -0.9529   -0.9588 C   0  0  0  0  0  0  0  0  0  0  0  0
   -0.3892    0.8707    0.2460 C   0  0  0  0  0  0  0  0  0  0  0  0
   -1.5638    1.3458   -0.3307 C   0  0  0  0  0  0  0  0  0  0  0  0
   -1.8323    2.7105   -0.3036 C   0  0  0  0  0  0  0  0  0  0  0  0
   -2.5257    3.5589   -1.6781 Cl  0  0  0  0  0  0  0  0  0  0  0  0
   -1.1928    3.3997    0.7199 C   0  0  0  0  0  0  0  0  0  0  0  0
    0.0029    2.9590    1.2649 C   0  0  0  0  0  0  0  0  0  0  0  0
    0.4836    1.7027    0.9357 C   0  0  0  0  0  0  0  0  0  0  0  0
    1.9122    1.6384    0.8979 N   0  0  0  0  0  0  0  0  0  0  0  0
    2.6970    0.6192    0.2576 C   0  0  0  0  0  0  0  0  0  0  0  0
    3.9149    0.6871    0.5849 O   0  0  0  0  0  0  0  0  0  0  0  0
  1  2  2  0
  2  3  1  0
  4  2  1  6
  4  5  1  0
  5  6  2  0
  6  7  1  0
  7  8  2  0
  8  9  1  0
  9 10  2  0
 10 11  1  0
 11 12  2  0
  6 13  1  0
 13 14  2  0
 14 15  1  0
 15 16  1  0
 15 17  2  0
 17 18  1  0
 18 19  2  0
 19 20  1  0
 20 21  1  0
 21 22  2  0
 21  4  1  0
 12  7  1  0
 19 13  1  0
M  END
>  <supplier_code>  (480) 
DB00628

>  <zinc_id>  (480) 
ZINC000028973441

>  <catalog_short_name>  (480) 
dbfda

$$$$

     RDKit          3D

 22 24  0  0  0  0  0  0  0  0999 V2000
    4.2372    0.8588    1.0291 O   0  0  0  0  0  0  0  0  0  0  0  0
    3.6753    0.3528    0.2869 C   0  0  0  0  0  0  0  0  0  0  0  0
    3.7275    0.3564   -1.0727 O   0  0  0  0  0  0  0  0  0  0  0  0
    2.2991   -0.2663    0.9490 C   0  0  1  0  0  0  0  0  0  0  0  0
    1.3567    0.5599   -0.0636 N   0  0  0  0  0  0  0  0  0  0  0  0
    0.0671    0.4490    0.0610 C   0  0  0  0  0  0  0  0  0  0  0  0
   -0.7391    1.6516   -0.1754 C   0  0  0  0  0  0  0  0  0  0  0  0
   -0.6839    2.2847   -1.4061 C   0  0  0  0  0  0  0  0  0  0  0  0
   -1.4153    3.4458   -1.5438 C   0  0  0  0  0  0  0  0  0  0  0  0
   -2.2114    3.9036   -0.5021 C   0  0  0  0  0  0  0  0  0  0  0  0
   -2.2351    3.2420    0.7100 C   0  0  0  0  0  0  0  0  0  0  0  0
   -1.3655    2.1887    0.9281 C   0  0  0  0  0  0  0  0  0  0  0  0
   -0.6811   -0.7874    0.0434 C   0  0  0  0  0  0  0  0  0  0  0  0
   -2.0486   -0.6197   -0.0968 C   0  0  0  0  0  0  0  0  0  0  0  0
   -2.8760   -1.7218    0.0899 C   0  0  0  0  0  0  0  0  0  0  0  0
   -4.4930   -1.7216   -0.6029 Cl  0  0  0  0  0  0  0  0  0  0  0  0
   -2.3382   -2.8144    0.7341 C   0  0  0  0  0  0  0  0  0  0  0  0
   -1.0069   -3.1194    0.5374 C   0  0  0  0  0  0  0  0  0  0  0  0
   -0.1726   -2.0769    0.1526 C   0  0  0  0  0  0  0  0  0  0  0  0
    1.1779   -2.4540   -0.0540 N   0  0  0  0  0  0  0  0  0  0  0  0
    2.3076   -1.5735   -0.0614 C   0  0  0  0  0  0  0  0  0  0  0  0
    3.4183   -2.1385    0.0573 O   0  0  0  0  0  0  0  0  0  0  0  0
  1  2  2  0
  2  3  1  0
  4  2  1  6
  4  5  1  0
  5  6  2  0
  6  7  1  0
  7  8  2  0
  8  9  1  0
  9 10  2  0
 10 11  1  0
 11 12  2  0
  6 13  1  0
 13 14  2  0
 14 15  1  0
 15 16  1  0
 15 17  2  0
 17 18  1  0
 18 19  2  0
 19 20  1  0
 20 21  1  0
 21 22  2  0
 21  4  1  0
 12  7  1  0
 19 13  1  0
M  END
>  <supplier_code>  (481) 
DB00628

>  <zinc_id>  (481) 
ZINC000028973446

>  <catalog_short_name>  (481) 
dbfda

$$$$

     RDKit          3D

 14 13  0  0  0  0  0  0  0  0999 V2000
    4.5980    0.0238    0.0041 N   0  0  0  0  0  0  0  0  0  0  0  0
    3.4879   -0.8134   -0.4019 C   0  0  0  0  0  0  0  0  0  0  0  0
    2.2780    0.0308   -0.6822 C   0  0  0  0  0  0  0  0  0  0  0  0
    1.0437   -0.6033   -0.0968 C   0  0  0  0  0  0  0  0  0  0  0  0
   -0.1128    0.3518   -0.1225 C   0  0  0  0  0  0  0  0  0  0  0  0
    0.2828    1.6459   -0.4794 O   0  0  0  0  0  0  0  0  0  0  0  0
   -1.4724   -0.2347   -1.1814 P   0  0  0  0  0  0  0  0  0  0  0  0
   -2.1610   -1.3411   -0.4021 O   0  0  0  0  0  0  0  0  0  0  0  0
   -0.9453   -0.7252   -2.6878 O   0  0  0  0  0  0  0  0  0  0  0  0
   -2.5871    1.0477   -1.2630 O   0  0  0  0  0  0  0  0  0  0  0  0
   -0.8787    0.5017    1.5280 P   0  0  0  0  0  0  0  0  0  0  0  0
    0.0880    1.0902    2.5134 O   0  0  0  0  0  0  0  0  0  0  0  0
   -1.3728   -1.0609    1.9680 O   0  0  0  0  0  0  0  0  0  0  0  0
   -2.2483    1.4858    1.3037 O   0  0  0  0  0  0  0  0  0  0  0  0
  1  2  1  0
  2  3  1  0
  3  4  1  0
  4  5  1  0
  5  6  1  0
  5  7  1  0
  7  8  2  0
  7  9  1  0
  7 10  1  0
  5 11  1  0
 11 12  2  0
 11 13  1  0
 11 14  1  0
M  END
>  <supplier_code>  (482) 
DB00630

>  <zinc_id>  (482) 
ZINC000003801919

>  <catalog_short_name>  (482) 
dbfda

$$$$

     RDKit          3D

 20 22  0  0  0  0  0  0  0  0999 V2000
    4.5597   -0.8439    0.0699 N   0  0  0  0  0  0  0  0  0  0  0  0
    3.3937   -0.3034    0.2825 C   0  0  0  0  0  0  0  0  0  0  0  0
    3.2329    0.9038    0.8980 N   0  0  0  0  0  0  0  0  0  0  0  0
    2.0764    1.6057    0.7292 C   0  0  0  0  0  0  0  0  0  0  0  0
    2.0725    3.3698    0.5967 Cl  0  0  0  0  0  0  0  0  0  0  0  0
    1.0087    1.0807    0.0614 N   0  0  0  0  0  0  0  0  0  0  0  0
    1.0592   -0.2404   -0.1401 C   0  0  0  0  0  0  0  0  0  0  0  0
    2.2762   -0.9157   -0.2886 C   0  0  0  0  0  0  0  0  0  0  0  0
    2.0871   -1.6541   -1.4190 N   0  0  0  0  0  0  0  0  0  0  0  0
    0.7355   -1.7334   -1.5691 C   0  0  0  0  0  0  0  0  0  0  0  0
    0.1885   -1.0802   -0.4930 N   0  0  0  0  0  0  0  0  0  0  0  0
   -1.3741   -1.0970   -0.5776 C   0  0  2  0  0  0  0  0  0  0  0  0
   -1.6532    0.3946   -0.6576 O   0  0  0  0  0  0  0  0  0  0  0  0
   -3.0769   -0.1098   -0.4462 C   0  0  2  0  0  0  0  0  0  0  0  0
   -3.7828    1.3514   -0.6759 C   0  0  0  0  0  0  0  0  0  0  0  0
   -4.0030    1.3097   -2.0611 O   0  0  0  0  0  0  0  0  0  0  0  0
   -2.6459    0.2174    1.1694 C   0  0  1  0  0  0  0  0  0  0  0  0
   -3.8392   -0.4856    1.7389 O   0  0  0  0  0  0  0  0  0  0  0  0
   -1.7439   -1.2314    1.1098 C   0  0  2  0  0  0  0  0  0  0  0  0
   -0.5714   -0.5384    1.6724 F   0  0  0  0  0  0  0  0  0  0  0  0
  1  2  1  0
  2  3  2  0
  3  4  1  0
  4  5  1  0
  4  6  2  0
  6  7  1  0
  7  8  2  0
  8  9  1  0
  9 10  2  0
 10 11  1  0
 12 11  1  1
 12 13  1  0
 13 14  1  0
 14 15  1  6
 15 16  1  0
 14 17  1  0
 17 18  1  1
 17 19  1  0
 19 20  1  1
  8  2  1  0
 19 12  1  0
 11  7  1  0
M  END
>  <supplier_code>  (483) 
DB00631

>  <zinc_id>  (483) 
ZINC000003798247

>  <catalog_short_name>  (483) 
dbfda

$$$$

     RDKit          3D

 23 22  0  0  0  0  0  0  0  0999 V2000
    8.1428    0.2706   -1.5517 C   0  0  0  0  0  0  0  0  0  0  0  0
    8.3146   -0.1349   -0.1135 C   0  0  0  0  0  0  0  0  0  0  0  0
    7.3255    0.5891    0.7923 C   0  0  0  0  0  0  0  0  0  0  0  0
    6.5967   -0.4066    1.6483 C   0  0  0  0  0  0  0  0  0  0  0  0
    5.1035   -0.2994    1.5642 C   0  0  0  0  0  0  0  0  0  0  0  0
    4.5147   -0.9093    0.3290 C   0  0  0  0  0  0  0  0  0  0  0  0
    4.2445    0.1450   -0.7080 C   0  0  0  0  0  0  0  0  0  0  0  0
    3.2155    1.1607   -0.2618 C   0  0  0  0  0  0  0  0  0  0  0  0
    2.6395    0.7642    1.0678 C   0  0  0  0  0  0  0  0  0  0  0  0
    1.8389   -0.5171    0.9458 C   0  0  0  0  0  0  0  0  0  0  0  0
    0.6852   -0.1863    0.0049 C   0  0  0  0  0  0  0  0  0  0  0  0
    0.0763    1.0966    0.5592 C   0  0  0  0  0  0  0  0  0  0  0  0
   -1.3305    0.7699    1.0358 C   0  0  0  0  0  0  0  0  0  0  0  0
   -1.6921   -0.6790    0.7322 C   0  0  0  0  0  0  0  0  0  0  0  0
   -2.6495   -0.6379   -0.4535 C   0  0  0  0  0  0  0  0  0  0  0  0
   -3.4512    0.6278   -0.3526 C   0  0  0  0  0  0  0  0  0  0  0  0
   -4.3243    0.8367   -1.5583 C   0  0  0  0  0  0  0  0  0  0  0  0
   -4.8993   -0.4704   -2.0601 C   0  0  0  0  0  0  0  0  0  0  0  0
   -6.2857   -0.3106   -2.6341 C   0  0  0  0  0  0  0  0  0  0  0  0
   -7.3385   -0.3593   -1.5335 C   0  0  0  0  0  0  0  0  0  0  0  0
   -6.7698    0.3840   -0.3561 C   0  0  0  0  0  0  0  0  0  0  0  0
   -7.4383    0.0332    0.9453 C   0  0  0  0  0  0  0  0  0  0  0  0
   -6.5183    0.3481    1.9583 O   0  0  0  0  0  0  0  0  0  0  0  0
  1  2  1  0
  2  3  1  0
  3  4  1  0
  4  5  1  0
  5  6  1  0
  6  7  1  0
  7  8  1  0
  8  9  1  0
  9 10  1  0
 10 11  1  0
 11 12  1  0
 12 13  1  0
 13 14  1  0
 14 15  1  0
 15 16  1  0
 16 17  1  0
 17 18  1  0
 18 19  1  0
 19 20  1  0
 20 21  1  0
 21 22  1  0
 22 23  1  0
M  END
>  <supplier_code>  (484) 
DB00632

>  <zinc_id>  (484) 
ZINC000006920384

>  <catalog_short_name>  (484) 
dbfda

$$$$

     RDKit          3D

 15 16  0  0  0  0  0  0  0  0999 V2000
   -2.9940   -0.8316   -1.5928 C   0  0  0  0  0  0  0  0  0  0  0  0
   -2.3006   -0.4346   -0.3301 C   0  0  0  0  0  0  0  0  0  0  0  0
   -2.7110   -0.9868    0.8783 C   0  0  0  0  0  0  0  0  0  0  0  0
   -1.9342   -0.8204    2.0112 C   0  0  0  0  0  0  0  0  0  0  0  0
   -0.7128   -0.1668    1.9030 C   0  0  0  0  0  0  0  0  0  0  0  0
   -0.5433    0.6124    0.7643 C   0  0  0  0  0  0  0  0  0  0  0  0
    0.9094    1.3570    0.7058 C   0  0  2  0  0  0  0  0  0  0  0  0
    0.3991    2.4267   -0.4690 C   0  0  0  0  0  0  0  0  0  0  0  0
    1.5475    0.3379   -0.4111 C   0  0  0  0  0  0  0  0  0  0  0  0
    2.9381    0.4587   -0.4177 C   0  0  0  0  0  0  0  0  0  0  0  0
    3.5118   -0.7576   -0.2404 N   0  0  0  0  0  0  0  0  0  0  0  0
    2.5354   -1.6342   -0.5778 C   0  0  0  0  0  0  0  0  0  0  0  0
    1.3868   -0.9901   -0.2581 N   0  0  0  0  0  0  0  0  0  0  0  0
   -1.0777    0.2248   -0.4209 C   0  0  0  0  0  0  0  0  0  0  0  0
   -0.9546    1.2046   -1.5445 C   0  0  0  0  0  0  0  0  0  0  0  0
  1  2  1  0
  2  3  2  0
  3  4  1  0
  4  5  2  0
  5  6  1  0
  7  6  1  6
  7  8  1  0
  7  9  1  0
  9 10  2  0
 10 11  1  0
 11 12  2  0
 12 13  1  0
  6 14  2  0
 14 15  1  0
 14  2  1  0
 13  9  1  0
M  END
>  <supplier_code>  (485) 
DB00633

>  <zinc_id>  (485) 
ZINC000004632106

>  <catalog_short_name>  (485) 
dbfda

$$$$

     RDKit          3D

 14 14  0  0  0  0  0  0  0  0999 V2000
   -3.8346    1.6186    0.2924 C   0  0  0  0  0  0  0  0  0  0  0  0
   -2.5112    0.9245    0.2113 C   0  0  0  0  0  0  0  0  0  0  0  0
   -1.3279    1.6413    0.1275 O   0  0  0  0  0  0  0  0  0  0  0  0
   -2.3979   -0.3627    0.2378 N   0  0  0  0  0  0  0  0  0  0  0  0
   -1.2176   -1.1597   -0.7131 S   0  0  0  0  0  0  0  0  0  0  0  0
   -1.5785   -1.0851   -2.1659 O   0  0  0  0  0  0  0  0  0  0  0  0
   -1.1310   -2.6131   -0.3024 O   0  0  0  0  0  0  0  0  0  0  0  0
    0.3786   -0.5033   -0.5081 C   0  0  0  0  0  0  0  0  0  0  0  0
    0.9680   -0.3366    0.7399 C   0  0  0  0  0  0  0  0  0  0  0  0
    2.0998    0.4682    0.7566 C   0  0  0  0  0  0  0  0  0  0  0  0
    2.8873    0.6102   -0.3710 C   0  0  0  0  0  0  0  0  0  0  0  0
    3.7983    1.7072   -0.5117 N   0  0  0  0  0  0  0  0  0  0  0  0
    2.5891   -0.2337   -1.4342 C   0  0  0  0  0  0  0  0  0  0  0  0
    1.2777   -0.6757   -1.5537 C   0  0  0  0  0  0  0  0  0  0  0  0
  1  2  1  0
  2  3  1  0
  2  4  2  0
  4  5  1  0
  5  6  2  0
  5  7  2  0
  5  8  1  0
  8  9  2  0
  9 10  1  0
 10 11  2  0
 11 12  1  0
 11 13  1  0
 13 14  2  0
 14  8  1  0
M  END
>  <supplier_code>  (486) 
DB00634

>  <zinc_id>  (486) 
ZINC000005179119

>  <catalog_short_name>  (486) 
dbfda

$$$$

     RDKit          3D

 26 29  0  0  0  0  0  0  0  0999 V2000
   -1.6294   -1.1458   -1.5865 C   0  0  0  0  0  0  0  0  0  0  0  0
   -1.9021   -0.2054   -0.5070 C   0  0  2  0  0  0  0  0  0  0  0  0
   -1.4203    1.1644   -0.6136 C   0  0  0  0  0  0  0  0  0  0  0  0
    0.0352    1.3697   -0.6869 C   0  0  0  0  0  0  0  0  0  0  0  0
    0.4079    2.5453   -0.6797 O   0  0  0  0  0  0  0  0  0  0  0  0
    0.9256    0.5917    0.4228 C   0  0  1  0  0  0  0  0  0  0  0  0
    0.3515   -0.9179   -0.1226 C   0  0  1  0  0  0  0  0  0  0  0  0
    1.0748   -1.7040    1.0820 C   0  0  0  0  0  0  0  0  0  0  0  0
    2.3836   -1.9951    0.4392 C   0  0  0  0  0  0  0  0  0  0  0  0
    2.8663   -0.8265   -0.3054 C   0  0  0  0  0  0  0  0  0  0  0  0
    4.1465   -0.9123   -0.6832 C   0  0  0  0  0  0  0  0  0  0  0  0
    5.0758    0.2128   -0.4892 C   0  0  0  0  0  0  0  0  0  0  0  0
    6.2875    0.1583   -0.7868 O   0  0  0  0  0  0  0  0  0  0  0  0
    4.4958    1.2739    0.3478 C   0  0  0  0  0  0  0  0  0  0  0  0
    3.1715    1.4360    0.3005 C   0  0  0  0  0  0  0  0  0  0  0  0
    2.2921    0.4933   -0.4712 C   0  0  2  0  0  0  0  0  0  0  0  0
    2.1036    1.0110   -1.8163 C   0  0  0  0  0  0  0  0  0  0  0  0
   -1.0617   -0.7363    0.7970 C   0  0  2  0  0  0  0  0  0  0  0  0
   -1.5614   -2.2629    0.4905 C   0  0  0  0  0  0  0  0  0  0  0  0
   -3.0605   -1.9765    0.4192 C   0  0  0  0  0  0  0  0  0  0  0  0
   -3.1808   -0.4732    0.1878 C   0  0  1  0  0  0  0  0  0  0  0  0
   -3.1404    0.1511    1.4435 O   0  0  0  0  0  0  0  0  0  0  0  0
   -4.4132   -0.1063   -0.5334 C   0  0  0  0  0  0  0  0  0  0  0  0
   -5.4478   -0.5645   -0.0419 O   0  0  0  0  0  0  0  0  0  0  0  0
   -4.5065    1.3611   -0.8468 C   0  0  0  0  0  0  0  0  0  0  0  0
   -4.2936    2.0583    0.3513 O   0  0  0  0  0  0  0  0  0  0  0  0
  2  1  1  6
  2  3  1  0
  3  4  1  0
  4  5  2  0
  6  4  1  6
  6  7  1  0
  7  8  1  1
  8  9  1  0
  9 10  1  0
 10 11  2  0
 11 12  1  0
 12 13  2  0
 12 14  1  0
 14 15  2  0
 15 16  1  0
 16 17  1  6
  7 18  1  0
 18 19  1  6
 19 20  1  0
 20 21  1  0
 21 22  1  1
 21 23  1  0
 23 24  2  0
 23 25  1  0
 25 26  1  0
 18  2  1  0
 21  2  1  0
 16  6  1  0
 16 10  1  0
M  END
>  <supplier_code>  (487) 
DB00635

>  <zinc_id>  (487) 
ZINC000003875357

>  <catalog_short_name>  (487) 
dbfda

$$$$

     RDKit          3D

 25 27  0  0  0  0  0  0  0  0999 V2000
    6.2749   -1.5711    0.1462 Cl  0  0  0  0  0  0  0  0  0  0  0  0
    4.7650   -0.9780    0.6366 C   0  0  0  0  0  0  0  0  0  0  0  0
    4.7062    0.1581    1.4206 C   0  0  0  0  0  0  0  0  0  0  0  0
    3.5412    0.9008    1.5472 C   0  0  0  0  0  0  0  0  0  0  0  0
    2.4104    0.5619    0.8293 C   0  0  0  0  0  0  0  0  0  0  0  0
    1.0831    1.1738    1.1573 C   0  0  0  0  0  0  0  0  0  0  0  0
    0.0414    0.1705    0.7979 C   0  0  0  0  0  0  0  0  0  0  0  0
   -1.1069    0.8536   -0.0674 C   0  0  1  0  0  0  0  0  0  0  0  0
   -0.1496    1.8238   -0.8956 C   0  0  0  0  0  0  0  0  0  0  0  0
   -0.7155    3.1375   -0.5977 N   0  0  0  0  0  0  0  0  0  0  0  0
   -1.1343    3.6114    0.5977 C   0  0  0  0  0  0  0  0  0  0  0  0
   -1.8020    4.8100    0.4345 C   0  0  0  0  0  0  0  0  0  0  0  0
   -2.0105    4.9122   -0.8991 N   0  0  0  0  0  0  0  0  0  0  0  0
   -1.2469    3.9909   -1.4983 C   0  0  0  0  0  0  0  0  0  0  0  0
   -1.1021   -0.5212   -1.4008 S   0  0  0  0  0  0  0  0  0  0  0  0
   -1.9247   -1.8828   -0.6073 C   0  0  0  0  0  0  0  0  0  0  0  0
   -1.3327   -3.1012   -0.3600 C   0  0  0  0  0  0  0  0  0  0  0  0
    0.4003   -3.2324   -0.5594 Cl  0  0  0  0  0  0  0  0  0  0  0  0
   -2.1671   -4.2123   -0.3535 C   0  0  0  0  0  0  0  0  0  0  0  0
   -3.5478   -4.0762   -0.2823 C   0  0  0  0  0  0  0  0  0  0  0  0
   -4.0507   -2.8057   -0.0520 C   0  0  0  0  0  0  0  0  0  0  0  0
   -3.2318   -1.6937   -0.2069 C   0  0  0  0  0  0  0  0  0  0  0  0
   -3.8131   -0.0710    0.1547 Cl  0  0  0  0  0  0  0  0  0  0  0  0
    2.5148   -0.5480    0.0088 C   0  0  0  0  0  0  0  0  0  0  0  0
    3.5984   -1.4105    0.0495 C   0  0  0  0  0  0  0  0  0  0  0  0
  1  2  1  0
  2  3  2  0
  3  4  1  0
  4  5  2  0
  5  6  1  0
  6  7  1  0
  8  7  1  1
  8  9  1  0
  9 10  1  0
 10 11  1  0
 11 12  2  0
 12 13  1  0
 13 14  2  0
  8 15  1  0
 15 16  1  0
 16 17  2  0
 17 18  1  0
 17 19  1  0
 19 20  2  0
 20 21  1  0
 21 22  2  0
 22 23  1  0
  5 24  1  0
 24 25  2  0
 25  2  1  0
 14 10  1  0
 22 16  1  0
M  END
>  <supplier_code>  (488) 
DB00639

>  <zinc_id>  (488) 
ZINC000001530973

>  <catalog_short_name>  (488) 
dbfda

$$$$

     RDKit          3D

 25 27  0  0  0  0  0  0  0  0999 V2000
    6.1453   -1.6591    1.6134 Cl  0  0  0  0  0  0  0  0  0  0  0  0
    4.9667   -0.8849    0.7579 C   0  0  0  0  0  0  0  0  0  0  0  0
    3.8968   -0.2282    1.3530 C   0  0  0  0  0  0  0  0  0  0  0  0
    2.7688    0.0169    0.5929 C   0  0  0  0  0  0  0  0  0  0  0  0
    2.7810   -0.0668   -0.7734 C   0  0  0  0  0  0  0  0  0  0  0  0
    1.5976    0.1187   -1.6354 C   0  0  0  0  0  0  0  0  0  0  0  0
    0.2999   -0.1994   -0.9398 C   0  0  0  0  0  0  0  0  0  0  0  0
   -0.5653    1.1196   -1.1684 C   0  0  2  0  0  0  0  0  0  0  0  0
   -0.0353    1.8272    0.1596 C   0  0  0  0  0  0  0  0  0  0  0  0
   -1.0016    2.8414    0.5301 N   0  0  0  0  0  0  0  0  0  0  0  0
   -2.1217    2.7290    1.2586 C   0  0  0  0  0  0  0  0  0  0  0  0
   -2.2955    3.8729    2.0207 C   0  0  0  0  0  0  0  0  0  0  0  0
   -1.3640    4.7341    1.6050 N   0  0  0  0  0  0  0  0  0  0  0  0
   -0.6650    4.1502    0.6018 C   0  0  0  0  0  0  0  0  0  0  0  0
   -2.1736    0.4867   -0.3611 S   0  0  0  0  0  0  0  0  0  0  0  0
   -2.3136   -1.2530   -0.5624 C   0  0  0  0  0  0  0  0  0  0  0  0
   -3.0586   -1.8687   -1.5603 C   0  0  0  0  0  0  0  0  0  0  0  0
   -3.3321   -0.9146   -3.0040 Cl  0  0  0  0  0  0  0  0  0  0  0  0
   -3.6401   -3.1136   -1.3654 C   0  0  0  0  0  0  0  0  0  0  0  0
   -3.4398   -3.7910   -0.1706 C   0  0  0  0  0  0  0  0  0  0  0  0
   -2.5005   -3.3133    0.7103 C   0  0  0  0  0  0  0  0  0  0  0  0
   -1.9002   -2.0823    0.4734 C   0  0  0  0  0  0  0  0  0  0  0  0
   -1.0882   -1.3505    1.8543 Cl  0  0  0  0  0  0  0  0  0  0  0  0
    3.9587   -0.4436   -1.3731 C   0  0  0  0  0  0  0  0  0  0  0  0
    5.0802   -0.7278   -0.6173 C   0  0  0  0  0  0  0  0  0  0  0  0
  1  2  1  0
  2  3  2  0
  3  4  1  0
  4  5  2  0
  5  6  1  0
  6  7  1  0
  8  7  1  1
  8  9  1  0
  9 10  1  0
 10 11  1  0
 11 12  2  0
 12 13  1  0
 13 14  2  0
  8 15  1  0
 15 16  1  0
 16 17  2  0
 17 18  1  0
 17 19  1  0
 19 20  2  0
 20 21  1  0
 21 22  2  0
 22 23  1  0
  5 24  1  0
 24 25  2  0
 25  2  1  0
 14 10  1  0
 22 16  1  0
M  END
>  <supplier_code>  (489) 
DB00639

>  <zinc_id>  (489) 
ZINC000001530974

>  <catalog_short_name>  (489) 
dbfda

$$$$

     RDKit          3D

 19 21  0  0  0  0  0  0  0  0999 V2000
   -4.1031    2.2080    0.3600 N   0  0  0  0  0  0  0  0  0  0  0  0
   -3.4417    1.0202    0.3345 C   0  0  0  0  0  0  0  0  0  0  0  0
   -4.0926   -0.1590    0.4333 N   0  0  0  0  0  0  0  0  0  0  0  0
   -3.4572   -1.3562    0.4386 C   0  0  0  0  0  0  0  0  0  0  0  0
   -2.1018   -1.3774    0.4771 N   0  0  0  0  0  0  0  0  0  0  0  0
   -1.3809   -0.2523    0.2611 C   0  0  0  0  0  0  0  0  0  0  0  0
   -2.0872    0.9259    0.0976 C   0  0  0  0  0  0  0  0  0  0  0  0
   -1.3248    1.7195   -0.6448 N   0  0  0  0  0  0  0  0  0  0  0  0
   -0.0948    1.1638   -0.7253 C   0  0  0  0  0  0  0  0  0  0  0  0
   -0.1762   -0.0549   -0.2428 N   0  0  0  0  0  0  0  0  0  0  0  0
    1.0345   -0.9251    0.2777 C   0  0  2  0  0  0  0  0  0  0  0  0
    1.7791    0.2819    0.7526 O   0  0  0  0  0  0  0  0  0  0  0  0
    3.1692   -0.2070    0.8833 C   0  0  2  0  0  0  0  0  0  0  0  0
    3.7250    1.0521   -0.0440 C   0  0  0  0  0  0  0  0  0  0  0  0
    3.2742    2.1857    0.6622 O   0  0  0  0  0  0  0  0  0  0  0  0
    3.2689   -1.2258   -0.4832 C   0  0  1  0  0  0  0  0  0  0  0  0
    2.6895   -2.4200    0.2229 O   0  0  0  0  0  0  0  0  0  0  0  0
    1.8543   -0.6320   -1.1939 C   0  0  1  0  0  0  0  0  0  0  0  0
    1.4656   -1.9472   -1.7912 O   0  0  0  0  0  0  0  0  0  0  0  0
  1  2  1  0
  2  3  2  0
  3  4  1  0
  4  5  2  0
  5  6  1  0
  6  7  2  0
  7  8  1  0
  8  9  2  0
  9 10  1  0
 11 10  1  6
 11 12  1  0
 12 13  1  0
 13 14  1  6
 14 15  1  0
 13 16  1  0
 16 17  1  1
 16 18  1  0
 18 19  1  6
  7  2  1  0
 18 11  1  0
 10  6  1  0
M  END
>  <supplier_code>  (490) 
DB00640

>  <zinc_id>  (490) 
ZINC000002169830

>  <catalog_short_name>  (490) 
dbfda

$$$$

     RDKit          3D

 30 32  0  0  0  0  0  0  0  0999 V2000
   -5.0912    0.9177    1.7647 C   0  0  0  0  0  0  0  0  0  0  0  0
   -5.1667    1.5531    1.2327 C   0  0  0  0  0  0  0  0  0  0  0  0
   -4.6003    2.2730    0.0494 C   0  0  0  0  0  0  0  0  0  0  0  0
   -5.9195    2.5530   -0.6862 C   0  0  0  0  0  0  0  0  0  0  0  0
   -4.0702    3.6161    0.4098 C   0  0  0  0  0  0  0  0  0  0  0  0
   -3.7679    1.4378   -0.8526 C   0  0  0  0  0  0  0  0  0  0  0  0
   -4.5172    0.6342   -1.5100 O   0  0  0  0  0  0  0  0  0  0  0  0
   -2.3733    1.2128   -0.8730 O   0  0  0  0  0  0  0  0  0  0  0  0
   -2.3262   -0.3165   -0.6578 C   0  0  1  0  0  0  0  0  0  0  0  0
   -1.5640   -0.8095   -2.0213 C   0  0  0  0  0  0  0  0  0  0  0  0
   -2.5255   -2.1308   -1.7237 C   0  0  1  0  0  0  0  0  0  0  0  0
   -1.5888   -3.1150   -2.6328 C   0  0  0  0  0  0  0  0  0  0  0  0
   -1.9035   -2.6162   -0.3359 C   0  0  0  0  0  0  0  0  0  0  0  0
   -1.6089   -1.8322    0.6488 C   0  0  0  0  0  0  0  0  0  0  0  0
   -0.7675   -2.2113    1.8112 C   0  0  0  0  0  0  0  0  0  0  0  0
    0.5418   -1.8713    1.6462 C   0  0  0  0  0  0  0  0  0  0  0  0
    0.5195   -2.4506    0.1408 C   0  0  2  0  0  0  0  0  0  0  0  0
    2.1157   -2.5966   -0.0377 C   0  0  0  0  0  0  0  0  0  0  0  0
    0.2408   -0.9652   -0.6453 C   0  0  2  0  0  0  0  0  0  0  0  0
    1.3809   -0.1563    0.1342 C   0  0  0  0  0  0  0  0  0  0  0  0
    2.6791   -0.1862   -0.7053 C   0  0  0  0  0  0  0  0  0  0  0  0
    3.6366   -0.1188    0.6629 C   0  0  2  0  0  0  0  0  0  0  0  0
    3.5864    1.5201    0.5788 C   0  0  0  0  0  0  0  0  0  0  0  0
    4.9862    1.9406   -0.1467 C   0  0  1  0  0  0  0  0  0  0  0  0
    4.9134    3.3450    0.4234 O   0  0  0  0  0  0  0  0  0  0  0  0
    5.8800    1.4055    1.1346 C   0  0  0  0  0  0  0  0  0  0  0  0
    6.0925    0.0092    0.6016 C   0  0  0  0  0  0  0  0  0  0  0  0
    7.2417   -0.2732    0.1140 O   0  0  0  0  0  0  0  0  0  0  0  0
    4.9487   -0.3792   -0.1108 O   0  0  0  0  0  0  0  0  0  0  0  0
   -0.9725   -0.3891    0.3682 C   0  0  1  0  0  0  0  0  0  0  0  0
  1  2  1  0
  2  3  1  0
  3  4  1  0
  3  5  1  0
  3  6  1  0
  6  7  2  0
  6  8  1  0
  9  8  1  6
  9 10  1  0
 10 11  1  0
 11 12  1  6
 11 13  1  0
 13 14  2  0
 14 15  1  0
 15 16  2  0
 16 17  1  0
 17 18  1  6
 17 19  1  0
 19 20  1  1
 20 21  1  0
 22 21  1  6
 22 23  1  0
 23 24  1  0
 24 25  1  1
 24 26  1  0
 26 27  1  0
 27 28  2  0
 27 29  1  0
 19 30  1  0
 30  9  1  0
 30 14  1  1
 29 22  1  0
M  END
>  <supplier_code>  (491) 
DB00641

>  <zinc_id>  (491) 
ZINC000003780893

>  <catalog_short_name>  (491) 
dbfda

$$$$

     RDKit          3D

 31 33  0  0  0  0  0  0  0  0999 V2000
   -8.4731    1.1898    1.2610 N   0  0  0  0  0  0  0  0  0  0  0  0
   -7.3542    1.1787    0.8887 C   0  0  0  0  0  0  0  0  0  0  0  0
   -6.9960    1.9023   -0.1977 N   0  0  0  0  0  0  0  0  0  0  0  0
   -5.8406    1.7351   -0.8551 C   0  0  0  0  0  0  0  0  0  0  0  0
   -5.3235    2.1883   -2.0229 N   0  0  0  0  0  0  0  0  0  0  0  0
   -4.2071    1.4916   -2.3372 C   0  0  0  0  0  0  0  0  0  0  0  0
   -3.9104    0.7388   -1.2147 C   0  0  0  0  0  0  0  0  0  0  0  0
   -2.6618    0.0175   -0.8958 C   0  0  0  0  0  0  0  0  0  0  0  0
   -1.5171    1.0184   -0.9946 C   0  0  0  0  0  0  0  0  0  0  0  0
   -0.2867    0.2444   -0.6722 C   0  0  0  0  0  0  0  0  0  0  0  0
   -0.2381   -1.0671   -1.1330 C   0  0  0  0  0  0  0  0  0  0  0  0
    0.8779   -1.8353   -0.8348 C   0  0  0  0  0  0  0  0  0  0  0  0
    1.7169   -1.4853    0.1856 C   0  0  0  0  0  0  0  0  0  0  0  0
    3.1604   -1.7614    0.1735 C   0  0  0  0  0  0  0  0  0  0  0  0
    3.8084   -1.9912    1.2393 O   0  0  0  0  0  0  0  0  0  0  0  0
    3.8640   -1.5197   -1.0037 N   0  0  0  0  0  0  0  0  0  0  0  0
    5.4574   -1.4925   -0.9057 C   0  0  1  0  0  0  0  0  0  0  0  0
    5.4420   -0.4540    0.4044 C   0  0  0  0  0  0  0  0  0  0  0  0
    5.0326    0.8363   -0.2996 C   0  0  0  0  0  0  0  0  0  0  0  0
    6.1101    1.8573   -0.2524 C   0  0  0  0  0  0  0  0  0  0  0  0
    7.3142    1.4727   -0.2827 O   0  0  0  0  0  0  0  0  0  0  0  0
    5.7651    3.1812   -0.0745 O   0  0  0  0  0  0  0  0  0  0  0  0
    5.5026   -2.8137    0.0664 C   0  0  0  0  0  0  0  0  0  0  0  0
    6.5490   -2.8231    0.7609 O   0  0  0  0  0  0  0  0  0  0  0  0
    5.0346   -3.9404   -0.6200 O   0  0  0  0  0  0  0  0  0  0  0  0
    1.3616   -0.3488    0.9038 C   0  0  0  0  0  0  0  0  0  0  0  0
    0.2935    0.4436    0.5753 C   0  0  0  0  0  0  0  0  0  0  0  0
   -4.8333    1.0540   -0.2343 C   0  0  0  0  0  0  0  0  0  0  0  0
   -5.0888    0.5311    1.0254 C   0  0  0  0  0  0  0  0  0  0  0  0
   -4.2391   -0.1913    1.5839 O   0  0  0  0  0  0  0  0  0  0  0  0
   -6.3204    0.6426    1.5791 N   0  0  0  0  0  0  0  0  0  0  0  0
  1  2  1  0
  2  3  2  0
  3  4  1  0
  4  5  1  0
  5  6  1  0
  6  7  2  0
  7  8  1  0
  8  9  1  0
  9 10  1  0
 10 11  2  0
 11 12  1  0
 12 13  2  0
 13 14  1  0
 14 15  2  0
 14 16  1  0
 17 16  1  1
 17 18  1  0
 18 19  1  0
 19 20  1  0
 20 21  2  0
 20 22  1  0
 17 23  1  0
 23 24  2  0
 23 25  1  0
 13 26  1  0
 26 27  2  0
  7 28  1  0
 28 29  1  0
 29 30  2  0
 29 31  1  0
 31  2  1  0
 28  4  2  0
 27 10  1  0
M  END
>  <supplier_code>  (492) 
DB00642

>  <zinc_id>  (492) 
ZINC000001540998

>  <catalog_short_name>  (492) 
dbfda

$$$$

     RDKit          3D

 22 24  0  0  0  0  0  0  0  0999 V2000
    6.4476    2.7266    0.2854 C   0  0  0  0  0  0  0  0  0  0  0  0
    5.7938    1.7532   -0.4942 O   0  0  0  0  0  0  0  0  0  0  0  0
    4.5991    1.1884   -0.0641 C   0  0  0  0  0  0  0  0  0  0  0  0
    4.4844    0.9689    1.1681 O   0  0  0  0  0  0  0  0  0  0  0  0
    3.7608    0.5222   -0.9914 N   0  0  0  0  0  0  0  0  0  0  0  0
    2.9092   -0.3767   -0.5899 C   0  0  0  0  0  0  0  0  0  0  0  0
    2.4559   -0.3719    0.6867 N   0  0  0  0  0  0  0  0  0  0  0  0
    1.2710   -1.0164    0.7372 C   0  0  0  0  0  0  0  0  0  0  0  0
    0.2412   -0.9908    1.6700 C   0  0  0  0  0  0  0  0  0  0  0  0
   -1.0890   -1.0035    1.3033 C   0  0  0  0  0  0  0  0  0  0  0  0
   -1.3899   -1.2977   -0.0164 C   0  0  0  0  0  0  0  0  0  0  0  0
   -2.7570   -1.2512   -0.5208 C   0  0  0  0  0  0  0  0  0  0  0  0
   -3.1409   -2.2815   -1.1529 O   0  0  0  0  0  0  0  0  0  0  0  0
   -3.6535   -0.1229   -0.2964 C   0  0  0  0  0  0  0  0  0  0  0  0
   -3.2285    1.1758   -0.4889 C   0  0  0  0  0  0  0  0  0  0  0  0
   -4.0420    2.2071   -0.0442 C   0  0  0  0  0  0  0  0  0  0  0  0
   -5.0077    1.9662    0.9226 C   0  0  0  0  0  0  0  0  0  0  0  0
   -5.5553    0.6951    0.9445 C   0  0  0  0  0  0  0  0  0  0  0  0
   -4.7268   -0.3496    0.5557 C   0  0  0  0  0  0  0  0  0  0  0  0
   -0.3694   -1.5968   -0.8763 C   0  0  0  0  0  0  0  0  0  0  0  0
    0.9705   -1.4536   -0.5349 C   0  0  0  0  0  0  0  0  0  0  0  0
    2.0263   -1.0912   -1.2973 N   0  0  0  0  0  0  0  0  0  0  0  0
  1  2  1  0
  2  3  1  0
  3  4  2  0
  3  5  1  0
  5  6  2  0
  6  7  1  0
  7  8  1  0
  8  9  2  0
  9 10  1  0
 10 11  2  0
 11 12  1  0
 12 13  2  0
 12 14  1  0
 14 15  2  0
 15 16  1  0
 16 17  2  0
 17 18  1  0
 18 19  2  0
 11 20  1  0
 20 21  2  0
 21 22  1  0
 22  6  1  0
 21  8  1  0
 19 14  1  0
M  END
>  <supplier_code>  (493) 
DB00643

>  <zinc_id>  (493) 
ZINC000000121541

>  <catalog_short_name>  (493) 
dbfda

$$$$

     RDKit          3D

 21 22  0  0  0  0  0  0  0  0999 V2000
   -6.6024   -0.7940    0.6791 C   0  0  0  0  0  0  0  0  0  0  0  0
   -5.5922   -1.9287    0.5542 C   0  0  0  0  0  0  0  0  0  0  0  0
   -4.5224   -1.5940   -0.4760 C   0  0  0  0  0  0  0  0  0  0  0  0
   -4.6803   -0.1810   -0.9856 C   0  0  0  0  0  0  0  0  0  0  0  0
   -4.3339    0.7857    0.0011 O   0  0  0  0  0  0  0  0  0  0  0  0
   -3.1209    1.4771   -0.0697 C   0  0  0  0  0  0  0  0  0  0  0  0
   -2.5516    1.8152   -1.2913 C   0  0  0  0  0  0  0  0  0  0  0  0
   -1.1749    1.8943   -1.4429 C   0  0  0  0  0  0  0  0  0  0  0  0
   -0.3723    1.4811   -0.3966 C   0  0  0  0  0  0  0  0  0  0  0  0
    1.0098    1.0332   -0.6031 C   0  0  0  0  0  0  0  0  0  0  0  0
    1.7522    1.8340   -1.2417 O   0  0  0  0  0  0  0  0  0  0  0  0
    1.6267    0.1326    0.4174 C   0  0  0  0  0  0  0  0  0  0  0  0
    2.5939   -0.8512   -0.2247 C   0  0  0  0  0  0  0  0  0  0  0  0
    3.9372   -0.2910   -0.2930 N   0  0  0  0  0  0  0  0  0  0  0  0
    4.6032   -0.9263   -1.4013 C   0  0  0  0  0  0  0  0  0  0  0  0
    5.8143   -1.7202   -1.0032 C   0  0  0  0  0  0  0  0  0  0  0  0
    5.5450   -2.7182    0.0900 C   0  0  0  0  0  0  0  0  0  0  0  0
    4.5847   -2.1049    1.1026 C   0  0  0  0  0  0  0  0  0  0  0  0
    4.7045   -0.5970    0.9119 C   0  0  0  0  0  0  0  0  0  0  0  0
   -0.9202    1.6038    0.8725 C   0  0  0  0  0  0  0  0  0  0  0  0
   -2.3003    1.6495    1.0350 C   0  0  0  0  0  0  0  0  0  0  0  0
  1  2  1  0
  2  3  1  0
  3  4  1  0
  4  5  1  0
  5  6  1  0
  6  7  2  0
  7  8  1  0
  8  9  2  0
  9 10  1  0
 10 11  2  0
 10 12  1  0
 12 13  1  0
 13 14  1  0
 14 15  1  0
 15 16  1  0
 16 17  1  0
 17 18  1  0
 18 19  1  0
  9 20  1  0
 20 21  2  0
 21  6  1  0
 19 14  1  0
M  END
>  <supplier_code>  (494) 
DB00645

>  <zinc_id>  (494) 
ZINC000001530940

>  <catalog_short_name>  (494) 
dbfda

$$$$

     RDKit          3D

 65 66  0  0  0  0  0  0  0  0999 V2000
   -6.8633   -5.6055   -0.5147 C   0  0  0  0  0  0  0  0  0  0  0  0
   -5.7652   -4.4136   -0.6444 C   0  0  2  0  0  0  0  0  0  0  0  0
   -4.7842   -4.9712    0.4795 C   0  0  0  0  0  0  0  0  0  0  0  0
   -4.8011   -6.1759    0.8774 C   0  0  0  0  0  0  0  0  0  0  0  0
   -4.3797   -7.3234    0.0694 C   0  0  0  0  0  0  0  0  0  0  0  0
   -3.2850   -7.1099   -0.6582 C   0  0  0  0  0  0  0  0  0  0  0  0
   -1.9640   -6.9874    0.0102 C   0  0  0  0  0  0  0  0  0  0  0  0
   -0.8929   -7.0462   -1.0449 C   0  0  0  0  0  0  0  0  0  0  0  0
    0.2941   -6.2178   -0.6805 C   0  0  0  0  0  0  0  0  0  0  0  0
    0.5406   -5.9437    0.5825 C   0  0  0  0  0  0  0  0  0  0  0  0
    1.6999   -5.1399    0.9190 C   0  0  0  0  0  0  0  0  0  0  0  0
    2.8439   -5.4344    0.3172 C   0  0  0  0  0  0  0  0  0  0  0  0
    3.7918   -4.3183    0.1949 C   0  0  0  0  0  0  0  0  0  0  0  0
    3.2662   -3.2823   -0.4672 C   0  0  0  0  0  0  0  0  0  0  0  0
    3.1803   -2.1074    0.4012 C   0  0  0  0  0  0  0  0  0  0  0  0
    4.3416   -1.5563    0.5106 C   0  0  0  0  0  0  0  0  0  0  0  0
    4.5033   -0.3163   -0.5574 C   0  0  2  0  0  0  0  0  0  0  0  0
    5.7748   -0.8502   -1.2394 O   0  0  0  0  0  0  0  0  0  0  0  0
    6.4958   -1.5550   -0.1034 C   0  0  2  0  0  0  0  0  0  0  0  0
    7.4031   -0.3663    0.2442 O   0  0  0  0  0  0  0  0  0  0  0  0
    7.9778   -1.1137    1.4247 C   0  0  2  0  0  0  0  0  0  0  0  0
    8.7133    0.2340    2.0052 C   0  0  0  0  0  0  0  0  0  0  0  0
    9.3261   -1.4557    0.4309 C   0  0  1  0  0  0  0  0  0  0  0  0
    9.9819   -2.1723    1.5678 O   0  0  0  0  0  0  0  0  0  0  0  0
    8.6154   -2.8850   -0.1178 C   0  0  2  0  0  0  0  0  0  0  0  0
    9.7426   -3.0511   -1.1709 N   0  0  0  0  0  0  0  0  0  0  0  0
    7.5636   -2.2518   -1.2824 C   0  0  2  0  0  0  0  0  0  0  0  0
    8.3371   -1.0209   -1.6265 O   0  0  0  0  0  0  0  0  0  0  0  0
    5.3412    0.5376    0.5136 C   0  0  0  0  0  0  0  0  0  0  0  0
    4.9762    2.0938    0.6259 C   0  0  2  0  0  0  0  0  0  0  0  0
    4.0232    1.7895    1.7882 O   0  0  0  0  0  0  0  0  0  0  0  0
    3.6317    2.1779   -0.4377 C   0  0  2  0  0  0  0  0  0  0  0  0
    4.3344    2.0681   -1.8186 C   0  0  0  0  0  0  0  0  0  0  0  0
    4.9752    1.7430   -2.5864 O   0  0  0  0  0  0  0  0  0  0  0  0
    3.4830    2.5085   -2.7800 O   0  0  0  0  0  0  0  0  0  0  0  0
    3.9545    3.8665   -0.5346 C   0  0  2  0  0  0  0  0  0  0  0  0
    3.7775    4.0666    0.9589 O   0  0  0  0  0  0  0  0  0  0  0  0
    2.3828    4.2128   -0.8254 C   0  0  0  0  0  0  0  0  0  0  0  0
    2.3786    5.6208   -0.3960 C   0  0  0  0  0  0  0  0  0  0  0  0
    2.8239    6.1074    0.6009 O   0  0  0  0  0  0  0  0  0  0  0  0
    1.1645    6.3093   -0.9330 C   0  0  0  0  0  0  0  0  0  0  0  0
    0.0643    5.4353   -0.0777 C   0  0  2  0  0  0  0  0  0  0  0  0
   -0.1596    4.4935   -1.2406 O   0  0  0  0  0  0  0  0  0  0  0  0
   -1.1934    6.4809   -0.6374 C   0  0  2  0  0  0  0  0  0  0  0  0
   -0.5400    7.6868    0.0044 O   0  0  0  0  0  0  0  0  0  0  0  0
   -2.0578    6.1740    0.7221 C   0  0  0  0  0  0  0  0  0  0  0  0
   -2.4750    4.8154    0.5587 C   0  0  0  0  0  0  0  0  0  0  0  0
   -3.6394    4.6904   -0.6064 C   0  0  2  0  0  0  0  0  0  0  0  0
   -3.9516    6.1846   -0.6522 O   0  0  0  0  0  0  0  0  0  0  0  0
   -4.8059    4.4566    0.5417 C   0  0  0  0  0  0  0  0  0  0  0  0
   -5.7752    3.3904   -0.2703 C   0  0  2  0  0  0  0  0  0  0  0  0
   -5.8976    4.3260   -1.4692 O   0  0  0  0  0  0  0  0  0  0  0  0
   -7.1279    4.0468    0.4058 C   0  0  0  0  0  0  0  0  0  0  0  0
   -7.7558    2.7601    1.2302 C   0  0  2  0  0  0  0  0  0  0  0  0
   -6.4053    2.3629    1.8135 O   0  0  0  0  0  0  0  0  0  0  0  0
   -7.5800    1.7237   -0.0488 C   0  0  0  0  0  0  0  0  0  0  0  0
   -8.7141    0.7741    0.1509 C   0  0  0  0  0  0  0  0  0  0  0  0
   -9.8414    1.2181    0.4889 O   0  0  0  0  0  0  0  0  0  0  0  0
   -8.6619   -0.5677   -0.2139 O   0  0  0  0  0  0  0  0  0  0  0  0
   -7.2180   -1.0728   -0.0482 C   0  0  2  0  0  0  0  0  0  0  0  0
   -6.8328   -0.5575   -1.5620 C   0  0  0  0  0  0  0  0  0  0  0  0
   -7.5042   -2.6446   -0.6465 C   0  0  2  0  0  0  0  0  0  0  0  0
   -8.8305   -2.9023    0.2179 C   0  0  0  0  0  0  0  0  0  0  0  0
   -6.5753   -3.4541    0.5249 C   0  0  2  0  0  0  0  0  0  0  0  0
   -5.4259   -2.4848    0.4864 O   0  0  0  0  0  0  0  0  0  0  0  0
  2  1  1  1
  2  3  1  0
  3  4  2  0
  4  5  1  0
  5  6  2  0
  6  7  1  0
  7  8  1  0
  8  9  1  0
  9 10  2  0
 10 11  1  0
 11 12  2  0
 12 13  1  0
 13 14  2  0
 14 15  1  0
 15 16  2  0
 16 17  1  0
 17 18  1  6
 19 18  1  6
 19 20  1  0
 20 21  1  0
 21 22  1  1
 21 23  1  0
 23 24  1  1
 23 25  1  0
 25 26  1  6
 25 27  1  0
 27 28  1  6
 17 29  1  0
 29 30  1  0
 30 31  1  1
 30 32  1  0
 32 33  1  6
 33 34  2  0
 33 35  1  0
 32 36  1  0
 36 37  1  1
 36 38  1  0
 38 39  1  0
 39 40  2  0
 39 41  1  0
 41 42  1  0
 42 43  1  6
 42 44  1  0
 44 45  1  1
 44 46  1  0
 46 47  1  0
 47 48  1  0
 48 49  1  1
 48 50  1  0
 50 51  1  0
 51 52  1  6
 51 53  1  0
 53 54  1  0
 54 55  1  1
 54 56  1  0
 56 57  1  0
 57 58  2  0
 57 59  1  0
 59 60  1  0
 60 61  1  6
 60 62  1  0
 62 63  1  1
 62 64  1  0
 64 65  1  6
 64  2  1  0
 27 19  1  0
M  END
>  <supplier_code>  (495) 
DB00646

>  <zinc_id>  (495) 
ZINC000252286875

>  <catalog_short_name>  (495) 
dbfda

$$$$

     RDKit          3D

 65 66  0  0  0  0  0  0  0  0999 V2000
   -7.6644    5.0793    1.0610 C   0  0  0  0  0  0  0  0  0  0  0  0
   -6.6661    3.8142    0.8094 C   0  0  2  0  0  0  0  0  0  0  0  0
   -5.3954    4.7092    0.7014 C   0  0  0  0  0  0  0  0  0  0  0  0
   -4.8131    5.5337    0.1983 C   0  0  0  0  0  0  0  0  0  0  0  0
   -3.4842    4.8623   -0.0081 C   0  0  0  0  0  0  0  0  0  0  0  0
   -3.0566    5.6266   -0.9435 C   0  0  0  0  0  0  0  0  0  0  0  0
   -2.1815    6.7570   -0.4691 C   0  0  0  0  0  0  0  0  0  0  0  0
   -1.1308    6.1191    0.4286 C   0  0  0  0  0  0  0  0  0  0  0  0
    0.1550    6.2837   -0.2959 C   0  0  0  0  0  0  0  0  0  0  0  0
    1.1229    6.7595    0.4957 C   0  0  0  0  0  0  0  0  0  0  0  0
    2.1561    5.7185    0.6998 C   0  0  0  0  0  0  0  0  0  0  0  0
    2.7851    5.3393   -0.3817 C   0  0  0  0  0  0  0  0  0  0  0  0
    2.9613    3.8848   -0.5691 C   0  0  0  0  0  0  0  0  0  0  0  0
    3.1679    3.1373    0.4818 C   0  0  0  0  0  0  0  0  0  0  0  0
    3.3771    1.7148    0.1378 C   0  0  0  0  0  0  0  0  0  0  0  0
    4.2320    1.3218   -0.7750 C   0  0  0  0  0  0  0  0  0  0  0  0
    4.8506   -0.0304   -0.1193 C   0  0  2  0  0  0  0  0  0  0  0  0
    6.2873    0.3793   -0.4142 O   0  0  0  0  0  0  0  0  0  0  0  0
    6.3529    1.3045    0.7858 C   0  0  2  0  0  0  0  0  0  0  0  0
    6.7110    2.5381   -0.0202 O   0  0  0  0  0  0  0  0  0  0  0  0
    7.8770    3.0415    0.7846 C   0  0  2  0  0  0  0  0  0  0  0  0
    7.7801    4.5257    0.0898 C   0  0  0  0  0  0  0  0  0  0  0  0
    8.7878    2.4430   -0.5291 C   0  0  1  0  0  0  0  0  0  0  0  0
   10.0672    2.9373    0.0790 O   0  0  0  0  0  0  0  0  0  0  0  0
    9.0126    0.8879    0.1113 C   0  0  2  0  0  0  0  0  0  0  0  0
    8.2424    0.1722   -1.0213 N   0  0  0  0  0  0  0  0  0  0  0  0
    7.9100    0.8916    1.3806 C   0  0  2  0  0  0  0  0  0  0  0  0
    7.6652   -0.5977    1.2323 O   0  0  0  0  0  0  0  0  0  0  0  0
    4.7171   -0.8721   -1.5266 C   0  0  0  0  0  0  0  0  0  0  0  0
    3.8098   -2.1628   -1.0868 C   0  0  2  0  0  0  0  0  0  0  0  0
    2.7293   -1.2871   -0.4986 O   0  0  0  0  0  0  0  0  0  0  0  0
    4.5743   -2.3267    0.4206 C   0  0  2  0  0  0  0  0  0  0  0  0
    5.5787   -3.4911    0.0819 C   0  0  0  0  0  0  0  0  0  0  0  0
    5.6639   -3.9563   -1.0502 O   0  0  0  0  0  0  0  0  0  0  0  0
    6.7732   -3.2997    0.7948 O   0  0  0  0  0  0  0  0  0  0  0  0
    3.2902   -3.2517    1.0604 C   0  0  2  0  0  0  0  0  0  0  0  0
    4.2118   -3.7592    2.1444 O   0  0  0  0  0  0  0  0  0  0  0  0
    3.4449   -4.5734    0.0996 C   0  0  0  0  0  0  0  0  0  0  0  0
    2.0471   -4.8176   -0.3908 C   0  0  0  0  0  0  0  0  0  0  0  0
    1.9212   -4.7980   -1.5569 O   0  0  0  0  0  0  0  0  0  0  0  0
    1.2749   -5.8842    0.2509 C   0  0  0  0  0  0  0  0  0  0  0  0
   -0.0380   -5.2166    0.9506 C   0  0  2  0  0  0  0  0  0  0  0  0
   -0.3454   -6.4771    1.7202 O   0  0  0  0  0  0  0  0  0  0  0  0
   -1.0281   -5.6185   -0.4130 C   0  0  2  0  0  0  0  0  0  0  0  0
   -1.5136   -4.1811   -0.4497 O   0  0  0  0  0  0  0  0  0  0  0  0
   -2.2544   -6.0669    0.4946 C   0  0  0  0  0  0  0  0  0  0  0  0
   -3.3524   -6.6073    0.5632 C   0  0  0  0  0  0  0  0  0  0  0  0
   -4.7720   -6.1119   -0.1026 C   0  0  2  0  0  0  0  0  0  0  0  0
   -4.0431   -5.1888   -1.0573 O   0  0  0  0  0  0  0  0  0  0  0  0
   -5.1266   -4.9296    0.9916 C   0  0  0  0  0  0  0  0  0  0  0  0
   -5.3647   -3.5886    0.0730 C   0  0  2  0  0  0  0  0  0  0  0  0
   -4.9252   -2.6912    1.2217 O   0  0  0  0  0  0  0  0  0  0  0  0
   -6.9423   -3.3742    0.4684 C   0  0  0  0  0  0  0  0  0  0  0  0
   -7.5740   -2.5401   -0.8088 C   0  0  2  0  0  0  0  0  0  0  0  0
   -6.3054   -2.4806   -1.6457 O   0  0  0  0  0  0  0  0  0  0  0  0
   -7.3705   -1.0995   -0.0402 C   0  0  0  0  0  0  0  0  0  0  0  0
   -6.8972   -0.1077   -0.9604 C   0  0  0  0  0  0  0  0  0  0  0  0
   -6.3609   -0.3062   -2.1150 O   0  0  0  0  0  0  0  0  0  0  0  0
   -6.4746    0.9251   -0.0905 O   0  0  0  0  0  0  0  0  0  0  0  0
   -7.6069    1.7520    0.5343 C   0  0  2  0  0  0  0  0  0  0  0  0
   -8.8513    0.6873    0.3643 C   0  0  0  0  0  0  0  0  0  0  0  0
   -7.9430    2.4508   -0.9697 C   0  0  1  0  0  0  0  0  0  0  0  0
   -9.2931    3.1457   -0.4558 C   0  0  0  0  0  0  0  0  0  0  0  0
   -7.0085    3.8508   -0.8530 C   0  0  2  0  0  0  0  0  0  0  0  0
   -5.7549    3.0999   -1.2031 O   0  0  0  0  0  0  0  0  0  0  0  0
  2  1  1  1
  2  3  1  0
  3  4  2  0
  4  5  1  0
  5  6  2  0
  6  7  1  0
  7  8  1  0
  8  9  1  0
  9 10  2  0
 10 11  1  0
 11 12  2  0
 12 13  1  0
 13 14  2  0
 14 15  1  0
 15 16  2  0
 16 17  1  0
 17 18  1  6
 19 18  1  6
 19 20  1  0
 20 21  1  0
 21 22  1  6
 21 23  1  0
 23 24  1  1
 23 25  1  0
 25 26  1  6
 25 27  1  0
 27 28  1  6
 17 29  1  0
 29 30  1  0
 30 31  1  1
 30 32  1  0
 32 33  1  6
 33 34  2  0
 33 35  1  0
 32 36  1  0
 36 37  1  1
 36 38  1  0
 38 39  1  0
 39 40  2  0
 39 41  1  0
 41 42  1  0
 42 43  1  1
 42 44  1  0
 44 45  1  6
 44 46  1  0
 46 47  1  0
 47 48  1  0
 48 49  1  6
 48 50  1  0
 50 51  1  0
 51 52  1  1
 51 53  1  0
 53 54  1  0
 54 55  1  6
 54 56  1  0
 56 57  1  0
 57 58  2  0
 57 59  1  0
 59 60  1  0
 60 61  1  6
 60 62  1  0
 62 63  1  1
 62 64  1  0
 64 65  1  6
 64  2  1  0
 27 19  1  0
M  END
>  <supplier_code>  (496) 
DB00646

>  <zinc_id>  (496) 
ZINC000252286876

>  <catalog_short_name>  (496) 
dbfda

$$$$

     RDKit          3D

 65 66  0  0  0  0  0  0  0  0999 V2000
    6.6803   -5.6247   -0.9696 C   0  0  0  0  0  0  0  0  0  0  0  0
    6.5823   -4.4958    0.1914 C   0  0  2  0  0  0  0  0  0  0  0  0
    5.1506   -4.0279   -0.3056 C   0  0  0  0  0  0  0  0  0  0  0  0
    4.0999   -4.5140   -0.0929 C   0  0  0  0  0  0  0  0  0  0  0  0
    4.1619   -5.9295   -0.5418 C   0  0  0  0  0  0  0  0  0  0  0  0
    3.0737   -6.2356   -0.0701 C   0  0  0  0  0  0  0  0  0  0  0  0
    1.6969   -5.8204   -0.2054 C   0  0  0  0  0  0  0  0  0  0  0  0
    0.8431   -7.0218   -0.4869 C   0  0  0  0  0  0  0  0  0  0  0  0
   -0.4985   -6.7462    0.1210 C   0  0  0  0  0  0  0  0  0  0  0  0
   -0.7759   -5.4468    0.2584 C   0  0  0  0  0  0  0  0  0  0  0  0
   -1.6597   -5.0574   -0.8564 C   0  0  0  0  0  0  0  0  0  0  0  0
   -2.9104   -5.2745   -0.4355 C   0  0  0  0  0  0  0  0  0  0  0  0
   -3.5707   -4.0399    0.0235 C   0  0  0  0  0  0  0  0  0  0  0  0
   -2.7849   -3.0888    0.5382 C   0  0  0  0  0  0  0  0  0  0  0  0
   -2.7122   -1.8961   -0.2351 C   0  0  0  0  0  0  0  0  0  0  0  0
   -3.4677   -1.4454   -1.1771 C   0  0  0  0  0  0  0  0  0  0  0  0
   -4.8049   -0.6378   -0.7289 C   0  0  2  0  0  0  0  0  0  0  0  0
   -5.6341   -1.6503   -1.4974 O   0  0  0  0  0  0  0  0  0  0  0  0
   -7.0372   -1.3628   -0.9803 C   0  0  2  0  0  0  0  0  0  0  0  0
   -6.6208   -1.2942    0.4774 O   0  0  0  0  0  0  0  0  0  0  0  0
   -7.8452   -0.4206    0.4833 C   0  0  2  0  0  0  0  0  0  0  0  0
   -7.7691   -0.1807    2.1074 C   0  0  0  0  0  0  0  0  0  0  0  0
   -9.0756   -1.5816    0.6624 C   0  0  1  0  0  0  0  0  0  0  0  0
   -9.4304   -1.5964   -0.8048 O   0  0  0  0  0  0  0  0  0  0  0  0
   -8.3069   -3.0894    0.5914 C   0  0  2  0  0  0  0  0  0  0  0  0
   -7.1891   -2.8571    1.6517 N   0  0  0  0  0  0  0  0  0  0  0  0
   -7.4682   -3.0259   -0.8852 C   0  0  2  0  0  0  0  0  0  0  0  0
   -6.1763   -3.5329   -0.3001 O   0  0  0  0  0  0  0  0  0  0  0  0
   -4.7529    0.3502   -2.0356 C   0  0  0  0  0  0  0  0  0  0  0  0
   -4.0160    1.7106   -1.5105 C   0  0  2  0  0  0  0  0  0  0  0  0
   -3.0208    0.9911   -0.6336 O   0  0  0  0  0  0  0  0  0  0  0  0
   -5.0729    1.9999   -0.1985 C   0  0  2  0  0  0  0  0  0  0  0  0
   -5.6508    3.3529   -0.7522 C   0  0  0  0  0  0  0  0  0  0  0  0
   -5.2681    3.9138   -1.7495 O   0  0  0  0  0  0  0  0  0  0  0  0
   -6.7872    3.7892   -0.0787 O   0  0  0  0  0  0  0  0  0  0  0  0
   -3.8694    2.6697    0.8215 C   0  0  2  0  0  0  0  0  0  0  0  0
   -4.7242    3.7990    1.3470 O   0  0  0  0  0  0  0  0  0  0  0  0
   -3.1981    3.6062   -0.3493 C   0  0  0  0  0  0  0  0  0  0  0  0
   -1.9877    4.0762    0.3600 C   0  0  0  0  0  0  0  0  0  0  0  0
   -2.3532    4.7277    1.3411 O   0  0  0  0  0  0  0  0  0  0  0  0
   -0.7258    4.5170   -0.2448 C   0  0  0  0  0  0  0  0  0  0  0  0
   -0.5788    6.1028    0.1587 C   0  0  2  0  0  0  0  0  0  0  0  0
   -0.4009    6.4854   -1.2822 O   0  0  0  0  0  0  0  0  0  0  0  0
    1.0768    5.9065    0.5800 C   0  0  2  0  0  0  0  0  0  0  0  0
    1.0746    7.2337    1.2975 O   0  0  0  0  0  0  0  0  0  0  0  0
    1.7430    6.5886   -0.7489 C   0  0  0  0  0  0  0  0  0  0  0  0
    3.1772    6.7088   -0.3397 C   0  0  0  0  0  0  0  0  0  0  0  0
    3.9055    5.3779   -0.9834 C   0  0  2  0  0  0  0  0  0  0  0  0
    2.8283    4.4562   -0.4451 O   0  0  0  0  0  0  0  0  0  0  0  0
    4.8306    5.1834    0.3653 C   0  0  0  0  0  0  0  0  0  0  0  0
    5.6948    3.8984   -0.1980 C   0  0  2  0  0  0  0  0  0  0  0  0
    4.4812    2.9919   -0.1227 O   0  0  0  0  0  0  0  0  0  0  0  0
    6.1660    3.5033    1.3247 C   0  0  0  0  0  0  0  0  0  0  0  0
    7.3023    2.3479    1.0528 C   0  0  2  0  0  0  0  0  0  0  0  0
    7.8998    3.0480   -0.1538 O   0  0  0  0  0  0  0  0  0  0  0  0
    6.2816    1.4535    0.1212 C   0  0  0  0  0  0  0  0  0  0  0  0
    7.1636    0.7459   -0.8172 C   0  0  0  0  0  0  0  0  0  0  0  0
    6.8530    0.7869   -2.0404 O   0  0  0  0  0  0  0  0  0  0  0  0
    7.8053   -0.2690   -0.1647 O   0  0  0  0  0  0  0  0  0  0  0  0
    6.9346   -1.3158    0.5374 C   0  0  2  0  0  0  0  0  0  0  0  0
    7.4038   -0.8038    2.0231 C   0  0  0  0  0  0  0  0  0  0  0  0
    8.0711   -2.5798    0.5752 C   0  0  2  0  0  0  0  0  0  0  0  0
    9.2436   -1.9530   -0.3252 C   0  0  0  0  0  0  0  0  0  0  0  0
    7.3547   -3.3191   -0.7699 C   0  0  1  0  0  0  0  0  0  0  0  0
    8.5645   -4.1877   -0.9603 O   0  0  0  0  0  0  0  0  0  0  0  0
  2  1  1  6
  2  3  1  0
  3  4  2  0
  4  5  1  0
  5  6  2  0
  6  7  1  0
  7  8  1  0
  8  9  1  0
  9 10  2  0
 10 11  1  0
 11 12  2  0
 12 13  1  0
 13 14  2  0
 14 15  1  0
 15 16  2  0
 16 17  1  0
 17 18  1  6
 19 18  1  6
 19 20  1  0
 20 21  1  0
 21 22  1  1
 21 23  1  0
 23 24  1  6
 23 25  1  0
 25 26  1  1
 25 27  1  0
 27 28  1  1
 17 29  1  0
 29 30  1  0
 30 31  1  1
 30 32  1  0
 32 33  1  6
 33 34  2  0
 33 35  1  0
 32 36  1  0
 36 37  1  1
 36 38  1  0
 38 39  1  0
 39 40  2  0
 39 41  1  0
 41 42  1  0
 42 43  1  6
 42 44  1  0
 44 45  1  1
 44 46  1  0
 46 47  1  0
 47 48  1  0
 48 49  1  1
 48 50  1  0
 50 51  1  0
 51 52  1  1
 51 53  1  0
 53 54  1  0
 54 55  1  6
 54 56  1  0
 56 57  1  0
 57 58  2  0
 57 59  1  0
 59 60  1  0
 60 61  1  1
 60 62  1  0
 62 63  1  6
 62 64  1  0
 64 65  1  6
 64  2  1  0
 27 19  1  0
M  END
>  <supplier_code>  (497) 
DB00646

>  <zinc_id>  (497) 
ZINC000252286877

>  <catalog_short_name>  (497) 
dbfda

$$$$

     RDKit          3D

 65 66  0  0  0  0  0  0  0  0999 V2000
    6.7189   -4.8908    1.0689 C   0  0  0  0  0  0  0  0  0  0  0  0
    6.4404   -3.4064    0.4847 C   0  0  2  0  0  0  0  0  0  0  0  0
    5.3686   -3.8622   -0.5962 C   0  0  0  0  0  0  0  0  0  0  0  0
    5.2034   -5.0790   -0.9556 C   0  0  0  0  0  0  0  0  0  0  0  0
    3.8230   -5.5781   -0.8926 C   0  0  0  0  0  0  0  0  0  0  0  0
    3.3057   -5.5745    0.3370 C   0  0  0  0  0  0  0  0  0  0  0  0
    2.4910   -6.7412    0.7188 C   0  0  0  0  0  0  0  0  0  0  0  0
    1.5170   -7.1327   -0.3611 C   0  0  0  0  0  0  0  0  0  0  0  0
    0.3668   -6.2252   -0.3393 C   0  0  0  0  0  0  0  0  0  0  0  0
   -0.6066   -6.2362   -1.2388 C   0  0  0  0  0  0  0  0  0  0  0  0
   -1.9196   -5.6337   -0.9336 C   0  0  0  0  0  0  0  0  0  0  0  0
   -2.0432   -5.2831    0.3227 C   0  0  0  0  0  0  0  0  0  0  0  0
   -2.1555   -3.8035    0.4519 C   0  0  0  0  0  0  0  0  0  0  0  0
   -3.4450   -3.5934    0.4619 C   0  0  0  0  0  0  0  0  0  0  0  0
   -3.8574   -2.7091   -0.6117 C   0  0  0  0  0  0  0  0  0  0  0  0
   -3.7208   -1.4880   -0.3629 C   0  0  0  0  0  0  0  0  0  0  0  0
   -4.7896   -0.7077    0.5912 C   0  0  2  0  0  0  0  0  0  0  0  0
   -5.9803   -1.0976   -0.2615 O   0  0  0  0  0  0  0  0  0  0  0  0
   -7.0230   -0.9626    0.8630 C   0  0  2  0  0  0  0  0  0  0  0  0
   -6.9529   -2.4231    1.3198 O   0  0  0  0  0  0  0  0  0  0  0  0
   -7.2390   -2.8338   -0.0887 C   0  0  2  0  0  0  0  0  0  0  0  0
   -7.9547   -1.4014   -0.3093 C   0  0  0  0  0  0  0  0  0  0  0  0
   -8.7848   -3.5673    0.1330 C   0  0  1  0  0  0  0  0  0  0  0  0
   -8.3236   -4.2577    1.3740 O   0  0  0  0  0  0  0  0  0  0  0  0
   -9.2661   -2.1343    0.8611 C   0  0  2  0  0  0  0  0  0  0  0  0
  -10.4964   -2.0320   -0.0575 N   0  0  0  0  0  0  0  0  0  0  0  0
   -8.4422   -1.0464   -0.1543 C   0  0  2  0  0  0  0  0  0  0  0  0
   -8.0066   -1.9751   -1.2831 O   0  0  0  0  0  0  0  0  0  0  0  0
   -4.6271    0.6730   -0.3049 C   0  0  0  0  0  0  0  0  0  0  0  0
   -5.0050    1.6997    0.9193 C   0  0  2  0  0  0  0  0  0  0  0  0
   -6.4124    1.9636    0.4252 O   0  0  0  0  0  0  0  0  0  0  0  0
   -4.4280    3.0914    0.1046 C   0  0  2  0  0  0  0  0  0  0  0  0
   -4.7862    2.6891   -1.3852 C   0  0  0  0  0  0  0  0  0  0  0  0
   -4.3915    3.4598   -2.3023 O   0  0  0  0  0  0  0  0  0  0  0  0
   -6.0523    2.2979   -1.7319 O   0  0  0  0  0  0  0  0  0  0  0  0
   -2.7961    2.5695   -0.0510 C   0  0  2  0  0  0  0  0  0  0  0  0
   -2.7481    1.6543    1.1566 O   0  0  0  0  0  0  0  0  0  0  0  0
   -2.2831    3.8090    0.9085 C   0  0  0  0  0  0  0  0  0  0  0  0
   -2.4525    5.0320    0.1392 C   0  0  0  0  0  0  0  0  0  0  0  0
   -3.4041    5.7846    0.3427 O   0  0  0  0  0  0  0  0  0  0  0  0
   -1.4028    5.5390   -0.6965 C   0  0  0  0  0  0  0  0  0  0  0  0
    0.0533    5.3044    0.0301 C   0  0  2  0  0  0  0  0  0  0  0  0
   -0.4867    5.5520    1.4304 O   0  0  0  0  0  0  0  0  0  0  0  0
    0.4181    7.0038   -0.1196 C   0  0  2  0  0  0  0  0  0  0  0  0
    0.3464    6.9254   -1.6337 O   0  0  0  0  0  0  0  0  0  0  0  0
    2.0436    6.7352   -0.1764 C   0  0  0  0  0  0  0  0  0  0  0  0
    2.2808    5.4102   -0.7714 C   0  0  0  0  0  0  0  0  0  0  0  0
    3.2352    4.5445    0.2523 C   0  0  2  0  0  0  0  0  0  0  0  0
    2.8845    5.3272    1.5064 O   0  0  0  0  0  0  0  0  0  0  0  0
    4.4754    5.5826   -0.0722 C   0  0  0  0  0  0  0  0  0  0  0  0
    5.5962    4.5300   -0.6273 C   0  0  2  0  0  0  0  0  0  0  0  0
    4.6386    3.7259   -1.4897 O   0  0  0  0  0  0  0  0  0  0  0  0
    5.3791    3.4862    0.6554 C   0  0  0  0  0  0  0  0  0  0  0  0
    6.9604    3.1141    0.9559 C   0  0  2  0  0  0  0  0  0  0  0  0
    7.1995    3.2770   -0.5375 O   0  0  0  0  0  0  0  0  0  0  0  0
    6.7103    1.4606    0.9616 C   0  0  0  0  0  0  0  0  0  0  0  0
    7.9590    1.1514    0.2527 C   0  0  0  0  0  0  0  0  0  0  0  0
    8.2526    1.7641   -0.7984 O   0  0  0  0  0  0  0  0  0  0  0  0
    7.9361    0.0067   -0.4906 O   0  0  0  0  0  0  0  0  0  0  0  0
    8.0074   -1.2365    0.3682 C   0  0  2  0  0  0  0  0  0  0  0  0
    9.6535   -1.2539    0.1968 C   0  0  0  0  0  0  0  0  0  0  0  0
    7.5738   -1.9822   -1.1123 C   0  0  1  0  0  0  0  0  0  0  0  0
    8.9818   -1.9715   -1.8838 C   0  0  0  0  0  0  0  0  0  0  0  0
    7.7205   -3.6040   -0.6377 C   0  0  1  0  0  0  0  0  0  0  0  0
    8.7421   -3.4399    0.4497 O   0  0  0  0  0  0  0  0  0  0  0  0
  2  1  1  1
  2  3  1  0
  3  4  2  0
  4  5  1  0
  5  6  2  0
  6  7  1  0
  7  8  1  0
  8  9  1  0
  9 10  2  0
 10 11  1  0
 11 12  2  0
 12 13  1  0
 13 14  2  0
 14 15  1  0
 15 16  2  0
 16 17  1  0
 17 18  1  6
 19 18  1  6
 19 20  1  0
 20 21  1  0
 21 22  1  6
 21 23  1  0
 23 24  1  1
 23 25  1  0
 25 26  1  6
 25 27  1  0
 27 28  1  6
 17 29  1  0
 29 30  1  0
 30 31  1  6
 30 32  1  0
 32 33  1  6
 33 34  2  0
 33 35  1  0
 32 36  1  0
 36 37  1  1
 36 38  1  0
 38 39  1  0
 39 40  2  0
 39 41  1  0
 41 42  1  0
 42 43  1  1
 42 44  1  0
 44 45  1  6
 44 46  1  0
 46 47  1  0
 47 48  1  0
 48 49  1  1
 48 50  1  0
 50 51  1  0
 51 52  1  6
 51 53  1  0
 53 54  1  0
 54 55  1  6
 54 56  1  0
 56 57  1  0
 57 58  2  0
 57 59  1  0
 59 60  1  0
 60 61  1  6
 60 62  1  0
 62 63  1  6
 62 64  1  0
 64 65  1  1
 64  2  1  0
 27 19  1  0
M  END
>  <supplier_code>  (498) 
DB00646

>  <zinc_id>  (498) 
ZINC000252286878

>  <catalog_short_name>  (498) 
dbfda

$$$$

     RDKit          3D

 25 26  0  0  0  0  0  0  0  0999 V2000
    0.4783   -3.7033    2.7692 C   0  0  0  0  0  0  0  0  0  0  0  0
    0.6650   -3.3269    1.3834 C   0  0  0  0  0  0  0  0  0  0  0  0
    0.2970   -1.9225    1.1464 C   0  0  0  0  0  0  0  0  0  0  0  0
   -0.3620   -1.3349    2.0528 O   0  0  0  0  0  0  0  0  0  0  0  0
    0.6571   -1.2129   -0.0031 O   0  0  0  0  0  0  0  0  0  0  0  0
   -0.0785   -0.0035   -0.2191 C   0  0  2  0  0  0  0  0  0  0  0  0
    0.2399    0.8675    0.9214 C   0  0  0  0  0  0  0  0  0  0  0  0
    1.6459    0.9384    1.3156 C   0  0  0  0  0  0  0  0  0  0  0  0
    2.6944    0.3122    0.6931 C   0  0  0  0  0  0  0  0  0  0  0  0
    3.9039    0.0843    1.2980 C   0  0  0  0  0  0  0  0  0  0  0  0
    4.1170    0.5287    2.5910 C   0  0  0  0  0  0  0  0  0  0  0  0
    3.0908    1.2441    3.1964 C   0  0  0  0  0  0  0  0  0  0  0  0
    1.9221    1.5636    2.5256 C   0  0  0  0  0  0  0  0  0  0  0  0
   -1.4529   -0.3833   -0.3973 C   0  0  0  0  0  0  0  0  0  0  0  0
   -1.8443   -1.6800   -0.7142 C   0  0  0  0  0  0  0  0  0  0  0  0
   -3.1893   -2.0338   -0.7148 C   0  0  0  0  0  0  0  0  0  0  0  0
   -4.0438   -1.0481   -1.2007 C   0  0  0  0  0  0  0  0  0  0  0  0
   -3.7141    0.2509   -0.8325 C   0  0  0  0  0  0  0  0  0  0  0  0
   -2.5077    0.4996   -0.1857 C   0  0  0  0  0  0  0  0  0  0  0  0
    0.5816    0.5654   -1.5865 C   0  0  2  0  0  0  0  0  0  0  0  0
    0.6485    2.1231   -1.0970 C   0  0  0  0  0  0  0  0  0  0  0  0
   -0.8313    0.8319   -2.3596 C   0  0  0  0  0  0  0  0  0  0  0  0
   -0.6130    1.9432   -3.2410 N   0  0  0  0  0  0  0  0  0  0  0  0
   -1.2187    3.1755   -2.7614 C   0  0  0  0  0  0  0  0  0  0  0  0
   -1.0859    1.7210   -4.5800 C   0  0  0  0  0  0  0  0  0  0  0  0
  1  2  1  0
  2  3  1  0
  3  4  2  0
  3  5  1  0
  6  5  1  1
  6  7  1  0
  7  8  1  0
  8  9  2  0
  9 10  1  0
 10 11  2  0
 11 12  1  0
 12 13  2  0
  6 14  1  0
 14 15  2  0
 15 16  1  0
 16 17  2  0
 17 18  1  0
 18 19  2  0
  6 20  1  0
 20 21  1  1
 20 22  1  0
 22 23  1  0
 23 24  1  0
 23 25  1  0
 13  8  1  0
 19 14  1  0
M  END
>  <supplier_code>  (499) 
DB00647

>  <zinc_id>  (499) 
ZINC000001530769

>  <catalog_short_name>  (499) 
dbfda

$$$$

     RDKit          3D

 18 19  0  0  0  0  0  0  0  0999 V2000
    4.4221   -1.9210   -0.2724 Cl  0  0  0  0  0  0  0  0  0  0  0  0
    3.2555   -0.9134   -0.6015 C   0  0  0  0  0  0  0  0  0  0  0  0
    2.0912   -1.2575   -1.2784 C   0  0  0  0  0  0  0  0  0  0  0  0
    0.9067   -0.6879   -0.8264 C   0  0  0  0  0  0  0  0  0  0  0  0
    0.8651    0.5655   -0.2683 C   0  0  0  0  0  0  0  0  0  0  0  0
   -0.1488    0.7000    1.0096 C   0  0  2  0  0  0  0  0  0  0  0  0
   -1.3748   -0.0811    0.2775 C   0  0  0  0  0  0  0  0  0  0  0  0
   -1.6457    0.2390   -1.0031 C   0  0  0  0  0  0  0  0  0  0  0  0
   -2.6092   -0.5494   -1.6258 C   0  0  0  0  0  0  0  0  0  0  0  0
   -3.1265   -1.6784   -1.0015 C   0  0  0  0  0  0  0  0  0  0  0  0
   -2.8684   -1.8738    0.3500 C   0  0  0  0  0  0  0  0  0  0  0  0
   -1.9589   -1.0666    1.0246 C   0  0  0  0  0  0  0  0  0  0  0  0
   -1.8801   -1.0437    2.7845 Cl  0  0  0  0  0  0  0  0  0  0  0  0
   -0.7588    2.1804    0.5716 C   0  0  0  0  0  0  0  0  0  0  0  0
   -0.2237    2.6669   -0.9648 Cl  0  0  0  0  0  0  0  0  0  0  0  0
   -0.3464    3.2155    1.9335 Cl  0  0  0  0  0  0  0  0  0  0  0  0
    2.1093    1.1036    0.0502 C   0  0  0  0  0  0  0  0  0  0  0  0
    3.2914    0.4018   -0.1591 C   0  0  0  0  0  0  0  0  0  0  0  0
  1  2  1  0
  2  3  2  0
  3  4  1  0
  4  5  2  0
  6  5  1  6
  6  7  1  0
  7  8  2  0
  8  9  1  0
  9 10  2  0
 10 11  1  0
 11 12  2  0
 12 13  1  0
  6 14  1  0
 14 15  1  0
 14 16  1  0
  5 17  1  0
 17 18  2  0
 18  2  1  0
 12  7  1  0
M  END
>  <supplier_code>  (500) 
DB00648

>  <zinc_id>  (500) 
ZINC000001530725

>  <catalog_short_name>  (500) 
dbfda

$$$$

     RDKit          3D

 18 19  0  0  0  0  0  0  0  0999 V2000
    4.8525   -0.7628    1.0418 Cl  0  0  0  0  0  0  0  0  0  0  0  0
    3.4686   -0.4276    0.0082 C   0  0  0  0  0  0  0  0  0  0  0  0
    3.3382    0.7619   -0.6976 C   0  0  0  0  0  0  0  0  0  0  0  0
    2.0274    1.2172   -0.8339 C   0  0  0  0  0  0  0  0  0  0  0  0
    0.9657    0.3091   -0.8692 C   0  0  0  0  0  0  0  0  0  0  0  0
   -0.4639    1.0813   -0.7612 C   0  0  1  0  0  0  0  0  0  0  0  0
   -1.3037   -0.2317   -0.2762 C   0  0  0  0  0  0  0  0  0  0  0  0
   -1.2392   -1.2687   -1.2049 C   0  0  0  0  0  0  0  0  0  0  0  0
   -1.9481   -2.4076   -0.8451 C   0  0  0  0  0  0  0  0  0  0  0  0
   -3.0412   -2.2932    0.0038 C   0  0  0  0  0  0  0  0  0  0  0  0
   -3.3417   -1.0440    0.5272 C   0  0  0  0  0  0  0  0  0  0  0  0
   -2.5631    0.0582    0.1956 C   0  0  0  0  0  0  0  0  0  0  0  0
   -3.2346    1.6518    0.3315 Cl  0  0  0  0  0  0  0  0  0  0  0  0
   -0.1215    1.6139    0.7669 C   0  0  0  0  0  0  0  0  0  0  0  0
   -0.4519    3.3051    0.8407 Cl  0  0  0  0  0  0  0  0  0  0  0  0
   -0.5300    0.5516    1.9764 Cl  0  0  0  0  0  0  0  0  0  0  0  0
    1.1589   -0.7747   -0.0701 C   0  0  0  0  0  0  0  0  0  0  0  0
    2.4277   -1.3399   -0.1337 C   0  0  0  0  0  0  0  0  0  0  0  0
  1  2  1  0
  2  3  2  0
  3  4  1  0
  4  5  2  0
  6  5  1  6
  6  7  1  0
  7  8  2  0
  8  9  1  0
  9 10  2  0
 10 11  1  0
 11 12  2  0
 12 13  1  0
  6 14  1  0
 14 15  1  0
 14 16  1  0
  5 17  1  0
 17 18  2  0
 18  2  1  0
 12  7  1  0
M  END
>  <supplier_code>  (501) 
DB00648

>  <zinc_id>  (501) 
ZINC000001530726

>  <catalog_short_name>  (501) 
dbfda

$$$$

     RDKit          3D

 16 17  0  0  0  0  0  0  0  0999 V2000
   -2.4904    2.4867   -1.4442 C   0  0  0  0  0  0  0  0  0  0  0  0
   -2.1963    1.1716   -1.0172 C   0  0  0  0  0  0  0  0  0  0  0  0
   -1.0291    0.5028   -1.3992 C   0  0  0  0  0  0  0  0  0  0  0  0
   -0.5378   -0.5699   -0.7275 N   0  0  0  0  0  0  0  0  0  0  0  0
    0.7270   -0.2283    0.2011 C   0  0  1  0  0  0  0  0  0  0  0  0
    1.2549   -1.7762    0.2722 C   0  0  0  0  0  0  0  0  0  0  0  0
    2.5641   -1.4979    0.4087 C   0  0  0  0  0  0  0  0  0  0  0  0
    2.6147    0.1255    0.2517 C   0  0  1  0  0  0  0  0  0  0  0  0
    3.9938    0.1094   -0.6635 C   0  0  0  0  0  0  0  0  0  0  0  0
    4.5831    1.2829   -0.1576 O   0  0  0  0  0  0  0  0  0  0  0  0
    1.6958    0.0121   -0.9722 O   0  0  0  0  0  0  0  0  0  0  0  0
   -1.5043   -1.2009   -0.0028 C   0  0  0  0  0  0  0  0  0  0  0  0
   -1.0416   -2.1603    0.6926 O   0  0  0  0  0  0  0  0  0  0  0  0
   -2.6376   -0.5744    0.4105 N   0  0  0  0  0  0  0  0  0  0  0  0
   -2.8910    0.7302    0.1159 C   0  0  0  0  0  0  0  0  0  0  0  0
   -3.1055    1.5866    1.0376 O   0  0  0  0  0  0  0  0  0  0  0  0
  1  2  1  0
  2  3  2  0
  3  4  1  0
  5  4  1  6
  5  6  1  0
  6  7  2  0
  7  8  1  0
  8  9  1  6
  9 10  1  0
  8 11  1  0
  4 12  1  0
 12 13  2  0
 12 14  1  0
 14 15  1  0
 15 16  2  0
 15  2  1  0
 11  5  1  0
M  END
>  <supplier_code>  (502) 
DB00649

>  <zinc_id>  (502) 
ZINC000000137884

>  <catalog_short_name>  (502) 
dbfda

$$$$

     RDKit          3D

 34 36  0  0  0  0  0  0  0  0999 V2000
   -6.3830    3.7728   -0.5747 N   0  0  0  0  0  0  0  0  0  0  0  0
   -5.9583    2.4567   -0.4128 C   0  0  0  0  0  0  0  0  0  0  0  0
   -4.6973    2.0974   -0.7596 N   0  0  0  0  0  0  0  0  0  0  0  0
   -4.1411    0.9658   -0.2800 C   0  0  0  0  0  0  0  0  0  0  0  0
   -4.8158    0.1324    0.5839 C   0  0  0  0  0  0  0  0  0  0  0  0
   -6.1679    0.4053    0.7549 C   0  0  0  0  0  0  0  0  0  0  0  0
   -6.9444   -0.5023    1.1639 O   0  0  0  0  0  0  0  0  0  0  0  0
   -6.6867    1.5035    0.2013 N   0  0  0  0  0  0  0  0  0  0  0  0
   -4.3098   -0.9529    1.2746 N   0  0  0  0  0  0  0  0  0  0  0  0
   -5.1415   -2.1242    1.3248 C   0  0  0  0  0  0  0  0  0  0  0  0
   -4.8145   -3.2288    0.8512 O   0  0  0  0  0  0  0  0  0  0  0  0
   -2.8024   -1.3936    1.0681 C   0  0  1  0  0  0  0  0  0  0  0  0
   -3.0136   -1.6113   -0.5625 C   0  0  0  0  0  0  0  0  0  0  0  0
   -1.7644   -1.4711   -1.1636 N   0  0  0  0  0  0  0  0  0  0  0  0
   -0.4931   -1.9416   -0.8891 C   0  0  0  0  0  0  0  0  0  0  0  0
    0.4412   -1.8610   -1.9186 C   0  0  0  0  0  0  0  0  0  0  0  0
    1.7776   -1.5593   -1.6864 C   0  0  0  0  0  0  0  0  0  0  0  0
    2.1546   -1.2125   -0.3986 C   0  0  0  0  0  0  0  0  0  0  0  0
    3.2624   -0.3004   -0.2327 C   0  0  0  0  0  0  0  0  0  0  0  0
    4.2780   -0.3935   -0.9715 O   0  0  0  0  0  0  0  0  0  0  0  0
    3.3202    0.5387    0.8776 N   0  0  0  0  0  0  0  0  0  0  0  0
    4.6096    1.4500    1.0480 C   0  0  1  0  0  0  0  0  0  0  0  0
    5.6458    0.1867    0.7430 C   0  0  0  0  0  0  0  0  0  0  0  0
    6.9678    0.6238    1.3276 C   0  0  0  0  0  0  0  0  0  0  0  0
    8.0409    0.2804    0.3663 C   0  0  0  0  0  0  0  0  0  0  0  0
    9.1588    0.8473    0.4360 O   0  0  0  0  0  0  0  0  0  0  0  0
    7.9163   -0.8383   -0.4510 O   0  0  0  0  0  0  0  0  0  0  0  0
    4.5973    1.9157   -0.5166 C   0  0  0  0  0  0  0  0  0  0  0  0
    5.7609    2.1591   -0.9592 O   0  0  0  0  0  0  0  0  0  0  0  0
    3.7180    3.0033   -0.6012 O   0  0  0  0  0  0  0  0  0  0  0  0
    1.3566   -1.6870    0.6113 C   0  0  0  0  0  0  0  0  0  0  0  0
    0.0699   -2.1537    0.3583 C   0  0  0  0  0  0  0  0  0  0  0  0
   -2.2155    0.1486    0.9420 C   0  0  0  0  0  0  0  0  0  0  0  0
   -2.7267    0.7438   -0.2333 N   0  0  0  0  0  0  0  0  0  0  0  0
  1  2  1  0
  2  3  2  0
  3  4  1  0
  4  5  2  0
  5  6  1  0
  6  7  2  0
  6  8  1  0
  5  9  1  0
  9 10  1  0
 10 11  2  0
  9 12  1  0
 12 13  1  6
 13 14  1  0
 14 15  1  0
 15 16  2  0
 16 17  1  0
 17 18  2  0
 18 19  1  0
 19 20  2  0
 19 21  1  0
 22 21  1  6
 22 23  1  0
 23 24  1  0
 24 25  1  0
 25 26  2  0
 25 27  1  0
 22 28  1  0
 28 29  2  0
 28 30  1  0
 18 31  1  0
 31 32  2  0
 12 33  1  0
 33 34  1  0
  8  2  1  0
 32 15  1  0
 34  4  1  0
M  END
>  <supplier_code>  (503) 
DB00650

>  <zinc_id>  (503) 
ZINC000009212427

>  <catalog_short_name>  (503) 
dbfda

$$$$

     RDKit          3D

 34 36  0  0  0  0  0  0  0  0999 V2000
   -8.5452    0.7457    1.5252 N   0  0  0  0  0  0  0  0  0  0  0  0
   -7.2492    0.5046    1.0303 C   0  0  0  0  0  0  0  0  0  0  0  0
   -6.5731    1.4239    0.2982 N   0  0  0  0  0  0  0  0  0  0  0  0
   -5.3407    1.1592   -0.2010 C   0  0  0  0  0  0  0  0  0  0  0  0
   -4.7786   -0.1028   -0.0487 C   0  0  0  0  0  0  0  0  0  0  0  0
   -5.5273   -1.0415    0.6534 C   0  0  0  0  0  0  0  0  0  0  0  0
   -5.0929   -2.2281    0.7598 O   0  0  0  0  0  0  0  0  0  0  0  0
   -6.5233   -0.5649    1.4400 N   0  0  0  0  0  0  0  0  0  0  0  0
   -3.6670   -0.5624   -0.7329 N   0  0  0  0  0  0  0  0  0  0  0  0
   -3.5807   -1.8852   -1.2232 C   0  0  0  0  0  0  0  0  0  0  0  0
   -2.6376   -2.6712   -0.9422 O   0  0  0  0  0  0  0  0  0  0  0  0
   -2.7260    0.4855   -1.4601 C   0  0  2  0  0  0  0  0  0  0  0  0
   -2.7423    1.5454   -0.1788 C   0  0  0  0  0  0  0  0  0  0  0  0
   -1.4162    1.4786    0.3720 N   0  0  0  0  0  0  0  0  0  0  0  0
   -0.4352    0.5568   -0.0448 C   0  0  0  0  0  0  0  0  0  0  0  0
    0.2286    0.7292   -1.2531 C   0  0  0  0  0  0  0  0  0  0  0  0
    1.5144    0.2070   -1.3239 C   0  0  0  0  0  0  0  0  0  0  0  0
    1.9060   -0.8285   -0.4891 C   0  0  0  0  0  0  0  0  0  0  0  0
    3.3425   -1.0793   -0.3354 C   0  0  0  0  0  0  0  0  0  0  0  0
    3.6538   -2.1164    0.3161 O   0  0  0  0  0  0  0  0  0  0  0  0
    4.3332   -0.1614   -0.8119 N   0  0  0  0  0  0  0  0  0  0  0  0
    5.5605   -0.1735    0.2081 C   0  0  1  0  0  0  0  0  0  0  0  0
    6.5628    0.5711   -0.8875 C   0  0  0  0  0  0  0  0  0  0  0  0
    7.9423    0.3088   -0.5001 C   0  0  0  0  0  0  0  0  0  0  0  0
    8.2565   -0.3819    0.7208 C   0  0  0  0  0  0  0  0  0  0  0  0
    7.5301   -0.5703    1.7290 O   0  0  0  0  0  0  0  0  0  0  0  0
    9.6226   -0.5238    1.0067 O   0  0  0  0  0  0  0  0  0  0  0  0
    5.1189    1.2470    0.8797 C   0  0  0  0  0  0  0  0  0  0  0  0
    4.4599    1.0317    1.9432 O   0  0  0  0  0  0  0  0  0  0  0  0
    4.7604    2.2484    0.0272 O   0  0  0  0  0  0  0  0  0  0  0  0
    0.9785   -1.3387    0.4107 C   0  0  0  0  0  0  0  0  0  0  0  0
   -0.1379   -0.5716    0.6908 C   0  0  0  0  0  0  0  0  0  0  0  0
   -3.9901    1.2057   -2.2532 C   0  0  0  0  0  0  0  0  0  0  0  0
   -4.8076    1.8695   -1.3254 N   0  0  0  0  0  0  0  0  0  0  0  0
  1  2  1  0
  2  3  2  0
  3  4  1  0
  4  5  2  0
  5  6  1  0
  6  7  2  0
  6  8  1  0
  5  9  1  0
  9 10  1  0
 10 11  2  0
  9 12  1  0
 12 13  1  1
 13 14  1  0
 14 15  1  0
 15 16  2  0
 16 17  1  0
 17 18  2  0
 18 19  1  0
 19 20  2  0
 19 21  1  0
 22 21  1  6
 22 23  1  0
 23 24  1  0
 24 25  1  0
 25 26  2  0
 25 27  1  0
 22 28  1  0
 28 29  2  0
 28 30  1  0
 18 31  1  0
 31 32  2  0
 12 33  1  0
 33 34  1  0
  8  2  1  0
 32 15  1  0
 34  4  1  0
M  END
>  <supplier_code>  (504) 
DB00650

>  <zinc_id>  (504) 
ZINC000009212428

>  <catalog_short_name>  (504) 
dbfda

$$$$

     RDKit          3D

 18 19  0  0  0  0  0  0  0  0999 V2000
   -3.0719   -2.2093   -0.0402 C   0  0  0  0  0  0  0  0  0  0  0  0
   -2.4234   -1.2620    0.1630 N   0  0  0  0  0  0  0  0  0  0  0  0
   -1.0823   -1.3787    0.3154 C   0  0  0  0  0  0  0  0  0  0  0  0
   -0.2491   -2.4444    0.3633 N   0  0  0  0  0  0  0  0  0  0  0  0
    1.0251   -2.0090    0.2049 C   0  0  0  0  0  0  0  0  0  0  0  0
    1.0352   -0.6600    0.1033 N   0  0  0  0  0  0  0  0  0  0  0  0
    1.9390    0.0275   -0.8145 C   0  0  0  0  0  0  0  0  0  0  0  0
    3.0000    0.8195    0.1958 C   0  0  2  0  0  0  0  0  0  0  0  0
    3.1396    1.9678   -0.8125 O   0  0  0  0  0  0  0  0  0  0  0  0
    4.2784   -0.0476   -0.4219 C   0  0  0  0  0  0  0  0  0  0  0  0
    5.1778    0.8492   -0.9090 O   0  0  0  0  0  0  0  0  0  0  0  0
   -0.2269   -0.2884    0.3017 C   0  0  0  0  0  0  0  0  0  0  0  0
   -0.8131    0.9595    0.4016 C   0  0  0  0  0  0  0  0  0  0  0  0
   -0.0546    1.9733    0.3281 O   0  0  0  0  0  0  0  0  0  0  0  0
   -2.1502    1.1003    0.2317 N   0  0  0  0  0  0  0  0  0  0  0  0
   -2.6330    2.4198   -0.1695 C   0  0  0  0  0  0  0  0  0  0  0  0
   -2.8493   -0.0036   -0.0966 C   0  0  0  0  0  0  0  0  0  0  0  0
   -4.0412    0.1862   -0.4059 O   0  0  0  0  0  0  0  0  0  0  0  0
  1  2  1  0
  2  3  1  0
  3  4  1  0
  4  5  2  0
  5  6  1  0
  6  7  1  0
  8  7  1  6
  8  9  1  0
  8 10  1  0
 10 11  1  0
  6 12  1  0
 12 13  1  0
 13 14  2  0
 13 15  1  0
 15 16  1  0
 15 17  1  0
 17 18  2  0
 17  2  1  0
 12  3  2  0
M  END
>  <supplier_code>  (505) 
DB00651

>  <zinc_id>  (505) 
ZINC000000057146

>  <catalog_short_name>  (505) 
dbfda

$$$$

     RDKit          3D

 18 19  0  0  0  0  0  0  0  0999 V2000
   -2.9590   -1.8297    1.2952 C   0  0  0  0  0  0  0  0  0  0  0  0
   -2.0756   -0.8529    0.7562 N   0  0  0  0  0  0  0  0  0  0  0  0
   -1.0269   -1.3083    0.0537 C   0  0  0  0  0  0  0  0  0  0  0  0
   -0.3471   -2.4760   -0.0035 N   0  0  0  0  0  0  0  0  0  0  0  0
    0.9060   -2.2059   -0.4449 C   0  0  0  0  0  0  0  0  0  0  0  0
    1.0002   -0.9243   -0.7939 N   0  0  0  0  0  0  0  0  0  0  0  0
    2.1701   -0.0888   -1.0471 C   0  0  0  0  0  0  0  0  0  0  0  0
    2.9378   -0.1697    0.4464 C   0  0  1  0  0  0  0  0  0  0  0  0
    4.3108   -0.3693   -0.2380 O   0  0  0  0  0  0  0  0  0  0  0  0
    3.1501    1.4979    0.4757 C   0  0  0  0  0  0  0  0  0  0  0  0
    3.3005    1.7104    1.8569 O   0  0  0  0  0  0  0  0  0  0  0  0
   -0.2460   -0.4179   -0.6602 C   0  0  0  0  0  0  0  0  0  0  0  0
   -0.8427    0.7874   -1.0091 C   0  0  0  0  0  0  0  0  0  0  0  0
   -0.2660    1.4972   -1.8549 O   0  0  0  0  0  0  0  0  0  0  0  0
   -1.9198    1.2436   -0.3242 N   0  0  0  0  0  0  0  0  0  0  0  0
   -2.0846    2.6696   -0.2138 C   0  0  0  0  0  0  0  0  0  0  0  0
   -2.4522    0.4401    0.6192 C   0  0  0  0  0  0  0  0  0  0  0  0
   -3.5557    0.7968    1.0864 O   0  0  0  0  0  0  0  0  0  0  0  0
  1  2  1  0
  2  3  1  0
  3  4  1  0
  4  5  2  0
  5  6  1  0
  6  7  1  0
  8  7  1  6
  8  9  1  0
  8 10  1  0
 10 11  1  0
  6 12  1  0
 12 13  1  0
 13 14  2  0
 13 15  1  0
 15 16  1  0
 15 17  1  0
 17 18  2  0
 17  2  1  0
 12  3  2  0
M  END
>  <supplier_code>  (506) 
DB00651

>  <zinc_id>  (506) 
ZINC000000057147

>  <catalog_short_name>  (506) 
dbfda

$$$$

     RDKit          3D

 21 23  0  0  0  0  0  0  0  0999 V2000
    5.1545   -0.3158    0.7905 C   0  0  0  0  0  0  0  0  0  0  0  0
    4.1700    0.7324    0.4289 C   0  0  0  0  0  0  0  0  0  0  0  0
    4.5788    2.1378    0.7686 C   0  0  0  0  0  0  0  0  0  0  0  0
    3.3000    0.6228   -0.5510 C   0  0  0  0  0  0  0  0  0  0  0  0
    2.3945   -0.4788   -0.8356 C   0  0  0  0  0  0  0  0  0  0  0  0
    1.0973   -0.3798   -0.1648 N   0  0  0  0  0  0  0  0  0  0  0  0
    1.4884   -0.4099    1.2509 C   0  0  0  0  0  0  0  0  0  0  0  0
    0.2522    0.2755    1.8371 C   0  0  0  0  0  0  0  0  0  0  0  0
   -0.8454   -0.4604    1.1582 C   0  0  1  0  0  0  0  0  0  0  0  0
   -1.8709   -0.7267    2.2620 C   0  0  0  0  0  0  0  0  0  0  0  0
   -1.5405    0.0834    0.0721 C   0  0  0  0  0  0  0  0  0  0  0  0
   -2.6140    0.9410    0.3076 C   0  0  0  0  0  0  0  0  0  0  0  0
   -3.3307    1.5295   -0.7167 C   0  0  0  0  0  0  0  0  0  0  0  0
   -4.4967    2.2321   -0.4376 O   0  0  0  0  0  0  0  0  0  0  0  0
   -2.8126    1.3867   -1.9919 C   0  0  0  0  0  0  0  0  0  0  0  0
   -1.6653    0.6309   -2.2056 C   0  0  0  0  0  0  0  0  0  0  0  0
   -1.0630   -0.0873   -1.1964 C   0  0  0  0  0  0  0  0  0  0  0  0
   -0.6130   -1.4241   -1.4952 C   0  0  0  0  0  0  0  0  0  0  0  0
    0.5867   -1.8543   -0.4574 C   0  0  2  0  0  0  0  0  0  0  0  0
   -0.3910   -2.0070    0.9726 C   0  0  2  0  0  0  0  0  0  0  0  0
   -1.7792   -2.4279    0.2036 C   0  0  0  0  0  0  0  0  0  0  0  0
  1  2  1  0
  2  3  1  0
  2  4  2  3
  4  5  1  0
  5  6  1  0
  6  7  1  0
  7  8  1  0
  8  9  1  0
  9 10  1  1
  9 11  1  0
 11 12  2  0
 12 13  1  0
 13 14  1  0
 13 15  2  0
 15 16  1  0
 16 17  2  0
 17 18  1  0
 19 18  1  6
 19 20  1  0
 20 21  1  6
 19  6  1  0
 20  9  1  0
 17 11  1  0
M  END
>  <supplier_code>  (507) 
DB00652

>  <zinc_id>  (507) 
ZINC000000000596

>  <catalog_short_name>  (507) 
dbfda

$$$$

     RDKit          3D

 31 32  0  0  0  0  0  0  0  0999 V2000
   -4.6548   -2.3865    0.2624 C   0  0  0  0  0  0  0  0  0  0  0  0
   -4.6897   -2.4055    0.2656 C   0  0  0  0  0  0  0  0  0  0  0  0
   -3.4193   -2.6583    0.9461 C   0  0  0  0  0  0  0  0  0  0  0  0
   -5.6673   -1.6698    0.8936 O   0  0  0  0  0  0  0  0  0  0  0  0
   -6.5895   -0.8692    0.2319 C   0  0  0  0  0  0  0  0  0  0  0  0
   -6.8258   -1.1777   -0.9754 O   0  0  0  0  0  0  0  0  0  0  0  0
   -6.9388    0.4846    0.6955 C   0  0  0  0  0  0  0  0  0  0  0  0
   -6.0475    1.5696    0.2283 C   0  0  0  0  0  0  0  0  0  0  0  0
   -4.7336    1.1439   -0.3466 C   0  0  0  0  0  0  0  0  0  0  0  0
   -3.7887    2.3072   -0.3789 C   0  0  0  0  0  0  0  0  0  0  0  0
   -2.6054    2.1385   -0.9315 C   0  0  0  0  0  0  0  0  0  0  0  0
   -1.9449    0.7938   -1.0212 C   0  0  0  0  0  0  0  0  0  0  0  0
   -0.8974    0.7338    0.1987 C   0  0  2  0  0  0  0  0  0  0  0  0
   -0.0156   -0.5107   -0.4593 C   0  0  1  0  0  0  0  0  0  0  0  0
    1.1148    0.4868   -1.0152 C   0  0  0  0  0  0  0  0  0  0  0  0
    1.5370    1.3844    0.0916 C   0  0  0  0  0  0  0  0  0  0  0  0
    3.1089    1.7683   -0.2354 C   0  0  1  0  0  0  0  0  0  0  0  0
    3.4837    1.6169    1.2329 O   0  0  0  0  0  0  0  0  0  0  0  0
    3.5071    0.2087   -0.6026 C   0  0  0  0  0  0  0  0  0  0  0  0
    4.6723   -0.1845    0.1892 C   0  0  0  0  0  0  0  0  0  0  0  0
    5.9910    0.2336   -0.3175 C   0  0  0  0  0  0  0  0  0  0  0  0
    6.9632   -0.7598   -0.2500 C   0  0  0  0  0  0  0  0  0  0  0  0
    8.3036   -0.4807   -0.1195 C   0  0  0  0  0  0  0  0  0  0  0  0
    8.6920    0.7912    0.2849 C   0  0  0  0  0  0  0  0  0  0  0  0
    7.7542    1.8034    0.2606 C   0  0  0  0  0  0  0  0  0  0  0  0
    6.4453    1.5271   -0.0881 C   0  0  0  0  0  0  0  0  0  0  0  0
    0.7191   -0.7574    1.0497 C   0  0  2  0  0  0  0  0  0  0  0  0
    0.8245   -2.2565    0.7799 O   0  0  0  0  0  0  0  0  0  0  0  0
   -0.6318   -0.9845    1.9081 C   0  0  0  0  0  0  0  0  0  0  0  0
   -1.8588   -0.3863    1.0447 C   0  0  2  0  0  0  0  0  0  0  0  0
   -1.8081   -1.5048    0.0110 O   0  0  0  0  0  0  0  0  0  0  0  0
  1  2  1  0
  2  3  1  0
  2  4  1  0
  4  5  1  0
  5  6  2  0
  5  7  1  0
  7  8  1  0
  8  9  1  0
  9 10  1  0
 10 11  2  0
 11 12  1  0
 13 12  1  6
 13 14  1  0
 14 15  1  6
 15 16  1  0
 17 16  1  1
 17 18  1  0
 17 19  1  0
 19 20  1  0
 20 21  1  0
 21 22  2  0
 22 23  1  0
 23 24  2  0
 24 25  1  0
 25 26  2  0
 14 27  1  0
 27 28  1  6
 27 29  1  0
 29 30  1  0
 30 31  1  6
 30 13  1  0
 26 21  1  0
M  END
>  <supplier_code>  (508) 
DB00654

>  <zinc_id>  (508) 
ZINC000012468792

>  <catalog_short_name>  (508) 
dbfda

$$$$

     RDKit          3D

 26 29  0  0  0  0  0  0  0  0999 V2000
   -2.5598    1.3498    1.3171 O   0  0  0  0  0  0  0  0  0  0  0  0
   -3.2541    0.7509    0.4411 C   0  0  0  0  0  0  0  0  0  0  0  0
   -4.5424    0.9924    0.1319 N   0  0  0  0  0  0  0  0  0  0  0  0
   -5.3402    2.0620    0.3348 C   0  0  0  0  0  0  0  0  0  0  0  0
   -6.6607    1.9959   -0.0809 C   0  0  0  0  0  0  0  0  0  0  0  0
   -7.1547    0.8579   -0.6812 C   0  0  0  0  0  0  0  0  0  0  0  0
   -6.3414   -0.2581   -0.6824 C   0  0  0  0  0  0  0  0  0  0  0  0
   -4.9749   -0.0301   -0.6418 C   0  0  0  0  0  0  0  0  0  0  0  0
   -3.8745   -0.6322   -1.0990 N   0  0  0  0  0  0  0  0  0  0  0  0
   -2.9208   -0.3848   -0.2091 N   0  0  0  0  0  0  0  0  0  0  0  0
   -1.6002   -0.9574   -0.2940 C   0  0  0  0  0  0  0  0  0  0  0  0
   -0.6453   -0.0436   -1.0524 C   0  0  0  0  0  0  0  0  0  0  0  0
    0.7410   -0.3288   -0.4858 C   0  0  0  0  0  0  0  0  0  0  0  0
    0.8121   -1.7798   -0.3363 N   0  0  0  0  0  0  0  0  0  0  0  0
    0.9719   -2.1854    1.0342 C   0  0  0  0  0  0  0  0  0  0  0  0
    2.2425   -1.6011    1.6405 C   0  0  0  0  0  0  0  0  0  0  0  0
    3.0827   -1.2160    0.5132 N   0  0  0  0  0  0  0  0  0  0  0  0
    4.1476   -0.2711    0.6703 C   0  0  0  0  0  0  0  0  0  0  0  0
    4.0941    0.6947    1.6429 C   0  0  0  0  0  0  0  0  0  0  0  0
    5.1376    1.6094    1.7134 C   0  0  0  0  0  0  0  0  0  0  0  0
    6.0430    1.7546    0.6689 C   0  0  0  0  0  0  0  0  0  0  0  0
    5.9565    0.9171   -0.4349 C   0  0  0  0  0  0  0  0  0  0  0  0
    6.5576    1.3989   -2.0161 Cl  0  0  0  0  0  0  0  0  0  0  0  0
    5.1345   -0.1864   -0.2863 C   0  0  0  0  0  0  0  0  0  0  0  0
    3.1485   -2.1752   -0.5818 C   0  0  0  0  0  0  0  0  0  0  0  0
    1.7994   -2.3338   -1.2264 C   0  0  0  0  0  0  0  0  0  0  0  0
  1  2  2  0
  2  3  1  0
  3  4  1  0
  4  5  2  0
  5  6  1  0
  6  7  2  0
  7  8  1  0
  8  9  2  0
  9 10  1  0
 10 11  1  0
 11 12  1  0
 12 13  1  0
 13 14  1  0
 14 15  1  0
 15 16  1  0
 16 17  1  0
 17 18  1  0
 18 19  2  0
 19 20  1  0
 20 21  2  0
 21 22  1  0
 22 23  1  0
 22 24  2  0
 17 25  1  0
 25 26  1  0
 10  2  1  0
 26 14  1  0
  8  3  1  0
 24 18  1  0
M  END
>  <supplier_code>  (509) 
DB00656

>  <zinc_id>  (509) 
ZINC000000538483

>  <catalog_short_name>  (509) 
dbfda

$$$$

     RDKit          3D

 12 13  0  0  0  0  0  0  0  0999 V2000
    2.4515   -0.7650    0.8847 C   0  0  0  0  0  0  0  0  0  0  0  0
    1.2508   -0.6039    1.0876 N   0  0  0  0  0  0  0  0  0  0  0  0
    0.4296    0.3280    0.4509 C   0  0  2  0  0  0  0  0  0  0  0  0
    0.9735    1.6953    0.8811 C   0  0  0  0  0  0  0  0  0  0  0  0
   -1.0220    0.3647    1.1822 C   0  0  2  0  0  0  0  0  0  0  0  0
   -1.2553   -1.2485    1.1729 C   0  0  0  0  0  0  0  0  0  0  0  0
   -0.7562   -1.6531   -0.1118 C   0  0  0  0  0  0  0  0  0  0  0  0
   -1.1659   -0.4931   -1.1747 C   0  0  1  0  0  0  0  0  0  0  0  0
   -1.9379    0.4883   -0.1469 C   0  0  0  0  0  0  0  0  0  0  0  0
    0.1966    0.3718   -0.9461 C   0  0  0  0  0  0  0  0  0  0  0  0
   -0.3026    1.7457   -1.3842 C   0  0  0  0  0  0  0  0  0  0  0  0
    1.1378   -0.2303   -1.8956 C   0  0  0  0  0  0  0  0  0  0  0  0
  1  2  1  0
  3  2  1  6
  3  4  1  0
  3  5  1  0
  5  6  1  6
  6  7  1  0
  8  7  1  1
  8  9  1  0
  8 10  1  0
 10 11  1  0
 10 12  1  0
 10  3  1  0
  9  5  1  0
M  END
>  <supplier_code>  (510) 
DB00657

>  <zinc_id>  (510) 
ZINC000038140873

>  <catalog_short_name>  (510) 
dbfda

$$$$

     RDKit          3D

 12 13  0  0  0  0  0  0  0  0999 V2000
   -1.5451   -1.3066   -1.5852 C   0  0  0  0  0  0  0  0  0  0  0  0
   -1.7851   -0.9231   -0.3949 N   0  0  0  0  0  0  0  0  0  0  0  0
   -0.6137   -0.4003    0.3061 C   0  0  1  0  0  0  0  0  0  0  0  0
   -0.8562   -0.7222    1.7756 C   0  0  0  0  0  0  0  0  0  0  0  0
    0.6240   -1.3615   -0.1111 C   0  0  2  0  0  0  0  0  0  0  0  0
    1.6189   -0.7721    1.0274 C   0  0  0  0  0  0  0  0  0  0  0  0
    1.9822    0.5322    0.7196 C   0  0  0  0  0  0  0  0  0  0  0  0
    1.1893    1.0360   -0.6020 C   0  0  1  0  0  0  0  0  0  0  0  0
    1.1530   -0.4165   -1.3113 C   0  0  0  0  0  0  0  0  0  0  0  0
   -0.2819    0.9279    0.0713 C   0  0  0  0  0  0  0  0  0  0  0  0
   -0.3480    1.9464    1.1805 C   0  0  0  0  0  0  0  0  0  0  0  0
   -1.1374    1.4599   -1.0761 C   0  0  0  0  0  0  0  0  0  0  0  0
  1  2  1  0
  3  2  1  6
  3  4  1  0
  3  5  1  0
  5  6  1  1
  6  7  1  0
  8  7  1  1
  8  9  1  0
  8 10  1  0
 10 11  1  0
 10 12  1  0
 10  3  1  0
  9  5  1  0
M  END
>  <supplier_code>  (511) 
DB00657

>  <zinc_id>  (511) 
ZINC000043763856

>  <catalog_short_name>  (511) 
dbfda

$$$$

     RDKit          3D

 12 13  0  0  0  0  0  0  0  0999 V2000
    2.3308   -0.9061   -0.6336 C   0  0  0  0  0  0  0  0  0  0  0  0
    1.6742   -0.2499   -1.1522 N   0  0  0  0  0  0  0  0  0  0  0  0
    0.7418   -0.2579   -0.1175 C   0  0  2  0  0  0  0  0  0  0  0  0
    1.0280   -1.1274    1.0780 C   0  0  0  0  0  0  0  0  0  0  0  0
   -0.5318   -0.9849   -0.9243 C   0  0  1  0  0  0  0  0  0  0  0  0
   -1.6171   -1.2957    0.3146 C   0  0  0  0  0  0  0  0  0  0  0  0
   -2.0424    0.1975    0.8132 C   0  0  0  0  0  0  0  0  0  0  0  0
   -0.6884   -0.1506    0.1107 C   0  0  1  0  0  0  0  0  0  0  0  0
   -1.1983    0.4360   -1.3835 C   0  0  0  0  0  0  0  0  0  0  0  0
    0.2559    1.0838    0.3943 C   0  0  0  0  0  0  0  0  0  0  0  0
    0.0525    1.0689    1.8922 C   0  0  0  0  0  0  0  0  0  0  0  0
   -0.0051    2.1865   -0.3920 C   0  0  0  0  0  0  0  0  0  0  0  0
  1  2  1  0
  3  2  1  6
  3  4  1  0
  3  5  1  0
  5  6  1  1
  6  7  1  0
  8  7  1  1
  8  9  1  0
  8 10  1  0
 10 11  1  0
 10 12  1  0
 10  3  1  0
  9  5  1  0
M  END
>  <supplier_code>  (512) 
DB00657

>  <zinc_id>  (512) 
ZINC000100036955

>  <catalog_short_name>  (512) 
dbfda

$$$$

     RDKit          3D

 12 13  0  0  0  0  0  0  0  0999 V2000
   -1.6010   -1.9398    1.0884 C   0  0  0  0  0  0  0  0  0  0  0  0
   -0.8629   -1.1254    1.1495 N   0  0  0  0  0  0  0  0  0  0  0  0
   -0.1509   -0.7563    0.0266 C   0  0  1  0  0  0  0  0  0  0  0  0
   -0.1609   -1.9557   -0.8426 C   0  0  0  0  0  0  0  0  0  0  0  0
   -1.0761    0.2980   -0.8772 C   0  0  1  0  0  0  0  0  0  0  0  0
   -1.2939    1.6475    0.0809 C   0  0  0  0  0  0  0  0  0  0  0  0
    0.1521    2.2352    0.4051 C   0  0  0  0  0  0  0  0  0  0  0  0
   -0.1095    0.7218    0.1267 C   0  0  1  0  0  0  0  0  0  0  0  0
    0.1969    1.0643   -1.5050 C   0  0  0  0  0  0  0  0  0  0  0  0
    1.2331   -0.1145    0.1803 C   0  0  0  0  0  0  0  0  0  0  0  0
    1.9027    0.3242    1.3038 C   0  0  0  0  0  0  0  0  0  0  0  0
    1.7705   -0.3993   -1.1365 C   0  0  0  0  0  0  0  0  0  0  0  0
  1  2  1  0
  3  2  1  1
  3  4  1  0
  3  5  1  0
  5  6  1  1
  6  7  1  0
  8  7  1  1
  8  9  1  0
  8 10  1  0
 10 11  1  0
 10 12  1  0
 10  3  1  0
  9  5  1  0
M  END
>  <supplier_code>  (513) 
DB00657

>  <zinc_id>  (513) 
ZINC000100052205

>  <catalog_short_name>  (513) 
dbfda

$$$$

     RDKit          3D

  5  5  0  0  0  0  0  0  0  0999 V2000
    2.2076    0.3301   -0.0336 Cl  0  0  0  0  0  0  0  0  0  0  0  0
    0.7774   -0.7479   -0.2760 C   0  0  0  0  0  0  0  0  0  0  0  0
   -0.2464    0.2632    0.6894 C   0  0  2  0  0  0  0  0  0  0  0  0
   -1.6320   -0.5621    0.2543 C   0  0  0  0  0  0  0  0  0  0  0  0
   -1.1065    0.7167   -0.6341 O   0  0  0  0  0  0  0  0  0  0  0  0
  1  2  1  0
  3  2  1  6
  3  4  1  0
  4  5  1  0
  5  3  1  0
M  END
>  <supplier_code>  (514) 
DB00658

>  <zinc_id>  (514) 
ZINC000001487602

>  <catalog_short_name>  (514) 
dbfda

$$$$

     RDKit          3D

  5  5  0  0  0  0  0  0  0  0999 V2000
    1.7505   -0.7036    0.0434 Cl  0  0  0  0  0  0  0  0  0  0  0  0
    0.9340    0.7691    0.1644 C   0  0  0  0  0  0  0  0  0  0  0  0
   -0.5489    0.6640   -0.6193 C   0  0  1  0  0  0  0  0  0  0  0  0
   -0.8013   -0.9284   -0.3009 C   0  0  0  0  0  0  0  0  0  0  0  0
   -1.3344    0.1989    0.7124 O   0  0  0  0  0  0  0  0  0  0  0  0
  1  2  1  0
  3  2  1  1
  3  4  1  0
  4  5  1  0
  5  3  1  0
M  END
>  <supplier_code>  (515) 
DB00658

>  <zinc_id>  (515) 
ZINC000002016052

>  <catalog_short_name>  (515) 
dbfda

$$$$

     RDKit          3D

 11 10  0  0  0  0  0  0  0  0999 V2000
   -3.8662    1.4701   -0.7018 C   0  0  0  0  0  0  0  0  0  0  0  0
   -3.2026    0.1907   -0.3090 C   0  0  0  0  0  0  0  0  0  0  0  0
   -3.8426   -0.9001   -0.3650 O   0  0  0  0  0  0  0  0  0  0  0  0
   -1.7950    0.0813   -0.5522 N   0  0  0  0  0  0  0  0  0  0  0  0
   -1.0761   -0.8667    0.2940 C   0  0  0  0  0  0  0  0  0  0  0  0
    0.2260   -0.2376    0.7594 C   0  0  0  0  0  0  0  0  0  0  0  0
    1.0923   -0.0965   -0.4852 C   0  0  0  0  0  0  0  0  0  0  0  0
    2.7868    0.0226    0.0529 S   0  0  0  0  0  0  0  0  0  0  0  0
    3.6319    0.0749   -1.1974 O   0  0  0  0  0  0  0  0  0  0  0  0
    3.0846   -1.1784    0.8777 O   0  0  0  0  0  0  0  0  0  0  0  0
    2.9610    1.4397    0.9454 O   0  0  0  0  0  0  0  0  0  0  0  0
  1  2  1  0
  2  3  2  0
  2  4  1  0
  4  5  1  0
  5  6  1  0
  6  7  1  0
  7  8  1  0
  8  9  2  0
  8 10  2  0
  8 11  1  0
M  END
>  <supplier_code>  (516) 
DB00659

>  <zinc_id>  (516) 
ZINC000001554588

>  <catalog_short_name>  (516) 
dbfda

$$$$

     RDKit          3D

 16 17  0  0  0  0  0  0  0  0999 V2000
   -3.1368   -2.9339   -0.4546 C   0  0  0  0  0  0  0  0  0  0  0  0
   -2.7412   -1.6394    0.1865 C   0  0  0  0  0  0  0  0  0  0  0  0
   -3.6447   -0.6187    0.4063 C   0  0  0  0  0  0  0  0  0  0  0  0
   -3.1829    0.6631    0.6335 C   0  0  0  0  0  0  0  0  0  0  0  0
   -4.2103    1.7394    0.7905 C   0  0  0  0  0  0  0  0  0  0  0  0
   -1.8485    0.9557    0.3778 C   0  0  0  0  0  0  0  0  0  0  0  0
   -0.9009   -0.0445    0.2240 C   0  0  0  0  0  0  0  0  0  0  0  0
    0.3837    0.0327    0.7173 O   0  0  0  0  0  0  0  0  0  0  0  0
    1.2604    1.1097    0.5963 C   0  0  0  0  0  0  0  0  0  0  0  0
    1.8179    1.0255   -0.9657 C   0  0  1  0  0  0  0  0  0  0  0  0
    3.1869    1.8771   -0.5809 C   0  0  0  0  0  0  0  0  0  0  0  0
    4.1908    0.8663   -0.7205 N   0  0  0  0  0  0  0  0  0  0  0  0
    3.5556   -0.1806    0.0328 C   0  0  0  0  0  0  0  0  0  0  0  0
    4.2329   -1.1515    0.4911 O   0  0  0  0  0  0  0  0  0  0  0  0
    2.4478   -0.3650   -0.7175 O   0  0  0  0  0  0  0  0  0  0  0  0
   -1.4108   -1.3358    0.1474 C   0  0  0  0  0  0  0  0  0  0  0  0
  1  2  1  0
  2  3  2  0
  3  4  1  0
  4  5  1  0
  4  6  2  0
  6  7  1  0
  7  8  1  0
  8  9  1  0
 10  9  1  1
 10 11  1  0
 11 12  1  0
 12 13  1  0
 13 14  2  0
 13 15  1  0
  7 16  2  0
 16  2  1  0
 15 10  1  0
M  END
>  <supplier_code>  (517) 
DB00660

>  <zinc_id>  (517) 
ZINC000000000471

>  <catalog_short_name>  (517) 
dbfda

$$$$

     RDKit          3D

 16 17  0  0  0  0  0  0  0  0999 V2000
   -2.8440    2.5026   -0.4032 C   0  0  0  0  0  0  0  0  0  0  0  0
   -2.4422    1.2857   -0.2115 C   0  0  0  0  0  0  0  0  0  0  0  0
   -3.2933    0.2124   -0.2790 C   0  0  0  0  0  0  0  0  0  0  0  0
   -2.9208   -1.0293    0.2085 C   0  0  0  0  0  0  0  0  0  0  0  0
   -3.9452   -2.0960    0.4401 C   0  0  0  0  0  0  0  0  0  0  0  0
   -1.6118   -1.2955    0.5501 C   0  0  0  0  0  0  0  0  0  0  0  0
   -0.7589   -0.2122    0.7020 C   0  0  0  0  0  0  0  0  0  0  0  0
    0.4956   -0.4961    1.1733 O   0  0  0  0  0  0  0  0  0  0  0  0
    1.3243   -1.5386    0.8901 C   0  0  0  0  0  0  0  0  0  0  0  0
    2.1888   -1.2259   -0.4906 C   0  0  2  0  0  0  0  0  0  0  0  0
    3.5311   -0.7994    0.3925 C   0  0  0  0  0  0  0  0  0  0  0  0
    4.0269    0.1818   -0.5725 N   0  0  0  0  0  0  0  0  0  0  0  0
    2.8619    0.9731   -0.8404 C   0  0  0  0  0  0  0  0  0  0  0  0
    2.8269    2.2421   -0.8546 O   0  0  0  0  0  0  0  0  0  0  0  0
    1.7260    0.2492   -0.6117 O   0  0  0  0  0  0  0  0  0  0  0  0
   -1.1653    1.0462    0.2772 C   0  0  0  0  0  0  0  0  0  0  0  0
  1  2  1  0
  2  3  2  0
  3  4  1  0
  4  5  1  0
  4  6  2  0
  6  7  1  0
  7  8  1  0
  8  9  1  0
 10  9  1  1
 10 11  1  0
 11 12  1  0
 12 13  1  0
 13 14  2  0
 13 15  1  0
  7 16  2  0
 16  2  1  0
 15 10  1  0
M  END
>  <supplier_code>  (518) 
DB00660

>  <zinc_id>  (518) 
ZINC000000897322

>  <catalog_short_name>  (518) 
dbfda

$$$$

     RDKit          3D

 33 34  0  0  0  0  0  0  0  0999 V2000
    8.4039   -0.5620   -1.6791 C   0  0  0  0  0  0  0  0  0  0  0  0
    7.8368   -1.1736   -0.8910 O   0  0  0  0  0  0  0  0  0  0  0  0
    6.6193   -0.7877   -0.3236 C   0  0  0  0  0  0  0  0  0  0  0  0
    5.6004   -1.6889   -0.0727 C   0  0  0  0  0  0  0  0  0  0  0  0
    4.2640   -1.3116   -0.1141 C   0  0  0  0  0  0  0  0  0  0  0  0
    3.9600   -0.0131   -0.4595 C   0  0  0  0  0  0  0  0  0  0  0  0
    2.6109    0.3929   -0.9397 C   0  0  0  0  0  0  0  0  0  0  0  0
    1.9958    1.2537    0.1306 C   0  0  0  0  0  0  0  0  0  0  0  0
    1.4072    0.4974    1.2055 N   0  0  0  0  0  0  0  0  0  0  0  0
    2.2549    0.4044    2.3682 C   0  0  0  0  0  0  0  0  0  0  0  0
    0.8642   -0.7702    0.7883 C   0  0  0  0  0  0  0  0  0  0  0  0
   -0.5377   -0.9198    1.3531 C   0  0  0  0  0  0  0  0  0  0  0  0
   -1.4468   -1.6753    0.3917 C   0  0  0  0  0  0  0  0  0  0  0  0
   -2.3398   -0.7530   -0.3875 C   0  0  2  0  0  0  0  0  0  0  0  0
   -2.0026    0.6207    0.0250 C   0  0  0  0  0  0  0  0  0  0  0  0
   -1.9280    1.7653    0.2416 N   0  0  0  0  0  0  0  0  0  0  0  0
   -3.7906   -0.9964   -0.1085 C   0  0  0  0  0  0  0  0  0  0  0  0
   -4.1490   -1.2057    1.2177 C   0  0  0  0  0  0  0  0  0  0  0  0
   -5.3543   -0.7438    1.7321 C   0  0  0  0  0  0  0  0  0  0  0  0
   -6.1491    0.1027    0.9794 C   0  0  0  0  0  0  0  0  0  0  0  0
   -7.2914    0.6617    1.5231 O   0  0  0  0  0  0  0  0  0  0  0  0
   -7.5903    2.0148    1.2373 C   0  0  0  0  0  0  0  0  0  0  0  0
   -5.9257    0.1297   -0.3921 C   0  0  0  0  0  0  0  0  0  0  0  0
   -6.6947    1.0623   -1.0963 O   0  0  0  0  0  0  0  0  0  0  0  0
   -5.9712    2.1542   -1.6590 C   0  0  0  0  0  0  0  0  0  0  0  0
   -4.7084   -0.3259   -0.8835 C   0  0  0  0  0  0  0  0  0  0  0  0
   -2.1545   -0.9334   -1.8854 C   0  0  0  0  0  0  0  0  0  0  0  0
   -2.6640   -2.3020   -2.2492 C   0  0  0  0  0  0  0  0  0  0  0  0
   -0.6968   -0.7384   -2.2433 C   0  0  0  0  0  0  0  0  0  0  0  0
    4.9422    0.9331   -0.2168 C   0  0  0  0  0  0  0  0  0  0  0  0
    6.2784    0.5552   -0.2373 C   0  0  0  0  0  0  0  0  0  0  0  0
    7.2989    1.4826   -0.2262 O   0  0  0  0  0  0  0  0  0  0  0  0
    7.0579    2.8702   -0.1713 C   0  0  0  0  0  0  0  0  0  0  0  0
  1  2  1  0
  2  3  1  0
  3  4  2  0
  4  5  1  0
  5  6  2  0
  6  7  1  0
  7  8  1  0
  8  9  1  0
  9 10  1  0
  9 11  1  0
 11 12  1  0
 12 13  1  0
 14 13  1  1
 14 15  1  0
 15 16  3  0
 14 17  1  0
 17 18  2  0
 18 19  1  0
 19 20  2  0
 20 21  1  0
 21 22  1  0
 20 23  1  0
 23 24  1  0
 24 25  1  0
 23 26  2  0
 14 27  1  0
 27 28  1  0
 27 29  1  0
  6 30  1  0
 30 31  2  0
 31 32  1  0
 32 33  1  0
 31  3  1  0
 26 17  1  0
M  END
>  <supplier_code>  (519) 
DB00661

>  <zinc_id>  (519) 
ZINC000003812888

>  <catalog_short_name>  (519) 
dbfda

$$$$

     RDKit          3D

 33 34  0  0  0  0  0  0  0  0999 V2000
   -7.2779   -0.0950    1.7723 C   0  0  0  0  0  0  0  0  0  0  0  0
   -7.0027    0.0294    1.1598 O   0  0  0  0  0  0  0  0  0  0  0  0
   -5.9197    0.0225    0.2784 C   0  0  0  0  0  0  0  0  0  0  0  0
   -4.7131    0.4930    0.7612 C   0  0  0  0  0  0  0  0  0  0  0  0
   -3.7855    0.9635   -0.1512 C   0  0  0  0  0  0  0  0  0  0  0  0
   -3.9385    0.6204   -1.4836 C   0  0  0  0  0  0  0  0  0  0  0  0
   -2.9175    1.0883   -2.4696 C   0  0  0  0  0  0  0  0  0  0  0  0
   -1.5681    0.6553   -1.9274 C   0  0  0  0  0  0  0  0  0  0  0  0
   -1.5985   -0.7442   -1.5796 N   0  0  0  0  0  0  0  0  0  0  0  0
   -1.2716   -1.5616   -2.7223 C   0  0  0  0  0  0  0  0  0  0  0  0
   -0.6761   -0.9467   -0.4702 C   0  0  0  0  0  0  0  0  0  0  0  0
    0.6686   -0.3731   -0.8789 C   0  0  0  0  0  0  0  0  0  0  0  0
    0.9242    0.8609   -0.0262 C   0  0  0  0  0  0  0  0  0  0  0  0
    1.8280    0.4258    1.1055 C   0  0  1  0  0  0  0  0  0  0  0  0
    1.3232   -0.8454    1.6540 C   0  0  0  0  0  0  0  0  0  0  0  0
    0.9117   -1.7780    2.2222 N   0  0  0  0  0  0  0  0  0  0  0  0
    3.2028    0.2170    0.5598 C   0  0  0  0  0  0  0  0  0  0  0  0
    3.7853    1.2308   -0.1637 C   0  0  0  0  0  0  0  0  0  0  0  0
    5.1343    1.1812   -0.4436 C   0  0  0  0  0  0  0  0  0  0  0  0
    5.9156    0.1428    0.0469 C   0  0  0  0  0  0  0  0  0  0  0  0
    7.2651    0.3309    0.3627 O   0  0  0  0  0  0  0  0  0  0  0  0
    8.3051   -0.1320   -0.4607 C   0  0  0  0  0  0  0  0  0  0  0  0
    5.2623   -0.9412    0.6215 C   0  0  0  0  0  0  0  0  0  0  0  0
    5.9636   -2.1471    0.7070 O   0  0  0  0  0  0  0  0  0  0  0  0
    6.2418   -2.8604   -0.4728 C   0  0  0  0  0  0  0  0  0  0  0  0
    3.9467   -0.8322    1.0547 C   0  0  0  0  0  0  0  0  0  0  0  0
    1.8037    1.4644    2.1934 C   0  0  0  0  0  0  0  0  0  0  0  0
    2.1151    0.7972    3.5171 C   0  0  0  0  0  0  0  0  0  0  0  0
    2.6959    2.6411    1.9184 C   0  0  0  0  0  0  0  0  0  0  0  0
   -5.0280   -0.0956   -1.9159 C   0  0  0  0  0  0  0  0  0  0  0  0
   -6.0921   -0.2627   -1.0647 C   0  0  0  0  0  0  0  0  0  0  0  0
   -7.3360   -0.7291   -1.4911 O   0  0  0  0  0  0  0  0  0  0  0  0
   -8.1678    0.1747   -2.2133 C   0  0  0  0  0  0  0  0  0  0  0  0
  1  2  1  0
  2  3  1  0
  3  4  2  0
  4  5  1  0
  5  6  2  0
  6  7  1  0
  7  8  1  0
  8  9  1  0
  9 10  1  0
  9 11  1  0
 11 12  1  0
 12 13  1  0
 14 13  1  6
 14 15  1  0
 15 16  3  0
 14 17  1  0
 17 18  2  0
 18 19  1  0
 19 20  2  0
 20 21  1  0
 21 22  1  0
 20 23  1  0
 23 24  1  0
 24 25  1  0
 23 26  2  0
 14 27  1  0
 27 28  1  0
 27 29  1  0
  6 30  1  0
 30 31  2  0
 31 32  1  0
 32 33  1  0
 31  3  1  0
 26 17  1  0
M  END
>  <supplier_code>  (520) 
DB00661

>  <zinc_id>  (520) 
ZINC000003871832

>  <catalog_short_name>  (520) 
dbfda

$$$$

     RDKit          3D

 28 29  0  0  0  0  0  0  0  0999 V2000
   -6.1095    0.9683    1.6984 C   0  0  0  0  0  0  0  0  0  0  0  0
   -5.2480    1.6568    0.8137 O   0  0  0  0  0  0  0  0  0  0  0  0
   -4.5785    0.9519   -0.1915 C   0  0  0  0  0  0  0  0  0  0  0  0
   -3.1946    0.8943   -0.1633 C   0  0  0  0  0  0  0  0  0  0  0  0
   -2.5242   -0.1065   -0.8422 C   0  0  0  0  0  0  0  0  0  0  0  0
   -1.1229   -0.4363   -0.5533 C   0  0  0  0  0  0  0  0  0  0  0  0
   -0.2492   -0.2759   -1.4498 O   0  0  0  0  0  0  0  0  0  0  0  0
   -0.6764   -0.1936    0.7839 N   0  0  0  0  0  0  0  0  0  0  0  0
    0.4886   -0.9673    1.2099 C   0  0  0  0  0  0  0  0  0  0  0  0
    1.6232   -0.0170    1.4298 C   0  0  0  0  0  0  0  0  0  0  0  0
    2.3742    0.4633    0.3660 C   0  0  0  0  0  0  0  0  0  0  0  0
    3.7402    0.6864    0.4830 C   0  0  0  0  0  0  0  0  0  0  0  0
    4.4148    0.3157    1.6404 C   0  0  0  0  0  0  0  0  0  0  0  0
    5.6860   -0.2650    1.5960 O   0  0  0  0  0  0  0  0  0  0  0  0
    6.0012   -1.3634    0.7722 C   0  0  0  0  0  0  0  0  0  0  0  0
    6.8505   -0.9006   -0.3989 C   0  0  0  0  0  0  0  0  0  0  0  0
    7.4500    0.3698   -0.0123 N   0  0  0  0  0  0  0  0  0  0  0  0
    8.1728    0.2401    1.2324 C   0  0  0  0  0  0  0  0  0  0  0  0
    8.2967    0.9029   -1.0617 C   0  0  0  0  0  0  0  0  0  0  0  0
    3.6256    0.2226    2.7804 C   0  0  0  0  0  0  0  0  0  0  0  0
    2.2626   -0.0232    2.6638 C   0  0  0  0  0  0  0  0  0  0  0  0
   -3.2266   -0.7819   -1.8153 C   0  0  0  0  0  0  0  0  0  0  0  0
   -4.5904   -0.9608   -1.6400 C   0  0  0  0  0  0  0  0  0  0  0  0
   -5.3772   -1.6416   -2.5441 O   0  0  0  0  0  0  0  0  0  0  0  0
   -4.9163   -2.2252   -3.7347 C   0  0  0  0  0  0  0  0  0  0  0  0
   -5.2286   -0.1686   -0.6938 C   0  0  0  0  0  0  0  0  0  0  0  0
   -6.6135   -0.2072   -0.6142 O   0  0  0  0  0  0  0  0  0  0  0  0
   -7.3306    0.2174   -1.7549 C   0  0  0  0  0  0  0  0  0  0  0  0
  1  2  1  0
  2  3  1  0
  3  4  2  0
  4  5  1  0
  5  6  1  0
  6  7  2  0
  6  8  1  0
  8  9  1  0
  9 10  1  0
 10 11  2  0
 11 12  1  0
 12 13  2  0
 13 14  1  0
 14 15  1  0
 15 16  1  0
 16 17  1  0
 17 18  1  0
 17 19  1  0
 13 20  1  0
 20 21  2  0
  5 22  2  0
 22 23  1  0
 23 24  1  0
 24 25  1  0
 23 26  2  0
 26 27  1  0
 27 28  1  0
 26  3  1  0
 21 10  1  0
M  END
>  <supplier_code>  (521) 
DB00662

>  <zinc_id>  (521) 
ZINC000000538509

>  <catalog_short_name>  (521) 
dbfda

$$$$

     RDKit          3D

 22 23  0  0  0  0  0  0  0  0999 V2000
    4.5968   -1.3516    0.6646 C   0  0  0  0  0  0  0  0  0  0  0  0
    3.9986    0.0121    0.4067 C   0  0  0  0  0  0  0  0  0  0  0  0
    5.0615    1.0242    0.0715 C   0  0  0  0  0  0  0  0  0  0  0  0
    3.2115    0.4959    1.5131 N   0  0  0  0  0  0  0  0  0  0  0  0
    2.0145    1.0143    0.9218 C   0  0  0  0  0  0  0  0  0  0  0  0
    1.2130    1.8174    1.4665 O   0  0  0  0  0  0  0  0  0  0  0  0
    1.7493    0.3293   -0.3073 N   0  0  0  0  0  0  0  0  0  0  0  0
    0.4701   -0.1531   -0.7390 C   0  0  0  0  0  0  0  0  0  0  0  0
    0.1368   -1.5015   -0.6862 C   0  0  0  0  0  0  0  0  0  0  0  0
   -1.0606   -1.9076   -0.1080 C   0  0  0  0  0  0  0  0  0  0  0  0
   -2.1159   -1.0040   -0.0754 C   0  0  0  0  0  0  0  0  0  0  0  0
   -3.1391   -1.2198    0.9034 N   0  0  0  0  0  0  0  0  0  0  0  0
   -3.7597   -2.3076    0.7873 O   0  0  0  0  0  0  0  0  0  0  0  0
   -2.8486   -0.8633    2.2099 O   0  0  0  0  0  0  0  0  0  0  0  0
   -1.9129    0.2428   -0.6446 C   0  0  0  0  0  0  0  0  0  0  0  0
   -3.0607    1.1657   -0.7438 C   0  0  0  0  0  0  0  0  0  0  0  0
   -3.4597    1.3784   -2.0534 F   0  0  0  0  0  0  0  0  0  0  0  0
   -2.6077    2.3990   -0.2862 F   0  0  0  0  0  0  0  0  0  0  0  0
   -4.1545    0.7670   -0.0224 F   0  0  0  0  0  0  0  0  0  0  0  0
   -0.6153    0.7111   -0.8157 C   0  0  0  0  0  0  0  0  0  0  0  0
    3.0272   -0.1707   -0.7177 C   0  0  0  0  0  0  0  0  0  0  0  0
    3.2555   -0.8779   -1.7450 O   0  0  0  0  0  0  0  0  0  0  0  0
  1  2  1  0
  2  3  1  0
  2  4  1  0
  4  5  1  0
  5  6  2  0
  5  7  1  0
  7  8  1  0
  8  9  2  0
  9 10  1  0
 10 11  2  0
 11 12  1  0
 12 13  2  0
 12 14  1  0
 11 15  1  0
 15 16  1  0
 16 17  1  0
 16 18  1  0
 16 19  1  0
 15 20  2  0
  7 21  1  0
 21 22  2  0
 21  2  1  0
 20  8  1  0
M  CHG  2  12   1  14  -1
M  END
>  <supplier_code>  (522) 
DB00665

>  <zinc_id>  (522) 
ZINC000003874498

>  <catalog_short_name>  (522) 
dbfda

$$$$

     RDKit          3D

 13 13  0  0  0  0  0  0  0  0999 V2000
    4.6573    0.3761   -0.2995 C   0  0  0  0  0  0  0  0  0  0  0  0
    3.5861    0.9132    0.4951 N   0  0  0  0  0  0  0  0  0  0  0  0
    2.3413    0.6356   -0.2219 C   0  0  0  0  0  0  0  0  0  0  0  0
    1.4083   -0.0774    0.9892 C   0  0  2  0  0  0  0  0  0  0  0  0
    2.0113   -1.4737    0.6759 O   0  0  0  0  0  0  0  0  0  0  0  0
    0.1570   -0.3245   -0.0677 C   0  0  0  0  0  0  0  0  0  0  0  0
   -0.5773   -1.4404    0.2534 C   0  0  0  0  0  0  0  0  0  0  0  0
   -1.8971   -1.5435   -0.1605 C   0  0  0  0  0  0  0  0  0  0  0  0
   -2.6146   -0.3703   -0.3272 C   0  0  0  0  0  0  0  0  0  0  0  0
   -3.9770   -0.3381   -0.0799 O   0  0  0  0  0  0  0  0  0  0  0  0
   -1.9004    0.7973   -0.5135 C   0  0  0  0  0  0  0  0  0  0  0  0
   -2.6486    1.9767   -0.5319 O   0  0  0  0  0  0  0  0  0  0  0  0
   -0.5463    0.8690   -0.2114 C   0  0  0  0  0  0  0  0  0  0  0  0
  1  2  1  0
  2  3  1  0
  4  3  1  6
  4  5  1  0
  4  6  1  0
  6  7  2  0
  7  8  1  0
  8  9  2  0
  9 10  1  0
  9 11  1  0
 11 12  1  0
 11 13  2  0
 13  6  1  0
M  END
>  <supplier_code>  (523) 
DB00668

>  <zinc_id>  (523) 
ZINC000000039089

>  <catalog_short_name>  (523) 
dbfda

$$$$

     RDKit          3D

 20 21  0  0  0  0  0  0  0  0999 V2000
    2.8844    3.7183   -0.5462 C   0  0  0  0  0  0  0  0  0  0  0  0
    3.6164    3.0509    0.5195 N   0  0  0  0  0  0  0  0  0  0  0  0
    3.6834    1.3648    0.1802 S   0  0  0  0  0  0  0  0  0  0  0  0
    4.9060    1.0937   -0.6292 O   0  0  0  0  0  0  0  0  0  0  0  0
    3.7461    0.6119    1.4731 O   0  0  0  0  0  0  0  0  0  0  0  0
    2.2521    0.9313   -0.7614 C   0  0  0  0  0  0  0  0  0  0  0  0
    1.5448   -0.2562   -0.1971 C   0  0  0  0  0  0  0  0  0  0  0  0
    2.0891   -1.5018   -0.4871 C   0  0  0  0  0  0  0  0  0  0  0  0
    1.2718   -2.6235   -0.5554 C   0  0  0  0  0  0  0  0  0  0  0  0
   -0.0782   -2.5302   -0.2774 C   0  0  0  0  0  0  0  0  0  0  0  0
   -1.1140   -3.3780   -0.2828 N   0  0  0  0  0  0  0  0  0  0  0  0
   -2.2371   -2.7575    0.1525 C   0  0  0  0  0  0  0  0  0  0  0  0
   -2.0135   -1.3949    0.0726 C   0  0  0  0  0  0  0  0  0  0  0  0
   -2.8697   -0.2876    0.6005 C   0  0  0  0  0  0  0  0  0  0  0  0
   -3.9045    0.0544   -0.4352 C   0  0  0  0  0  0  0  0  0  0  0  0
   -4.5689    1.3079   -0.1883 N   0  0  0  0  0  0  0  0  0  0  0  0
   -4.0374    2.3980   -0.9756 C   0  0  0  0  0  0  0  0  0  0  0  0
   -4.6930    1.6278    1.2104 C   0  0  0  0  0  0  0  0  0  0  0  0
   -0.6392   -1.2762   -0.0940 C   0  0  0  0  0  0  0  0  0  0  0  0
    0.1614   -0.1531   -0.1234 C   0  0  0  0  0  0  0  0  0  0  0  0
  1  2  1  0
  2  3  1  0
  3  4  2  0
  3  5  2  0
  3  6  1  0
  6  7  1  0
  7  8  2  0
  8  9  1  0
  9 10  2  0
 10 11  1  0
 11 12  1  0
 12 13  2  0
 13 14  1  0
 14 15  1  0
 15 16  1  0
 16 17  1  0
 16 18  1  0
 13 19  1  0
 19 20  2  0
 20  7  1  0
 19 10  1  0
M  END
>  <supplier_code>  (524) 
DB00669

>  <zinc_id>  (524) 
ZINC000000014360

>  <catalog_short_name>  (524) 
dbfda

$$$$

     RDKit          3D

 30 32  0  0  0  0  0  0  0  0999 V2000
   -6.1538   -0.4004    0.9617 C   0  0  0  0  0  0  0  0  0  0  0  0
   -5.5269   -0.7166    1.0698 C   0  0  0  0  0  0  0  0  0  0  0  0
   -4.1363   -0.3488    0.7654 C   0  0  0  0  0  0  0  0  0  0  0  0
   -3.8949    0.2214   -0.4176 C   0  0  0  0  0  0  0  0  0  0  0  0
   -4.8781    0.3341   -1.4781 C   0  0  0  0  0  0  0  0  0  0  0  0
   -5.5791    1.3493   -1.7021 O   0  0  0  0  0  0  0  0  0  0  0  0
   -5.2288   -0.7956   -2.2283 O   0  0  0  0  0  0  0  0  0  0  0  0
   -2.5636    0.5325   -0.8616 N   0  0  0  0  0  0  0  0  0  0  0  0
   -1.6790    1.6866   -0.8795 C   0  0  0  0  0  0  0  0  0  0  0  0
   -1.7892    2.6521   -1.6954 O   0  0  0  0  0  0  0  0  0  0  0  0
   -0.5445    0.5609   -1.1671 C   0  0  1  0  0  0  0  0  0  0  0  0
    0.4488    0.9928    0.0060 N   0  0  0  0  0  0  0  0  0  0  0  0
    1.1480   -0.1502    0.5150 C   0  0  0  0  0  0  0  0  0  0  0  0
    0.4688   -1.2215    0.6039 O   0  0  0  0  0  0  0  0  0  0  0  0
    2.5880   -0.3891    0.3331 C   0  0  0  0  0  0  0  0  0  0  0  0
    3.4218    0.5829    0.1177 N   0  0  0  0  0  0  0  0  0  0  0  0
    2.9077    1.7958   -0.3051 O   0  0  0  0  0  0  0  0  0  0  0  0
    3.6055    3.0153   -0.1701 C   0  0  0  0  0  0  0  0  0  0  0  0
    4.7848    3.0437   -1.0911 C   0  0  0  0  0  0  0  0  0  0  0  0
    5.1492    1.9552   -1.5943 O   0  0  0  0  0  0  0  0  0  0  0  0
    5.6829    4.0976   -0.9152 O   0  0  0  0  0  0  0  0  0  0  0  0
    3.1156   -1.7553    0.1233 C   0  0  0  0  0  0  0  0  0  0  0  0
    4.3861   -2.1672    0.5201 C   0  0  0  0  0  0  0  0  0  0  0  0
    4.1264   -3.8607    0.6651 S   0  0  0  0  0  0  0  0  0  0  0  0
    2.5732   -3.9198   -0.0608 C   0  0  0  0  0  0  0  0  0  0  0  0
    1.6482   -5.0061   -0.2081 N   0  0  0  0  0  0  0  0  0  0  0  0
    2.5495   -2.7077   -0.6594 N   0  0  0  0  0  0  0  0  0  0  0  0
   -1.5450   -0.3613   -0.1612 C   0  0  1  0  0  0  0  0  0  0  0  0
   -1.7022    0.7391    1.4031 S   0  0  0  0  0  0  0  0  0  0  0  0
   -3.3832    0.2411    1.9210 C   0  0  0  0  0  0  0  0  0  0  0  0
  1  2  2  0
  2  3  1  0
  3  4  2  0
  4  5  1  0
  5  6  2  0
  5  7  1  0
  4  8  1  0
  8  9  1  0
  9 10  2  0
  9 11  1  0
 11 12  1  1
 12 13  1  0
 13 14  2  0
 13 15  1  0
 15 16  2  0
 16 17  1  0
 17 18  1  0
 18 19  1  0
 19 20  2  0
 19 21  1  0
 15 22  1  0
 22 23  2  0
 23 24  1  0
 24 25  1  0
 25 26  1  0
 25 27  2  0
 11 28  1  0
 28 29  1  1
 29 30  1  0
 30  3  1  0
 28  8  1  0
 27 22  1  0
M  END
>  <supplier_code>  (525) 
DB00671

>  <zinc_id>  (525) 
ZINC000004468778

>  <catalog_short_name>  (525) 
dbfda

$$$$

     RDKit          3D

 17 17  0  0  0  0  0  0  0  0999 V2000
    5.6214    1.1414   -0.6966 C   0  0  0  0  0  0  0  0  0  0  0  0
    4.7878    1.9018    0.3068 C   0  0  0  0  0  0  0  0  0  0  0  0
    3.3312    1.4541    0.2930 C   0  0  0  0  0  0  0  0  0  0  0  0
    3.2442    0.3687   -0.6757 N   0  0  0  0  0  0  0  0  0  0  0  0
    2.3250   -0.6784   -0.3793 C   0  0  0  0  0  0  0  0  0  0  0  0
    2.5383   -1.9979   -0.7869 O   0  0  0  0  0  0  0  0  0  0  0  0
    1.1801   -0.4165    0.1187 N   0  0  0  0  0  0  0  0  0  0  0  0
   -0.2187   -1.3391   -0.2719 S   0  0  0  0  0  0  0  0  0  0  0  0
   -0.2485   -1.7223   -1.7352 O   0  0  0  0  0  0  0  0  0  0  0  0
   -0.2466   -2.6429    0.4833 O   0  0  0  0  0  0  0  0  0  0  0  0
   -1.6953   -0.4629    0.0541 C   0  0  0  0  0  0  0  0  0  0  0  0
   -1.7912    0.4698    1.0665 C   0  0  0  0  0  0  0  0  0  0  0  0
   -2.9426    1.2232    1.1780 C   0  0  0  0  0  0  0  0  0  0  0  0
   -3.9774    1.0607    0.2922 C   0  0  0  0  0  0  0  0  0  0  0  0
   -5.0902    2.3831    0.0886 Cl  0  0  0  0  0  0  0  0  0  0  0  0
   -3.9579    0.0459   -0.6471 C   0  0  0  0  0  0  0  0  0  0  0  0
   -2.8598   -0.7886   -0.6190 C   0  0  0  0  0  0  0  0  0  0  0  0
  1  2  1  0
  2  3  1  0
  3  4  1  0
  4  5  1  0
  5  6  1  0
  5  7  2  0
  7  8  1  0
  8  9  2  0
  8 10  2  0
  8 11  1  0
 11 12  2  0
 12 13  1  0
 13 14  2  0
 14 15  1  0
 14 16  1  0
 16 17  2  0
 17 11  1  0
M  END
>  <supplier_code>  (526) 
DB00672

>  <zinc_id>  (526) 
ZINC000001530599

>  <catalog_short_name>  (526) 
dbfda

$$$$

     RDKit          3D

 37 40  0  0  0  0  0  0  0  0999 V2000
    1.6744    2.2754    1.9284 C   0  0  0  0  0  0  0  0  0  0  0  0
    1.1145    1.1058    0.8913 C   0  0  1  0  0  0  0  0  0  0  0  0
    0.5716    2.2020    0.0095 O   0  0  0  0  0  0  0  0  0  0  0  0
   -0.2665    1.5095   -1.0534 C   0  0  1  0  0  0  0  0  0  0  0  0
   -0.2279    0.0834   -0.5271 O   0  0  0  0  0  0  0  0  0  0  0  0
   -0.7177   -0.5225   -1.7177 C   0  0  0  0  0  0  0  0  0  0  0  0
   -2.1597   -0.1636   -1.4997 C   0  0  0  0  0  0  0  0  0  0  0  0
   -2.5443    1.1249   -1.4241 N   0  0  0  0  0  0  0  0  0  0  0  0
   -3.8996    1.3589   -1.3718 C   0  0  0  0  0  0  0  0  0  0  0  0
   -4.7487    0.1331   -1.4409 C   0  0  0  0  0  0  0  0  0  0  0  0
   -4.4999   -1.1625   -1.6024 N   0  0  0  0  0  0  0  0  0  0  0  0
   -5.3069   -1.8767   -0.8409 N   0  0  0  0  0  0  0  0  0  0  0  0
   -6.0508   -1.0184   -0.1036 C   0  0  0  0  0  0  0  0  0  0  0  0
   -6.7052   -1.2480    0.9562 O   0  0  0  0  0  0  0  0  0  0  0  0
   -5.9416    0.1466   -0.7927 N   0  0  0  0  0  0  0  0  0  0  0  0
   -1.7924    1.9825   -0.3536 C   0  0  1  0  0  0  0  0  0  0  0  0
   -1.9067    0.9851    0.8658 C   0  0  0  0  0  0  0  0  0  0  0  0
   -2.9545    1.4920    1.6545 C   0  0  0  0  0  0  0  0  0  0  0  0
   -3.8284    0.6192    2.3112 C   0  0  0  0  0  0  0  0  0  0  0  0
   -3.7066   -0.7634    2.1987 C   0  0  0  0  0  0  0  0  0  0  0  0
   -4.7811   -1.5865    1.9854 F   0  0  0  0  0  0  0  0  0  0  0  0
   -2.4592   -1.1940    1.7485 C   0  0  0  0  0  0  0  0  0  0  0  0
   -1.7512   -0.2498    1.0891 C   0  0  0  0  0  0  0  0  0  0  0  0
    2.5138    0.9107    0.0789 C   0  0  0  0  0  0  0  0  0  0  0  0
    3.6693    1.3520    0.6291 C   0  0  0  0  0  0  0  0  0  0  0  0
    4.8721    0.6433    0.6503 C   0  0  0  0  0  0  0  0  0  0  0  0
    6.1850    1.3285    0.4808 C   0  0  0  0  0  0  0  0  0  0  0  0
    6.4460    2.2303    1.4674 F   0  0  0  0  0  0  0  0  0  0  0  0
    7.1471    0.3244    0.4079 F   0  0  0  0  0  0  0  0  0  0  0  0
    6.2296    1.9569   -0.7603 F   0  0  0  0  0  0  0  0  0  0  0  0
    4.7418   -0.7411    0.6109 C   0  0  0  0  0  0  0  0  0  0  0  0
    3.6541   -1.2612   -0.0813 C   0  0  0  0  0  0  0  0  0  0  0  0
    3.7054   -2.5954   -0.7594 C   0  0  0  0  0  0  0  0  0  0  0  0
    3.1473   -3.5428    0.0626 F   0  0  0  0  0  0  0  0  0  0  0  0
    2.9548   -2.4894   -1.9265 F   0  0  0  0  0  0  0  0  0  0  0  0
    4.9777   -2.9359   -1.1427 F   0  0  0  0  0  0  0  0  0  0  0  0
    2.6443   -0.4132   -0.3448 C   0  0  0  0  0  0  0  0  0  0  0  0
  2  1  1  1
  2  3  1  0
  4  3  1  1
  4  5  1  0
  5  6  1  0
  6  7  1  0
  7  8  1  0
  8  9  1  0
  9 10  1  0
 10 11  2  0
 11 12  1  0
 12 13  1  0
 13 14  2  0
 13 15  1  0
  8 16  1  0
 16 17  1  1
 17 18  2  0
 18 19  1  0
 19 20  2  0
 20 21  1  0
 20 22  1  0
 22 23  2  0
  2 24  1  0
 24 25  2  0
 25 26  1  0
 26 27  1  0
 27 28  1  0
 27 29  1  0
 27 30  1  0
 26 31  2  0
 31 32  1  0
 32 33  1  0
 33 34  1  0
 33 35  1  0
 33 36  1  0
 32 37  2  0
 16  4  1  0
 23 17  1  0
 37 24  1  0
 15 10  1  0
M  END
>  <supplier_code>  (527) 
DB00673

>  <zinc_id>  (527) 
ZINC000027428713

>  <catalog_short_name>  (527) 
dbfda

$$$$

     RDKit          3D

 21 24  0  0  0  0  0  0  0  0999 V2000
    4.4815   -2.1812    0.9184 C   0  0  0  0  0  0  0  0  0  0  0  0
    3.2977   -1.6717    1.2406 O   0  0  0  0  0  0  0  0  0  0  0  0
    2.5332   -0.7634    0.5422 C   0  0  0  0  0  0  0  0  0  0  0  0
    3.1455   -0.0549   -0.4875 C   0  0  0  0  0  0  0  0  0  0  0  0
    2.4434    1.0011   -0.9930 C   0  0  0  0  0  0  0  0  0  0  0  0
    1.2198    1.3299   -0.4149 C   0  0  0  0  0  0  0  0  0  0  0  0
    0.4242    0.3949    0.2560 C   0  0  0  0  0  0  0  0  0  0  0  0
    1.1508   -0.6928    0.7408 C   0  0  0  0  0  0  0  0  0  0  0  0
    0.2367   -1.7450    0.8895 O   0  0  0  0  0  0  0  0  0  0  0  0
   -0.6719   -1.5995   -0.3625 C   0  0  1  0  0  0  0  0  0  0  0  0
   -1.9656   -2.2107    0.4748 C   0  0  0  0  0  0  0  0  0  0  0  0
   -3.0282   -1.5872   -0.6361 C   0  0  1  0  0  0  0  0  0  0  0  0
   -4.2205   -2.2846    0.0159 O   0  0  0  0  0  0  0  0  0  0  0  0
   -3.2191   -0.2420    0.2777 C   0  0  0  0  0  0  0  0  0  0  0  0
   -2.0514    0.1400    0.8675 C   0  0  0  0  0  0  0  0  0  0  0  0
   -0.9339   -0.0367    0.0300 C   0  0  1  0  0  0  0  0  0  0  0  0
   -1.3719    0.7477   -1.2048 C   0  0  0  0  0  0  0  0  0  0  0  0
   -1.5580    2.1210   -0.5349 C   0  0  0  0  0  0  0  0  0  0  0  0
   -0.4854    3.0136   -0.7295 N   0  0  0  0  0  0  0  0  0  0  0  0
   -0.1381    3.8679    0.3775 C   0  0  0  0  0  0  0  0  0  0  0  0
    0.7111    2.4536   -1.2678 C   0  0  0  0  0  0  0  0  0  0  0  0
  1  2  1  0
  2  3  1  0
  3  4  2  0
  4  5  1  0
  5  6  2  0
  6  7  1  0
  7  8  2  0
  8  9  1  0
 10  9  1  1
 10 11  1  0
 11 12  1  0
 12 13  1  1
 12 14  1  0
 14 15  2  0
 16 15  1  1
 16 17  1  0
 17 18  1  0
 18 19  1  0
 19 20  1  0
 19 21  1  0
  8  3  1  0
 16 10  1  0
 21  6  1  0
 16  7  1  0
M  END
>  <supplier_code>  (528) 
DB00674

>  <zinc_id>  (528) 
ZINC000000491073

>  <catalog_short_name>  (528) 
dbfda

$$$$

     RDKit          3D

 28 30  0  0  0  0  0  0  0  0999 V2000
   -4.7685    1.1351   -0.8704 C   0  0  0  0  0  0  0  0  0  0  0  0
   -3.5780    0.3008   -1.2410 C   0  0  0  0  0  0  0  0  0  0  0  0
   -2.3577    0.6383   -0.4873 C   0  0  0  0  0  0  0  0  0  0  0  0
   -1.4360   -0.3090   -0.3635 C   0  0  0  0  0  0  0  0  0  0  0  0
   -1.8835   -1.6774   -0.0658 C   0  0  0  0  0  0  0  0  0  0  0  0
   -2.7025   -2.3634   -0.9417 C   0  0  0  0  0  0  0  0  0  0  0  0
   -3.2097   -3.5605   -0.4838 C   0  0  0  0  0  0  0  0  0  0  0  0
   -2.7876   -4.1571    0.6936 C   0  0  0  0  0  0  0  0  0  0  0  0
   -2.0389   -3.3759    1.5508 C   0  0  0  0  0  0  0  0  0  0  0  0
   -1.7972   -2.0361    1.2743 C   0  0  0  0  0  0  0  0  0  0  0  0
    0.0035   -0.0130   -0.4019 C   0  0  0  0  0  0  0  0  0  0  0  0
    0.6730   -0.4745   -1.5282 C   0  0  0  0  0  0  0  0  0  0  0  0
    1.9766   -0.9453   -1.4716 C   0  0  0  0  0  0  0  0  0  0  0  0
    2.5972   -1.1107   -0.2555 C   0  0  0  0  0  0  0  0  0  0  0  0
    3.8776   -1.6479   -0.2300 O   0  0  0  0  0  0  0  0  0  0  0  0
    4.8224   -1.1365   -1.1677 C   0  0  0  0  0  0  0  0  0  0  0  0
    5.2450    0.2799   -0.7986 C   0  0  0  0  0  0  0  0  0  0  0  0
    5.6986    0.2387    0.5673 N   0  0  0  0  0  0  0  0  0  0  0  0
    7.0357   -0.3006    0.5887 C   0  0  0  0  0  0  0  0  0  0  0  0
    5.6372    1.5146    1.2358 C   0  0  0  0  0  0  0  0  0  0  0  0
    2.0256   -0.4703    0.8297 C   0  0  0  0  0  0  0  0  0  0  0  0
    0.6813   -0.1557    0.7986 C   0  0  0  0  0  0  0  0  0  0  0  0
   -2.0019    1.9817   -0.0517 C   0  0  0  0  0  0  0  0  0  0  0  0
   -2.0063    2.2596    1.3091 C   0  0  0  0  0  0  0  0  0  0  0  0
   -2.4809    3.4564    1.8211 C   0  0  0  0  0  0  0  0  0  0  0  0
   -2.6913    4.4932    0.9535 C   0  0  0  0  0  0  0  0  0  0  0  0
   -2.4339    4.3443   -0.3837 C   0  0  0  0  0  0  0  0  0  0  0  0
   -2.0998    3.0915   -0.8801 C   0  0  0  0  0  0  0  0  0  0  0  0
  1  2  1  0
  2  3  1  0
  3  4  2  0
  4  5  1  0
  5  6  2  0
  6  7  1  0
  7  8  2  0
  8  9  1  0
  9 10  2  0
  4 11  1  0
 11 12  2  0
 12 13  1  0
 13 14  2  0
 14 15  1  0
 15 16  1  0
 16 17  1  0
 17 18  1  0
 18 19  1  0
 18 20  1  0
 14 21  1  0
 21 22  2  0
  3 23  1  0
 23 24  2  0
 24 25  1  0
 25 26  2  0
 26 27  1  0
 27 28  2  0
 10  5  1  0
 22 11  1  0
 28 23  1  0
M  END
>  <supplier_code>  (529) 
DB00675

>  <zinc_id>  (529) 
ZINC000001530689

>  <catalog_short_name>  (529) 
dbfda

$$$$

     RDKit          3D

 30 33  0  0  0  0  0  0  0  0999 V2000
    5.7364    4.0907    0.3874 C   0  0  0  0  0  0  0  0  0  0  0  0
    4.3047    3.8782   -0.0855 C   0  0  0  0  0  0  0  0  0  0  0  0
    4.1451    2.5010   -0.7173 C   0  0  0  0  0  0  0  0  0  0  0  0
    4.4113    1.4995    0.3736 C   0  0  0  0  0  0  0  0  0  0  0  0
    4.2311    0.0926   -0.0886 C   0  0  0  0  0  0  0  0  0  0  0  0
    5.2768   -0.7062   -0.4135 N   0  0  0  0  0  0  0  0  0  0  0  0
    4.9305   -1.9927   -0.1658 C   0  0  0  0  0  0  0  0  0  0  0  0
    5.9973   -3.3868   -0.0299 Cl  0  0  0  0  0  0  0  0  0  0  0  0
    3.5792   -1.9573    0.1547 C   0  0  0  0  0  0  0  0  0  0  0  0
    2.7949   -3.1458    0.6114 C   0  0  0  0  0  0  0  0  0  0  0  0
    2.8943   -4.1512   -0.3431 O   0  0  0  0  0  0  0  0  0  0  0  0
    3.1377   -0.6769    0.1341 N   0  0  0  0  0  0  0  0  0  0  0  0
    1.9926   -0.2576    0.9205 C   0  0  0  0  0  0  0  0  0  0  0  0
    0.7469   -0.1975    0.1302 C   0  0  0  0  0  0  0  0  0  0  0  0
   -0.0861    0.9092    0.2268 C   0  0  0  0  0  0  0  0  0  0  0  0
   -1.4557    0.7484    0.1110 C   0  0  0  0  0  0  0  0  0  0  0  0
   -2.0054   -0.4209   -0.3675 C   0  0  0  0  0  0  0  0  0  0  0  0
   -3.3555   -0.8103    0.0454 C   0  0  0  0  0  0  0  0  0  0  0  0
   -3.6471   -2.1022    0.4649 C   0  0  0  0  0  0  0  0  0  0  0  0
   -4.9337   -2.5873    0.3667 C   0  0  0  0  0  0  0  0  0  0  0  0
   -5.9461   -1.7449   -0.0687 C   0  0  0  0  0  0  0  0  0  0  0  0
   -5.6596   -0.4041   -0.1690 C   0  0  0  0  0  0  0  0  0  0  0  0
   -4.3848    0.1072   -0.1241 C   0  0  0  0  0  0  0  0  0  0  0  0
   -4.1035    1.5407    0.0201 C   0  0  0  0  0  0  0  0  0  0  0  0
   -4.1486    2.3906   -1.0346 N   0  0  0  0  0  0  0  0  0  0  0  0
   -4.2835    3.6209   -0.5560 N   0  0  0  0  0  0  0  0  0  0  0  0
   -4.7362    3.5395    0.6825 N   0  0  0  0  0  0  0  0  0  0  0  0
   -4.5796    2.2733    1.0554 N   0  0  0  0  0  0  0  0  0  0  0  0
   -1.1116   -1.3858   -0.8087 C   0  0  0  0  0  0  0  0  0  0  0  0
    0.2581   -1.2641   -0.6119 C   0  0  0  0  0  0  0  0  0  0  0  0
  1  2  1  0
  2  3  1  0
  3  4  1  0
  4  5  1  0
  5  6  2  0
  6  7  1  0
  7  8  1  0
  7  9  2  0
  9 10  1  0
 10 11  1  0
  9 12  1  0
 12 13  1  0
 13 14  1  0
 14 15  2  0
 15 16  1  0
 16 17  2  0
 17 18  1  0
 18 19  2  0
 19 20  1  0
 20 21  2  0
 21 22  1  0
 22 23  2  0
 23 24  1  0
 24 25  1  0
 25 26  2  0
 26 27  1  0
 27 28  1  0
 17 29  1  0
 29 30  2  0
 12  5  1  0
 30 14  1  0
 23 18  1  0
 28 24  2  0
M  END
>  <supplier_code>  (530) 
DB00678

>  <zinc_id>  (530) 
ZINC000003873160

>  <catalog_short_name>  (530) 
dbfda

$$$$

     RDKit          3D

 25 28  0  0  0  0  0  0  0  0999 V2000
   -2.2470    5.0195   -0.9164 C   0  0  0  0  0  0  0  0  0  0  0  0
   -2.3642    4.2417   -0.6439 S   0  0  0  0  0  0  0  0  0  0  0  0
   -2.3320    2.6633    0.1628 C   0  0  0  0  0  0  0  0  0  0  0  0
   -3.3823    2.2025    0.9498 C   0  0  0  0  0  0  0  0  0  0  0  0
   -3.7892    0.8739    0.9278 C   0  0  0  0  0  0  0  0  0  0  0  0
   -2.8840   -0.0128    0.3669 C   0  0  0  0  0  0  0  0  0  0  0  0
   -1.5814    0.3536    0.0503 C   0  0  0  0  0  0  0  0  0  0  0  0
   -1.3323    1.7195   -0.0431 C   0  0  0  0  0  0  0  0  0  0  0  0
   -0.5106   -0.5977   -0.0166 N   0  0  0  0  0  0  0  0  0  0  0  0
    0.8208   -0.0561    0.2403 C   0  0  0  0  0  0  0  0  0  0  0  0
    1.2932    0.7502   -0.8726 C   0  0  0  0  0  0  0  0  0  0  0  0
    2.9161    0.5293   -1.1152 C   0  0  2  0  0  0  0  0  0  0  0  0
    3.0439   -0.8115   -0.1455 C   0  0  0  0  0  0  0  0  0  0  0  0
    4.4986   -1.1217   -0.0633 C   0  0  0  0  0  0  0  0  0  0  0  0
    5.2958    0.1145   -0.2780 C   0  0  0  0  0  0  0  0  0  0  0  0
    4.7138    1.3703    0.2525 C   0  0  0  0  0  0  0  0  0  0  0  0
    3.2845    1.5014    0.0906 N   0  0  0  0  0  0  0  0  0  0  0  0
    3.0974    2.7934   -0.5709 C   0  0  0  0  0  0  0  0  0  0  0  0
   -0.7639   -1.9649    0.3175 C   0  0  0  0  0  0  0  0  0  0  0  0
    0.0676   -2.7305    1.0998 C   0  0  0  0  0  0  0  0  0  0  0  0
    0.1472   -4.0783    0.7650 C   0  0  0  0  0  0  0  0  0  0  0  0
   -0.8292   -4.6646    0.0053 C   0  0  0  0  0  0  0  0  0  0  0  0
   -1.8961   -3.9149   -0.4749 C   0  0  0  0  0  0  0  0  0  0  0  0
   -1.8730   -2.5704   -0.2610 C   0  0  0  0  0  0  0  0  0  0  0  0
   -3.3937   -1.6096   -0.2851 S   0  0  0  0  0  0  0  0  0  0  0  0
  1  2  1  0
  2  3  1  0
  3  4  2  0
  4  5  1  0
  5  6  2  0
  6  7  1  0
  7  8  2  0
  7  9  1  0
  9 10  1  0
 10 11  1  0
 12 11  1  1
 12 13  1  0
 13 14  1  0
 14 15  1  0
 15 16  1  0
 16 17  1  0
 17 18  1  0
  9 19  1  0
 19 20  2  0
 20 21  1  0
 21 22  2  0
 22 23  1  0
 23 24  2  0
 24 25  1  0
  8  3  1  0
 17 12  1  0
 24 19  1  0
 25  6  1  0
M  END
>  <supplier_code>  (531) 
DB00679

>  <zinc_id>  (531) 
ZINC000001530695

>  <catalog_short_name>  (531) 
dbfda

$$$$

     RDKit          3D

 25 28  0  0  0  0  0  0  0  0999 V2000
   -5.0341   -2.2150   -2.2258 C   0  0  0  0  0  0  0  0  0  0  0  0
   -3.4145   -2.9156   -2.4259 S   0  0  0  0  0  0  0  0  0  0  0  0
   -2.4243   -2.3508   -1.0494 C   0  0  0  0  0  0  0  0  0  0  0  0
   -2.7172   -2.7305    0.2551 C   0  0  0  0  0  0  0  0  0  0  0  0
   -2.5107   -1.8435    1.3053 C   0  0  0  0  0  0  0  0  0  0  0  0
   -1.7566   -0.7312    1.0991 C   0  0  0  0  0  0  0  0  0  0  0  0
   -1.2012   -0.5412   -0.1490 C   0  0  0  0  0  0  0  0  0  0  0  0
   -1.3949   -1.4449   -1.1867 C   0  0  0  0  0  0  0  0  0  0  0  0
   -0.3945    0.5985   -0.4172 N   0  0  0  0  0  0  0  0  0  0  0  0
    0.8301    0.4178   -1.1977 C   0  0  0  0  0  0  0  0  0  0  0  0
    1.9480    0.4316   -0.1757 C   0  0  0  0  0  0  0  0  0  0  0  0
    2.1270   -1.1896    0.2016 C   0  0  1  0  0  0  0  0  0  0  0  0
    3.0048   -1.4658   -1.1950 C   0  0  0  0  0  0  0  0  0  0  0  0
    4.0056   -0.3528   -1.2619 C   0  0  0  0  0  0  0  0  0  0  0  0
    5.1968   -0.8408   -0.4394 C   0  0  0  0  0  0  0  0  0  0  0  0
    4.4949   -1.6383    0.6597 C   0  0  0  0  0  0  0  0  0  0  0  0
    3.4147   -0.9358    1.0987 N   0  0  0  0  0  0  0  0  0  0  0  0
    3.3893    0.2907    1.6849 C   0  0  0  0  0  0  0  0  0  0  0  0
   -0.5101    1.8286    0.2684 C   0  0  0  0  0  0  0  0  0  0  0  0
    0.1931    2.9302   -0.2074 C   0  0  0  0  0  0  0  0  0  0  0  0
   -0.3228    4.2151   -0.0819 C   0  0  0  0  0  0  0  0  0  0  0  0
   -1.4788    4.3988    0.6542 C   0  0  0  0  0  0  0  0  0  0  0  0
   -2.0367    3.3195    1.3283 C   0  0  0  0  0  0  0  0  0  0  0  0
   -1.4315    2.0955    1.2548 C   0  0  0  0  0  0  0  0  0  0  0  0
   -1.9763    0.6697    2.2028 S   0  0  0  0  0  0  0  0  0  0  0  0
  1  2  1  0
  2  3  1  0
  3  4  2  0
  4  5  1  0
  5  6  2  0
  6  7  1  0
  7  8  2  0
  7  9  1  0
  9 10  1  0
 10 11  1  0
 12 11  1  6
 12 13  1  0
 13 14  1  0
 14 15  1  0
 15 16  1  0
 16 17  1  0
 17 18  1  0
  9 19  1  0
 19 20  2  0
 20 21  1  0
 21 22  2  0
 22 23  1  0
 23 24  2  0
 24 25  1  0
  8  3  1  0
 17 12  1  0
 24 19  1  0
 25  6  1  0
M  END
>  <supplier_code>  (532) 
DB00679

>  <zinc_id>  (532) 
ZINC000001530697

>  <catalog_short_name>  (532) 
dbfda

$$$$

     RDKit          3D

 65 67  0  0  0  0  0  0  0  0999 V2000
    9.0080    1.7350    1.4051 C   0  0  0  0  0  0  0  0  0  0  0  0
    8.1896    1.1894    0.1395 C   0  0  2  0  0  0  0  0  0  0  0  0
    6.8501    2.1112    0.5876 C   0  0  2  0  0  0  0  0  0  0  0  0
    6.1648    1.9713   -0.7384 O   0  0  0  0  0  0  0  0  0  0  0  0
    7.7103    3.5555    0.2525 C   0  0  1  0  0  0  0  0  0  0  0  0
    7.9508    3.2948   -1.3338 C   0  0  0  0  0  0  0  0  0  0  0  0
    6.3683    4.3680    0.1014 C   0  0  0  0  0  0  0  0  0  0  0  0
    5.9320    4.8766   -0.9842 C   0  0  0  0  0  0  0  0  0  0  0  0
    4.5551    5.3971   -0.8726 C   0  0  0  0  0  0  0  0  0  0  0  0
    4.1239    5.6966    0.3491 C   0  0  0  0  0  0  0  0  0  0  0  0
    2.6834    5.8247    0.4372 C   0  0  0  0  0  0  0  0  0  0  0  0
    2.2088    6.8856   -0.1596 C   0  0  0  0  0  0  0  0  0  0  0  0
    0.7516    6.9804    0.0486 C   0  0  0  0  0  0  0  0  0  0  0  0
    0.0971    6.1807   -0.7522 C   0  0  0  0  0  0  0  0  0  0  0  0
    0.1681    4.7403   -0.5711 C   0  0  0  0  0  0  0  0  0  0  0  0
   -0.1037    4.3161    0.6618 C   0  0  0  0  0  0  0  0  0  0  0  0
   -1.4052    3.7305    1.0036 C   0  0  0  0  0  0  0  0  0  0  0  0
   -2.3767    3.9726    0.0412 C   0  0  0  0  0  0  0  0  0  0  0  0
   -2.2279    3.0494   -1.0978 C   0  0  0  0  0  0  0  0  0  0  0  0
   -2.4794    1.7766   -0.7277 C   0  0  0  0  0  0  0  0  0  0  0  0
   -4.0990    1.8572   -0.7573 C   0  0  2  0  0  0  0  0  0  0  0  0
   -4.2184    1.7649    0.7702 O   0  0  0  0  0  0  0  0  0  0  0  0
   -5.6619    1.6501    0.2991 C   0  0  2  0  0  0  0  0  0  0  0  0
   -5.9549    3.1460    0.1865 O   0  0  0  0  0  0  0  0  0  0  0  0
   -6.7540    2.4449   -0.8874 C   0  0  2  0  0  0  0  0  0  0  0  0
   -7.3917    3.8559   -1.4858 C   0  0  0  0  0  0  0  0  0  0  0  0
   -8.2078    2.1915   -0.0586 C   0  0  1  0  0  0  0  0  0  0  0  0
   -8.3175    0.8433   -0.7889 O   0  0  0  0  0  0  0  0  0  0  0  0
   -7.9294    1.3487    1.3637 C   0  0  2  0  0  0  0  0  0  0  0  0
   -8.4830    2.6063    2.1475 N   0  0  0  0  0  0  0  0  0  0  0  0
   -6.3280    1.4936    1.8680 C   0  0  2  0  0  0  0  0  0  0  0  0
   -6.2557    2.9390    2.2641 O   0  0  0  0  0  0  0  0  0  0  0  0
   -4.3412    0.2892   -1.1588 C   0  0  0  0  0  0  0  0  0  0  0  0
   -4.4250   -0.5764    0.2145 C   0  0  2  0  0  0  0  0  0  0  0  0
   -3.0347   -1.0947   -0.0475 O   0  0  0  0  0  0  0  0  0  0  0  0
   -2.8770   -2.3017    0.5239 C   0  0  2  0  0  0  0  0  0  0  0  0
   -1.9188   -1.9914    1.5231 O   0  0  0  0  0  0  0  0  0  0  0  0
   -2.3044   -3.3165   -0.4699 C   0  0  0  0  0  0  0  0  0  0  0  0
   -1.4020   -4.2234    0.5701 C   0  0  1  0  0  0  0  0  0  0  0  0
   -2.2587   -5.4553    0.3504 O   0  0  0  0  0  0  0  0  0  0  0  0
   -0.3548   -4.6781   -0.6162 C   0  0  0  0  0  0  0  0  0  0  0  0
    0.0298   -6.1412    0.0143 C   0  0  1  0  0  0  0  0  0  0  0  0
   -0.4616   -6.8440   -1.2254 O   0  0  0  0  0  0  0  0  0  0  0  0
    1.6441   -6.0201   -0.5615 C   0  0  2  0  0  0  0  0  0  0  0  0
    1.7553   -7.5085   -0.7660 O   0  0  0  0  0  0  0  0  0  0  0  0
    2.2244   -6.1396    0.9666 C   0  0  0  0  0  0  0  0  0  0  0  0
    3.6635   -5.6849    0.7521 C   0  0  0  0  0  0  0  0  0  0  0  0
    3.3218   -4.1495    0.2540 C   0  0  1  0  0  0  0  0  0  0  0  0
    4.0816   -3.5415    1.4187 O   0  0  0  0  0  0  0  0  0  0  0  0
    4.5649   -4.1792   -0.8146 C   0  0  0  0  0  0  0  0  0  0  0  0
    5.9018   -4.0239    0.1175 C   0  0  1  0  0  0  0  0  0  0  0  0
    6.7893   -4.4414   -1.0386 O   0  0  0  0  0  0  0  0  0  0  0  0
    6.0185   -2.4204   -0.2483 C   0  0  0  0  0  0  0  0  0  0  0  0
    7.4009   -2.1699   -0.6729 C   0  0  0  0  0  0  0  0  0  0  0  0
    7.6842   -2.5110   -1.8675 O   0  0  0  0  0  0  0  0  0  0  0  0
    8.1333   -1.0734   -0.2639 O   0  0  0  0  0  0  0  0  0  0  0  0
    7.5151   -0.2060    0.8326 C   0  0  1  0  0  0  0  0  0  0  0  0
    8.7452   -0.5720    1.8524 C   0  0  0  0  0  0  0  0  0  0  0  0
   -3.8850   -2.9662    1.2489 C   0  0  0  0  0  0  0  0  0  0  0  0
   -5.3827   -2.9011    0.6419 C   0  0  2  0  0  0  0  0  0  0  0  0
   -5.1439   -4.0838   -0.2746 O   0  0  0  0  0  0  0  0  0  0  0  0
   -5.0890   -1.8633   -0.6696 C   0  0  1  0  0  0  0  0  0  0  0  0
   -6.6163   -1.4493   -0.6163 C   0  0  0  0  0  0  0  0  0  0  0  0
   -7.3314   -2.3016   -1.1877 O   0  0  0  0  0  0  0  0  0  0  0  0
   -7.2148   -1.2539    0.6469 O   0  0  0  0  0  0  0  0  0  0  0  0
  2  1  1  1
  2  3  1  0
  3  4  1  6
  3  5  1  0
  5  6  1  6
  5  7  1  0
  7  8  2  0
  8  9  1  0
  9 10  2  0
 10 11  1  0
 11 12  2  0
 12 13  1  0
 13 14  2  0
 14 15  1  0
 15 16  2  0
 16 17  1  0
 17 18  2  0
 18 19  1  0
 19 20  2  0
 20 21  1  0
 21 22  1  1
 23 22  1  1
 23 24  1  0
 24 25  1  0
 25 26  1  6
 25 27  1  0
 27 28  1  6
 27 29  1  0
 29 30  1  1
 29 31  1  0
 31 32  1  1
 21 33  1  0
 34 33  1  6
 34 35  1  0
 35 36  1  0
 36 37  1  1
 36 38  1  0
 38 39  1  0
 39 40  1  6
 39 41  1  0
 41 42  1  0
 42 43  1  6
 42 44  1  0
 44 45  1  6
 44 46  1  0
 46 47  1  0
 47 48  1  0
 48 49  1  1
 48 50  1  0
 50 51  1  0
 51 52  1  6
 51 53  1  0
 53 54  1  0
 54 55  2  0
 54 56  1  0
 56 57  1  0
 57 58  1  1
 36 59  1  0
 59 60  1  0
 60 61  1  6
 60 62  1  0
 62 63  1  1
 63 64  2  0
 63 65  1  0
 57  2  1  0
 31 23  1  0
 62 34  1  0
M  END
>  <supplier_code>  (533) 
DB00681

>  <zinc_id>  (533) 
ZINC000253387843

>  <catalog_short_name>  (533) 
dbfda

$$$$

     RDKit          3D

 23 25  0  0  0  0  0  0  0  0999 V2000
   -3.6309   -2.7352    1.2341 C   0  0  0  0  0  0  0  0  0  0  0  0
   -2.8321   -2.1610    0.1010 C   0  0  0  0  0  0  0  0  0  0  0  0
   -3.4139   -2.2281   -0.9811 O   0  0  0  0  0  0  0  0  0  0  0  0
   -1.3795   -2.0852    0.2639 C   0  0  0  0  0  0  0  0  0  0  0  0
   -1.0800   -0.6601    1.0696 C   0  0  2  0  0  0  0  0  0  0  0  0
   -1.9122    0.2177   -0.0299 C   0  0  0  0  0  0  0  0  0  0  0  0
   -3.1546    0.4772    0.5518 C   0  0  0  0  0  0  0  0  0  0  0  0
   -3.7834    1.6982    0.5181 C   0  0  0  0  0  0  0  0  0  0  0  0
   -3.1869    2.7392   -0.1384 C   0  0  0  0  0  0  0  0  0  0  0  0
   -2.0163    2.5103   -0.8061 C   0  0  0  0  0  0  0  0  0  0  0  0
   -1.2887    1.4022   -0.4066 C   0  0  0  0  0  0  0  0  0  0  0  0
    0.3676   -0.3972    0.3846 C   0  0  0  0  0  0  0  0  0  0  0  0
    1.2728    0.2706    1.1699 C   0  0  0  0  0  0  0  0  0  0  0  0
    0.9880    0.8853    2.3641 O   0  0  0  0  0  0  0  0  0  0  0  0
    2.5685    0.3787    0.6752 C   0  0  0  0  0  0  0  0  0  0  0  0
    3.3902    1.4523    0.9880 C   0  0  0  0  0  0  0  0  0  0  0  0
    4.4179    1.8517    0.1410 C   0  0  0  0  0  0  0  0  0  0  0  0
    4.9150    0.8684   -0.7049 C   0  0  0  0  0  0  0  0  0  0  0  0
    4.2134   -0.3018   -0.8882 C   0  0  0  0  0  0  0  0  0  0  0  0
    2.9331   -0.4402   -0.3862 C   0  0  0  0  0  0  0  0  0  0  0  0
    2.0295   -1.1476   -0.9957 O   0  0  0  0  0  0  0  0  0  0  0  0
    0.7443   -1.0877   -0.6913 C   0  0  0  0  0  0  0  0  0  0  0  0
   -0.1619   -1.5076   -1.4517 O   0  0  0  0  0  0  0  0  0  0  0  0
  1  2  1  0
  2  3  2  0
  2  4  1  0
  5  4  1  6
  5  6  1  0
  6  7  2  0
  7  8  1  0
  8  9  2  0
  9 10  1  0
 10 11  2  0
  5 12  1  0
 12 13  2  0
 13 14  1  0
 13 15  1  0
 15 16  2  0
 16 17  1  0
 17 18  2  0
 18 19  1  0
 19 20  2  0
 20 21  1  0
 21 22  1  0
 22 23  2  0
 11  6  1  0
 22 12  1  0
 20 15  1  0
M  END
>  <supplier_code>  (534) 
DB00682

>  <zinc_id>  (534) 
ZINC000084589076

>  <catalog_short_name>  (534) 
dbfda

$$$$

     RDKit          3D

 23 25  0  0  0  0  0  0  0  0999 V2000
   -2.6036    3.8485    0.0857 C   0  0  0  0  0  0  0  0  0  0  0  0
   -2.4848    2.4295    0.4655 C   0  0  0  0  0  0  0  0  0  0  0  0
   -2.9606    2.0315    1.5259 O   0  0  0  0  0  0  0  0  0  0  0  0
   -1.8240    1.4904   -0.4712 C   0  0  0  0  0  0  0  0  0  0  0  0
   -1.0882    0.4074    0.5688 C   0  0  1  0  0  0  0  0  0  0  0  0
   -1.6074   -0.9377   -0.2229 C   0  0  0  0  0  0  0  0  0  0  0  0
   -1.7004   -1.8754    0.8189 C   0  0  0  0  0  0  0  0  0  0  0  0
   -2.5436   -2.9614    0.7542 C   0  0  0  0  0  0  0  0  0  0  0  0
   -3.7782   -2.7155    0.1647 C   0  0  0  0  0  0  0  0  0  0  0  0
   -3.7339   -1.8762   -0.9424 C   0  0  0  0  0  0  0  0  0  0  0  0
   -2.8644   -0.7998   -0.8068 C   0  0  0  0  0  0  0  0  0  0  0  0
    0.3231    0.5689   -0.2452 C   0  0  0  0  0  0  0  0  0  0  0  0
    0.9282   -0.6091   -0.5883 C   0  0  0  0  0  0  0  0  0  0  0  0
    0.0974   -1.3095   -1.4747 O   0  0  0  0  0  0  0  0  0  0  0  0
    2.2894   -0.5562   -0.8597 C   0  0  0  0  0  0  0  0  0  0  0  0
    2.9101   -1.5565   -1.5701 C   0  0  0  0  0  0  0  0  0  0  0  0
    4.2987   -1.5783   -1.4888 C   0  0  0  0  0  0  0  0  0  0  0  0
    4.9922   -0.7092   -0.6568 C   0  0  0  0  0  0  0  0  0  0  0  0
    4.3493    0.4837   -0.3464 C   0  0  0  0  0  0  0  0  0  0  0  0
    2.9718    0.5958   -0.4897 C   0  0  0  0  0  0  0  0  0  0  0  0
    2.3532    1.6374    0.0395 O   0  0  0  0  0  0  0  0  0  0  0  0
    1.0766    1.5656    0.3696 C   0  0  0  0  0  0  0  0  0  0  0  0
    0.5991    2.4261    1.1333 O   0  0  0  0  0  0  0  0  0  0  0  0
  1  2  1  0
  2  3  2  0
  2  4  1  0
  5  4  1  6
  5  6  1  0
  6  7  2  0
  7  8  1  0
  8  9  2  0
  9 10  1  0
 10 11  2  0
  5 12  1  0
 12 13  2  0
 13 14  1  0
 13 15  1  0
 15 16  2  0
 16 17  1  0
 17 18  2  0
 18 19  1  0
 19 20  2  0
 20 21  1  0
 21 22  1  0
 22 23  2  0
 11  6  1  0
 22 12  1  0
 20 15  1  0
M  END
>  <supplier_code>  (535) 
DB00682

>  <zinc_id>  (535) 
ZINC000100006264

>  <catalog_short_name>  (535) 
dbfda

$$$$

     RDKit          3D

 23 26  0  0  0  0  0  0  0  0999 V2000
   -4.2936   -0.2216    1.1068 C   0  0  0  0  0  0  0  0  0  0  0  0
   -3.2847   -1.2535    0.7222 C   0  0  0  0  0  0  0  0  0  0  0  0
   -3.3986   -2.5889    0.6989 N   0  0  0  0  0  0  0  0  0  0  0  0
   -2.3158   -3.1209    0.0880 C   0  0  0  0  0  0  0  0  0  0  0  0
   -1.5489   -2.0662   -0.3917 C   0  0  0  0  0  0  0  0  0  0  0  0
   -2.0919   -0.9676    0.1884 N   0  0  0  0  0  0  0  0  0  0  0  0
   -1.4665    0.3214    0.1601 C   0  0  0  0  0  0  0  0  0  0  0  0
   -2.2479    1.2693    0.7693 C   0  0  0  0  0  0  0  0  0  0  0  0
   -1.7092    2.5372    0.9504 C   0  0  0  0  0  0  0  0  0  0  0  0
   -0.6094    2.9458    0.2044 C   0  0  0  0  0  0  0  0  0  0  0  0
   -0.4253    4.6453   -0.2169 Cl  0  0  0  0  0  0  0  0  0  0  0  0
    0.2593    1.9771   -0.2831 C   0  0  0  0  0  0  0  0  0  0  0  0
   -0.2029    0.6749   -0.2788 C   0  0  0  0  0  0  0  0  0  0  0  0
    0.7806   -0.1558   -0.9816 C   0  0  0  0  0  0  0  0  0  0  0  0
    2.1700    0.1656   -0.6313 C   0  0  0  0  0  0  0  0  0  0  0  0
    2.4804    1.3410    0.0344 C   0  0  0  0  0  0  0  0  0  0  0  0
    3.6586    1.4546    0.7630 C   0  0  0  0  0  0  0  0  0  0  0  0
    4.2009    0.2790    1.2680 C   0  0  0  0  0  0  0  0  0  0  0  0
    4.1218   -0.8181    0.4188 C   0  0  0  0  0  0  0  0  0  0  0  0
    3.1002   -0.8599   -0.5212 C   0  0  0  0  0  0  0  0  0  0  0  0
    2.8498   -2.0184   -1.1632 F   0  0  0  0  0  0  0  0  0  0  0  0
    0.5772   -1.3667   -1.3628 N   0  0  0  0  0  0  0  0  0  0  0  0
   -0.6041   -2.1735   -1.5419 C   0  0  0  0  0  0  0  0  0  0  0  0
  1  2  1  0
  2  3  2  0
  3  4  1  0
  4  5  2  0
  5  6  1  0
  6  7  1  0
  7  8  2  0
  8  9  1  0
  9 10  2  0
 10 11  1  0
 10 12  1  0
 12 13  2  0
 13 14  1  0
 14 15  1  0
 15 16  2  0
 16 17  1  0
 17 18  2  0
 18 19  1  0
 19 20  2  0
 20 21  1  0
 14 22  2  0
 22 23  1  0
  6  2  1  0
 13  7  1  0
 20 15  1  0
 23  5  1  0
M  END
>  <supplier_code>  (536) 
DB00683

>  <zinc_id>  (536) 
ZINC000095626706

>  <catalog_short_name>  (536) 
dbfda

$$$$

     RDKit          3D

 32 34  0  0  0  0  0  0  0  0999 V2000
    5.9757    1.2187    1.0471 N   0  0  0  0  0  0  0  0  0  0  0  0
    5.9850    0.9328    0.7817 C   0  0  0  0  0  0  0  0  0  0  0  0
    5.7820   -0.4385    1.6492 C   0  0  1  0  0  0  0  0  0  0  0  0
    4.2952   -0.5657    1.5572 O   0  0  0  0  0  0  0  0  0  0  0  0
    3.7935    0.4953    0.5945 C   0  0  2  0  0  0  0  0  0  0  0  0
    2.3621    0.2610    1.0678 O   0  0  0  0  0  0  0  0  0  0  0  0
    1.5218   -0.0472   -0.1218 C   0  0  2  0  0  0  0  0  0  0  0  0
    1.7328    1.4864   -0.8603 C   0  0  1  0  0  0  0  0  0  0  0  0
    1.6015    0.8789   -2.3088 N   0  0  0  0  0  0  0  0  0  0  0  0
    0.2769    2.0698   -0.7406 C   0  0  0  0  0  0  0  0  0  0  0  0
   -1.0917    1.3776   -1.0947 C   0  0  1  0  0  0  0  0  0  0  0  0
   -0.6999    0.7957   -2.4996 N   0  0  0  0  0  0  0  0  0  0  0  0
   -0.8802   -0.1574   -0.3567 C   0  0  2  0  0  0  0  0  0  0  0  0
   -1.9601   -0.0144    0.6351 O   0  0  0  0  0  0  0  0  0  0  0  0
   -3.2312    0.4153   -0.0950 C   0  0  1  0  0  0  0  0  0  0  0  0
   -3.5132   -0.9941   -0.5404 O   0  0  0  0  0  0  0  0  0  0  0  0
   -4.6650   -0.8302   -1.4713 C   0  0  2  0  0  0  0  0  0  0  0  0
   -4.7742    0.7951   -1.7093 C   0  0  0  0  0  0  0  0  0  0  0  0
   -6.2002    0.7972   -1.8245 O   0  0  0  0  0  0  0  0  0  0  0  0
   -5.9200   -0.8709   -0.2926 C   0  0  1  0  0  0  0  0  0  0  0  0
   -5.3537   -2.1081    0.3765 O   0  0  0  0  0  0  0  0  0  0  0  0
   -5.6346    0.2022    0.9955 C   0  0  2  0  0  0  0  0  0  0  0  0
   -5.4053    1.5854    0.3096 N   0  0  0  0  0  0  0  0  0  0  0  0
   -4.0044    0.2167    1.4476 C   0  0  1  0  0  0  0  0  0  0  0  0
   -3.8518   -1.2667    1.5797 O   0  0  0  0  0  0  0  0  0  0  0  0
    0.1929    0.4193    0.8343 C   0  0  1  0  0  0  0  0  0  0  0  0
    0.1885   -0.9013    1.5355 O   0  0  0  0  0  0  0  0  0  0  0  0
    3.6943   -0.5882   -0.7734 C   0  0  2  0  0  0  0  0  0  0  0  0
    3.2565   -1.8475    0.0587 N   0  0  0  0  0  0  0  0  0  0  0  0
    5.2677   -0.7674   -0.8301 C   0  0  0  0  0  0  0  0  0  0  0  0
    6.1203   -1.5036    0.3052 C   0  0  2  0  0  0  0  0  0  0  0  0
    5.1389   -2.5789    0.7437 O   0  0  0  0  0  0  0  0  0  0  0  0
  1  2  1  0
  3  2  1  6
  3  4  1  0
  4  5  1  0
  5  6  1  1
  7  6  1  1
  7  8  1  0
  8  9  1  6
  8 10  1  0
 10 11  1  0
 11 12  1  6
 11 13  1  0
 13 14  1  1
 15 14  1  1
 15 16  1  0
 16 17  1  0
 17 18  1  1
 18 19  1  0
 17 20  1  0
 20 21  1  1
 20 22  1  0
 22 23  1  6
 22 24  1  0
 24 25  1  6
 13 26  1  0
 26 27  1  1
  5 28  1  0
 28 29  1  1
 28 30  1  0
 30 31  1  0
 31 32  1  1
 31  3  1  0
 26  7  1  0
 24 15  1  0
M  END
>  <supplier_code>  (537) 
DB00684

>  <zinc_id>  (537) 
ZINC000008214692

>  <catalog_short_name>  (537) 
dbfda

$$$$

     RDKit          3D

 35 36  0  0  0  0  0  0  0  0999 V2000
   -5.7122   -0.3748   -1.4663 O   0  0  0  0  0  0  0  0  0  0  0  0
   -5.7104   -0.3159   -1.2261 S   0  0  0  0  0  0  0  0  0  0  0  0
   -6.4185    0.7372   -1.9886 O   0  0  0  0  0  0  0  0  0  0  0  0
   -6.3979   -1.7671   -1.1439 O   0  0  0  0  0  0  0  0  0  0  0  0
   -4.1321   -0.1173   -1.2339 O   0  0  0  0  0  0  0  0  0  0  0  0
   -3.5082   -0.2949    0.1193 C   0  0  1  0  0  0  0  0  0  0  0  0
   -2.9392   -1.8713   -0.3643 C   0  0  2  0  0  0  0  0  0  0  0  0
   -2.3850   -2.1510    1.0528 O   0  0  0  0  0  0  0  0  0  0  0  0
   -1.6098   -1.3909   -0.9639 O   0  0  0  0  0  0  0  0  0  0  0  0
   -0.6747   -1.3503   -0.0217 C   0  0  0  0  0  0  0  0  0  0  0  0
   -1.1061   -0.0236    0.8615 C   0  0  1  0  0  0  0  0  0  0  0  0
    0.0477    0.7715    0.2759 O   0  0  0  0  0  0  0  0  0  0  0  0
    1.1461    0.3922    1.2901 C   0  0  2  0  0  0  0  0  0  0  0  0
    1.8297    1.7649    1.1860 O   0  0  0  0  0  0  0  0  0  0  0  0
    1.6309    2.2803   -0.0223 C   0  0  0  0  0  0  0  0  0  0  0  0
    2.8053    1.7151   -1.0292 C   0  0  1  0  0  0  0  0  0  0  0  0
    3.7439    2.8404   -0.6249 O   0  0  0  0  0  0  0  0  0  0  0  0
    3.4569    0.6628    0.1806 C   0  0  2  0  0  0  0  0  0  0  0  0
    4.1596   -0.1470   -0.8652 O   0  0  0  0  0  0  0  0  0  0  0  0
    5.7689   -0.2416   -0.5273 S   0  0  0  0  0  0  0  0  0  0  0  0
    6.4785    1.0677   -0.4897 O   0  0  0  0  0  0  0  0  0  0  0  0
    6.1007   -1.0992    0.6631 O   0  0  0  0  0  0  0  0  0  0  0  0
    6.4089   -1.0956   -1.8445 O   0  0  0  0  0  0  0  0  0  0  0  0
    2.1126   -0.3868    0.0635 C   0  0  1  0  0  0  0  0  0  0  0  0
    2.7376   -1.2873    1.0876 O   0  0  0  0  0  0  0  0  0  0  0  0
    2.7979   -2.8377    0.5697 S   0  0  0  0  0  0  0  0  0  0  0  0
    1.8164   -3.6115    1.4259 O   0  0  0  0  0  0  0  0  0  0  0  0
    2.5015   -3.0651   -0.8627 O   0  0  0  0  0  0  0  0  0  0  0  0
    4.3058   -3.5370    0.8717 O   0  0  0  0  0  0  0  0  0  0  0  0
   -2.1371    0.5934   -0.3808 C   0  0  2  0  0  0  0  0  0  0  0  0
   -2.5337    1.7383    0.5065 O   0  0  0  0  0  0  0  0  0  0  0  0
   -3.4360    2.8130   -0.3661 S   0  0  0  0  0  0  0  0  0  0  0  0
   -2.8863    4.1953   -0.0752 O   0  0  0  0  0  0  0  0  0  0  0  0
   -4.8324    2.8564    0.2120 O   0  0  0  0  0  0  0  0  0  0  0  0
   -3.4295    2.5376   -2.0076 O   0  0  0  0  0  0  0  0  0  0  0  0
  1  2  2  0
  2  3  2  0
  2  4  1  0
  2  5  1  0
  6  5  1  6
  6  7  1  0
  7  8  1  1
  7  9  1  0
  9 10  1  0
 10 11  1  0
 11 12  1  6
 13 12  1  6
 13 14  1  0
 14 15  1  0
 15 16  1  0
 16 17  1  1
 16 18  1  0
 18 19  1  6
 19 20  1  0
 20 21  2  0
 20 22  2  0
 20 23  1  0
 18 24  1  0
 24 25  1  1
 25 26  1  0
 26 27  2  0
 26 28  2  0
 26 29  1  0
 11 30  1  0
 30 31  1  1
 31 32  1  0
 32 33  2  0
 32 34  2  0
 32 35  1  0
 30  6  1  0
 24 13  1  0
M  END
>  <supplier_code>  (538) 
DB00686

>  <zinc_id>  (538) 
ZINC000014879975

>  <catalog_short_name>  (538) 
dbfda

$$$$

     RDKit          3D

 27 30  0  0  0  0  0  0  0  0999 V2000
    2.0013    1.1704    0.4939 C   0  0  0  0  0  0  0  0  0  0  0  0
    1.8355   -0.0195   -0.2034 C   0  0  2  0  0  0  0  0  0  0  0  0
    0.9037    0.1636   -1.2738 C   0  0  0  0  0  0  0  0  0  0  0  0
   -0.1443   -1.1128   -1.3408 C   0  0  2  0  0  0  0  0  0  0  0  0
   -0.9930   -0.4318   -2.4032 O   0  0  0  0  0  0  0  0  0  0  0  0
   -1.1029   -0.6690   -0.0990 C   0  0  1  0  0  0  0  0  0  0  0  0
   -1.4821   -1.8460    0.4242 F   0  0  0  0  0  0  0  0  0  0  0  0
   -0.1551    0.1388    0.9189 C   0  0  1  0  0  0  0  0  0  0  0  0
   -0.8211   -0.4823    2.2556 C   0  0  0  0  0  0  0  0  0  0  0  0
   -2.2043    0.0236    2.2115 C   0  0  0  0  0  0  0  0  0  0  0  0
   -2.6941    0.5906    0.9467 C   0  0  0  0  0  0  0  0  0  0  0  0
   -3.8856    1.1895    0.9900 C   0  0  0  0  0  0  0  0  0  0  0  0
   -4.9121    1.0515   -0.0230 C   0  0  0  0  0  0  0  0  0  0  0  0
   -6.1503    0.9279    0.2342 O   0  0  0  0  0  0  0  0  0  0  0  0
   -4.5001    0.4457   -1.3190 C   0  0  0  0  0  0  0  0  0  0  0  0
   -3.2572   -0.3739   -1.2264 C   0  0  0  0  0  0  0  0  0  0  0  0
   -2.1554    0.2373   -0.4100 C   0  0  2  0  0  0  0  0  0  0  0  0
   -1.7413    1.5406   -1.0382 C   0  0  0  0  0  0  0  0  0  0  0  0
    1.0526   -1.0417    0.7900 C   0  0  2  0  0  0  0  0  0  0  0  0
    1.9600   -0.5158    2.0161 C   0  0  0  0  0  0  0  0  0  0  0  0
    3.3140   -0.7515    1.3517 C   0  0  0  0  0  0  0  0  0  0  0  0
    3.0654   -0.7393   -0.1622 C   0  0  1  0  0  0  0  0  0  0  0  0
    2.9872   -2.0770   -0.5236 O   0  0  0  0  0  0  0  0  0  0  0  0
    4.2942   -0.1413   -0.7189 C   0  0  0  0  0  0  0  0  0  0  0  0
    5.3542   -0.6347   -0.3286 O   0  0  0  0  0  0  0  0  0  0  0  0
    4.4000    1.2558   -1.2008 C   0  0  0  0  0  0  0  0  0  0  0  0
    5.0310    2.1012   -0.3069 O   0  0  0  0  0  0  0  0  0  0  0  0
  2  1  1  1
  2  3  1  0
  3  4  1  0
  4  5  1  6
  4  6  1  0
  6  7  1  1
  6  8  1  0
  8  9  1  1
  9 10  1  0
 10 11  1  0
 11 12  2  0
 12 13  1  0
 13 14  2  0
 13 15  1  0
 15 16  1  0
 16 17  1  0
 17 18  1  6
  8 19  1  0
 19 20  1  1
 20 21  1  0
 21 22  1  0
 22 23  1  6
 22 24  1  0
 24 25  2  0
 24 26  1  0
 26 27  1  0
 19  2  1  0
 22  2  1  0
 17  6  1  0
 17 11  1  0
M  END
>  <supplier_code>  (539) 
DB00687

>  <zinc_id>  (539) 
ZINC000004097304

>  <catalog_short_name>  (539) 
dbfda

$$$$

     RDKit          3D

 31 33  0  0  0  0  0  0  0  0999 V2000
   -2.3220    3.0990   -0.9936 C   0  0  0  0  0  0  0  0  0  0  0  0
   -2.3967    2.2021    0.1050 O   0  0  0  0  0  0  0  0  0  0  0  0
   -3.4021    1.2406    0.2190 C   0  0  0  0  0  0  0  0  0  0  0  0
   -4.7273    1.6463    0.3202 C   0  0  0  0  0  0  0  0  0  0  0  0
   -5.0682    3.0610    0.6692 C   0  0  0  0  0  0  0  0  0  0  0  0
   -5.7092    0.6651    0.2485 C   0  0  0  0  0  0  0  0  0  0  0  0
   -5.3746   -0.6782    0.1321 C   0  0  0  0  0  0  0  0  0  0  0  0
   -4.0309   -1.0197    0.0882 C   0  0  0  0  0  0  0  0  0  0  0  0
   -3.6353   -2.3330   -0.1668 O   0  0  0  0  0  0  0  0  0  0  0  0
   -3.0225   -0.0838    0.2770 C   0  0  0  0  0  0  0  0  0  0  0  0
   -1.7383   -0.4718    0.9407 C   0  0  0  0  0  0  0  0  0  0  0  0
   -0.6664   -0.7150   -0.0470 C   0  0  0  0  0  0  0  0  0  0  0  0
    0.3700    0.1173   -0.2098 C   0  0  0  0  0  0  0  0  0  0  0  0
    0.8409    0.8060    1.0332 C   0  0  0  0  0  0  0  0  0  0  0  0
    0.8726    0.4990   -1.5693 C   0  0  0  0  0  0  0  0  0  0  0  0
    1.6391   -0.6672   -2.1419 C   0  0  0  0  0  0  0  0  0  0  0  0
    2.9042   -0.8208   -1.3926 C   0  0  0  0  0  0  0  0  0  0  0  0
    3.3284    0.1220   -0.6889 O   0  0  0  0  0  0  0  0  0  0  0  0
    3.7088   -1.9574   -1.4672 O   0  0  0  0  0  0  0  0  0  0  0  0
    4.9940   -2.0159   -0.8525 C   0  0  0  0  0  0  0  0  0  0  0  0
    5.1751   -0.7572   -0.0145 C   0  0  0  0  0  0  0  0  0  0  0  0
    6.5606   -0.3765    0.1030 N   0  0  0  0  0  0  0  0  0  0  0  0
    6.8653    0.0456    1.4652 C   0  0  0  0  0  0  0  0  0  0  0  0
    8.3739    0.1844    1.5774 C   0  0  0  0  0  0  0  0  0  0  0  0
    8.9536    0.3604    0.3123 O   0  0  0  0  0  0  0  0  0  0  0  0
    8.2153    1.3343   -0.3751 C   0  0  0  0  0  0  0  0  0  0  0  0
    6.9338    0.6773   -0.8183 C   0  0  0  0  0  0  0  0  0  0  0  0
   -6.5609   -1.4992    0.4076 C   0  0  0  0  0  0  0  0  0  0  0  0
   -6.5090   -2.7340    0.6919 O   0  0  0  0  0  0  0  0  0  0  0  0
   -7.4956   -0.6337    0.9823 O   0  0  0  0  0  0  0  0  0  0  0  0
   -7.0767    0.7030    0.8541 C   0  0  0  0  0  0  0  0  0  0  0  0
  1  2  1  0
  2  3  1  0
  3  4  2  0
  4  5  1  0
  4  6  1  0
  6  7  2  0
  7  8  1  0
  8  9  1  0
  8 10  2  0
 10 11  1  0
 11 12  1  0
 12 13  2  0
 13 14  1  0
 13 15  1  0
 15 16  1  0
 16 17  1  0
 17 18  2  0
 17 19  1  0
 19 20  1  0
 20 21  1  0
 21 22  1  0
 22 23  1  0
 23 24  1  0
 24 25  1  0
 25 26  1  0
 26 27  1  0
  7 28  1  0
 28 29  2  0
 28 30  1  0
 30 31  1  0
 10  3  1  0
 27 22  1  0
 31  6  1  0
M  END
>  <supplier_code>  (540) 
DB00688

>  <zinc_id>  (540) 
ZINC000021297660

>  <catalog_short_name>  (540) 
dbfda

$$$$

     RDKit          3D

 27 29  0  0  0  0  0  0  0  0999 V2000
    6.7054   -0.5952   -0.4077 C   0  0  0  0  0  0  0  0  0  0  0  0
    5.7986    0.2329    0.4692 C   0  0  0  0  0  0  0  0  0  0  0  0
    4.6704    0.7804   -0.2314 N   0  0  0  0  0  0  0  0  0  0  0  0
    5.0305    1.7605   -1.2214 C   0  0  0  0  0  0  0  0  0  0  0  0
    5.2308    3.1061   -0.5481 C   0  0  0  0  0  0  0  0  0  0  0  0
    3.7313   -0.2027   -0.6959 C   0  0  0  0  0  0  0  0  0  0  0  0
    2.7491   -0.6434    0.3537 C   0  0  0  0  0  0  0  0  0  0  0  0
    1.4315   -0.0948    0.1768 N   0  0  0  0  0  0  0  0  0  0  0  0
    0.3240   -0.9883    0.0097 C   0  0  0  0  0  0  0  0  0  0  0  0
    0.7406   -2.2978    0.0631 C   0  0  0  0  0  0  0  0  0  0  0  0
   -0.2311   -3.2766    0.2330 C   0  0  0  0  0  0  0  0  0  0  0  0
   -1.5019   -2.9708    0.7036 C   0  0  0  0  0  0  0  0  0  0  0  0
   -2.3477   -4.0155    1.8344 Cl  0  0  0  0  0  0  0  0  0  0  0  0
   -1.9526   -1.6840    0.4469 C   0  0  0  0  0  0  0  0  0  0  0  0
   -1.0401   -0.7229    0.0277 C   0  0  0  0  0  0  0  0  0  0  0  0
   -1.6647    0.6017    0.1373 C   0  0  0  0  0  0  0  0  0  0  0  0
   -3.1186    0.6553    0.2584 C   0  0  0  0  0  0  0  0  0  0  0  0
   -3.7385    1.4266    1.2317 C   0  0  0  0  0  0  0  0  0  0  0  0
   -5.1048    1.6726    1.1739 C   0  0  0  0  0  0  0  0  0  0  0  0
   -5.8684    0.7374    0.4866 C   0  0  0  0  0  0  0  0  0  0  0  0
   -5.2282   -0.1937   -0.3222 C   0  0  0  0  0  0  0  0  0  0  0  0
   -3.8790   -0.0854   -0.6385 C   0  0  0  0  0  0  0  0  0  0  0  0
   -3.4324   -0.2753   -1.9151 F   0  0  0  0  0  0  0  0  0  0  0  0
   -1.0753    1.7431    0.3303 N   0  0  0  0  0  0  0  0  0  0  0  0
    0.2377    2.1702   -0.1404 C   0  0  0  0  0  0  0  0  0  0  0  0
    1.3222    1.3103    0.4282 C   0  0  0  0  0  0  0  0  0  0  0  0
    2.2111    1.8494    1.1261 O   0  0  0  0  0  0  0  0  0  0  0  0
  1  2  1  0
  2  3  1  0
  3  4  1  0
  4  5  1  0
  3  6  1  0
  6  7  1  0
  7  8  1  0
  8  9  1  0
  9 10  2  0
 10 11  1  0
 11 12  2  0
 12 13  1  0
 12 14  1  0
 14 15  2  0
 15 16  1  0
 16 17  1  0
 17 18  2  0
 18 19  1  0
 19 20  2  0
 20 21  1  0
 21 22  2  0
 22 23  1  0
 16 24  2  0
 24 25  1  0
 25 26  1  0
 26 27  2  0
 26  8  1  0
 15  9  1  0
 22 17  1  0
M  END
>  <supplier_code>  (541) 
DB00690

>  <zinc_id>  (541) 
ZINC000000537752

>  <catalog_short_name>  (541) 
dbfda

$$$$

     RDKit          3D

 36 38  0  0  0  0  0  0  0  0999 V2000
   -5.3553   -4.2546    0.7981 C   0  0  0  0  0  0  0  0  0  0  0  0
   -4.4438   -4.2895    0.0759 C   0  0  0  0  0  0  0  0  0  0  0  0
   -3.3528   -3.6206    0.7084 O   0  0  0  0  0  0  0  0  0  0  0  0
   -2.8115   -2.5641    0.0100 C   0  0  0  0  0  0  0  0  0  0  0  0
   -2.7106   -2.4824   -1.2005 O   0  0  0  0  0  0  0  0  0  0  0  0
   -2.6412   -1.1936    0.8824 C   0  0  2  0  0  0  0  0  0  0  0  0
   -3.3764   -0.2311   -0.2745 C   0  0  0  0  0  0  0  0  0  0  0  0
   -4.5097    0.2777    0.6003 C   0  0  0  0  0  0  0  0  0  0  0  0
   -5.4208    1.2036   -0.0932 C   0  0  0  0  0  0  0  0  0  0  0  0
   -5.4387    2.5061    0.3942 C   0  0  0  0  0  0  0  0  0  0  0  0
   -6.3385    3.3862   -0.1382 C   0  0  0  0  0  0  0  0  0  0  0  0
   -7.3542    2.9244   -0.9545 C   0  0  0  0  0  0  0  0  0  0  0  0
   -7.5909    1.5768   -1.0051 C   0  0  0  0  0  0  0  0  0  0  0  0
   -6.6633    0.6961   -0.4595 C   0  0  0  0  0  0  0  0  0  0  0  0
   -1.1830   -0.9119    0.2745 N   0  0  0  0  0  0  0  0  0  0  0  0
   -1.0449    0.6119    0.7472 C   0  0  1  0  0  0  0  0  0  0  0  0
   -1.4648    0.2176    2.3189 C   0  0  0  0  0  0  0  0  0  0  0  0
    0.5612    0.4789    1.0696 C   0  0  0  0  0  0  0  0  0  0  0  0
    0.8688    1.0626    2.1626 O   0  0  0  0  0  0  0  0  0  0  0  0
    1.3913    1.0038    0.0133 N   0  0  0  0  0  0  0  0  0  0  0  0
    2.2399    2.1092    0.0749 C   0  0  0  0  0  0  0  0  0  0  0  0
    3.6375    1.6723   -0.2376 C   0  0  0  0  0  0  0  0  0  0  0  0
    4.6672    1.6498    0.6617 C   0  0  0  0  0  0  0  0  0  0  0  0
    5.8178    0.9427    0.3125 C   0  0  0  0  0  0  0  0  0  0  0  0
    7.0518    1.2675    0.8575 O   0  0  0  0  0  0  0  0  0  0  0  0
    8.1415    1.7706    0.1034 C   0  0  0  0  0  0  0  0  0  0  0  0
    5.7462    0.0005   -0.7072 C   0  0  0  0  0  0  0  0  0  0  0  0
    6.6069   -1.0945   -0.6037 O   0  0  0  0  0  0  0  0  0  0  0  0
    6.1313   -2.4225   -0.7556 C   0  0  0  0  0  0  0  0  0  0  0  0
    4.7481    0.0904   -1.6559 C   0  0  0  0  0  0  0  0  0  0  0  0
    3.6473    0.8868   -1.3870 C   0  0  0  0  0  0  0  0  0  0  0  0
    2.4228    0.9478   -2.1752 C   0  0  0  0  0  0  0  0  0  0  0  0
    1.2444    0.1272   -1.3139 C   0  0  1  0  0  0  0  0  0  0  0  0
    2.3049   -1.0207   -0.8082 C   0  0  0  0  0  0  0  0  0  0  0  0
    2.1989   -1.9815   -1.6331 O   0  0  0  0  0  0  0  0  0  0  0  0
    2.2729   -1.3434    0.5119 O   0  0  0  0  0  0  0  0  0  0  0  0
  1  2  1  0
  2  3  1  0
  3  4  1  0
  4  5  2  0
  6  4  1  6
  6  7  1  0
  7  8  1  0
  8  9  1  0
  9 10  2  0
 10 11  1  0
 11 12  2  0
 12 13  1  0
 13 14  2  0
  6 15  1  0
 16 15  1  6
 16 17  1  0
 16 18  1  0
 18 19  2  0
 18 20  1  0
 20 21  1  0
 21 22  1  0
 22 23  2  0
 23 24  1  0
 24 25  1  0
 25 26  1  0
 24 27  2  0
 27 28  1  0
 28 29  1  0
 27 30  1  0
 30 31  2  0
 31 32  1  0
 32 33  1  0
 33 34  1  1
 34 35  2  0
 34 36  1  0
 14  9  1  0
 33 20  1  0
 31 22  1  0
M  END
>  <supplier_code>  (542) 
DB00691

>  <zinc_id>  (542) 
ZINC000003812306

>  <catalog_short_name>  (542) 
dbfda

$$$$

     RDKit          3D

 21 23  0  0  0  0  0  0  0  0999 V2000
    5.2698   -1.3161    0.1877 C   0  0  0  0  0  0  0  0  0  0  0  0
    3.8229   -1.2860   -0.1724 C   0  0  0  0  0  0  0  0  0  0  0  0
    3.3605   -0.6740   -1.3280 C   0  0  0  0  0  0  0  0  0  0  0  0
    2.0176   -0.3650   -1.4379 C   0  0  0  0  0  0  0  0  0  0  0  0
    1.0762   -0.7956   -0.5110 C   0  0  0  0  0  0  0  0  0  0  0  0
   -0.0528    0.0230   -0.1776 N   0  0  0  0  0  0  0  0  0  0  0  0
    0.2617    1.1515    0.6922 C   0  0  0  0  0  0  0  0  0  0  0  0
   -0.0619    2.4498    0.0701 C   0  0  0  0  0  0  0  0  0  0  0  0
   -0.1551    2.8105   -1.1548 N   0  0  0  0  0  0  0  0  0  0  0  0
   -0.9630    4.0258   -1.1872 C   0  0  0  0  0  0  0  0  0  0  0  0
   -0.5252    4.7387    0.0736 C   0  0  0  0  0  0  0  0  0  0  0  0
    0.1025    3.6678    0.8086 N   0  0  0  0  0  0  0  0  0  0  0  0
   -1.2524   -0.6873    0.1536 C   0  0  0  0  0  0  0  0  0  0  0  0
   -1.8113   -0.6368    1.4228 C   0  0  0  0  0  0  0  0  0  0  0  0
   -3.1207   -1.0166    1.6569 C   0  0  0  0  0  0  0  0  0  0  0  0
   -3.7387   -1.8271    0.7356 C   0  0  0  0  0  0  0  0  0  0  0  0
   -3.0342   -2.2298   -0.3889 C   0  0  0  0  0  0  0  0  0  0  0  0
   -3.7626   -2.8914   -1.3815 O   0  0  0  0  0  0  0  0  0  0  0  0
   -1.8932   -1.5210   -0.7452 C   0  0  0  0  0  0  0  0  0  0  0  0
    1.5755   -1.5773    0.5235 C   0  0  0  0  0  0  0  0  0  0  0  0
    2.8843   -2.0431    0.5170 C   0  0  0  0  0  0  0  0  0  0  0  0
  1  2  1  0
  2  3  2  0
  3  4  1  0
  4  5  2  0
  5  6  1  0
  6  7  1  0
  7  8  1  0
  8  9  2  0
  9 10  1  0
 10 11  1  0
 11 12  1  0
  6 13  1  0
 13 14  2  0
 14 15  1  0
 15 16  2  0
 16 17  1  0
 17 18  1  0
 17 19  2  0
  5 20  1  0
 20 21  2  0
 21  2  1  0
 12  8  1  0
 19 13  1  0
M  END
>  <supplier_code>  (543) 
DB00692

>  <zinc_id>  (543) 
ZINC000000020251

>  <catalog_short_name>  (543) 
dbfda

$$$$

     RDKit          3D

 25 29  0  0  0  0  0  0  0  0999 V2000
   -1.0078    2.8147   -2.6940 O   0  0  0  0  0  0  0  0  0  0  0  0
   -0.3899    2.1975   -1.7880 C   0  0  0  0  0  0  0  0  0  0  0  0
   -0.0461    0.8466   -1.8793 O   0  0  0  0  0  0  0  0  0  0  0  0
    0.1198    0.3067   -0.5856 C   0  0  0  0  0  0  0  0  0  0  0  0
    0.1109    1.4509    0.3636 C   0  0  0  0  0  0  0  0  0  0  0  0
   -0.2463    1.4942    1.7062 C   0  0  0  0  0  0  0  0  0  0  0  0
   -0.5930    2.7038    2.2958 C   0  0  0  0  0  0  0  0  0  0  0  0
   -0.1548    3.8399    1.6267 C   0  0  0  0  0  0  0  0  0  0  0  0
   -0.2768    3.7979    0.2431 C   0  0  0  0  0  0  0  0  0  0  0  0
   -0.1631    2.5774   -0.4023 C   0  0  0  0  0  0  0  0  0  0  0  0
   -1.0321   -0.5759   -0.3236 C   0  0  0  0  0  0  0  0  0  0  0  0
   -2.2925    0.0091   -0.2884 C   0  0  0  0  0  0  0  0  0  0  0  0
   -3.3807   -0.7067    0.1753 C   0  0  0  0  0  0  0  0  0  0  0  0
   -3.2988   -2.0874    0.3119 C   0  0  0  0  0  0  0  0  0  0  0  0
   -4.0614   -2.7567    1.2744 O   0  0  0  0  0  0  0  0  0  0  0  0
   -2.1647   -2.6824   -0.2242 C   0  0  0  0  0  0  0  0  0  0  0  0
   -1.0114   -1.9461   -0.4685 C   0  0  0  0  0  0  0  0  0  0  0  0
    0.2426   -2.5571   -0.5658 O   0  0  0  0  0  0  0  0  0  0  0  0
    1.3834   -1.8220   -0.2483 C   0  0  0  0  0  0  0  0  0  0  0  0
    2.4890   -2.4248    0.3387 C   0  0  0  0  0  0  0  0  0  0  0  0
    3.6176   -1.6767    0.6046 C   0  0  0  0  0  0  0  0  0  0  0  0
    4.4006   -1.9951    1.7118 O   0  0  0  0  0  0  0  0  0  0  0  0
    3.7565   -0.4885   -0.0768 C   0  0  0  0  0  0  0  0  0  0  0  0
    2.6203    0.1437   -0.5675 C   0  0  0  0  0  0  0  0  0  0  0  0
    1.3786   -0.4631   -0.5397 C   0  0  0  0  0  0  0  0  0  0  0  0
  1  2  2  0
  2  3  1  0
  3  4  1  0
  4  5  1  0
  5  6  2  0
  6  7  1  0
  7  8  2  0
  8  9  1  0
  9 10  2  0
  4 11  1  0
 11 12  2  0
 12 13  1  0
 13 14  2  0
 14 15  1  0
 14 16  1  0
 16 17  2  0
 17 18  1  0
 18 19  1  0
 19 20  2  0
 20 21  1  0
 21 22  1  0
 21 23  2  0
 23 24  1  0
 24 25  2  0
 10  2  1  0
 17 11  1  0
 25 19  1  0
 25  4  1  0
 10  5  1  0
M  END
>  <supplier_code>  (544) 
DB00693

>  <zinc_id>  (544) 
ZINC000003860453

>  <catalog_short_name>  (544) 
dbfda

$$$$

     RDKit          3D

 38 42  0  0  0  0  0  0  0  0999 V2000
   -5.1956   -1.0734    2.9494 C   0  0  0  0  0  0  0  0  0  0  0  0
   -4.8274   -2.0516    2.1150 O   0  0  0  0  0  0  0  0  0  0  0  0
   -4.8378   -1.9869    0.7369 C   0  0  0  0  0  0  0  0  0  0  0  0
   -5.8426   -2.5262   -0.0524 C   0  0  0  0  0  0  0  0  0  0  0  0
   -5.8363   -2.3554   -1.4321 C   0  0  0  0  0  0  0  0  0  0  0  0
   -4.8665   -1.6041   -2.0475 C   0  0  0  0  0  0  0  0  0  0  0  0
   -3.7837   -1.2082   -1.2943 C   0  0  0  0  0  0  0  0  0  0  0  0
   -3.6997   -1.5964    0.0384 C   0  0  0  0  0  0  0  0  0  0  0  0
   -2.4090   -1.4559    0.7146 C   0  0  0  0  0  0  0  0  0  0  0  0
   -2.3046   -1.7856    1.9351 O   0  0  0  0  0  0  0  0  0  0  0  0
   -1.4135   -0.5513    0.1227 C   0  0  0  0  0  0  0  0  0  0  0  0
   -0.2857   -0.1660    0.8428 C   0  0  0  0  0  0  0  0  0  0  0  0
    0.0879   -0.9284    1.9338 O   0  0  0  0  0  0  0  0  0  0  0  0
    0.6138    0.6223    0.1160 C   0  0  0  0  0  0  0  0  0  0  0  0
    0.0103    1.7265   -0.4832 C   0  0  0  0  0  0  0  0  0  0  0  0
   -1.1273    1.4223   -1.2233 C   0  0  0  0  0  0  0  0  0  0  0  0
   -1.7870    2.4693   -1.8746 O   0  0  0  0  0  0  0  0  0  0  0  0
   -1.7844    0.2223   -0.9735 C   0  0  0  0  0  0  0  0  0  0  0  0
   -2.9105   -0.1665   -1.8305 C   0  0  0  0  0  0  0  0  0  0  0  0
   -3.2533    0.6184   -2.7525 O   0  0  0  0  0  0  0  0  0  0  0  0
    0.3422    3.1442   -0.1627 C   0  0  0  0  0  0  0  0  0  0  0  0
    1.8326    3.2736   -0.1945 C   0  0  1  0  0  0  0  0  0  0  0  0
    2.1050    3.8569   -1.4435 O   0  0  0  0  0  0  0  0  0  0  0  0
    2.2419    4.2102    0.8922 C   0  0  0  0  0  0  0  0  0  0  0  0
    1.6425    5.5816    0.8292 C   0  0  0  0  0  0  0  0  0  0  0  0
    2.5031    3.6757    1.9678 O   0  0  0  0  0  0  0  0  0  0  0  0
    2.5755    1.9992   -0.2002 C   0  0  0  0  0  0  0  0  0  0  0  0
    1.9017    1.0907    1.0565 C   0  0  2  0  0  0  0  0  0  0  0  0
    2.6865   -0.2159    0.7586 O   0  0  0  0  0  0  0  0  0  0  0  0
    3.3955    0.1676   -0.5880 C   0  0  1  0  0  0  0  0  0  0  0  0
    4.9818   -0.1797   -0.0440 C   0  0  0  0  0  0  0  0  0  0  0  0
    4.6775   -1.1597    1.2387 C   0  0  2  0  0  0  0  0  0  0  0  0
    6.2256   -1.4620    1.3998 N   0  0  0  0  0  0  0  0  0  0  0  0
    4.4607   -2.6382    0.3374 C   0  0  2  0  0  0  0  0  0  0  0  0
    5.1449   -2.1923   -0.9284 O   0  0  0  0  0  0  0  0  0  0  0  0
    2.8377   -2.1158   -0.0878 C   0  0  2  0  0  0  0  0  0  0  0  0
    2.6539   -3.4215   -1.1089 C   0  0  0  0  0  0  0  0  0  0  0  0
    3.2444   -1.2402   -1.2629 O   0  0  0  0  0  0  0  0  0  0  0  0
  1  2  1  0
  2  3  1  0
  3  4  2  0
  4  5  1  0
  5  6  2  0
  6  7  1  0
  7  8  2  0
  8  9  1  0
  9 10  2  0
  9 11  1  0
 11 12  2  0
 12 13  1  0
 12 14  1  0
 14 15  2  0
 15 16  1  0
 16 17  1  0
 16 18  2  0
 18 19  1  0
 19 20  2  0
 15 21  1  0
 21 22  1  0
 22 23  1  6
 22 24  1  0
 24 25  1  0
 24 26  2  0
 22 27  1  0
 27 28  1  0
 28 29  1  6
 30 29  1  1
 30 31  1  0
 31 32  1  0
 32 33  1  1
 32 34  1  0
 34 35  1  6
 34 36  1  0
 36 37  1  6
 36 38  1  0
  8  3  1  0
 18 11  1  0
 38 30  1  0
 19  7  1  0
 28 14  1  0
M  END
>  <supplier_code>  (545) 
DB00694

>  <zinc_id>  (545) 
ZINC000003917708

>  <catalog_short_name>  (545) 
dbfda

$$$$

     RDKit          3D

 21 22  0  0  0  0  0  0  0  0999 V2000
   -5.0016    0.0464    1.1965 N   0  0  0  0  0  0  0  0  0  0  0  0
   -3.7658    1.0102    0.4676 S   0  0  0  0  0  0  0  0  0  0  0  0
   -4.3700    1.7942   -0.6460 O   0  0  0  0  0  0  0  0  0  0  0  0
   -3.2039    1.9350    1.5242 O   0  0  0  0  0  0  0  0  0  0  0  0
   -2.4934   -0.0022   -0.1919 C   0  0  0  0  0  0  0  0  0  0  0  0
   -1.8463   -0.9677    0.5704 C   0  0  0  0  0  0  0  0  0  0  0  0
   -0.5414   -1.3585    0.2968 C   0  0  0  0  0  0  0  0  0  0  0  0
   -0.0559   -2.6812    0.7102 C   0  0  0  0  0  0  0  0  0  0  0  0
    1.0139   -3.1212    0.1921 O   0  0  0  0  0  0  0  0  0  0  0  0
   -1.0196   -3.6581    0.9817 O   0  0  0  0  0  0  0  0  0  0  0  0
    0.1887   -0.5881   -0.5999 C   0  0  0  0  0  0  0  0  0  0  0  0
    1.6073   -0.6591   -0.4963 N   0  0  0  0  0  0  0  0  0  0  0  0
    2.4309    0.3552   -1.1406 C   0  0  0  0  0  0  0  0  0  0  0  0
    3.5022    0.8522   -0.2362 C   0  0  0  0  0  0  0  0  0  0  0  0
    3.8471    2.1686    0.0426 C   0  0  0  0  0  0  0  0  0  0  0  0
    4.8922    2.1003    0.9528 C   0  0  0  0  0  0  0  0  0  0  0  0
    5.3675    0.7991    0.8476 C   0  0  0  0  0  0  0  0  0  0  0  0
    4.5508    0.1114    0.0792 O   0  0  0  0  0  0  0  0  0  0  0  0
   -0.4529    0.2716   -1.4834 C   0  0  0  0  0  0  0  0  0  0  0  0
   -1.8216    0.4465   -1.3214 C   0  0  0  0  0  0  0  0  0  0  0  0
   -2.8280    1.1454   -2.5822 Cl  0  0  0  0  0  0  0  0  0  0  0  0
  1  2  1  0
  2  3  2  0
  2  4  2  0
  2  5  1  0
  5  6  2  0
  6  7  1  0
  7  8  1  0
  8  9  2  0
  8 10  1  0
  7 11  2  0
 11 12  1  0
 12 13  1  0
 13 14  1  0
 14 15  2  0
 15 16  1  0
 16 17  2  0
 17 18  1  0
 11 19  1  0
 19 20  2  0
 20 21  1  0
 20  5  1  0
 18 14  1  0
M  END
>  <supplier_code>  (546) 
DB00695

>  <zinc_id>  (546) 
ZINC000000035804

>  <catalog_short_name>  (546) 
dbfda

$$$$

     RDKit          3D

 43 50  0  0  0  0  0  0  0  0999 V2000
    5.0694   -0.6386    1.6155 C   0  0  0  0  0  0  0  0  0  0  0  0
    4.9306   -1.1387    1.4928 N   0  0  0  0  0  0  0  0  0  0  0  0
    3.5259   -1.4702    1.7062 C   0  0  0  0  0  0  0  0  0  0  0  0
    2.6645   -0.1334    1.2475 C   0  0  2  0  0  0  0  0  0  0  0  0
    1.3683   -1.0276    0.8550 C   0  0  0  0  0  0  0  0  0  0  0  0
    1.5758   -2.0316    0.1585 O   0  0  0  0  0  0  0  0  0  0  0  0
    0.2178   -0.2648    0.4948 N   0  0  0  0  0  0  0  0  0  0  0  0
   -0.9831   -1.0277    0.1657 C   0  0  2  0  0  0  0  0  0  0  0  0
   -0.6624   -2.5093   -0.0068 C   0  0  0  0  0  0  0  0  0  0  0  0
   -1.5515   -0.6530   -1.0297 O   0  0  0  0  0  0  0  0  0  0  0  0
   -2.8908   -0.5548   -0.9136 C   0  0  1  0  0  0  0  0  0  0  0  0
   -3.4227    0.1692   -1.9071 O   0  0  0  0  0  0  0  0  0  0  0  0
   -3.5103   -2.0845   -1.0189 C   0  0  2  0  0  0  0  0  0  0  0  0
   -3.2580   -2.1606   -2.6553 C   0  0  0  0  0  0  0  0  0  0  0  0
   -4.4427   -3.0866   -2.9053 C   0  0  0  0  0  0  0  0  0  0  0  0
   -5.5580   -2.6061   -2.0201 C   0  0  0  0  0  0  0  0  0  0  0  0
   -4.9803   -1.5464   -1.2580 N   0  0  0  0  0  0  0  0  0  0  0  0
   -5.3807   -0.4813   -0.3862 C   0  0  0  0  0  0  0  0  0  0  0  0
   -6.6352   -0.5644   -0.1813 O   0  0  0  0  0  0  0  0  0  0  0  0
   -4.5768   -0.6646    1.0285 C   0  0  2  0  0  0  0  0  0  0  0  0
   -4.8209    0.8763    1.5887 C   0  0  0  0  0  0  0  0  0  0  0  0
   -5.7349    1.6009    0.7524 C   0  0  0  0  0  0  0  0  0  0  0  0
   -5.1924    2.6111   -0.0438 C   0  0  0  0  0  0  0  0  0  0  0  0
   -5.9708    3.5393   -0.6932 C   0  0  0  0  0  0  0  0  0  0  0  0
   -7.3428    3.4351   -0.5139 C   0  0  0  0  0  0  0  0  0  0  0  0
   -7.7564    2.9367    0.7147 C   0  0  0  0  0  0  0  0  0  0  0  0
   -6.9056    2.0587    1.3613 C   0  0  0  0  0  0  0  0  0  0  0  0
   -3.1570   -0.2488    0.4309 N   0  0  0  0  0  0  0  0  0  0  0  0
   -2.0486   -0.8093    1.1607 C   0  0  0  0  0  0  0  0  0  0  0  0
   -1.9201   -0.9992    2.3983 O   0  0  0  0  0  0  0  0  0  0  0  0
    3.1992   -0.0910   -0.2909 C   0  0  0  0  0  0  0  0  0  0  0  0
    4.4593   -0.1926   -0.5251 C   0  0  0  0  0  0  0  0  0  0  0  0
    5.4323    0.7716   -0.8943 C   0  0  0  0  0  0  0  0  0  0  0  0
    4.9375    2.0071   -1.3072 C   0  0  0  0  0  0  0  0  0  0  0  0
    5.6809    3.1617   -1.0577 C   0  0  0  0  0  0  0  0  0  0  0  0
    6.8434    3.1194   -0.2906 C   0  0  0  0  0  0  0  0  0  0  0  0
    7.3980    1.8876    0.0416 C   0  0  0  0  0  0  0  0  0  0  0  0
    8.2041    1.4311    1.0315 N   0  0  0  0  0  0  0  0  0  0  0  0
    8.0404    0.0951    1.1941 C   0  0  0  0  0  0  0  0  0  0  0  0
    6.9660   -0.2986    0.4049 C   0  0  0  0  0  0  0  0  0  0  0  0
    6.7575    0.7867   -0.4512 C   0  0  0  0  0  0  0  0  0  0  0  0
    6.5356   -1.5291   -0.2342 C   0  0  0  0  0  0  0  0  0  0  0  0
    4.8958   -1.6751   -0.0155 C   0  0  1  0  0  0  0  0  0  0  0  0
  1  2  1  0
  2  3  1  0
  3  4  1  0
  4  5  1  6
  5  6  2  0
  5  7  1  0
  8  7  1  1
  8  9  1  0
  8 10  1  0
 10 11  1  0
 11 12  1  6
 11 13  1  0
 13 14  1  6
 14 15  1  0
 15 16  1  0
 16 17  1  0
 17 18  1  0
 18 19  2  0
 18 20  1  0
 20 21  1  1
 21 22  1  0
 22 23  2  0
 23 24  1  0
 24 25  2  0
 25 26  1  0
 26 27  2  0
 20 28  1  0
 28 29  1  0
 29 30  2  0
  4 31  1  0
 31 32  2  0
 32 33  1  0
 33 34  2  0
 34 35  1  0
 35 36  2  0
 36 37  1  0
 37 38  1  0
 38 39  1  0
 39 40  2  0
 40 41  1  0
 40 42  1  0
 43 42  1  6
 43  2  1  0
 29  8  1  0
 43 32  1  0
 28 11  1  0
 41 33  1  0
 17 13  1  0
 27 22  1  0
 41 37  2  0
M  END
>  <supplier_code>  (547) 
DB00696

>  <zinc_id>  (547) 
ZINC000052955754

>  <catalog_short_name>  (547) 
dbfda

$$$$

     RDKit          3D

 16 18  0  0  0  0  0  0  0  0999 V2000
    0.6848    2.9916   -0.1359 Cl  0  0  0  0  0  0  0  0  0  0  0  0
   -0.5753    1.7899   -0.0063 C   0  0  0  0  0  0  0  0  0  0  0  0
   -1.8723    2.2591    0.1418 C   0  0  0  0  0  0  0  0  0  0  0  0
   -2.9110    1.3415    0.1507 C   0  0  0  0  0  0  0  0  0  0  0  0
   -2.6366   -0.0201    0.2568 C   0  0  0  0  0  0  0  0  0  0  0  0
   -3.5188   -1.0049   -0.0505 N   0  0  0  0  0  0  0  0  0  0  0  0
   -2.7306   -2.3596    0.5938 S   0  0  0  0  0  0  0  0  0  0  0  0
   -1.1826   -1.6840    0.7105 N   0  0  0  0  0  0  0  0  0  0  0  0
   -1.3346   -0.4694    0.1233 C   0  0  0  0  0  0  0  0  0  0  0  0
   -0.2807    0.4302   -0.0354 C   0  0  0  0  0  0  0  0  0  0  0  0
    0.7897    0.0532   -0.8660 N   0  0  0  0  0  0  0  0  0  0  0  0
    1.9493   -0.3294   -0.5147 C   0  0  0  0  0  0  0  0  0  0  0  0
    2.9513   -0.5468   -1.5180 N   0  0  0  0  0  0  0  0  0  0  0  0
    4.1329   -1.0504   -0.8827 C   0  0  0  0  0  0  0  0  0  0  0  0
    3.9323   -0.9700    0.6014 C   0  0  0  0  0  0  0  0  0  0  0  0
    2.6021   -0.4308    0.7279 N   0  0  0  0  0  0  0  0  0  0  0  0
  1  2  1  0
  2  3  1  0
  3  4  2  0
  4  5  1  0
  5  6  2  0
  6  7  1  0
  7  8  1  0
  8  9  2  0
  9 10  1  0
 10 11  1  0
 11 12  2  3
 12 13  1  0
 13 14  1  0
 14 15  1  0
 15 16  1  0
 10  2  2  0
 16 12  1  0
  9  5  1  0
M  END
>  <supplier_code>  (548) 
DB00697

>  <zinc_id>  (548) 
ZINC000019702309

>  <catalog_short_name>  (548) 
dbfda

$$$$

     RDKit          3D

 17 18  0  0  0  0  0  0  0  0999 V2000
   -2.9089    2.6895   -0.2972 O   0  0  0  0  0  0  0  0  0  0  0  0
   -3.2213    1.5701    0.2114 C   0  0  0  0  0  0  0  0  0  0  0  0
   -2.4469    0.7696    1.2120 C   0  0  0  0  0  0  0  0  0  0  0  0
   -2.4221   -0.5248    0.5335 N   0  0  0  0  0  0  0  0  0  0  0  0
   -1.2383   -1.1911    0.1632 N   0  0  0  0  0  0  0  0  0  0  0  0
   -0.3486   -0.6717   -0.5937 C   0  0  0  0  0  0  0  0  0  0  0  0
    1.0891   -0.8551   -0.4323 C   0  0  0  0  0  0  0  0  0  0  0  0
    1.7693   -1.7027    0.4264 C   0  0  0  0  0  0  0  0  0  0  0  0
    3.0165   -1.1600    0.5840 C   0  0  0  0  0  0  0  0  0  0  0  0
    3.1305   -0.1525   -0.3520 C   0  0  0  0  0  0  0  0  0  0  0  0
    4.2794    0.6919   -0.4323 N   0  0  0  0  0  0  0  0  0  0  0  0
    5.4062    0.2591   -0.1114 O   0  0  0  0  0  0  0  0  0  0  0  0
    4.0656    2.0392   -0.2571 O   0  0  0  0  0  0  0  0  0  0  0  0
    1.9886   -0.0727   -0.9713 O   0  0  0  0  0  0  0  0  0  0  0  0
   -3.7218   -0.6375   -0.0573 C   0  0  0  0  0  0  0  0  0  0  0  0
   -4.1687   -1.7318   -0.4810 O   0  0  0  0  0  0  0  0  0  0  0  0
   -4.2687    0.6803   -0.1971 N   0  0  0  0  0  0  0  0  0  0  0  0
  1  2  2  0
  2  3  1  0
  3  4  1  0
  4  5  1  0
  5  6  2  0
  6  7  1  0
  7  8  2  0
  8  9  1  0
  9 10  2  0
 10 11  1  0
 11 12  2  0
 11 13  1  0
 10 14  1  0
  4 15  1  0
 15 16  2  0
 15 17  1  0
 17  2  1  0
 14  7  1  0
M  CHG  2  11   1  13  -1
M  END
>  <supplier_code>  (549) 
DB00698

>  <zinc_id>  (549) 
ZINC000003875368

>  <catalog_short_name>  (549) 
dbfda

$$$$

     RDKit          3D

 17 18  0  0  0  0  0  0  0  0999 V2000
   -3.3887    2.3155    0.3746 O   0  0  0  0  0  0  0  0  0  0  0  0
   -3.4045    1.0772    0.1132 C   0  0  0  0  0  0  0  0  0  0  0  0
   -3.1480    0.5485   -1.2586 C   0  0  0  0  0  0  0  0  0  0  0  0
   -2.0609   -0.3879   -0.9869 N   0  0  0  0  0  0  0  0  0  0  0  0
   -1.3641   -1.0090   -2.0312 N   0  0  0  0  0  0  0  0  0  0  0  0
   -0.0989   -1.1431   -1.9295 C   0  0  0  0  0  0  0  0  0  0  0  0
    0.7148   -0.5196   -0.8853 C   0  0  0  0  0  0  0  0  0  0  0  0
    0.4773    0.6012   -0.1349 C   0  0  0  0  0  0  0  0  0  0  0  0
    1.7034    1.0932    0.2889 C   0  0  0  0  0  0  0  0  0  0  0  0
    2.6205    0.1634   -0.1211 C   0  0  0  0  0  0  0  0  0  0  0  0
    4.0477    0.2022    0.0033 N   0  0  0  0  0  0  0  0  0  0  0  0
    4.7207    0.2046   -1.0584 O   0  0  0  0  0  0  0  0  0  0  0  0
    4.6611    0.7867    1.0953 O   0  0  0  0  0  0  0  0  0  0  0  0
    2.0074   -0.7706   -0.7855 O   0  0  0  0  0  0  0  0  0  0  0  0
   -2.4529   -1.0428    0.2256 C   0  0  0  0  0  0  0  0  0  0  0  0
   -1.9380   -2.1071    0.6747 O   0  0  0  0  0  0  0  0  0  0  0  0
   -3.0969   -0.0124    0.9839 N   0  0  0  0  0  0  0  0  0  0  0  0
  1  2  2  0
  2  3  1  0
  3  4  1  0
  4  5  1  0
  5  6  2  0
  6  7  1  0
  7  8  2  0
  8  9  1  0
  9 10  2  0
 10 11  1  0
 11 12  2  0
 11 13  1  0
 10 14  1  0
  4 15  1  0
 15 16  2  0
 15 17  1  0
 17  2  1  0
 14  7  1  0
M  CHG  2  11   1  13  -1
M  END
>  <supplier_code>  (550) 
DB00698

>  <zinc_id>  (550) 
ZINC000007997568

>  <catalog_short_name>  (550) 
dbfda

$$$$

     RDKit          2D

 30 35  0  0  0  0  0  0  0  0999 V2000
    1.0793   -5.7505    0.0000 C   0  0  0  0  0  0  0  0  0  0  0  0
    1.6347   -4.3571    0.0000 O   0  0  0  0  0  0  0  0  0  0  0  0
    0.7056   -3.1795    0.0000 C   0  0  0  0  0  0  0  0  0  0  0  0
   -0.7788   -3.3952    0.0000 O   0  0  0  0  0  0  0  0  0  0  0  0
    1.2610   -1.7861    0.0000 C   0  0  0  0  0  0  0  0  0  0  0  0
    2.7454   -1.5703    0.0000 C   0  0  0  0  0  0  0  0  0  0  0  0
    3.3007   -0.1769    0.0000 C   0  0  0  0  0  0  0  0  0  0  0  0
    4.7851    0.0389    0.0000 C   0  0  0  0  0  0  0  0  0  0  0  0
    5.3405    1.4323    0.0000 C   0  0  0  0  0  0  0  0  0  0  0  0
    6.8249    1.6480    0.0000 O   0  0  0  0  0  0  0  0  0  0  0  0
    4.4114    2.6099    0.0000 C   0  0  0  0  0  0  0  0  0  0  0  0
    2.9270    2.3942    0.0000 C   0  0  0  0  0  0  0  0  0  0  0  0
    2.3717    1.0007    0.0000 C   0  0  0  0  0  0  0  0  0  0  0  0
    2.0441    1.7275    0.0000 C   0  0  0  0  0  0  0  0  0  0  0  0
    0.8873    0.7850    0.0000 C   0  0  0  0  0  0  0  0  0  0  0  0
    1.4426    2.1784    0.0000 O   0  0  0  0  0  0  0  0  0  0  0  0
   -0.0418    1.9626    0.0000 C   0  0  0  0  0  0  0  0  0  0  0  0
   -1.5262    1.7469    0.0000 C   0  0  0  0  0  0  0  0  0  0  0  0
   -2.0815    0.3535    0.0000 C   0  0  0  0  0  0  0  0  0  0  0  0
   -2.8376    1.6490    0.0000 C   0  0  0  0  0  0  0  0  0  0  0  0
   -1.1525   -0.8242    0.0000 C   0  0  0  0  0  0  0  0  0  0  0  0
   -1.9854   -2.0717    0.0000 C   0  0  0  0  0  0  0  0  0  0  0  0
   -3.4292   -1.6650    0.0000 C   0  0  0  0  0  0  0  0  0  0  0  0
   -3.4886   -0.1662    0.0000 C   0  0  0  0  0  0  0  0  0  0  0  0
   -4.8957   -0.6859    0.0000 C   0  0  0  0  0  0  0  0  0  0  0  0
   -5.8248    0.4918    0.0000 C   0  0  0  0  0  0  0  0  0  0  0  0
   -4.9919    1.7393    0.0000 C   0  0  0  0  0  0  0  0  0  0  0  0
   -5.5115    3.1464    0.0000 O   0  0  0  0  0  0  0  0  0  0  0  0
   -3.5480    1.3326    0.0000 O   0  0  0  0  0  0  0  0  0  0  0  0
    0.3319   -0.6084    0.0000 C   0  0  0  0  0  0  0  0  0  0  0  0
  1  2  1  0
  2  3  1  0
  3  4  2  0
  5  3  1  1
  5  6  1  0
  6  7  1  0
  7  8  2  0
  8  9  1  0
  9 10  2  0
  9 11  1  0
 11 12  1  0
 12 13  1  0
 13 14  1  6
 13 15  1  0
 15 16  1  1
 17 16  1  1
 17 18  1  0
 18 19  1  0
 19 20  1  6
 19 21  1  0
 21 22  1  6
 22 23  1  0
 24 23  1  6
 24 25  1  0
 25 26  1  0
 26 27  1  0
 27 28  2  0
 27 29  1  0
 21 30  1  0
 30  5  1  1
 13  7  1  0
 17 15  1  0
 24 19  1  0
 30 15  1  0
 29 24  1  0
M  END
>  <supplier_code>  (551) 
DB00700

>  <zinc_id>  (551) 
ZINC000003985982

>  <catalog_short_name>  (551) 
dbfda

$$$$

     RDKit          3D

 14 14  0  0  0  0  0  0  0  0999 V2000
    4.5097   -0.0501   -0.9387 C   0  0  0  0  0  0  0  0  0  0  0  0
    3.1289   -0.4689   -0.6011 C   0  0  0  0  0  0  0  0  0  0  0  0
    2.5561   -1.3362   -1.3062 O   0  0  0  0  0  0  0  0  0  0  0  0
    2.5363    0.0200    0.6033 N   0  0  0  0  0  0  0  0  0  0  0  0
    1.2473    0.1999    0.5560 C   0  0  0  0  0  0  0  0  0  0  0  0
    0.0712   -0.6077   -0.4069 S   0  0  0  0  0  0  0  0  0  0  0  0
   -1.3233   -0.0073    0.4018 C   0  0  0  0  0  0  0  0  0  0  0  0
   -3.0064   -0.1519   -0.0907 S   0  0  0  0  0  0  0  0  0  0  0  0
   -3.4218    1.0825   -1.2391 N   0  0  0  0  0  0  0  0  0  0  0  0
   -3.1113   -1.4671   -0.8293 O   0  0  0  0  0  0  0  0  0  0  0  0
   -3.9269   -0.1654    1.0810 O   0  0  0  0  0  0  0  0  0  0  0  0
   -0.7378    0.9980    1.0994 N   0  0  0  0  0  0  0  0  0  0  0  0
    0.4455    0.6264    1.5663 N   0  0  0  0  0  0  0  0  0  0  0  0
    1.0325    1.3277    2.7095 C   0  0  0  0  0  0  0  0  0  0  0  0
  1  2  1  0
  2  3  2  0
  2  4  1  0
  4  5  2  0
  5  6  1  0
  6  7  1  0
  7  8  1  0
  8  9  1  0
  8 10  2  0
  8 11  2  0
  7 12  2  0
 12 13  1  0
 13 14  1  0
 13  5  1  0
M  END
>  <supplier_code>  (552) 
DB00703

>  <zinc_id>  (552) 
ZINC000012503151

>  <catalog_short_name>  (552) 
dbfda

$$$$

     RDKit          3D

 14 14  0  0  0  0  0  0  0  0999 V2000
   -4.4271   -0.4569    0.2602 C   0  0  0  0  0  0  0  0  0  0  0  0
   -3.3172    0.5284    0.1413 C   0  0  0  0  0  0  0  0  0  0  0  0
   -3.3451    1.3487   -0.8220 O   0  0  0  0  0  0  0  0  0  0  0  0
   -2.2848    0.5490    1.1088 N   0  0  0  0  0  0  0  0  0  0  0  0
   -1.0611    0.2014    0.8591 C   0  0  0  0  0  0  0  0  0  0  0  0
    0.4447    0.8914    1.3224 S   0  0  0  0  0  0  0  0  0  0  0  0
    1.4358   -0.0422    0.2696 C   0  0  0  0  0  0  0  0  0  0  0  0
    3.1730    0.0382   -0.0069 S   0  0  0  0  0  0  0  0  0  0  0  0
    3.7284    1.6446    0.1592 N   0  0  0  0  0  0  0  0  0  0  0  0
    3.3916   -0.4306   -1.4186 O   0  0  0  0  0  0  0  0  0  0  0  0
    3.9029   -0.8744    0.9526 O   0  0  0  0  0  0  0  0  0  0  0  0
    0.4807   -0.5795   -0.5105 N   0  0  0  0  0  0  0  0  0  0  0  0
   -0.6164   -0.8669    0.1493 N   0  0  0  0  0  0  0  0  0  0  0  0
   -1.5054   -1.9512   -0.2714 C   0  0  0  0  0  0  0  0  0  0  0  0
  1  2  1  0
  2  3  2  0
  2  4  1  0
  4  5  2  3
  5  6  1  0
  6  7  1  0
  7  8  1  0
  8  9  1  0
  8 10  2  0
  8 11  2  0
  7 12  2  0
 12 13  1  0
 13 14  1  0
 13  5  1  0
M  END
>  <supplier_code>  (553) 
DB00703

>  <zinc_id>  (553) 
ZINC000253917094

>  <catalog_short_name>  (553) 
dbfda

$$$$

     RDKit          3D

 25 30  0  0  0  0  0  0  0  0999 V2000
   -3.3268   -1.0043   -1.1620 O   0  0  0  0  0  0  0  0  0  0  0  0
   -2.3849   -0.9237   -1.0918 C   0  0  0  0  0  0  0  0  0  0  0  0
   -1.5944   -1.3150   -2.3024 C   0  0  0  0  0  0  0  0  0  0  0  0
   -0.3746   -0.4187   -2.1162 C   0  0  0  0  0  0  0  0  0  0  0  0
    0.2099   -0.9101   -0.7960 C   0  0  1  0  0  0  0  0  0  0  0  0
    0.5453   -2.2345   -1.1174 O   0  0  0  0  0  0  0  0  0  0  0  0
    1.6056   -0.0688   -0.8788 C   0  0  1  0  0  0  0  0  0  0  0  0
    1.1582    1.2809   -0.0566 C   0  0  0  0  0  0  0  0  0  0  0  0
   -0.2639    1.5259   -0.2720 C   0  0  0  0  0  0  0  0  0  0  0  0
   -0.8124    2.8039   -0.3279 C   0  0  0  0  0  0  0  0  0  0  0  0
   -2.0931    3.0271    0.1753 C   0  0  0  0  0  0  0  0  0  0  0  0
   -2.8870    1.9749    0.6348 C   0  0  0  0  0  0  0  0  0  0  0  0
   -4.2555    1.9771    0.3233 O   0  0  0  0  0  0  0  0  0  0  0  0
   -2.3589    0.6810    0.6230 C   0  0  0  0  0  0  0  0  0  0  0  0
   -0.9848    0.6582    0.5548 C   0  0  0  0  0  0  0  0  0  0  0  0
   -0.5035   -0.6937    0.3996 C   0  0  2  0  0  0  0  0  0  0  0  0
    0.2185   -1.2521    1.5827 C   0  0  0  0  0  0  0  0  0  0  0  0
    1.5849   -1.6334    1.0550 C   0  0  0  0  0  0  0  0  0  0  0  0
    2.2488   -0.6867    0.4064 N   0  0  0  0  0  0  0  0  0  0  0  0
    3.3060    0.0826    0.8353 C   0  0  0  0  0  0  0  0  0  0  0  0
    4.6909   -0.3921    0.6490 C   0  0  0  0  0  0  0  0  0  0  0  0
    5.2752   -0.9121   -0.5845 C   0  0  0  0  0  0  0  0  0  0  0  0
    5.5592    0.5586   -0.2105 C   0  0  0  0  0  0  0  0  0  0  0  0
   -1.8764   -1.5777    0.3032 C   0  0  1  0  0  0  0  0  0  0  0  0
   -2.6863   -0.5473    1.1251 O   0  0  0  0  0  0  0  0  0  0  0  0
  1  2  2  0
  2  3  1  0
  3  4  1  0
  4  5  1  0
  5  6  1  6
  5  7  1  0
  7  8  1  1
  8  9  1  0
  9 10  2  0
 10 11  1  0
 11 12  2  0
 12 13  1  0
 12 14  1  0
 14 15  2  0
 15 16  1  0
 16 17  1  1
 17 18  1  0
 18 19  1  0
 19 20  1  0
 20 21  1  0
 21 22  1  0
 22 23  1  0
 16 24  1  0
 24 25  1  1
 24  2  1  0
 16  5  1  0
 23 21  1  0
 19  7  1  0
 15  9  1  0
 25 14  1  0
M  END
>  <supplier_code>  (554) 
DB00704

>  <zinc_id>  (554) 
ZINC000000001773

>  <catalog_short_name>  (554) 
dbfda

$$$$

     RDKit          3D

 32 35  0  0  0  0  0  0  0  0999 V2000
   -5.4586   -3.1904    0.3474 C   0  0  0  0  0  0  0  0  0  0  0  0
   -6.0442   -1.8319    0.6468 C   0  0  0  0  0  0  0  0  0  0  0  0
   -7.5471   -1.9393    0.4931 C   0  0  0  0  0  0  0  0  0  0  0  0
   -5.5336   -0.8385   -0.2679 N   0  0  0  0  0  0  0  0  0  0  0  0
   -5.6118    0.5549   -0.0238 C   0  0  0  0  0  0  0  0  0  0  0  0
   -6.8283    1.1267    0.3291 C   0  0  0  0  0  0  0  0  0  0  0  0
   -6.9173    2.4740    0.6256 C   0  0  0  0  0  0  0  0  0  0  0  0
   -5.7368    3.1863    0.7481 C   0  0  0  0  0  0  0  0  0  0  0  0
   -4.6524    2.6794    0.1407 N   0  0  0  0  0  0  0  0  0  0  0  0
   -4.6360    1.4541   -0.4373 C   0  0  0  0  0  0  0  0  0  0  0  0
   -3.4830    0.9584   -1.1295 N   0  0  0  0  0  0  0  0  0  0  0  0
   -2.9967   -0.3343   -0.6497 C   0  0  0  0  0  0  0  0  0  0  0  0
   -2.2500   -0.0202    0.6427 C   0  0  0  0  0  0  0  0  0  0  0  0
   -1.1408    0.8408    0.2340 N   0  0  0  0  0  0  0  0  0  0  0  0
   -0.1682    0.1787   -0.5878 C   0  0  0  0  0  0  0  0  0  0  0  0
   -0.5447   -0.0555   -1.7767 O   0  0  0  0  0  0  0  0  0  0  0  0
    1.1730   -0.1186   -0.1321 C   0  0  0  0  0  0  0  0  0  0  0  0
    2.1958    0.8129   -0.1405 C   0  0  0  0  0  0  0  0  0  0  0  0
    3.3821    0.1220   -0.0075 C   0  0  0  0  0  0  0  0  0  0  0  0
    4.6994    0.5050   -0.2194 C   0  0  0  0  0  0  0  0  0  0  0  0
    5.7235   -0.3892    0.0033 C   0  0  0  0  0  0  0  0  0  0  0  0
    7.0288    0.1157    0.3059 N   0  0  0  0  0  0  0  0  0  0  0  0
    8.4585   -0.8157    0.1146 S   0  0  0  0  0  0  0  0  0  0  0  0
    8.2312   -2.4968    0.6152 C   0  0  0  0  0  0  0  0  0  0  0  0
    8.9499   -0.7411   -1.3138 O   0  0  0  0  0  0  0  0  0  0  0  0
    9.5382   -0.2176    0.9651 O   0  0  0  0  0  0  0  0  0  0  0  0
    5.3719   -1.6486    0.4427 C   0  0  0  0  0  0  0  0  0  0  0  0
    4.0655   -2.0602    0.5039 C   0  0  0  0  0  0  0  0  0  0  0  0
    3.0322   -1.1688    0.3209 C   0  0  0  0  0  0  0  0  0  0  0  0
    1.6843   -1.2431    0.4108 N   0  0  0  0  0  0  0  0  0  0  0  0
   -1.5390    2.1638   -0.2438 C   0  0  0  0  0  0  0  0  0  0  0  0
   -2.4461    1.9369   -1.4483 C   0  0  0  0  0  0  0  0  0  0  0  0
  1  2  1  0
  2  3  1  0
  2  4  1  0
  4  5  1  0
  5  6  2  0
  6  7  1  0
  7  8  2  0
  8  9  1  0
  9 10  2  0
 10 11  1  0
 11 12  1  0
 12 13  1  0
 13 14  1  0
 14 15  1  0
 15 16  2  0
 15 17  1  0
 17 18  2  0
 18 19  1  0
 19 20  2  0
 20 21  1  0
 21 22  1  0
 22 23  1  0
 23 24  1  0
 23 25  2  0
 23 26  2  0
 21 27  2  0
 27 28  1  0
 28 29  2  0
 29 30  1  0
 14 31  1  0
 31 32  1  0
 10  5  1  0
 32 11  1  0
 30 17  1  0
 29 19  1  0
M  END
>  <supplier_code>  (555) 
DB00705

>  <zinc_id>  (555) 
ZINC000018516586

>  <catalog_short_name>  (555) 
dbfda

$$$$

     RDKit          3D

 28 29  0  0  0  0  0  0  0  0999 V2000
   -4.8553   -2.6504    1.4302 C   0  0  0  0  0  0  0  0  0  0  0  0
   -4.8139   -2.2774    1.5171 C   0  0  0  0  0  0  0  0  0  0  0  0
   -4.5942   -0.8704    1.6040 O   0  0  0  0  0  0  0  0  0  0  0  0
   -4.9619   -0.1009    0.4957 C   0  0  0  0  0  0  0  0  0  0  0  0
   -6.2831    0.2599    0.2731 C   0  0  0  0  0  0  0  0  0  0  0  0
   -6.5424    1.0263   -0.8574 C   0  0  0  0  0  0  0  0  0  0  0  0
   -5.6637    0.9100   -1.9128 C   0  0  0  0  0  0  0  0  0  0  0  0
   -4.3253    0.6592   -1.6927 C   0  0  0  0  0  0  0  0  0  0  0  0
   -3.9934    0.0611   -0.4849 C   0  0  0  0  0  0  0  0  0  0  0  0
   -2.7084   -0.4547   -0.2948 O   0  0  0  0  0  0  0  0  0  0  0  0
   -1.6155    0.3472   -0.7404 C   0  0  0  0  0  0  0  0  0  0  0  0
   -1.0330    0.9988    0.5009 C   0  0  0  0  0  0  0  0  0  0  0  0
    0.1506    0.2424    0.8500 N   0  0  0  0  0  0  0  0  0  0  0  0
   -0.3990   -1.2044    1.2596 C   0  0  2  0  0  0  0  0  0  0  0  0
    0.2573   -1.0764    2.7901 C   0  0  0  0  0  0  0  0  0  0  0  0
    0.9419   -2.0145    0.6900 C   0  0  0  0  0  0  0  0  0  0  0  0
    2.0705   -1.1163    0.6966 C   0  0  0  0  0  0  0  0  0  0  0  0
    2.6915   -0.5592    1.7893 C   0  0  0  0  0  0  0  0  0  0  0  0
    3.6982    0.3683    1.6640 C   0  0  0  0  0  0  0  0  0  0  0  0
    4.3745    0.4921    0.4771 C   0  0  0  0  0  0  0  0  0  0  0  0
    5.2113    1.5714    0.1780 O   0  0  0  0  0  0  0  0  0  0  0  0
    4.6718    2.8129   -0.2119 C   0  0  0  0  0  0  0  0  0  0  0  0
    3.9685   -0.3135   -0.5675 C   0  0  0  0  0  0  0  0  0  0  0  0
    5.0745   -0.5144   -1.9180 S   0  0  0  0  0  0  0  0  0  0  0  0
    4.1231   -0.6767   -3.3572 N   0  0  0  0  0  0  0  0  0  0  0  0
    6.0161    0.6507   -1.9978 O   0  0  0  0  0  0  0  0  0  0  0  0
    5.8008   -1.8122   -1.6706 O   0  0  0  0  0  0  0  0  0  0  0  0
    2.7383   -0.9256   -0.5099 C   0  0  0  0  0  0  0  0  0  0  0  0
  1  2  1  0
  2  3  1  0
  3  4  1  0
  4  5  2  0
  5  6  1  0
  6  7  2  0
  7  8  1  0
  8  9  2  0
  9 10  1  0
 10 11  1  0
 11 12  1  0
 12 13  1  0
 14 13  1  6
 14 15  1  0
 14 16  1  0
 16 17  1  0
 17 18  2  0
 18 19  1  0
 19 20  2  0
 20 21  1  0
 21 22  1  0
 20 23  1  0
 23 24  1  0
 24 25  1  0
 24 26  2  0
 24 27  2  0
 23 28  2  0
  9  4  1  0
 28 17  1  0
M  END
>  <supplier_code>  (556) 
DB00706

>  <zinc_id>  (556) 
ZINC000001530694

>  <catalog_short_name>  (556) 
dbfda

$$$$

     RDKit          3D

 27 29  0  0  0  0  0  0  0  0999 V2000
   -4.9447   -2.8236   -0.7879 C   0  0  0  0  0  0  0  0  0  0  0  0
   -4.4357   -1.4115   -0.8095 C   0  0  0  0  0  0  0  0  0  0  0  0
   -3.3497   -1.3093    0.1970 C   0  0  0  0  0  0  0  0  0  0  0  0
   -3.4135   -1.7761    1.3523 O   0  0  0  0  0  0  0  0  0  0  0  0
   -2.2515   -0.4292   -0.0752 N   0  0  0  0  0  0  0  0  0  0  0  0
   -2.4918    0.9618   -0.0971 C   0  0  0  0  0  0  0  0  0  0  0  0
   -3.7075    1.4792    0.3095 C   0  0  0  0  0  0  0  0  0  0  0  0
   -3.9919    2.8242    0.2897 C   0  0  0  0  0  0  0  0  0  0  0  0
   -2.9018    3.6852    0.2828 C   0  0  0  0  0  0  0  0  0  0  0  0
   -1.7083    3.2134   -0.2408 C   0  0  0  0  0  0  0  0  0  0  0  0
   -1.5830    1.8750   -0.5898 C   0  0  0  0  0  0  0  0  0  0  0  0
   -0.9519   -1.0385   -0.1320 C   0  0  0  0  0  0  0  0  0  0  0  0
   -1.1264   -2.3995   -0.7966 C   0  0  0  0  0  0  0  0  0  0  0  0
   -1.2387   -3.3861    0.1707 O   0  0  0  0  0  0  0  0  0  0  0  0
    0.0235   -3.9074    0.4210 C   0  0  0  0  0  0  0  0  0  0  0  0
    0.0338   -0.2753   -0.9818 C   0  0  0  0  0  0  0  0  0  0  0  0
    1.3948   -0.9039   -0.7618 C   0  0  0  0  0  0  0  0  0  0  0  0
    1.8602   -0.4591    0.5277 N   0  0  0  0  0  0  0  0  0  0  0  0
    2.3328    0.9127    0.3546 C   0  0  0  0  0  0  0  0  0  0  0  0
    3.1009    1.0478   -0.9346 C   0  0  0  0  0  0  0  0  0  0  0  0
    4.5538    1.1490   -0.6048 C   0  0  0  0  0  0  0  0  0  0  0  0
    5.4816    0.1225   -0.4719 C   0  0  0  0  0  0  0  0  0  0  0  0
    6.3879    0.3907    0.5149 C   0  0  0  0  0  0  0  0  0  0  0  0
    6.9103    1.6734    0.3930 C   0  0  0  0  0  0  0  0  0  0  0  0
    5.5393    2.5010   -0.2265 S   0  0  0  0  0  0  0  0  0  0  0  0
    0.8261   -0.4153    1.5302 C   0  0  0  0  0  0  0  0  0  0  0  0
   -0.3482   -1.3010    1.2200 C   0  0  0  0  0  0  0  0  0  0  0  0
  1  2  1  0
  2  3  1  0
  3  4  2  0
  3  5  1  0
  5  6  1  0
  6  7  2  0
  7  8  1  0
  8  9  2  0
  9 10  1  0
 10 11  2  0
  5 12  1  0
 12 13  1  0
 13 14  1  0
 14 15  1  0
 12 16  1  0
 16 17  1  0
 17 18  1  0
 18 19  1  0
 19 20  1  0
 20 21  1  0
 21 22  2  0
 22 23  1  0
 23 24  2  0
 24 25  1  0
 18 26  1  0
 26 27  1  0
 11  6  1  0
 27 12  1  0
 25 21  1  0
M  END
>  <supplier_code>  (557) 
DB00708

>  <zinc_id>  (557) 
ZINC000000538386

>  <catalog_short_name>  (557) 
dbfda

$$$$

     RDKit          3D

 15 16  0  0  0  0  0  0  0  0999 V2000
   -4.5668   -0.0489   -0.3184 N   0  0  0  0  0  0  0  0  0  0  0  0
   -3.4525    0.0387   -0.4192 C   0  0  0  0  0  0  0  0  0  0  0  0
   -2.7294    1.2254   -0.3957 C   0  0  0  0  0  0  0  0  0  0  0  0
   -1.3564    1.2028   -0.1612 C   0  0  0  0  0  0  0  0  0  0  0  0
   -0.6400    0.0478   -0.2302 N   0  0  0  0  0  0  0  0  0  0  0  0
    0.6683    0.3852   -1.1131 C   0  0  2  0  0  0  0  0  0  0  0  0
    1.1249   -1.2253   -1.3081 C   0  0  0  0  0  0  0  0  0  0  0  0
    2.8816   -0.8429   -1.4620 S   0  0  0  0  0  0  0  0  0  0  0  0
    2.7564    0.8877   -0.6019 C   0  0  2  0  0  0  0  0  0  0  0  0
    3.7650    0.4518    0.5833 C   0  0  0  0  0  0  0  0  0  0  0  0
    4.6646    1.5035    0.6018 O   0  0  0  0  0  0  0  0  0  0  0  0
    1.5457    0.4854    0.1585 O   0  0  0  0  0  0  0  0  0  0  0  0
   -1.3472   -0.9931   -0.7434 C   0  0  0  0  0  0  0  0  0  0  0  0
   -0.6405   -2.0490   -0.7449 O   0  0  0  0  0  0  0  0  0  0  0  0
   -2.6737   -1.0691   -0.4721 N   0  0  0  0  0  0  0  0  0  0  0  0
  1  2  1  0
  2  3  1  0
  3  4  2  0
  4  5  1  0
  6  5  1  1
  6  7  1  0
  7  8  1  0
  8  9  1  0
  9 10  1  1
 10 11  1  0
  9 12  1  0
  5 13  1  0
 13 14  2  0
 13 15  1  0
 15  2  2  0
 12  6  1  0
M  END
>  <supplier_code>  (558) 
DB00709

>  <zinc_id>  (558) 
ZINC000000012346

>  <catalog_short_name>  (558) 
dbfda

$$$$

     RDKit          3D

 19 18  0  0  0  0  0  0  0  0999 V2000
    6.3347    1.2187    0.1631 C   0  0  0  0  0  0  0  0  0  0  0  0
    5.2781    0.2823   -0.4050 C   0  0  0  0  0  0  0  0  0  0  0  0
    4.2941    1.0961   -1.2104 C   0  0  0  0  0  0  0  0  0  0  0  0
    3.0380    1.4181   -0.4506 C   0  0  0  0  0  0  0  0  0  0  0  0
    2.5227    0.2798    0.3788 C   0  0  0  0  0  0  0  0  0  0  0  0
    1.8236   -0.7247   -0.3776 N   0  0  0  0  0  0  0  0  0  0  0  0
    1.9941   -0.4373   -1.7775 C   0  0  0  0  0  0  0  0  0  0  0  0
    0.4473   -0.8922    0.0146 C   0  0  0  0  0  0  0  0  0  0  0  0
   -0.3659    0.1879   -0.6328 C   0  0  0  0  0  0  0  0  0  0  0  0
   -1.8396   -0.0811   -0.6587 C   0  0  0  0  0  0  0  0  0  0  0  0
   -2.2668    0.0208   -1.9924 O   0  0  0  0  0  0  0  0  0  0  0  0
   -2.7427    1.2092    0.2580 P   0  0  0  0  0  0  0  0  0  0  0  0
   -2.1362    1.3503    1.6256 O   0  0  0  0  0  0  0  0  0  0  0  0
   -4.3848    0.8633    0.2984 O   0  0  0  0  0  0  0  0  0  0  0  0
   -2.4920    2.6699   -0.5687 O   0  0  0  0  0  0  0  0  0  0  0  0
   -2.2798   -1.7308   -0.0985 P   0  0  0  0  0  0  0  0  0  0  0  0
   -3.7912   -1.8480   -0.1891 O   0  0  0  0  0  0  0  0  0  0  0  0
   -1.8329   -2.0327    1.4897 O   0  0  0  0  0  0  0  0  0  0  0  0
   -1.6007   -2.8495   -1.1517 O   0  0  0  0  0  0  0  0  0  0  0  0
  1  2  1  0
  2  3  1  0
  3  4  1  0
  4  5  1  0
  5  6  1  0
  6  7  1  0
  6  8  1  0
  8  9  1  0
  9 10  1  0
 10 11  1  0
 10 12  1  0
 12 13  2  0
 12 14  1  0
 12 15  1  0
 10 16  1  0
 16 17  2  0
 16 18  1  0
 16 19  1  0
M  END
>  <supplier_code>  (559) 
DB00710

>  <zinc_id>  (559) 
ZINC000001533877

>  <catalog_short_name>  (559) 
dbfda

$$$$

     RDKit          3D

 18 19  0  0  0  0  0  0  0  0999 V2000
    3.9226   -1.7937   -0.2625 C   0  0  0  0  0  0  0  0  0  0  0  0
    3.0551   -0.5282   -0.9153 C   0  0  2  0  0  0  0  0  0  0  0  0
    3.9182    0.5693   -0.0586 C   0  0  0  0  0  0  0  0  0  0  0  0
    3.4301    1.7378   -0.1825 O   0  0  0  0  0  0  0  0  0  0  0  0
    5.2448    0.5250   -0.5123 O   0  0  0  0  0  0  0  0  0  0  0  0
    1.9109   -0.6528    0.2516 C   0  0  0  0  0  0  0  0  0  0  0  0
    1.3714    0.5473    0.6319 C   0  0  0  0  0  0  0  0  0  0  0  0
    0.0400    0.8413    0.6861 C   0  0  0  0  0  0  0  0  0  0  0  0
   -0.8717   -0.1147    0.2582 C   0  0  0  0  0  0  0  0  0  0  0  0
   -2.2554    0.2796   -0.0065 C   0  0  0  0  0  0  0  0  0  0  0  0
   -2.7298    1.4287    0.6024 C   0  0  0  0  0  0  0  0  0  0  0  0
   -4.0434    1.8284    0.5233 C   0  0  0  0  0  0  0  0  0  0  0  0
   -4.8827    1.0173   -0.2226 C   0  0  0  0  0  0  0  0  0  0  0  0
   -4.3768   -0.0095   -0.9972 C   0  0  0  0  0  0  0  0  0  0  0  0
   -3.0174   -0.2768   -1.0221 C   0  0  0  0  0  0  0  0  0  0  0  0
   -0.3940   -1.3840   -0.0130 C   0  0  0  0  0  0  0  0  0  0  0  0
   -1.2949   -2.4030    0.0606 F   0  0  0  0  0  0  0  0  0  0  0  0
    0.9729   -1.6120   -0.1262 C   0  0  0  0  0  0  0  0  0  0  0  0
  2  1  1  1
  2  3  1  0
  3  4  2  0
  3  5  1  0
  2  6  1  0
  6  7  2  0
  7  8  1  0
  8  9  2  0
  9 10  1  0
 10 11  2  0
 11 12  1  0
 12 13  2  0
 13 14  1  0
 14 15  2  0
  9 16  1  0
 16 17  1  0
 16 18  2  0
 18  6  1  0
 15 10  1  0
M  END
>  <supplier_code>  (560) 
DB00712

>  <zinc_id>  (560) 
ZINC000000000323

>  <catalog_short_name>  (560) 
dbfda

$$$$

     RDKit          3D

 18 19  0  0  0  0  0  0  0  0999 V2000
    3.0644   -1.9798   -1.4044 C   0  0  0  0  0  0  0  0  0  0  0  0
    3.3652   -1.0801   -0.0250 C   0  0  1  0  0  0  0  0  0  0  0  0
    3.7382    0.3037   -0.8148 C   0  0  0  0  0  0  0  0  0  0  0  0
    4.4636    1.0394   -0.0844 O   0  0  0  0  0  0  0  0  0  0  0  0
    3.9372    0.2747   -2.1399 O   0  0  0  0  0  0  0  0  0  0  0  0
    1.7946   -0.6605    0.1134 C   0  0  0  0  0  0  0  0  0  0  0  0
    1.3300   -0.5667    1.3975 C   0  0  0  0  0  0  0  0  0  0  0  0
   -0.0341   -0.3034    1.4984 C   0  0  0  0  0  0  0  0  0  0  0  0
   -0.7802    0.0217    0.3705 C   0  0  0  0  0  0  0  0  0  0  0  0
   -2.2252    0.1496    0.3792 C   0  0  0  0  0  0  0  0  0  0  0  0
   -2.9886   -0.9743    0.1167 C   0  0  0  0  0  0  0  0  0  0  0  0
   -4.3513   -0.8716    0.1961 C   0  0  0  0  0  0  0  0  0  0  0  0
   -4.8925    0.4002    0.1313 C   0  0  0  0  0  0  0  0  0  0  0  0
   -4.1022    1.5389    0.0424 C   0  0  0  0  0  0  0  0  0  0  0  0
   -2.7450    1.3885    0.0946 C   0  0  0  0  0  0  0  0  0  0  0  0
   -0.1267    0.2692   -0.8315 C   0  0  0  0  0  0  0  0  0  0  0  0
   -0.6173    1.2591   -1.6347 F   0  0  0  0  0  0  0  0  0  0  0  0
    1.1698   -0.2086   -0.9945 C   0  0  0  0  0  0  0  0  0  0  0  0
  2  1  1  6
  2  3  1  0
  3  4  2  0
  3  5  1  0
  2  6  1  0
  6  7  2  0
  7  8  1  0
  8  9  2  0
  9 10  1  0
 10 11  2  0
 11 12  1  0
 12 13  2  0
 13 14  1  0
 14 15  2  0
  9 16  1  0
 16 17  1  0
 16 18  2  0
 18  6  1  0
 15 10  1  0
M  END
>  <supplier_code>  (561) 
DB00712

>  <zinc_id>  (561) 
ZINC000000008667

>  <catalog_short_name>  (561) 
dbfda

$$$$

     RDKit          3D

 28 31  0  0  0  0  0  0  0  0999 V2000
   -0.7662    3.8066   -0.9897 C   0  0  0  0  0  0  0  0  0  0  0  0
   -1.7951    2.8054   -0.9642 C   0  0  0  0  0  0  0  0  0  0  0  0
   -2.6789    2.7003   -1.9457 O   0  0  0  0  0  0  0  0  0  0  0  0
   -3.5102    1.7613   -1.5954 N   0  0  0  0  0  0  0  0  0  0  0  0
   -2.9920    1.0079   -0.6142 C   0  0  0  0  0  0  0  0  0  0  0  0
   -3.6590    0.1378    0.3599 C   0  0  0  0  0  0  0  0  0  0  0  0
   -4.9186    0.5817    0.7541 C   0  0  0  0  0  0  0  0  0  0  0  0
   -5.9103   -0.2463    1.1986 C   0  0  0  0  0  0  0  0  0  0  0  0
   -5.6879   -1.5868    1.2849 C   0  0  0  0  0  0  0  0  0  0  0  0
   -4.4983   -2.0957    0.7955 C   0  0  0  0  0  0  0  0  0  0  0  0
   -3.5189   -1.2438    0.3077 C   0  0  0  0  0  0  0  0  0  0  0  0
   -1.7488    1.5538   -0.3464 C   0  0  0  0  0  0  0  0  0  0  0  0
   -0.5520    0.8472    0.0847 C   0  0  0  0  0  0  0  0  0  0  0  0
    0.4310    1.6008    0.3794 O   0  0  0  0  0  0  0  0  0  0  0  0
   -0.1261   -0.4516   -0.2798 N   0  0  0  0  0  0  0  0  0  0  0  0
    0.9274   -0.4738   -1.4985 C   0  0  2  0  0  0  0  0  0  0  0  0
    1.5804   -1.9110   -1.1002 C   0  0  0  0  0  0  0  0  0  0  0  0
    1.0976   -3.0281   -1.2154 O   0  0  0  0  0  0  0  0  0  0  0  0
    2.8160   -1.1568   -1.2088 N   0  0  0  0  0  0  0  0  0  0  0  0
    2.2379    0.1060   -0.5764 C   0  0  2  0  0  0  0  0  0  0  0  0
    2.0915   -0.9761    1.0052 S   0  0  0  0  0  0  0  0  0  0  0  0
    3.7859   -1.3822    0.9828 C   0  0  0  0  0  0  0  0  0  0  0  0
    4.1108   -2.8684    1.1020 C   0  0  0  0  0  0  0  0  0  0  0  0
    4.7215   -0.6178    1.8257 C   0  0  0  0  0  0  0  0  0  0  0  0
    4.2961   -1.1660   -0.5998 C   0  0  2  0  0  0  0  0  0  0  0  0
    4.4319    0.4794   -0.4793 C   0  0  0  0  0  0  0  0  0  0  0  0
    5.6114    0.7522   -0.0844 O   0  0  0  0  0  0  0  0  0  0  0  0
    4.2227    1.0638   -1.7446 O   0  0  0  0  0  0  0  0  0  0  0  0
  1  2  1  0
  2  3  1  0
  3  4  1  0
  4  5  2  0
  5  6  1  0
  6  7  2  0
  7  8  1  0
  8  9  2  0
  9 10  1  0
 10 11  2  0
  5 12  1  0
 12 13  1  0
 13 14  2  0
 13 15  1  0
 16 15  1  1
 16 17  1  0
 17 18  2  0
 17 19  1  0
 19 20  1  0
 20 21  1  1
 21 22  1  0
 22 23  1  0
 22 24  1  0
 22 25  1  0
 25 26  1  1
 26 27  2  0
 26 28  1  0
 12  2  2  0
 20 16  1  0
 11  6  1  0
 25 19  1  0
M  END
>  <supplier_code>  (562) 
DB00713

>  <zinc_id>  (562) 
ZINC000003875439

>  <catalog_short_name>  (562) 
dbfda

$$$$

     RDKit          3D

 20 23  0  0  0  0  0  0  0  0999 V2000
   -1.8613   -1.8730    1.0816 C   0  0  0  0  0  0  0  0  0  0  0  0
   -2.4381   -1.8131   -0.0188 N   0  0  0  0  0  0  0  0  0  0  0  0
   -3.6945   -1.1621   -0.1324 C   0  0  0  0  0  0  0  0  0  0  0  0
   -3.6840    0.2894    0.1985 C   0  0  0  0  0  0  0  0  0  0  0  0
   -2.3340    0.8687    0.3524 C   0  0  0  0  0  0  0  0  0  0  0  0
   -2.3173    2.2567    0.4526 C   0  0  0  0  0  0  0  0  0  0  0  0
   -1.1807    2.9618    0.1793 C   0  0  0  0  0  0  0  0  0  0  0  0
   -0.0055    2.2689    0.0062 C   0  0  0  0  0  0  0  0  0  0  0  0
   -0.0706    0.9146   -0.1614 C   0  0  0  0  0  0  0  0  0  0  0  0
   -1.1628    0.1270    0.2047 C   0  0  0  0  0  0  0  0  0  0  0  0
   -1.4331   -0.9997   -0.9578 C   0  0  1  0  0  0  0  0  0  0  0  0
   -0.1943   -2.0076   -0.5126 C   0  0  0  0  0  0  0  0  0  0  0  0
    0.9253   -1.2243   -0.0799 C   0  0  0  0  0  0  0  0  0  0  0  0
    1.9084   -1.9714    0.5613 C   0  0  0  0  0  0  0  0  0  0  0  0
    3.2036   -1.4893    0.6506 C   0  0  0  0  0  0  0  0  0  0  0  0
    3.5036   -0.1683    0.3668 C   0  0  0  0  0  0  0  0  0  0  0  0
    4.7507    0.2590   -0.0445 O   0  0  0  0  0  0  0  0  0  0  0  0
    2.3929    0.6405    0.1521 C   0  0  0  0  0  0  0  0  0  0  0  0
    2.5258    2.0093   -0.0369 O   0  0  0  0  0  0  0  0  0  0  0  0
    1.1658    0.1129   -0.2433 C   0  0  0  0  0  0  0  0  0  0  0  0
  1  2  1  0
  2  3  1  0
  3  4  1  0
  4  5  1  0
  5  6  2  0
  6  7  1  0
  7  8  2  0
  8  9  1  0
  9 10  2  0
 10 11  1  0
 11 12  1  1
 12 13  1  0
 13 14  2  0
 14 15  1  0
 15 16  2  0
 16 17  1  0
 16 18  1  0
 18 19  1  0
 18 20  2  0
 11  2  1  0
 20 13  1  0
 10  5  1  0
 20  9  1  0
M  END
>  <supplier_code>  (563) 
DB00714

>  <zinc_id>  (563) 
ZINC000000009073

>  <catalog_short_name>  (563) 
dbfda

$$$$

     RDKit          3D

 24 27  0  0  0  0  0  0  0  0999 V2000
   -5.2190    3.2939    0.0105 F   0  0  0  0  0  0  0  0  0  0  0  0
   -4.4769    2.4715    0.1223 C   0  0  0  0  0  0  0  0  0  0  0  0
   -3.4874    2.3855    1.0952 C   0  0  0  0  0  0  0  0  0  0  0  0
   -2.6104    1.3068    1.1285 C   0  0  0  0  0  0  0  0  0  0  0  0
   -2.6071    0.3381    0.1254 C   0  0  0  0  0  0  0  0  0  0  0  0
   -1.1041   -0.1162   -0.1751 C   0  0  2  0  0  0  0  0  0  0  0  0
   -1.2236   -0.1523   -1.8004 C   0  0  0  0  0  0  0  0  0  0  0  0
   -2.0813   -1.2776   -2.2200 C   0  0  0  0  0  0  0  0  0  0  0  0
   -1.2740   -2.4967   -2.2018 N   0  0  0  0  0  0  0  0  0  0  0  0
   -0.3839   -2.2633   -1.0652 C   0  0  0  0  0  0  0  0  0  0  0  0
   -1.4609   -1.7704    0.0445 C   0  0  1  0  0  0  0  0  0  0  0  0
   -0.3910   -1.9736    1.2497 C   0  0  0  0  0  0  0  0  0  0  0  0
    0.6636   -1.1562    1.0917 O   0  0  0  0  0  0  0  0  0  0  0  0
    2.0040   -1.2632    0.9541 C   0  0  0  0  0  0  0  0  0  0  0  0
    2.6806   -1.9440   -0.0525 C   0  0  0  0  0  0  0  0  0  0  0  0
    3.5528   -1.2967   -0.9220 C   0  0  0  0  0  0  0  0  0  0  0  0
    4.1825   -0.1467   -0.4613 C   0  0  0  0  0  0  0  0  0  0  0  0
    3.8525    0.3166    0.8065 C   0  0  0  0  0  0  0  0  0  0  0  0
    2.7654   -0.2232    1.4858 C   0  0  0  0  0  0  0  0  0  0  0  0
    4.7682    1.3347    1.0859 O   0  0  0  0  0  0  0  0  0  0  0  0
    5.1640    1.8999   -0.1554 C   0  0  0  0  0  0  0  0  0  0  0  0
    4.8107    0.9003   -1.1051 O   0  0  0  0  0  0  0  0  0  0  0  0
   -3.5132    0.5002   -0.8448 C   0  0  0  0  0  0  0  0  0  0  0  0
   -4.6114    1.3326   -0.6625 C   0  0  0  0  0  0  0  0  0  0  0  0
  1  2  1  0
  2  3  2  0
  3  4  1  0
  4  5  2  0
  6  5  1  1
  6  7  1  0
  7  8  1  0
  8  9  1  0
  9 10  1  0
 10 11  1  0
 11 12  1  1
 12 13  1  0
 13 14  1  0
 14 15  2  0
 15 16  1  0
 16 17  2  0
 17 18  1  0
 18 19  2  0
 18 20  1  0
 20 21  1  0
 21 22  1  0
  5 23  1  0
 23 24  2  0
 24  2  1  0
 11  6  1  0
 19 14  1  0
 22 17  1  0
M  END
>  <supplier_code>  (564) 
DB00715

>  <zinc_id>  (564) 
ZINC000000527386

>  <catalog_short_name>  (564) 
dbfda

$$$$

     RDKit          3D

 27 29  0  0  0  0  0  0  0  0999 V2000
    1.4104    1.2344    3.8694 C   0  0  0  0  0  0  0  0  0  0  0  0
    0.0746    0.9002    3.2303 C   0  0  0  0  0  0  0  0  0  0  0  0
    0.0879    1.3377    1.7804 C   0  0  0  0  0  0  0  0  0  0  0  0
    0.1031    0.1703    0.8813 C   0  0  0  0  0  0  0  0  0  0  0  0
    1.3361   -0.3536    0.5129 C   0  0  0  0  0  0  0  0  0  0  0  0
    2.4158    0.4040    0.4724 O   0  0  0  0  0  0  0  0  0  0  0  0
    3.4363    0.1451   -0.3228 C   0  0  0  0  0  0  0  0  0  0  0  0
    4.5525    1.0910   -0.4401 C   0  0  0  0  0  0  0  0  0  0  0  0
    4.3375    2.3306   -0.3078 O   0  0  0  0  0  0  0  0  0  0  0  0
    5.8308    0.6424   -0.1017 O   0  0  0  0  0  0  0  0  0  0  0  0
    3.5691   -1.1312   -0.8563 C   0  0  0  0  0  0  0  0  0  0  0  0
    2.5366   -2.0284   -0.6114 C   0  0  0  0  0  0  0  0  0  0  0  0
    2.5846   -3.1412   -1.2031 O   0  0  0  0  0  0  0  0  0  0  0  0
    1.3331   -1.6254   -0.0456 C   0  0  0  0  0  0  0  0  0  0  0  0
    0.1380   -2.1275   -0.5448 C   0  0  0  0  0  0  0  0  0  0  0  0
   -1.0771   -1.4939   -0.3202 C   0  0  0  0  0  0  0  0  0  0  0  0
   -2.1022   -1.7177   -1.2301 C   0  0  0  0  0  0  0  0  0  0  0  0
   -1.9974   -2.7108   -2.0098 O   0  0  0  0  0  0  0  0  0  0  0  0
   -3.0085   -0.7338   -1.5839 C   0  0  0  0  0  0  0  0  0  0  0  0
   -3.0097    0.4312   -0.8250 C   0  0  0  0  0  0  0  0  0  0  0  0
   -4.2035    1.2722   -0.9782 C   0  0  0  0  0  0  0  0  0  0  0  0
   -4.2134    2.1633   -1.8784 O   0  0  0  0  0  0  0  0  0  0  0  0
   -5.3894    0.7180   -0.4857 O   0  0  0  0  0  0  0  0  0  0  0  0
   -2.1787    0.5470    0.2379 N   0  0  0  0  0  0  0  0  0  0  0  0
   -2.0998    1.8767    0.8352 C   0  0  0  0  0  0  0  0  0  0  0  0
   -3.3844    2.0461    1.6390 C   0  0  0  0  0  0  0  0  0  0  0  0
   -1.0823   -0.2465    0.2863 C   0  0  0  0  0  0  0  0  0  0  0  0
  1  2  1  0
  2  3  1  0
  3  4  1  0
  4  5  2  0
  5  6  1  0
  6  7  1  0
  7  8  1  0
  8  9  2  0
  8 10  1  0
  7 11  2  0
 11 12  1  0
 12 13  2  0
 12 14  1  0
 14 15  2  0
 15 16  1  0
 16 17  1  0
 17 18  2  0
 17 19  1  0
 19 20  2  0
 20 21  1  0
 21 22  2  0
 21 23  1  0
 20 24  1  0
 24 25  1  0
 25 26  1  0
 24 27  1  0
 27  4  1  0
 14  5  1  0
 27 16  2  0
M  END
>  <supplier_code>  (565) 
DB00716

>  <zinc_id>  (565) 
ZINC000003782807

>  <catalog_short_name>  (565) 
dbfda

$$$$

     RDKit          3D

 22 25  0  0  0  0  0  0  0  0999 V2000
   -3.5546    2.8356    0.2027 C   0  0  0  0  0  0  0  0  0  0  0  0
   -3.4487    1.8397   -0.0435 C   0  0  0  0  0  0  0  0  0  0  0  0
   -3.3997    0.3853   -0.2684 C   0  0  2  0  0  0  0  0  0  0  0  0
   -4.4457   -0.0337   -1.1052 O   0  0  0  0  0  0  0  0  0  0  0  0
   -3.5970   -0.3816    1.0371 C   0  0  0  0  0  0  0  0  0  0  0  0
   -2.3067   -1.1664    1.2577 C   0  0  0  0  0  0  0  0  0  0  0  0
   -1.3271    0.0160    0.6750 C   0  0  1  0  0  0  0  0  0  0  0  0
   -0.1226   -1.0994    0.1982 C   0  0  2  0  0  0  0  0  0  0  0  0
    0.6374   -0.9718    1.6231 C   0  0  0  0  0  0  0  0  0  0  0  0
    1.9733   -1.6914    1.4575 C   0  0  0  0  0  0  0  0  0  0  0  0
    2.7205   -0.8929    0.4592 C   0  0  0  0  0  0  0  0  0  0  0  0
    3.9955   -0.6270    0.4812 C   0  0  0  0  0  0  0  0  0  0  0  0
    4.2717    0.7807    0.1144 C   0  0  0  0  0  0  0  0  0  0  0  0
    5.4371    1.1491   -0.2254 O   0  0  0  0  0  0  0  0  0  0  0  0
    3.0907    1.2781   -0.6754 C   0  0  0  0  0  0  0  0  0  0  0  0
    2.8817    0.2112   -1.6970 C   0  0  0  0  0  0  0  0  0  0  0  0
    1.9853   -0.9775   -0.9805 C   0  0  2  0  0  0  0  0  0  0  0  0
    0.7948    0.1502   -0.4777 C   0  0  1  0  0  0  0  0  0  0  0  0
    0.0165    0.0637   -1.8933 C   0  0  0  0  0  0  0  0  0  0  0  0
   -1.3266    0.7630   -1.6847 C   0  0  0  0  0  0  0  0  0  0  0  0
   -2.0918   -0.0933   -0.7727 C   0  0  2  0  0  0  0  0  0  0  0  0
   -2.1841   -1.5377   -1.1101 C   0  0  0  0  0  0  0  0  0  0  0  0
  1  2  3  0
  3  2  1  1
  3  4  1  0
  3  5  1  0
  5  6  1  0
  7  6  1  1
  7  8  1  0
  8  9  1  1
  9 10  1  0
 10 11  1  0
 11 12  2  0
 12 13  1  0
 13 14  2  0
 13 15  1  0
 15 16  1  0
 17 16  1  6
 17 18  1  0
 18 19  1  6
 19 20  1  0
 20 21  1  0
 21 22  1  6
 21  3  1  0
 21  7  1  0
 18  8  1  0
 17 11  1  0
M  END
>  <supplier_code>  (566) 
DB00717

>  <zinc_id>  (566) 
ZINC000085205451

>  <catalog_short_name>  (566) 
dbfda

$$$$

     RDKit          3D

 34 35  0  0  0  0  0  0  0  0999 V2000
   -0.7844    6.2843   -0.3254 C   0  0  0  0  0  0  0  0  0  0  0  0
   -1.6699    5.4856    0.6203 C   0  0  0  0  0  0  0  0  0  0  0  0
   -0.9865    5.2385    1.9518 C   0  0  0  0  0  0  0  0  0  0  0  0
   -2.9869    6.1980    0.7780 C   0  0  0  0  0  0  0  0  0  0  0  0
   -1.8319    4.1365   -0.0095 C   0  0  0  0  0  0  0  0  0  0  0  0
   -0.7468    3.5944   -0.3822 O   0  0  0  0  0  0  0  0  0  0  0  0
   -2.8009    3.2423    0.4585 O   0  0  0  0  0  0  0  0  0  0  0  0
   -2.6223    1.8308    0.3613 C   0  0  0  0  0  0  0  0  0  0  0  0
   -1.2902    1.5732    0.0551 O   0  0  0  0  0  0  0  0  0  0  0  0
   -1.1054    0.4899   -1.2139 P   0  0  0  0  0  0  0  0  0  0  0  0
   -1.4775    1.0857   -2.5511 O   0  0  0  0  0  0  0  0  0  0  0  0
    0.6512    0.0003   -1.2372 C   0  0  0  0  0  0  0  0  0  0  0  0
    0.7476   -1.0752   -0.3401 O   0  0  0  0  0  0  0  0  0  0  0  0
    0.8562   -0.5755    0.9632 C   0  0  0  0  0  0  0  0  0  0  0  0
    2.2293   -0.0313    1.2405 C   0  0  0  0  0  0  0  0  0  0  0  0
    3.2078   -1.0982    1.0575 N   0  0  0  0  0  0  0  0  0  0  0  0
    2.9962   -2.3541    0.5960 C   0  0  0  0  0  0  0  0  0  0  0  0
    4.0672   -2.7336   -0.1436 N   0  0  0  0  0  0  0  0  0  0  0  0
    5.0313   -1.8018   -0.0214 C   0  0  0  0  0  0  0  0  0  0  0  0
    4.5459   -0.9228    0.9343 C   0  0  0  0  0  0  0  0  0  0  0  0
    5.3762    0.0275    1.3803 N   0  0  0  0  0  0  0  0  0  0  0  0
    6.7151   -0.1603    1.2881 C   0  0  0  0  0  0  0  0  0  0  0  0
    7.1414   -0.8729    0.2230 N   0  0  0  0  0  0  0  0  0  0  0  0
    6.3608   -1.7697   -0.4124 C   0  0  0  0  0  0  0  0  0  0  0  0
    6.6180   -2.2037   -1.7513 N   0  0  0  0  0  0  0  0  0  0  0  0
   -2.0863   -0.8859   -1.0137 O   0  0  0  0  0  0  0  0  0  0  0  0
   -2.4546   -0.9791    0.3317 C   0  0  0  0  0  0  0  0  0  0  0  0
   -3.7659   -1.4868    0.3843 O   0  0  0  0  0  0  0  0  0  0  0  0
   -4.0504   -2.7164   -0.1759 C   0  0  0  0  0  0  0  0  0  0  0  0
   -3.0736   -3.4992   -0.3784 O   0  0  0  0  0  0  0  0  0  0  0  0
   -5.3845   -3.3385    0.0804 C   0  0  0  0  0  0  0  0  0  0  0  0
   -6.2363   -2.4373    0.9653 C   0  0  0  0  0  0  0  0  0  0  0  0
   -5.1509   -4.6575    0.7779 C   0  0  0  0  0  0  0  0  0  0  0  0
   -6.0391   -3.5872   -1.2563 C   0  0  0  0  0  0  0  0  0  0  0  0
  1  2  1  0
  2  3  1  0
  2  4  1  0
  2  5  1  0
  5  6  2  0
  5  7  1  0
  7  8  1  0
  8  9  1  0
  9 10  1  0
 10 11  2  0
 10 12  1  0
 12 13  1  0
 13 14  1  0
 14 15  1  0
 15 16  1  0
 16 17  1  0
 17 18  2  0
 18 19  1  0
 19 20  2  0
 20 21  1  0
 21 22  2  0
 22 23  1  0
 23 24  2  0
 24 25  1  0
 10 26  1  0
 26 27  1  0
 27 28  1  0
 28 29  1  0
 29 30  2  0
 29 31  1  0
 31 32  1  0
 31 33  1  0
 31 34  1  0
 20 16  1  0
 24 19  1  0
M  END
>  <supplier_code>  (567) 
DB00718

>  <zinc_id>  (567) 
ZINC000003930376

>  <catalog_short_name>  (567) 
dbfda

$$$$

     RDKit          3D

 29 30  0  0  0  0  0  0  0  0999 V2000
   -0.9766    5.0458   -1.1116 N   0  0  0  0  0  0  0  0  0  0  0  0
   -1.6402    4.6946    0.0807 C   0  0  0  0  0  0  0  0  0  0  0  0
   -2.4789    3.4594   -0.0200 C   0  0  0  0  0  0  0  0  0  0  0  0
   -2.2024    2.6079   -1.2099 C   0  0  0  0  0  0  0  0  0  0  0  0
   -0.8535    1.9792   -1.2558 C   0  0  0  0  0  0  0  0  0  0  0  0
   -0.7926    0.9599    0.0740 C   0  0  2  0  0  0  0  0  0  0  0  0
   -0.0641   -0.2075   -0.7566 N   0  0  0  0  0  0  0  0  0  0  0  0
    1.1664    0.6610   -1.3078 C   0  0  1  0  0  0  0  0  0  0  0  0
    2.2664   -0.2605   -0.4432 C   0  0  0  0  0  0  0  0  0  0  0  0
    3.4407    0.7126   -0.5050 C   0  0  0  0  0  0  0  0  0  0  0  0
    4.4540    0.2730    0.5052 C   0  0  0  0  0  0  0  0  0  0  0  0
    4.1009    0.4455    1.8286 C   0  0  0  0  0  0  0  0  0  0  0  0
    4.8167   -0.1847    2.8230 C   0  0  0  0  0  0  0  0  0  0  0  0
    5.5057   -1.3349    2.5119 C   0  0  0  0  0  0  0  0  0  0  0  0
    5.7872   -1.6361    1.1895 C   0  0  0  0  0  0  0  0  0  0  0  0
    5.1492   -0.8915    0.2097 C   0  0  0  0  0  0  0  0  0  0  0  0
    1.3109   -0.3014   -2.6343 C   0  0  0  0  0  0  0  0  0  0  0  0
    0.5466    0.2428   -3.4918 O   0  0  0  0  0  0  0  0  0  0  0  0
    2.6289   -0.4580   -3.0525 O   0  0  0  0  0  0  0  0  0  0  0  0
   -2.2807    0.3283   -0.2233 C   0  0  0  0  0  0  0  0  0  0  0  0
   -2.4992    0.0464   -1.4114 O   0  0  0  0  0  0  0  0  0  0  0  0
   -2.4546   -0.7448    0.7254 N   0  0  0  0  0  0  0  0  0  0  0  0
   -1.8853   -2.0382    0.4751 C   0  0  0  0  0  0  0  0  0  0  0  0
   -2.9009   -2.8704   -0.2382 C   0  0  0  0  0  0  0  0  0  0  0  0
   -4.0552   -1.9636   -0.4751 C   0  0  0  0  0  0  0  0  0  0  0  0
   -4.0165   -1.0518    0.9299 C   0  0  1  0  0  0  0  0  0  0  0  0
   -3.7267   -2.3605    1.8883 C   0  0  0  0  0  0  0  0  0  0  0  0
   -4.5897   -3.2711    1.6902 O   0  0  0  0  0  0  0  0  0  0  0  0
   -3.7564   -1.8813    3.2049 O   0  0  0  0  0  0  0  0  0  0  0  0
  1  2  1  0
  2  3  1  0
  3  4  1  0
  4  5  1  0
  6  5  1  6
  6  7  1  0
  8  7  1  1
  8  9  1  0
  9 10  1  0
 10 11  1  0
 11 12  2  0
 12 13  1  0
 13 14  2  0
 14 15  1  0
 15 16  2  0
  8 17  1  0
 17 18  2  0
 17 19  1  0
  6 20  1  0
 20 21  2  0
 20 22  1  0
 22 23  1  0
 23 24  1  0
 24 25  1  0
 25 26  1  0
 26 27  1  1
 27 28  2  0
 27 29  1  0
 16 11  1  0
 26 22  1  0
M  END
>  <supplier_code>  (568) 
DB00722

>  <zinc_id>  (568) 
ZINC000003812863

>  <catalog_short_name>  (568) 
dbfda

$$$$

     RDKit          3D

 18 20  0  0  0  0  0  0  0  0999 V2000
    4.3183    0.7821   -0.9013 C   0  0  0  0  0  0  0  0  0  0  0  0
    3.3403    1.3750    0.0640 C   0  0  0  0  0  0  0  0  0  0  0  0
    3.5472    0.7520    1.4127 C   0  0  0  0  0  0  0  0  0  0  0  0
    1.9222    1.3734   -0.4039 C   0  0  0  0  0  0  0  0  0  0  0  0
    1.3578    0.0713   -0.6044 N   0  0  0  0  0  0  0  0  0  0  0  0
    1.9139   -1.1017   -0.9397 C   0  0  0  0  0  0  0  0  0  0  0  0
    1.1093   -2.1035   -0.5080 N   0  0  0  0  0  0  0  0  0  0  0  0
   -0.0524   -1.5840   -0.1103 C   0  0  0  0  0  0  0  0  0  0  0  0
    0.0545   -0.2238   -0.3729 C   0  0  0  0  0  0  0  0  0  0  0  0
   -1.0683    0.5284   -0.0549 C   0  0  0  0  0  0  0  0  0  0  0  0
   -0.9957    1.8822   -0.2460 C   0  0  0  0  0  0  0  0  0  0  0  0
   -2.1872    2.5818   -0.3562 C   0  0  0  0  0  0  0  0  0  0  0  0
   -3.3578    1.9457   -0.0362 C   0  0  0  0  0  0  0  0  0  0  0  0
   -3.4288    0.5632    0.0290 C   0  0  0  0  0  0  0  0  0  0  0  0
   -2.2612   -0.1531    0.1551 C   0  0  0  0  0  0  0  0  0  0  0  0
   -2.2431   -1.4098    0.6596 N   0  0  0  0  0  0  0  0  0  0  0  0
   -1.0957   -2.1060    0.6441 C   0  0  0  0  0  0  0  0  0  0  0  0
   -0.8734   -3.1732    1.5694 N   0  0  0  0  0  0  0  0  0  0  0  0
  1  2  1  0
  2  3  1  0
  2  4  1  0
  4  5  1  0
  5  6  1  0
  6  7  2  0
  7  8  1  0
  8  9  2  0
  9 10  1  0
 10 11  2  0
 11 12  1  0
 12 13  2  0
 13 14  1  0
 14 15  2  0
 15 16  1  0
 16 17  2  0
 17 18  1  0
  9  5  1  0
 15 10  1  0
 17  8  1  0
M  END
>  <supplier_code>  (569) 
DB00724

>  <zinc_id>  (569) 
ZINC000019632912

>  <catalog_short_name>  (569) 
dbfda

$$$$

     RDKit          3D

 21 23  0  0  0  0  0  0  0  0999 V2000
   -4.7606   -0.6140   -0.0278 C   0  0  0  0  0  0  0  0  0  0  0  0
   -3.7173   -0.3321   -0.0885 N   0  0  0  0  0  0  0  0  0  0  0  0
   -3.0416    0.0981   -1.1622 C   0  0  0  0  0  0  0  0  0  0  0  0
   -3.6535    0.9339    0.8499 C   0  0  1  0  0  0  0  0  0  0  0  0
   -4.2736    0.1075    2.1466 C   0  0  0  0  0  0  0  0  0  0  0  0
   -4.2285   -1.4153    1.7264 C   0  0  0  0  0  0  0  0  0  0  0  0
   -2.9169   -0.6346    1.2421 C   0  0  1  0  0  0  0  0  0  0  0  0
   -1.9120   -1.7035    0.5792 C   0  0  0  0  0  0  0  0  0  0  0  0
   -1.2634   -0.2979    0.6812 C   0  0  0  0  0  0  0  0  0  0  0  0
   -0.3040   -0.0626   -0.2447 O   0  0  0  0  0  0  0  0  0  0  0  0
    1.0201    0.1224    0.0974 C   0  0  0  0  0  0  0  0  0  0  0  0
    1.2266    0.9441    1.0308 O   0  0  0  0  0  0  0  0  0  0  0  0
    1.6331    0.5953   -1.3344 C   0  0  2  0  0  0  0  0  0  0  0  0
    1.6526   -0.8390   -1.8530 O   0  0  0  0  0  0  0  0  0  0  0  0
    3.1463    0.5086   -0.7795 C   0  0  0  0  0  0  0  0  0  0  0  0
    3.9233    1.2552   -1.6285 C   0  0  0  0  0  0  0  0  0  0  0  0
    5.2752    0.9568   -1.5987 C   0  0  0  0  0  0  0  0  0  0  0  0
    5.7363   -0.1145   -0.8418 C   0  0  0  0  0  0  0  0  0  0  0  0
    4.9248   -0.6117    0.1734 C   0  0  0  0  0  0  0  0  0  0  0  0
    3.5607   -0.5911   -0.1170 C   0  0  0  0  0  0  0  0  0  0  0  0
   -2.0276    0.8819    1.1490 C   0  0  0  0  0  0  0  0  0  0  0  0
  1  2  1  0
  2  3  1  0
  2  4  1  0
  4  5  1  1
  5  6  1  0
  7  6  1  1
  7  8  1  0
  8  9  1  0
  9 10  1  0
 10 11  1  0
 11 12  2  0
 13 11  1  1
 13 14  1  0
 13 15  1  0
 15 16  2  0
 16 17  1  0
 17 18  2  0
 18 19  1  0
 19 20  2  0
  9 21  1  0
  7  2  1  0
 20 15  1  0
 21  4  1  0
M  CHG  1   2   1
M  END
>  <supplier_code>  (570) 
DB00725

>  <zinc_id>  (570) 
ZINC000100035385

>  <catalog_short_name>  (570) 
dbfda

$$$$

     RDKit          3D

 21 23  0  0  0  0  0  0  0  0999 V2000
   -2.9115    1.7981   -0.6139 C   0  0  0  0  0  0  0  0  0  0  0  0
   -3.4100    0.9045   -0.3563 N   0  0  0  0  0  0  0  0  0  0  0  0
   -4.6930    1.0384   -0.0193 C   0  0  0  0  0  0  0  0  0  0  0  0
   -3.2798    0.3177    1.1299 C   0  0  1  0  0  0  0  0  0  0  0  0
   -3.7791   -1.2263    0.7208 C   0  0  0  0  0  0  0  0  0  0  0  0
   -3.6782   -1.3205   -0.8466 C   0  0  0  0  0  0  0  0  0  0  0  0
   -2.5302   -0.3934   -0.2177 C   0  0  1  0  0  0  0  0  0  0  0  0
   -1.5374    0.0756   -1.4238 C   0  0  0  0  0  0  0  0  0  0  0  0
   -0.9545    0.6309   -0.0861 C   0  0  0  0  0  0  0  0  0  0  0  0
    0.3456    0.2302    0.1061 O   0  0  0  0  0  0  0  0  0  0  0  0
    0.6689   -1.0808    0.3063 C   0  0  0  0  0  0  0  0  0  0  0  0
   -0.0953   -1.9852    0.5962 O   0  0  0  0  0  0  0  0  0  0  0  0
    2.1043   -1.3225    1.0506 C   0  0  1  0  0  0  0  0  0  0  0  0
    2.4410   -2.4439    0.0626 O   0  0  0  0  0  0  0  0  0  0  0  0
    2.8842   -0.2083    0.1364 C   0  0  0  0  0  0  0  0  0  0  0  0
    4.1780   -0.5061   -0.1196 C   0  0  0  0  0  0  0  0  0  0  0  0
    5.0088    0.4489   -0.6299 C   0  0  0  0  0  0  0  0  0  0  0  0
    4.7153    1.7584   -0.3450 C   0  0  0  0  0  0  0  0  0  0  0  0
    3.5352    2.0867    0.3052 C   0  0  0  0  0  0  0  0  0  0  0  0
    2.6283    1.1020    0.5626 C   0  0  0  0  0  0  0  0  0  0  0  0
   -1.6407    0.0954    1.1668 C   0  0  0  0  0  0  0  0  0  0  0  0
  1  2  1  0
  2  3  1  0
  2  4  1  0
  4  5  1  6
  5  6  1  0
  7  6  1  6
  7  8  1  0
  8  9  1  0
  9 10  1  0
 10 11  1  0
 11 12  2  0
 13 11  1  6
 13 14  1  0
 13 15  1  0
 15 16  2  0
 16 17  1  0
 17 18  2  0
 18 19  1  0
 19 20  2  0
  9 21  1  0
  7  2  1  0
 20 15  1  0
 21  4  1  0
M  CHG  1   2   1
M  END
>  <supplier_code>  (571) 
DB00725

>  <zinc_id>  (571) 
ZINC000100052267

>  <catalog_short_name>  (571) 
dbfda

$$$$

     RDKit          3D

 22 24  0  0  0  0  0  0  0  0999 V2000
    2.8347   -1.8703    0.4487 C   0  0  0  0  0  0  0  0  0  0  0  0
    2.1541   -0.7354   -0.5273 C   0  0  2  0  0  0  0  0  0  0  0  0
    3.1671    0.4334    0.0297 C   0  0  0  0  0  0  0  0  0  0  0  0
    4.0877    0.5868   -1.0657 N   0  0  0  0  0  0  0  0  0  0  0  0
    5.0121   -0.5089   -1.1974 C   0  0  0  0  0  0  0  0  0  0  0  0
    4.7115    1.8772   -1.1402 C   0  0  0  0  0  0  0  0  0  0  0  0
    1.0021   -0.3624    0.5804 C   0  0  0  0  0  0  0  0  0  0  0  0
   -0.2060   -0.0724   -0.1886 N   0  0  0  0  0  0  0  0  0  0  0  0
   -0.9875   -1.2244   -0.5323 C   0  0  0  0  0  0  0  0  0  0  0  0
   -0.1294   -2.2351   -0.8623 C   0  0  0  0  0  0  0  0  0  0  0  0
   -0.6666   -3.4923   -1.0534 C   0  0  0  0  0  0  0  0  0  0  0  0
   -1.9823   -3.7782   -0.7107 C   0  0  0  0  0  0  0  0  0  0  0  0
   -2.8769   -2.7186   -0.6170 C   0  0  0  0  0  0  0  0  0  0  0  0
   -2.3581   -1.4310   -0.5402 C   0  0  0  0  0  0  0  0  0  0  0  0
   -3.4334   -0.5113   -0.0519 C   0  0  0  0  0  0  0  0  0  0  0  0
   -3.2815    0.8713   -0.6518 C   0  0  0  0  0  0  0  0  0  0  0  0
   -2.1503    1.5877    0.0117 C   0  0  0  0  0  0  0  0  0  0  0  0
   -2.4864    2.9223    0.1994 C   0  0  0  0  0  0  0  0  0  0  0  0
   -1.5070    3.8986    0.3331 C   0  0  0  0  0  0  0  0  0  0  0  0
   -0.1957    3.4498    0.4141 C   0  0  0  0  0  0  0  0  0  0  0  0
    0.1018    2.0961    0.5245 C   0  0  0  0  0  0  0  0  0  0  0  0
   -0.8100    1.2171   -0.0045 C   0  0  0  0  0  0  0  0  0  0  0  0
  2  1  1  1
  2  3  1  0
  3  4  1  0
  4  5  1  0
  4  6  1  0
  2  7  1  0
  7  8  1  0
  8  9  1  0
  9 10  2  0
 10 11  1  0
 11 12  2  0
 12 13  1  0
 13 14  2  0
 14 15  1  0
 15 16  1  0
 16 17  1  0
 17 18  2  0
 18 19  1  0
 19 20  2  0
 20 21  1  0
 21 22  2  0
 22  8  1  0
 14  9  1  0
 22 17  1  0
M  END
>  <supplier_code>  (572) 
DB00726

>  <zinc_id>  (572) 
ZINC000000968275

>  <catalog_short_name>  (572) 
dbfda

$$$$

     RDKit          3D

 22 24  0  0  0  0  0  0  0  0999 V2000
    1.6487   -0.3135    1.4259 C   0  0  0  0  0  0  0  0  0  0  0  0
    2.1633    0.4377    0.0418 C   0  0  1  0  0  0  0  0  0  0  0  0
    3.3223   -0.7182   -0.2123 C   0  0  0  0  0  0  0  0  0  0  0  0
    4.3780   -0.1878    0.6263 N   0  0  0  0  0  0  0  0  0  0  0  0
    4.5040    1.2231    0.3347 C   0  0  0  0  0  0  0  0  0  0  0  0
    5.5959   -0.9235    0.4351 C   0  0  0  0  0  0  0  0  0  0  0  0
    1.0646   -0.3908   -0.8806 C   0  0  0  0  0  0  0  0  0  0  0  0
   -0.2065   -0.1581   -0.2273 N   0  0  0  0  0  0  0  0  0  0  0  0
   -1.0874   -1.2868   -0.2650 C   0  0  0  0  0  0  0  0  0  0  0  0
   -0.3626   -2.4509   -0.1146 C   0  0  0  0  0  0  0  0  0  0  0  0
   -0.9919   -3.5907    0.3712 C   0  0  0  0  0  0  0  0  0  0  0  0
   -2.3699   -3.5820    0.4298 C   0  0  0  0  0  0  0  0  0  0  0  0
   -3.1290   -2.5177   -0.0364 C   0  0  0  0  0  0  0  0  0  0  0  0
   -2.4687   -1.3582   -0.3935 C   0  0  0  0  0  0  0  0  0  0  0  0
   -3.4371   -0.2326   -0.5794 C   0  0  0  0  0  0  0  0  0  0  0  0
   -3.1370    0.8405    0.4328 C   0  0  0  0  0  0  0  0  0  0  0  0
   -1.9571    1.6630    0.0808 C   0  0  0  0  0  0  0  0  0  0  0  0
   -2.1483    2.9723    0.4891 C   0  0  0  0  0  0  0  0  0  0  0  0
   -1.1216    3.8701    0.2795 C   0  0  0  0  0  0  0  0  0  0  0  0
    0.0900    3.4214   -0.2336 C   0  0  0  0  0  0  0  0  0  0  0  0
    0.3180    2.0868   -0.5281 C   0  0  0  0  0  0  0  0  0  0  0  0
   -0.6675    1.1960   -0.1464 C   0  0  0  0  0  0  0  0  0  0  0  0
  2  1  1  1
  2  3  1  0
  3  4  1  0
  4  5  1  0
  4  6  1  0
  2  7  1  0
  7  8  1  0
  8  9  1  0
  9 10  2  0
 10 11  1  0
 11 12  2  0
 12 13  1  0
 13 14  2  0
 14 15  1  0
 15 16  1  0
 16 17  1  0
 17 18  2  0
 18 19  1  0
 19 20  2  0
 20 21  1  0
 21 22  2  0
 22  8  1  0
 14  9  1  0
 22 17  1  0
M  END
>  <supplier_code>  (573) 
DB00726

>  <zinc_id>  (573) 
ZINC000003831586

>  <catalog_short_name>  (573) 
dbfda

$$$$

     RDKit          3D

 15 14  0  0  0  0  0  0  0  0999 V2000
   -1.9432   -3.4273   -0.3481 O   0  0  0  0  0  0  0  0  0  0  0  0
   -2.2770   -2.3320   -0.8636 N   0  0  0  0  0  0  0  0  0  0  0  0
   -3.6062   -1.9819   -0.7123 O   0  0  0  0  0  0  0  0  0  0  0  0
   -1.3172   -1.3349   -0.8666 O   0  0  0  0  0  0  0  0  0  0  0  0
   -1.3852   -0.4144    0.2123 C   0  0  0  0  0  0  0  0  0  0  0  0
   -0.0693    0.2424    0.5058 C   0  0  0  0  0  0  0  0  0  0  0  0
    1.0903   -0.3724   -0.2381 C   0  0  0  0  0  0  0  0  0  0  0  0
    2.1982    0.4889   -0.0818 O   0  0  0  0  0  0  0  0  0  0  0  0
    3.4562   -0.0330    0.1090 N   0  0  0  0  0  0  0  0  0  0  0  0
    3.8957   -0.7808   -0.8021 O   0  0  0  0  0  0  0  0  0  0  0  0
    4.0764    0.0236    1.3385 O   0  0  0  0  0  0  0  0  0  0  0  0
   -0.0778    1.6339    0.3535 O   0  0  0  0  0  0  0  0  0  0  0  0
   -1.1467    2.3935   -0.0157 N   0  0  0  0  0  0  0  0  0  0  0  0
   -1.8477    2.1510   -1.0316 O   0  0  0  0  0  0  0  0  0  0  0  0
   -1.0465    3.7434    0.2826 O   0  0  0  0  0  0  0  0  0  0  0  0
  1  2  2  0
  2  3  1  0
  2  4  1  0
  4  5  1  0
  5  6  1  0
  6  7  1  0
  7  8  1  0
  8  9  1  0
  9 10  2  0
  9 11  1  0
  6 12  1  0
 12 13  1  0
 13 14  2  0
 13 15  1  0
M  CHG  6   2   1   3  -1   9   1  11  -1  13   1  15  -1
M  END
>  <supplier_code>  (574) 
DB00727

>  <zinc_id>  (574) 
ZINC000008214625

>  <catalog_short_name>  (574) 
dbfda

$$$$

     RDKit          3D

 38 43  0  0  0  0  0  0  0  0999 V2000
    6.3816    2.8585    0.4160 C   0  0  0  0  0  0  0  0  0  0  0  0
    6.0775    2.3309    0.6794 C   0  0  0  0  0  0  0  0  0  0  0  0
    5.0618    1.2372    0.6332 C   0  0  0  0  0  0  0  0  0  0  0  0
    4.2317    1.3783   -0.4863 N   0  0  0  0  0  0  0  0  0  0  0  0
    2.7380    1.1859   -0.0278 C   0  0  1  0  0  0  0  0  0  0  0  0
    2.2853    0.0531   -1.1593 C   0  0  0  0  0  0  0  0  0  0  0  0
    0.9985    0.2365   -0.1486 C   0  0  1  0  0  0  0  0  0  0  0  0
    0.0047   -0.9857   -0.8099 C   0  0  2  0  0  0  0  0  0  0  0  0
   -0.5691   -0.0913   -2.0255 C   0  0  0  0  0  0  0  0  0  0  0  0
   -1.6173   -1.1313   -2.4481 C   0  0  0  0  0  0  0  0  0  0  0  0
   -2.8196   -0.5174   -1.4879 C   0  0  1  0  0  0  0  0  0  0  0  0
   -3.8621   -1.7019   -1.9634 C   0  0  0  0  0  0  0  0  0  0  0  0
   -5.1135   -1.5414   -0.8826 C   0  0  2  0  0  0  0  0  0  0  0  0
   -5.9182   -0.6944   -1.8847 O   0  0  0  0  0  0  0  0  0  0  0  0
   -4.4705   -0.1137   -0.0980 C   0  0  1  0  0  0  0  0  0  0  0  0
   -5.6024   -0.1337    0.9967 N   0  0  0  0  0  0  0  0  0  0  0  0
   -6.7502    0.3936    0.2592 C   0  0  0  0  0  0  0  0  0  0  0  0
   -7.2087    1.7160    0.7981 C   0  0  0  0  0  0  0  0  0  0  0  0
   -6.2369    2.6923    0.6368 O   0  0  0  0  0  0  0  0  0  0  0  0
   -4.9487    2.2043    0.8682 C   0  0  0  0  0  0  0  0  0  0  0  0
   -5.1403    1.0047    1.7933 C   0  0  0  0  0  0  0  0  0  0  0  0
   -3.4563   -1.0750    0.7875 C   0  0  0  0  0  0  0  0  0  0  0  0
   -2.3439   -1.3782   -0.1518 C   0  0  1  0  0  0  0  0  0  0  0  0
   -1.9164   -2.6618   -0.4964 C   0  0  0  0  0  0  0  0  0  0  0  0
   -1.1330   -0.3899    0.3262 C   0  0  1  0  0  0  0  0  0  0  0  0
   -0.5481   -1.4186    1.4682 C   0  0  0  0  0  0  0  0  0  0  0  0
    0.7542   -0.7882    1.9699 C   0  0  0  0  0  0  0  0  0  0  0  0
    1.6798   -0.8669    0.8434 C   0  0  1  0  0  0  0  0  0  0  0  0
    1.9094   -2.1158    0.1654 C   0  0  0  0  0  0  0  0  0  0  0  0
    3.0847   -0.0769    1.1395 C   0  0  1  0  0  0  0  0  0  0  0  0
    3.9033   -0.9136    0.1030 O   0  0  0  0  0  0  0  0  0  0  0  0
    4.5865   -1.9765    0.6354 C   0  0  0  0  0  0  0  0  0  0  0  0
    5.7427   -2.5822   -0.0977 C   0  0  0  0  0  0  0  0  0  0  0  0
    4.5711   -2.1678    1.8662 O   0  0  0  0  0  0  0  0  0  0  0  0
    4.4794    0.7769   -1.6931 C   0  0  0  0  0  0  0  0  0  0  0  0
    3.8100    1.6584   -2.7420 C   0  0  0  0  0  0  0  0  0  0  0  0
    3.1655    2.7814   -1.9261 C   0  0  0  0  0  0  0  0  0  0  0  0
    4.1896    2.8141   -0.7922 C   0  0  0  0  0  0  0  0  0  0  0  0
  1  2  2  0
  2  3  1  0
  3  4  1  0
  5  4  1  6
  5  6  1  0
  7  6  1  6
  7  8  1  0
  8  9  1  6
  9 10  1  0
 11 10  1  6
 11 12  1  0
 12 13  1  0
 13 14  1  6
 13 15  1  0
 15 16  1  1
 16 17  1  0
 17 18  1  0
 18 19  1  0
 19 20  1  0
 20 21  1  0
 15 22  1  0
 22 23  1  0
 23 24  1  6
 23 25  1  0
 25 26  1  1
 26 27  1  0
 27 28  1  0
 28 29  1  6
 28 30  1  0
 30 31  1  6
 31 32  1  0
 32 33  1  0
 32 34  2  0
  4 35  1  0
 35 36  1  0
 36 37  1  0
 37 38  1  0
 38  4  1  0
 30  5  1  0
 28  7  1  0
 25  8  1  0
 23 11  1  0
 21 16  1  0
M  CHG  1   4   1
M  END
>  <supplier_code>  (575) 
DB00728

>  <zinc_id>  (575) 
ZINC000053229445

>  <catalog_short_name>  (575) 
dbfda

$$$$

     RDKit          3D

 23 24  0  0  0  0  0  0  0  0999 V2000
    5.1587    1.6850   -0.2281 C   0  0  0  0  0  0  0  0  0  0  0  0
    5.2808    0.4973    0.3022 C   0  0  0  0  0  0  0  0  0  0  0  0
    6.4525   -0.2467   -0.2792 C   0  0  0  0  0  0  0  0  0  0  0  0
    4.0687   -0.3791    0.3777 C   0  0  0  0  0  0  0  0  0  0  0  0
    3.0157    0.1354    1.3196 C   0  0  0  0  0  0  0  0  0  0  0  0
    2.5328    1.4586    0.8001 C   0  0  0  0  0  0  0  0  0  0  0  0
    1.9889    1.2669   -0.5716 C   0  0  0  0  0  0  0  0  0  0  0  0
    0.6333    0.7259   -0.5337 C   0  0  0  0  0  0  0  0  0  0  0  0
   -0.2702    1.4560   -1.0453 O   0  0  0  0  0  0  0  0  0  0  0  0
    0.2182   -0.4565    0.1333 N   0  0  0  0  0  0  0  0  0  0  0  0
   -0.9684   -1.2325   -0.5624 C   0  0  2  0  0  0  0  0  0  0  0  0
   -1.8906    0.1260   -0.6196 C   0  0  0  0  0  0  0  0  0  0  0  0
   -3.3115   -0.3248   -0.4985 C   0  0  0  0  0  0  0  0  0  0  0  0
   -4.1691    0.1099   -1.5054 C   0  0  0  0  0  0  0  0  0  0  0  0
   -5.3210    0.8415   -1.2352 C   0  0  0  0  0  0  0  0  0  0  0  0
   -5.8762    0.7298    0.0334 C   0  0  0  0  0  0  0  0  0  0  0  0
   -5.1559    0.1096    1.0274 C   0  0  0  0  0  0  0  0  0  0  0  0
   -3.8409   -0.1623    0.7790 C   0  0  0  0  0  0  0  0  0  0  0  0
   -1.6525   -1.7334    0.8049 C   0  0  0  0  0  0  0  0  0  0  0  0
   -2.1465   -2.8813    0.5756 O   0  0  0  0  0  0  0  0  0  0  0  0
   -1.0894   -1.5326    2.0050 O   0  0  0  0  0  0  0  0  0  0  0  0
    2.8601    0.5264   -1.5214 C   0  0  0  0  0  0  0  0  0  0  0  0
    3.4822   -0.7189   -0.9658 C   0  0  0  0  0  0  0  0  0  0  0  0
  1  2  1  0
  2  3  1  0
  2  4  1  0
  4  5  1  0
  5  6  1  0
  6  7  1  0
  7  8  1  0
  8  9  2  0
  8 10  1  0
 11 10  1  1
 11 12  1  0
 12 13  1  0
 13 14  2  0
 14 15  1  0
 15 16  2  0
 16 17  1  0
 17 18  2  0
 11 19  1  0
 19 20  2  0
 19 21  1  0
  7 22  1  0
 22 23  1  0
 23  4  1  0
 18 13  1  0
M  END
>  <supplier_code>  (576) 
DB00731

>  <zinc_id>  (576) 
ZINC000000009689

>  <catalog_short_name>  (576) 
dbfda

$$$$

     RDKit          3D

 23 24  0  0  0  0  0  0  0  0999 V2000
    6.5291    1.2754   -0.4017 C   0  0  0  0  0  0  0  0  0  0  0  0
    5.7457    0.2962    0.2793 C   0  0  0  0  0  0  0  0  0  0  0  0
    5.7267   -1.0730   -0.2700 C   0  0  0  0  0  0  0  0  0  0  0  0
    4.2182    0.8518    0.3746 C   0  0  1  0  0  0  0  0  0  0  0  0
    3.8211    0.3282   -1.1205 C   0  0  0  0  0  0  0  0  0  0  0  0
    2.3254    0.3535   -1.2087 C   0  0  0  0  0  0  0  0  0  0  0  0
    1.7823    0.9079    0.2327 C   0  0  1  0  0  0  0  0  0  0  0  0
    0.2901    0.3816    0.0458 C   0  0  0  0  0  0  0  0  0  0  0  0
   -0.4531    1.2169    0.5509 O   0  0  0  0  0  0  0  0  0  0  0  0
   -0.3297    0.0591   -1.0905 N   0  0  0  0  0  0  0  0  0  0  0  0
   -1.1736   -1.2734   -1.0258 C   0  0  2  0  0  0  0  0  0  0  0  0
   -2.5435   -0.5486   -1.6051 C   0  0  0  0  0  0  0  0  0  0  0  0
   -3.3998   -0.0909   -0.5553 C   0  0  0  0  0  0  0  0  0  0  0  0
   -3.8148    1.2353   -0.6916 C   0  0  0  0  0  0  0  0  0  0  0  0
   -5.0032    1.6958   -0.1618 C   0  0  0  0  0  0  0  0  0  0  0  0
   -5.6114    0.9483    0.8360 C   0  0  0  0  0  0  0  0  0  0  0  0
   -4.9799   -0.2152    1.2291 C   0  0  0  0  0  0  0  0  0  0  0  0
   -4.2837   -0.8563    0.2046 C   0  0  0  0  0  0  0  0  0  0  0  0
   -1.6306   -1.3326    0.5069 C   0  0  0  0  0  0  0  0  0  0  0  0
   -1.5301   -2.5642    0.8518 O   0  0  0  0  0  0  0  0  0  0  0  0
   -1.5698   -0.6027    1.5310 O   0  0  0  0  0  0  0  0  0  0  0  0
    2.2036   -0.4718    1.0124 C   0  0  0  0  0  0  0  0  0  0  0  0
    3.6809   -0.5211    1.0755 C   0  0  0  0  0  0  0  0  0  0  0  0
  1  2  1  0
  2  3  1  0
  4  2  1  6
  4  5  1  0
  5  6  1  0
  6  7  1  0
  7  8  1  6
  8  9  2  0
  8 10  1  0
 11 10  1  1
 11 12  1  0
 12 13  1  0
 13 14  2  0
 14 15  1  0
 15 16  2  0
 16 17  1  0
 17 18  2  0
 11 19  1  0
 19 20  2  0
 19 21  1  0
  7 22  1  0
 22 23  1  0
 23  4  1  0
 18 13  1  0
M  END
>  <supplier_code>  (577) 
DB00731

>  <zinc_id>  (577) 
ZINC000101489663

>  <catalog_short_name>  (577) 
dbfda

$$$$

     RDKit          3D

 67 72  0  0  0  0  0  0  0  0999 V2000
  -10.8386   -2.4974    0.1831 C   0  0  0  0  0  0  0  0  0  0  0  0
  -10.1666   -2.6251    1.3990 O   0  0  0  0  0  0  0  0  0  0  0  0
   -9.2022   -1.7645    1.8640 C   0  0  0  0  0  0  0  0  0  0  0  0
   -9.4774   -0.5843    2.5445 C   0  0  0  0  0  0  0  0  0  0  0  0
   -8.5504    0.4523    2.4928 C   0  0  0  0  0  0  0  0  0  0  0  0
   -7.3618    0.2433    1.8019 C   0  0  0  0  0  0  0  0  0  0  0  0
   -6.3263    1.2249    1.5650 C   0  0  0  0  0  0  0  0  0  0  0  0
   -6.9119    2.3364    0.4555 C   0  0  2  0  0  0  0  0  0  0  0  0
   -7.8490    1.2447   -0.3403 C   0  0  0  0  0  0  0  0  0  0  0  0
   -9.0975    1.8740   -0.4290 C   0  0  0  0  0  0  0  0  0  0  0  0
   -9.9958    1.5329   -1.4103 C   0  0  0  0  0  0  0  0  0  0  0  0
  -11.1975    2.1831   -1.6357 O   0  0  0  0  0  0  0  0  0  0  0  0
  -11.8641    2.0917   -2.8740 C   0  0  0  0  0  0  0  0  0  0  0  0
   -9.7138    0.3745   -2.1181 C   0  0  0  0  0  0  0  0  0  0  0  0
  -10.7329   -0.4497   -2.5860 O   0  0  0  0  0  0  0  0  0  0  0  0
  -11.3536   -1.2758   -1.6036 C   0  0  0  0  0  0  0  0  0  0  0  0
   -8.3670    0.0957   -2.2896 C   0  0  0  0  0  0  0  0  0  0  0  0
   -7.4153    0.7725   -1.5283 C   0  0  0  0  0  0  0  0  0  0  0  0
   -6.0506    0.1754   -1.7070 C   0  0  0  0  0  0  0  0  0  0  0  0
   -5.3102    0.7966   -0.5389 C   0  0  0  0  0  0  0  0  0  0  0  0
   -5.6239    2.1432   -0.4806 N   0  0  1  0  0  0  0  0  0  0  0  0
   -5.8411    2.9099   -1.6378 C   0  0  0  0  0  0  0  0  0  0  0  0
   -4.6253    2.8282    0.3421 C   0  0  0  0  0  0  0  0  0  0  0  0
   -3.2760    2.4942   -0.2309 C   0  0  0  0  0  0  0  0  0  0  0  0
   -2.7404    1.1948    0.2746 C   0  0  0  0  0  0  0  0  0  0  0  0
   -2.6900    0.9224    1.4924 O   0  0  0  0  0  0  0  0  0  0  0  0
   -2.1260    0.2978   -0.6054 O   0  0  0  0  0  0  0  0  0  0  0  0
   -1.9009   -1.0543   -0.2904 C   0  0  0  0  0  0  0  0  0  0  0  0
   -0.4243   -1.3378   -0.1241 C   0  0  0  0  0  0  0  0  0  0  0  0
    0.4221   -0.0971   -0.2566 C   0  0  0  0  0  0  0  0  0  0  0  0
    0.8577    0.3041    1.1304 C   0  0  0  0  0  0  0  0  0  0  0  0
    1.2509    1.7757    1.0657 C   0  0  0  0  0  0  0  0  0  0  0  0
    1.7951    1.9808   -0.2364 O   0  0  0  0  0  0  0  0  0  0  0  0
    3.1708    2.0357   -0.4693 C   0  0  0  0  0  0  0  0  0  0  0  0
    3.8315    2.6199    0.4347 O   0  0  0  0  0  0  0  0  0  0  0  0
    3.7877    1.1030   -1.4619 C   0  0  0  0  0  0  0  0  0  0  0  0
    5.2098    0.8238   -1.1467 C   0  0  0  0  0  0  0  0  0  0  0  0
    5.4661   -0.3656   -0.3761 N   0  0  2  0  0  0  0  0  0  0  0  0
    4.7969   -1.5234   -0.9090 C   0  0  0  0  0  0  0  0  0  0  0  0
    5.3402   -0.1718    0.9875 C   0  0  0  0  0  0  0  0  0  0  0  0
    6.0346   -1.1184    1.9060 C   0  0  0  0  0  0  0  0  0  0  0  0
    6.5109   -2.2535    1.0959 C   0  0  0  0  0  0  0  0  0  0  0  0
    6.5957   -3.5357    1.6284 C   0  0  0  0  0  0  0  0  0  0  0  0
    7.3780   -4.5011    1.0088 C   0  0  0  0  0  0  0  0  0  0  0  0
    7.1814   -5.8546    1.3005 O   0  0  0  0  0  0  0  0  0  0  0  0
    8.1252   -6.8183    0.9012 C   0  0  0  0  0  0  0  0  0  0  0  0
    8.0710   -4.1980   -0.1572 C   0  0  0  0  0  0  0  0  0  0  0  0
    9.1750   -4.9731   -0.4913 O   0  0  0  0  0  0  0  0  0  0  0  0
   10.4195   -4.3116   -0.6936 C   0  0  0  0  0  0  0  0  0  0  0  0
    7.9615   -2.9245   -0.7037 C   0  0  0  0  0  0  0  0  0  0  0  0
    7.0320   -2.0930   -0.1284 C   0  0  0  0  0  0  0  0  0  0  0  0
    7.0091   -0.5819   -0.7627 C   0  0  2  0  0  0  0  0  0  0  0  0
    7.6084    0.1222    0.6405 C   0  0  0  0  0  0  0  0  0  0  0  0
    8.5505    1.1053    0.0141 C   0  0  0  0  0  0  0  0  0  0  0  0
    8.1382    2.1124   -0.8208 C   0  0  0  0  0  0  0  0  0  0  0  0
    8.8510    3.2468   -1.1086 C   0  0  0  0  0  0  0  0  0  0  0  0
   10.1032    3.3483   -0.5259 C   0  0  0  0  0  0  0  0  0  0  0  0
   10.7068    4.5970   -0.5736 O   0  0  0  0  0  0  0  0  0  0  0  0
   11.1657    5.2102    0.6002 C   0  0  0  0  0  0  0  0  0  0  0  0
   10.4932    2.4288    0.4322 C   0  0  0  0  0  0  0  0  0  0  0  0
   11.5627    2.7764    1.2388 O   0  0  0  0  0  0  0  0  0  0  0  0
   12.3009    1.7934    1.9122 C   0  0  0  0  0  0  0  0  0  0  0  0
    9.7887    1.2564    0.5918 C   0  0  0  0  0  0  0  0  0  0  0  0
   -6.9441   -1.0865    1.8465 C   0  0  0  0  0  0  0  0  0  0  0  0
   -7.8649   -2.1248    1.7597 C   0  0  0  0  0  0  0  0  0  0  0  0
   -7.5238   -3.3554    1.1880 O   0  0  0  0  0  0  0  0  0  0  0  0
   -7.3289   -3.3516   -0.2249 C   0  0  0  0  0  0  0  0  0  0  0  0
  1  2  1  0
  2  3  1  0
  3  4  2  0
  4  5  1  0
  5  6  2  0
  6  7  1  0
  8  7  1  1
  8  9  1  0
  9 10  2  0
 10 11  1  0
 11 12  1  0
 12 13  1  0
 11 14  2  0
 14 15  1  0
 15 16  1  0
 14 17  1  0
 17 18  2  0
 18 19  1  0
 19 20  1  0
 20 21  1  0
 21 22  1  6
 21 23  1  0
 23 24  1  0
 24 25  1  0
 25 26  2  0
 25 27  1  0
 27 28  1  0
 28 29  1  0
 29 30  1  0
 30 31  1  0
 31 32  1  0
 32 33  1  0
 33 34  1  0
 34 35  2  0
 34 36  1  0
 36 37  1  0
 38 37  1  6
 38 39  1  0
 38 40  1  0
 40 41  1  0
 41 42  1  0
 42 43  2  0
 43 44  1  0
 44 45  1  0
 45 46  1  0
 44 47  2  0
 47 48  1  0
 48 49  1  0
 47 50  1  0
 50 51  2  0
 51 52  1  0
 52 53  1  1
 53 54  1  0
 54 55  2  0
 55 56  1  0
 56 57  2  0
 57 58  1  0
 58 59  1  0
 57 60  1  0
 60 61  1  0
 61 62  1  0
 60 63  2  0
  6 64  1  0
 64 65  2  0
 65 66  1  0
 66 67  1  0
 65  3  1  0
 21  8  1  0
 52 38  1  0
 63 54  1  0
 18  9  1  0
 51 42  1  0
M  CHG  2  21   1  38   1
M  END
>  <supplier_code>  (578) 
DB00732

>  <zinc_id>  (578) 
ZINC000238809662

>  <catalog_short_name>  (578) 
dbfda

$$$$

     RDKit          3D

 67 72  0  0  0  0  0  0  0  0999 V2000
   11.2772   -1.7933   -0.1159 C   0  0  0  0  0  0  0  0  0  0  0  0
   11.9208   -0.7393   -0.8239 O   0  0  0  0  0  0  0  0  0  0  0  0
   11.1383    0.3723   -1.1519 C   0  0  0  0  0  0  0  0  0  0  0  0
   10.3898    0.4342   -2.3215 C   0  0  0  0  0  0  0  0  0  0  0  0
    9.1719    1.1035   -2.2373 C   0  0  0  0  0  0  0  0  0  0  0  0
    8.6755    1.5391   -1.0128 C   0  0  0  0  0  0  0  0  0  0  0  0
    7.2182    1.6137   -0.8646 C   0  0  0  0  0  0  0  0  0  0  0  0
    6.9483    1.4031    0.7814 C   0  0  2  0  0  0  0  0  0  0  0  0
    7.2424   -0.2050    0.7750 C   0  0  0  0  0  0  0  0  0  0  0  0
    7.3957   -0.8897   -0.3439 C   0  0  0  0  0  0  0  0  0  0  0  0
    7.8021   -2.2110   -0.1837 C   0  0  0  0  0  0  0  0  0  0  0  0
    8.5379   -2.8483   -1.1889 O   0  0  0  0  0  0  0  0  0  0  0  0
    9.8968   -3.1268   -0.9146 C   0  0  0  0  0  0  0  0  0  0  0  0
    7.4608   -2.8642    0.9966 C   0  0  0  0  0  0  0  0  0  0  0  0
    7.9827   -4.1414    1.2282 O   0  0  0  0  0  0  0  0  0  0  0  0
    7.1877   -5.2708    0.9763 C   0  0  0  0  0  0  0  0  0  0  0  0
    6.8977   -2.1279    2.0353 C   0  0  0  0  0  0  0  0  0  0  0  0
    6.9492   -0.7380    2.0280 C   0  0  0  0  0  0  0  0  0  0  0  0
    5.9500    0.0984    2.7708 C   0  0  0  0  0  0  0  0  0  0  0  0
    4.9253    0.5066    1.7734 C   0  0  0  0  0  0  0  0  0  0  0  0
    5.3694    1.1747    0.6075 N   0  0  1  0  0  0  0  0  0  0  0  0
    4.8175    2.5294    0.6384 C   0  0  0  0  0  0  0  0  0  0  0  0
    5.1444    0.5640   -0.6325 C   0  0  0  0  0  0  0  0  0  0  0  0
    4.6723    1.5208   -1.7229 C   0  0  0  0  0  0  0  0  0  0  0  0
    3.1921    1.3364   -1.8535 C   0  0  0  0  0  0  0  0  0  0  0  0
    2.8237    0.1234   -1.9112 O   0  0  0  0  0  0  0  0  0  0  0  0
    2.3343    2.2192   -1.1891 O   0  0  0  0  0  0  0  0  0  0  0  0
    1.1933    1.7016   -0.5130 C   0  0  0  0  0  0  0  0  0  0  0  0
    0.7497    0.4938   -1.3274 C   0  0  0  0  0  0  0  0  0  0  0  0
   -0.0394   -0.4858   -0.4985 C   0  0  0  0  0  0  0  0  0  0  0  0
    0.2837   -0.2752    0.9750 C   0  0  0  0  0  0  0  0  0  0  0  0
   -0.6079    0.8574    1.4543 C   0  0  0  0  0  0  0  0  0  0  0  0
   -1.9435    0.3992    1.2490 O   0  0  0  0  0  0  0  0  0  0  0  0
   -2.4653    0.6684   -0.0211 C   0  0  0  0  0  0  0  0  0  0  0  0
   -2.4524    1.8964   -0.3385 O   0  0  0  0  0  0  0  0  0  0  0  0
   -3.7016   -0.0744   -0.3926 C   0  0  0  0  0  0  0  0  0  0  0  0
   -4.6625    0.1469    0.7710 C   0  0  0  0  0  0  0  0  0  0  0  0
   -5.5124    1.2452    0.4091 N   0  0  2  0  0  0  0  0  0  0  0  0
   -5.4494    1.6070   -0.9641 C   0  0  0  0  0  0  0  0  0  0  0  0
   -5.4889    2.3407    1.3385 C   0  0  0  0  0  0  0  0  0  0  0  0
   -6.2276    3.4967    0.6757 C   0  0  0  0  0  0  0  0  0  0  0  0
   -7.5898    2.9752    0.3623 C   0  0  0  0  0  0  0  0  0  0  0  0
   -8.6524    3.8498    0.1729 C   0  0  0  0  0  0  0  0  0  0  0  0
   -9.9236    3.3504   -0.0881 C   0  0  0  0  0  0  0  0  0  0  0  0
  -11.0506    3.9501    0.4822 O   0  0  0  0  0  0  0  0  0  0  0  0
  -11.9406    3.2181    1.3104 C   0  0  0  0  0  0  0  0  0  0  0  0
  -10.0896    2.0544   -0.5638 C   0  0  0  0  0  0  0  0  0  0  0  0
  -11.3625    1.5063   -0.7552 O   0  0  0  0  0  0  0  0  0  0  0  0
  -11.4844    0.1243   -0.4298 C   0  0  0  0  0  0  0  0  0  0  0  0
   -8.9373    1.2843   -0.6552 C   0  0  0  0  0  0  0  0  0  0  0  0
   -7.7041    1.7339   -0.2426 C   0  0  0  0  0  0  0  0  0  0  0  0
   -6.9453    0.5588    0.6223 C   0  0  1  0  0  0  0  0  0  0  0  0
   -6.7666   -0.3977   -0.7398 C   0  0  0  0  0  0  0  0  0  0  0  0
   -7.2931   -1.7139   -0.2633 C   0  0  0  0  0  0  0  0  0  0  0  0
   -7.1269   -2.7613   -1.1357 C   0  0  0  0  0  0  0  0  0  0  0  0
   -7.8382   -3.9274   -1.1132 C   0  0  0  0  0  0  0  0  0  0  0  0
   -8.9342   -3.9808   -0.2600 C   0  0  0  0  0  0  0  0  0  0  0  0
   -9.8600   -4.9884   -0.4347 O   0  0  0  0  0  0  0  0  0  0  0  0
   -9.4873   -6.1864   -1.1055 C   0  0  0  0  0  0  0  0  0  0  0  0
   -9.2157   -2.8986    0.5604 C   0  0  0  0  0  0  0  0  0  0  0  0
  -10.4631   -2.8343    1.1867 O   0  0  0  0  0  0  0  0  0  0  0  0
  -11.5378   -3.6651    0.8049 C   0  0  0  0  0  0  0  0  0  0  0  0
   -8.3574   -1.8119    0.6173 C   0  0  0  0  0  0  0  0  0  0  0  0
    9.6017    1.8873   -0.0657 C   0  0  0  0  0  0  0  0  0  0  0  0
   10.8662    1.3209   -0.1733 C   0  0  0  0  0  0  0  0  0  0  0  0
   11.9220    1.6694    0.6661 O   0  0  0  0  0  0  0  0  0  0  0  0
   13.1730    2.0814    0.1355 C   0  0  0  0  0  0  0  0  0  0  0  0
  1  2  1  0
  2  3  1  0
  3  4  2  0
  4  5  1  0
  5  6  2  0
  6  7  1  0
  8  7  1  6
  8  9  1  0
  9 10  2  0
 10 11  1  0
 11 12  1  0
 12 13  1  0
 11 14  2  0
 14 15  1  0
 15 16  1  0
 14 17  1  0
 17 18  2  0
 18 19  1  0
 19 20  1  0
 20 21  1  0
 21 22  1  6
 21 23  1  0
 23 24  1  0
 24 25  1  0
 25 26  2  0
 25 27  1  0
 27 28  1  0
 28 29  1  0
 29 30  1  0
 30 31  1  0
 31 32  1  0
 32 33  1  0
 33 34  1  0
 34 35  2  0
 34 36  1  0
 36 37  1  0
 38 37  1  1
 38 39  1  0
 38 40  1  0
 40 41  1  0
 41 42  1  0
 42 43  2  0
 43 44  1  0
 44 45  1  0
 45 46  1  0
 44 47  2  0
 47 48  1  0
 48 49  1  0
 47 50  1  0
 50 51  2  0
 51 52  1  0
 52 53  1  6
 53 54  1  0
 54 55  2  0
 55 56  1  0
 56 57  2  0
 57 58  1  0
 58 59  1  0
 57 60  1  0
 60 61  1  0
 61 62  1  0
 60 63  2  0
  6 64  1  0
 64 65  2  0
 65 66  1  0
 66 67  1  0
 65  3  1  0
 21  8  1  0
 52 38  1  0
 63 54  1  0
 18  9  1  0
 51 42  1  0
M  CHG  2  21   1  38   1
M  END
>  <supplier_code>  (579) 
DB00732

>  <zinc_id>  (579) 
ZINC000238809663

>  <catalog_short_name>  (579) 
dbfda

$$$$

     RDKit          3D

 67 72  0  0  0  0  0  0  0  0999 V2000
   10.3644   -6.1975   -0.7228 C   0  0  0  0  0  0  0  0  0  0  0  0
   10.6469   -4.9245   -0.2338 O   0  0  0  0  0  0  0  0  0  0  0  0
    9.6858   -4.0612    0.2607 C   0  0  0  0  0  0  0  0  0  0  0  0
   10.0499   -2.9686    1.0305 C   0  0  0  0  0  0  0  0  0  0  0  0
    9.1053   -1.9914    1.3204 C   0  0  0  0  0  0  0  0  0  0  0  0
    7.8887   -2.0622    0.6520 C   0  0  0  0  0  0  0  0  0  0  0  0
    7.0541   -0.8466    0.5582 C   0  0  0  0  0  0  0  0  0  0  0  0
    7.4946   -0.1731   -0.9121 C   0  0  2  0  0  0  0  0  0  0  0  0
    7.5836    1.3297   -0.2466 C   0  0  0  0  0  0  0  0  0  0  0  0
    8.7860    1.4797    0.4396 C   0  0  0  0  0  0  0  0  0  0  0  0
    9.3757    2.7236    0.6315 C   0  0  0  0  0  0  0  0  0  0  0  0
   10.7465    2.8695    0.8589 O   0  0  0  0  0  0  0  0  0  0  0  0
   11.5855    2.6638   -0.2743 C   0  0  0  0  0  0  0  0  0  0  0  0
    8.6171    3.8067    0.2036 C   0  0  0  0  0  0  0  0  0  0  0  0
    9.0621    5.0958    0.4541 O   0  0  0  0  0  0  0  0  0  0  0  0
    9.6904    5.4842    1.6609 C   0  0  0  0  0  0  0  0  0  0  0  0
    7.6128    3.6197   -0.7386 C   0  0  0  0  0  0  0  0  0  0  0  0
    7.2622    2.3308   -1.1239 C   0  0  0  0  0  0  0  0  0  0  0  0
    6.3161    2.2128   -2.2444 C   0  0  0  0  0  0  0  0  0  0  0  0
    5.9979    0.7788   -2.5458 C   0  0  0  0  0  0  0  0  0  0  0  0
    5.9589    0.0187   -1.3364 N   0  0  1  0  0  0  0  0  0  0  0  0
    5.5775   -1.3590   -1.5633 C   0  0  0  0  0  0  0  0  0  0  0  0
    5.3157    0.6260   -0.2307 C   0  0  0  0  0  0  0  0  0  0  0  0
    3.9249    0.0868   -0.0235 C   0  0  0  0  0  0  0  0  0  0  0  0
    2.9964    1.2320   -0.2801 C   0  0  0  0  0  0  0  0  0  0  0  0
    2.7917    1.5311   -1.4805 O   0  0  0  0  0  0  0  0  0  0  0  0
    2.8314    2.2451    0.6550 O   0  0  0  0  0  0  0  0  0  0  0  0
    1.6054    2.9607    0.6012 C   0  0  0  0  0  0  0  0  0  0  0  0
    0.7945    2.5850    1.8112 C   0  0  0  0  0  0  0  0  0  0  0  0
    0.0242    1.3195    1.4977 C   0  0  0  0  0  0  0  0  0  0  0  0
   -0.5052    1.3545    0.0921 C   0  0  0  0  0  0  0  0  0  0  0  0
   -1.6477    0.3849   -0.0329 C   0  0  0  0  0  0  0  0  0  0  0  0
   -2.6670    0.7462    0.8957 O   0  0  0  0  0  0  0  0  0  0  0  0
   -3.0556    2.0628    1.0926 C   0  0  0  0  0  0  0  0  0  0  0  0
   -2.5385    2.9230    0.3239 O   0  0  0  0  0  0  0  0  0  0  0  0
   -4.3953    2.4201    1.6527 C   0  0  0  0  0  0  0  0  0  0  0  0
   -5.3692    1.4149    1.1446 C   0  0  0  0  0  0  0  0  0  0  0  0
   -6.5812    2.1111    0.8597 N   0  0  1  0  0  0  0  0  0  0  0  0
   -7.1639    2.7663    2.0065 C   0  0  0  0  0  0  0  0  0  0  0  0
   -6.5459    2.9500   -0.3007 C   0  0  0  0  0  0  0  0  0  0  0  0
   -7.0550    2.3056   -1.5516 C   0  0  0  0  0  0  0  0  0  0  0  0
   -6.6094    0.8793   -1.6630 C   0  0  0  0  0  0  0  0  0  0  0  0
   -6.5582    0.2324   -2.8923 C   0  0  0  0  0  0  0  0  0  0  0  0
   -6.7641   -1.1421   -2.9304 C   0  0  0  0  0  0  0  0  0  0  0  0
   -7.2982   -1.7728   -4.0336 O   0  0  0  0  0  0  0  0  0  0  0  0
   -8.6476   -2.1607   -4.1033 C   0  0  0  0  0  0  0  0  0  0  0  0
   -6.7777   -1.8362   -1.7264 C   0  0  0  0  0  0  0  0  0  0  0  0
   -6.4581   -3.1954   -1.7476 O   0  0  0  0  0  0  0  0  0  0  0  0
   -5.9422   -3.8691   -0.6043 C   0  0  0  0  0  0  0  0  0  0  0  0
   -6.8516   -1.1831   -0.5043 C   0  0  0  0  0  0  0  0  0  0  0  0
   -6.6037    0.1756   -0.4613 C   0  0  0  0  0  0  0  0  0  0  0  0
   -7.6572    0.9718    0.5232 C   0  0  1  0  0  0  0  0  0  0  0  0
   -7.2016    0.0539    1.8505 C   0  0  0  0  0  0  0  0  0  0  0  0
   -8.4490   -0.6540    2.2391 C   0  0  0  0  0  0  0  0  0  0  0  0
   -8.5705   -2.0397    2.1851 C   0  0  0  0  0  0  0  0  0  0  0  0
   -9.7257   -2.6287    1.6814 C   0  0  0  0  0  0  0  0  0  0  0  0
  -10.8566   -1.8553    1.4400 C   0  0  0  0  0  0  0  0  0  0  0  0
  -11.6753   -2.0851    0.3276 O   0  0  0  0  0  0  0  0  0  0  0  0
  -11.2719   -1.6170   -0.9579 C   0  0  0  0  0  0  0  0  0  0  0  0
  -10.8687   -0.6427    2.1219 C   0  0  0  0  0  0  0  0  0  0  0  0
  -11.9567    0.2075    1.9007 O   0  0  0  0  0  0  0  0  0  0  0  0
  -13.2445   -0.3164    2.1527 C   0  0  0  0  0  0  0  0  0  0  0  0
   -9.6659   -0.0006    2.4065 C   0  0  0  0  0  0  0  0  0  0  0  0
    7.3851   -3.3479    0.4950 C   0  0  0  0  0  0  0  0  0  0  0  0
    8.3266   -4.3308    0.2169 C   0  0  0  0  0  0  0  0  0  0  0  0
    7.9584   -5.5057   -0.4330 O   0  0  0  0  0  0  0  0  0  0  0  0
    6.7628   -6.1923   -0.1070 C   0  0  0  0  0  0  0  0  0  0  0  0
  1  2  1  0
  2  3  1  0
  3  4  2  0
  4  5  1  0
  5  6  2  0
  6  7  1  0
  8  7  1  1
  8  9  1  0
  9 10  2  0
 10 11  1  0
 11 12  1  0
 12 13  1  0
 11 14  2  0
 14 15  1  0
 15 16  1  0
 14 17  1  0
 17 18  2  0
 18 19  1  0
 19 20  1  0
 20 21  1  0
 21 22  1  6
 21 23  1  0
 23 24  1  0
 24 25  1  0
 25 26  2  0
 25 27  1  0
 27 28  1  0
 28 29  1  0
 29 30  1  0
 30 31  1  0
 31 32  1  0
 32 33  1  0
 33 34  1  0
 34 35  2  0
 34 36  1  0
 36 37  1  0
 38 37  1  1
 38 39  1  0
 38 40  1  0
 40 41  1  0
 41 42  1  0
 42 43  2  0
 43 44  1  0
 44 45  1  0
 45 46  1  0
 44 47  2  0
 47 48  1  0
 48 49  1  0
 47 50  1  0
 50 51  2  0
 51 52  1  0
 52 53  1  1
 53 54  1  0
 54 55  2  0
 55 56  1  0
 56 57  2  0
 57 58  1  0
 58 59  1  0
 57 60  1  0
 60 61  1  0
 61 62  1  0
 60 63  2  0
  6 64  1  0
 64 65  2  0
 65 66  1  0
 66 67  1  0
 65  3  1  0
 21  8  1  0
 52 38  1  0
 63 54  1  0
 18  9  1  0
 51 42  1  0
M  CHG  2  21   1  38   1
M  END
>  <supplier_code>  (580) 
DB00732

>  <zinc_id>  (580) 
ZINC000238809664

>  <catalog_short_name>  (580) 
dbfda

$$$$

     RDKit          3D

 67 72  0  0  0  0  0  0  0  0999 V2000
  -12.1067    0.5288   -0.8616 C   0  0  0  0  0  0  0  0  0  0  0  0
  -11.8274    1.5223   -1.6785 O   0  0  0  0  0  0  0  0  0  0  0  0
  -10.5612    2.1094   -1.7890 C   0  0  0  0  0  0  0  0  0  0  0  0
  -10.1568    3.0573   -0.8548 C   0  0  0  0  0  0  0  0  0  0  0  0
   -8.8820    3.0257   -0.2994 C   0  0  0  0  0  0  0  0  0  0  0  0
   -8.0104    1.9848   -0.6044 C   0  0  0  0  0  0  0  0  0  0  0  0
   -7.1201    1.4090    0.4306 C   0  0  0  0  0  0  0  0  0  0  0  0
   -7.0453   -0.2030    0.0233 C   0  0  2  0  0  0  0  0  0  0  0  0
   -7.7522   -0.6442    1.4351 C   0  0  0  0  0  0  0  0  0  0  0  0
   -9.0062   -0.0623    1.6074 C   0  0  0  0  0  0  0  0  0  0  0  0
  -10.1347   -0.8399    1.8524 C   0  0  0  0  0  0  0  0  0  0  0  0
  -11.3738   -0.2784    2.1425 O   0  0  0  0  0  0  0  0  0  0  0  0
  -12.0586    0.5881    1.2481 C   0  0  0  0  0  0  0  0  0  0  0  0
  -10.1045   -2.2207    1.6889 C   0  0  0  0  0  0  0  0  0  0  0  0
  -11.1336   -2.8435    0.9695 O   0  0  0  0  0  0  0  0  0  0  0  0
  -11.1787   -2.7826   -0.4574 C   0  0  0  0  0  0  0  0  0  0  0  0
   -8.8453   -2.8001    1.7806 C   0  0  0  0  0  0  0  0  0  0  0  0
   -7.7434   -2.0316    1.5663 C   0  0  0  0  0  0  0  0  0  0  0  0
   -6.3784   -2.5930    1.2974 C   0  0  0  0  0  0  0  0  0  0  0  0
   -5.4992   -1.3997    1.5057 C   0  0  0  0  0  0  0  0  0  0  0  0
   -5.5531   -0.4079    0.5196 N   0  0  1  0  0  0  0  0  0  0  0  0
   -5.0759   -1.0257   -0.7257 C   0  0  0  0  0  0  0  0  0  0  0  0
   -4.9262    0.8034    0.7508 C   0  0  0  0  0  0  0  0  0  0  0  0
   -4.1910    1.4430   -0.3856 C   0  0  0  0  0  0  0  0  0  0  0  0
   -2.7789    0.9465   -0.3896 C   0  0  0  0  0  0  0  0  0  0  0  0
   -2.4530    0.0318    0.3897 O   0  0  0  0  0  0  0  0  0  0  0  0
   -1.7693    1.8178   -0.8116 O   0  0  0  0  0  0  0  0  0  0  0  0
   -0.4687    1.3422   -1.0490 C   0  0  0  0  0  0  0  0  0  0  0  0
   -0.4292   -0.1766   -1.1750 C   0  0  0  0  0  0  0  0  0  0  0  0
    0.5241   -0.7091   -0.1451 C   0  0  0  0  0  0  0  0  0  0  0  0
    1.0542    0.3876    0.7707 C   0  0  0  0  0  0  0  0  0  0  0  0
    2.1957    1.0779    0.0354 C   0  0  0  0  0  0  0  0  0  0  0  0
    2.9279    0.0006   -0.5459 O   0  0  0  0  0  0  0  0  0  0  0  0
    3.2467   -1.0691    0.2995 C   0  0  0  0  0  0  0  0  0  0  0  0
    3.0586   -0.9835    1.5450 O   0  0  0  0  0  0  0  0  0  0  0  0
    4.2022   -2.0531   -0.2448 C   0  0  0  0  0  0  0  0  0  0  0  0
    5.1686   -2.6042    0.7376 C   0  0  0  0  0  0  0  0  0  0  0  0
    6.2387   -1.6655    1.1039 N   0  0  1  0  0  0  0  0  0  0  0  0
    5.9320   -1.3197    2.4334 C   0  0  0  0  0  0  0  0  0  0  0  0
    7.4328   -2.2704    0.7777 C   0  0  0  0  0  0  0  0  0  0  0  0
    7.2465   -2.9454   -0.5841 C   0  0  0  0  0  0  0  0  0  0  0  0
    7.2743   -1.7385   -1.4812 C   0  0  0  0  0  0  0  0  0  0  0  0
    8.2044   -1.8003   -2.5167 C   0  0  0  0  0  0  0  0  0  0  0  0
    8.8036   -0.6449   -3.0072 C   0  0  0  0  0  0  0  0  0  0  0  0
   10.1207   -0.6261   -3.4813 O   0  0  0  0  0  0  0  0  0  0  0  0
   11.1426   -1.1884   -2.6596 C   0  0  0  0  0  0  0  0  0  0  0  0
    8.0933    0.5247   -2.7548 C   0  0  0  0  0  0  0  0  0  0  0  0
    8.7859    1.7109   -3.0295 O   0  0  0  0  0  0  0  0  0  0  0  0
    9.9848    2.0536   -2.3372 C   0  0  0  0  0  0  0  0  0  0  0  0
    7.2013    0.5216   -1.6819 C   0  0  0  0  0  0  0  0  0  0  0  0
    7.2647   -0.5348   -0.7609 C   0  0  0  0  0  0  0  0  0  0  0  0
    5.9240   -0.4135    0.1752 C   0  0  2  0  0  0  0  0  0  0  0  0
    6.5944    0.7185    1.1821 C   0  0  0  0  0  0  0  0  0  0  0  0
    7.9168    0.3202    1.6262 C   0  0  0  0  0  0  0  0  0  0  0  0
    8.1527    0.8575    2.9066 C   0  0  0  0  0  0  0  0  0  0  0  0
    9.3245    0.6889    3.5792 C   0  0  0  0  0  0  0  0  0  0  0  0
   10.4579    0.4955    2.7990 C   0  0  0  0  0  0  0  0  0  0  0  0
   11.6939    0.5096    3.3985 O   0  0  0  0  0  0  0  0  0  0  0  0
   12.8730    0.5148    2.6139 C   0  0  0  0  0  0  0  0  0  0  0  0
   10.3261    0.2882    1.4391 C   0  0  0  0  0  0  0  0  0  0  0  0
   11.4444   -0.0300    0.6887 O   0  0  0  0  0  0  0  0  0  0  0  0
   11.2344   -0.8667   -0.4460 C   0  0  0  0  0  0  0  0  0  0  0  0
    9.0951    0.5582    0.9104 C   0  0  0  0  0  0  0  0  0  0  0  0
   -8.2728    1.3665   -1.8220 C   0  0  0  0  0  0  0  0  0  0  0  0
   -9.5109    1.4833   -2.4529 C   0  0  0  0  0  0  0  0  0  0  0  0
   -9.8637    0.4860   -3.3685 O   0  0  0  0  0  0  0  0  0  0  0  0
   -8.9295   -0.4790   -3.8286 C   0  0  0  0  0  0  0  0  0  0  0  0
  1  2  1  0
  2  3  1  0
  3  4  2  0
  4  5  1  0
  5  6  2  0
  6  7  1  0
  8  7  1  1
  8  9  1  0
  9 10  2  0
 10 11  1  0
 11 12  1  0
 12 13  1  0
 11 14  2  0
 14 15  1  0
 15 16  1  0
 14 17  1  0
 17 18  2  0
 18 19  1  0
 19 20  1  0
 20 21  1  0
 21 22  1  6
 21 23  1  0
 23 24  1  0
 24 25  1  0
 25 26  2  0
 25 27  1  0
 27 28  1  0
 28 29  1  0
 29 30  1  0
 30 31  1  0
 31 32  1  0
 32 33  1  0
 33 34  1  0
 34 35  2  0
 34 36  1  0
 36 37  1  0
 38 37  1  6
 38 39  1  0
 38 40  1  0
 40 41  1  0
 41 42  1  0
 42 43  2  0
 43 44  1  0
 44 45  1  0
 45 46  1  0
 44 47  2  0
 47 48  1  0
 48 49  1  0
 47 50  1  0
 50 51  2  0
 51 52  1  0
 52 53  1  1
 53 54  1  0
 54 55  2  0
 55 56  1  0
 56 57  2  0
 57 58  1  0
 58 59  1  0
 57 60  1  0
 60 61  1  0
 61 62  1  0
 60 63  2  0
  6 64  1  0
 64 65  2  0
 65 66  1  0
 66 67  1  0
 65  3  1  0
 21  8  1  0
 52 38  1  0
 63 54  1  0
 18  9  1  0
 51 42  1  0
M  CHG  2  21   1  38   1
M  END
>  <supplier_code>  (581) 
DB00732

>  <zinc_id>  (581) 
ZINC000238809665

>  <catalog_short_name>  (581) 
dbfda

$$$$

     RDKit          3D

 10 10  0  0  0  0  0  0  0  0999 V2000
   -0.0765    2.2002   -0.7136 C   0  0  0  0  0  0  0  0  0  0  0  0
   -0.6450    0.9364   -0.3015 N   0  0  0  0  0  0  0  0  0  0  0  0
   -1.7164    0.3873   -0.9242 C   0  0  0  0  0  0  0  0  0  0  0  0
   -2.1604   -0.8801   -0.5617 C   0  0  0  0  0  0  0  0  0  0  0  0
   -1.8186   -1.2440    0.7367 C   0  0  0  0  0  0  0  0  0  0  0  0
   -0.6625   -0.7342    1.3205 C   0  0  0  0  0  0  0  0  0  0  0  0
    0.0624    0.2019    0.5917 C   0  0  0  0  0  0  0  0  0  0  0  0
    1.5299    0.2474    0.6266 C   0  0  0  0  0  0  0  0  0  0  0  0
    2.1111   -0.6128   -0.1496 N   0  0  0  0  0  0  0  0  0  0  0  0
    3.3761   -0.5021   -0.6250 O   0  0  0  0  0  0  0  0  0  0  0  0
  1  2  1  0
  2  3  2  0
  3  4  1  0
  4  5  2  0
  5  6  1  0
  6  7  2  0
  7  8  1  0
  8  9  2  0
  9 10  1  0
  7  2  1  0
M  CHG  1   2   1
M  END
>  <supplier_code>  (582) 
DB00733

>  <zinc_id>  (582) 
ZINC000004577910

>  <catalog_short_name>  (582) 
dbfda

$$$$

     RDKit          3D

 10 10  0  0  0  0  0  0  0  0999 V2000
   -1.1042    2.2508   -0.5381 C   0  0  0  0  0  0  0  0  0  0  0  0
   -1.0176    0.8195   -0.2905 N   0  0  0  0  0  0  0  0  0  0  0  0
   -2.0442   -0.0866   -0.7155 C   0  0  0  0  0  0  0  0  0  0  0  0
   -1.9342   -1.3479   -0.2945 C   0  0  0  0  0  0  0  0  0  0  0  0
   -0.8976   -1.7855    0.6225 C   0  0  0  0  0  0  0  0  0  0  0  0
    0.1637   -1.0283    0.8717 C   0  0  0  0  0  0  0  0  0  0  0  0
    0.1533    0.3550    0.3894 C   0  0  0  0  0  0  0  0  0  0  0  0
    1.3194    0.9685    0.3258 C   0  0  0  0  0  0  0  0  0  0  0  0
    2.5626    0.2559    0.3377 N   0  0  0  0  0  0  0  0  0  0  0  0
    2.7989   -0.4013   -0.7085 O   0  0  0  0  0  0  0  0  0  0  0  0
  1  2  1  0
  2  3  1  0
  3  4  2  0
  4  5  1  0
  5  6  2  0
  6  7  1  0
  7  8  2  0
  8  9  1  0
  9 10  2  0
  7  2  1  0
M  END
>  <supplier_code>  (583) 
DB00733

>  <zinc_id>  (583) 
ZINC000012503156

>  <catalog_short_name>  (583) 
dbfda

$$$$

     RDKit          3D

 10 10  0  0  0  0  0  0  0  0999 V2000
    0.7609    1.8405   -0.5166 C   0  0  0  0  0  0  0  0  0  0  0  0
   -0.3197    0.8824   -0.3927 N   0  0  0  0  0  0  0  0  0  0  0  0
   -1.6031    1.2236    0.1460 C   0  0  0  0  0  0  0  0  0  0  0  0
   -2.3417    0.3147    0.7884 C   0  0  0  0  0  0  0  0  0  0  0  0
   -2.2518   -1.0402    0.2276 C   0  0  0  0  0  0  0  0  0  0  0  0
   -1.0874   -1.4336   -0.2906 C   0  0  0  0  0  0  0  0  0  0  0  0
    0.0261   -0.5034   -0.5098 C   0  0  0  0  0  0  0  0  0  0  0  0
    1.2934   -0.8567   -0.3792 C   0  0  0  0  0  0  0  0  0  0  0  0
    2.3076    0.0304    0.1034 N   0  0  0  0  0  0  0  0  0  0  0  0
    3.2157   -0.4576    0.8235 O   0  0  0  0  0  0  0  0  0  0  0  0
  1  2  1  0
  2  3  1  0
  3  4  2  0
  4  5  1  0
  5  6  2  0
  6  7  1  0
  7  8  2  0
  8  9  1  0
  9 10  2  0
  7  2  1  0
M  END
>  <supplier_code>  (584) 
DB00733

>  <zinc_id>  (584) 
ZINC000100061056

>  <catalog_short_name>  (584) 
dbfda

$$$$

     RDKit          3D

 30 34  0  0  0  0  0  0  0  0999 V2000
   -3.9114    2.3754    2.1898 C   0  0  0  0  0  0  0  0  0  0  0  0
   -4.0849    1.2603    1.2365 C   0  0  0  0  0  0  0  0  0  0  0  0
   -4.8979    0.2344    1.5872 N   0  0  0  0  0  0  0  0  0  0  0  0
   -5.1970   -0.6578    0.6369 C   0  0  0  0  0  0  0  0  0  0  0  0
   -4.7155   -0.6039   -0.6089 N   0  0  0  0  0  0  0  0  0  0  0  0
   -3.8007    0.3428   -0.9200 C   0  0  0  0  0  0  0  0  0  0  0  0
   -3.0626    0.1496   -1.9243 O   0  0  0  0  0  0  0  0  0  0  0  0
   -3.6093    1.4144   -0.0551 C   0  0  0  0  0  0  0  0  0  0  0  0
   -2.3586    2.1926   -0.2247 C   0  0  0  0  0  0  0  0  0  0  0  0
   -1.2161    1.1984   -0.3609 C   0  0  0  0  0  0  0  0  0  0  0  0
   -0.3172    1.4064    0.7727 N   0  0  0  0  0  0  0  0  0  0  0  0
    0.0169    0.1051    1.2790 C   0  0  0  0  0  0  0  0  0  0  0  0
    1.4411   -0.0330    1.7322 C   0  0  0  0  0  0  0  0  0  0  0  0
    2.4499    0.4177    0.7258 C   0  0  0  0  0  0  0  0  0  0  0  0
    3.3829   -0.6264    0.2840 C   0  0  0  0  0  0  0  0  0  0  0  0
    3.4271   -1.9477    0.5479 N   0  0  0  0  0  0  0  0  0  0  0  0
    4.6404   -2.3739    0.4234 O   0  0  0  0  0  0  0  0  0  0  0  0
    5.4416   -1.4378   -0.0290 C   0  0  0  0  0  0  0  0  0  0  0  0
    6.8185   -1.3025   -0.1701 C   0  0  0  0  0  0  0  0  0  0  0  0
    7.3504   -0.0265   -0.2841 C   0  0  0  0  0  0  0  0  0  0  0  0
    8.5096    0.3383    0.3354 F   0  0  0  0  0  0  0  0  0  0  0  0
    6.5549    0.9175   -0.9176 C   0  0  0  0  0  0  0  0  0  0  0  0
    5.1777    0.7332   -0.9362 C   0  0  0  0  0  0  0  0  0  0  0  0
    4.6040   -0.3690   -0.3255 C   0  0  0  0  0  0  0  0  0  0  0  0
    1.7234    1.0940   -0.4016 C   0  0  0  0  0  0  0  0  0  0  0  0
    0.8165    2.1334    0.2480 C   0  0  0  0  0  0  0  0  0  0  0  0
   -5.3435   -1.3813   -1.6730 C   0  0  0  0  0  0  0  0  0  0  0  0
   -6.8182   -1.4887   -1.3121 C   0  0  0  0  0  0  0  0  0  0  0  0
   -7.0062   -2.2348   -0.0193 C   0  0  0  0  0  0  0  0  0  0  0  0
   -6.0156   -1.8302    1.0409 C   0  0  0  0  0  0  0  0  0  0  0  0
  1  2  1  0
  2  3  1  0
  3  4  2  0
  4  5  1  0
  5  6  1  0
  6  7  2  0
  6  8  1  0
  8  9  1  0
  9 10  1  0
 10 11  1  0
 11 12  1  0
 12 13  1  0
 13 14  1  0
 14 15  1  0
 15 16  2  0
 16 17  1  0
 17 18  1  0
 18 19  2  0
 19 20  1  0
 20 21  1  0
 20 22  2  0
 22 23  1  0
 23 24  2  0
 14 25  1  0
 25 26  1  0
  5 27  1  0
 27 28  1  0
 28 29  1  0
 29 30  1  0
  8  2  2  0
 26 11  1  0
 30  4  1  0
 24 15  1  0
 24 18  1  0
M  END
>  <supplier_code>  (585) 
DB00734

>  <zinc_id>  (585) 
ZINC000000538312

>  <catalog_short_name>  (585) 
dbfda

$$$$

     RDKit          3D

 22 24  0  0  0  0  0  0  0  0999 V2000
    0.2964    2.1739    1.9449 C   0  0  0  0  0  0  0  0  0  0  0  0
   -0.3834    0.9848    1.4488 N   0  0  0  0  0  0  0  0  0  0  0  0
    0.4259   -0.1542    1.8234 C   0  0  0  0  0  0  0  0  0  0  0  0
    1.8659    0.1136    1.6116 C   0  0  0  0  0  0  0  0  0  0  0  0
    2.2693    0.7632    0.5212 C   0  0  0  0  0  0  0  0  0  0  0  0
    3.6091    0.5597   -0.0428 C   0  0  0  0  0  0  0  0  0  0  0  0
    4.7407    0.9364    0.6698 C   0  0  0  0  0  0  0  0  0  0  0  0
    5.9536    0.2859    0.4825 C   0  0  0  0  0  0  0  0  0  0  0  0
    6.0118   -0.8615   -0.2972 C   0  0  0  0  0  0  0  0  0  0  0  0
    4.9425   -1.1131   -1.1443 C   0  0  0  0  0  0  0  0  0  0  0  0
    3.8007   -0.3425   -1.0688 C   0  0  0  0  0  0  0  0  0  0  0  0
   -0.6245    1.0329    0.0313 C   0  0  0  0  0  0  0  0  0  0  0  0
   -1.5120   -0.0936   -0.3175 C   0  0  0  0  0  0  0  0  0  0  0  0
   -0.9876   -1.1778   -1.0113 C   0  0  0  0  0  0  0  0  0  0  0  0
   -1.8476   -2.2404   -1.2597 C   0  0  0  0  0  0  0  0  0  0  0  0
   -3.1322   -2.2032   -0.7333 C   0  0  0  0  0  0  0  0  0  0  0  0
   -3.6824   -0.9828   -0.3794 C   0  0  0  0  0  0  0  0  0  0  0  0
   -5.0505   -0.7932   -0.2457 C   0  0  0  0  0  0  0  0  0  0  0  0
   -5.6049    0.4637   -0.4554 C   0  0  0  0  0  0  0  0  0  0  0  0
   -4.7867    1.5534   -0.7238 C   0  0  0  0  0  0  0  0  0  0  0  0
   -3.4386    1.3849   -0.4313 C   0  0  0  0  0  0  0  0  0  0  0  0
   -2.8654    0.1274   -0.4231 C   0  0  0  0  0  0  0  0  0  0  0  0
  1  2  1  0
  2  3  1  0
  3  4  1  0
  4  5  2  0
  5  6  1  0
  6  7  2  0
  7  8  1  0
  8  9  2  0
  9 10  1  0
 10 11  2  0
  2 12  1  0
 12 13  1  0
 13 14  2  0
 14 15  1  0
 15 16  2  0
 16 17  1  0
 17 18  2  0
 18 19  1  0
 19 20  2  0
 20 21  1  0
 21 22  2  0
 11  6  1  0
 22 13  1  0
 22 17  1  0
M  END
>  <supplier_code>  (586) 
DB00735

>  <zinc_id>  (586) 
ZINC000001530977

>  <catalog_short_name>  (586) 
dbfda

$$$$

     RDKit          3D

 22 24  0  0  0  0  0  0  0  0999 V2000
    0.2140    1.3260    1.6437 C   0  0  0  0  0  0  0  0  0  0  0  0
    0.1455    1.7507    0.2695 N   0  0  0  0  0  0  0  0  0  0  0  0
    1.4363    1.4983   -0.3678 C   0  0  0  0  0  0  0  0  0  0  0  0
    1.3813    0.0774   -0.8373 C   0  0  0  0  0  0  0  0  0  0  0  0
    2.1719   -0.7549   -0.1558 C   0  0  0  0  0  0  0  0  0  0  0  0
    3.5896   -0.3703   -0.1655 C   0  0  0  0  0  0  0  0  0  0  0  0
    4.1726   -0.3205   -1.4272 C   0  0  0  0  0  0  0  0  0  0  0  0
    5.4558    0.1616   -1.5765 C   0  0  0  0  0  0  0  0  0  0  0  0
    6.2610    0.1249   -0.4580 C   0  0  0  0  0  0  0  0  0  0  0  0
    5.7736   -0.3313    0.7581 C   0  0  0  0  0  0  0  0  0  0  0  0
    4.4037   -0.4686    0.9289 C   0  0  0  0  0  0  0  0  0  0  0  0
   -0.8402    1.0534   -0.5080 C   0  0  0  0  0  0  0  0  0  0  0  0
   -2.1706    0.9823    0.1469 C   0  0  0  0  0  0  0  0  0  0  0  0
   -3.0560    2.0366   -0.0434 C   0  0  0  0  0  0  0  0  0  0  0  0
   -4.4305    1.8651    0.0369 C   0  0  0  0  0  0  0  0  0  0  0  0
   -4.9530    0.6197    0.3124 C   0  0  0  0  0  0  0  0  0  0  0  0
   -4.1192   -0.4720    0.1051 C   0  0  0  0  0  0  0  0  0  0  0  0
   -4.6268   -1.7659    0.1166 C   0  0  0  0  0  0  0  0  0  0  0  0
   -3.6864   -2.7744   -0.0567 C   0  0  0  0  0  0  0  0  0  0  0  0
   -2.4009   -2.6388    0.4461 C   0  0  0  0  0  0  0  0  0  0  0  0
   -1.9586   -1.3348    0.6349 C   0  0  0  0  0  0  0  0  0  0  0  0
   -2.7628   -0.2646    0.3051 C   0  0  0  0  0  0  0  0  0  0  0  0
  1  2  1  0
  2  3  1  0
  3  4  1  0
  4  5  2  0
  5  6  1  0
  6  7  2  0
  7  8  1  0
  8  9  2  0
  9 10  1  0
 10 11  2  0
  2 12  1  0
 12 13  1  0
 13 14  2  0
 14 15  1  0
 15 16  2  0
 16 17  1  0
 17 18  2  0
 18 19  1  0
 19 20  2  0
 20 21  1  0
 21 22  2  0
 11  6  1  0
 22 13  1  0
 22 17  1  0
M  END
>  <supplier_code>  (587) 
DB00735

>  <zinc_id>  (587) 
ZINC000007997897

>  <catalog_short_name>  (587) 
dbfda

$$$$

     RDKit          3D

 24 26  0  0  0  0  0  0  0  0999 V2000
    5.6246    2.7678    0.0294 C   0  0  0  0  0  0  0  0  0  0  0  0
    5.1271    2.3425   -0.2337 O   0  0  0  0  0  0  0  0  0  0  0  0
    4.4517    1.1273   -0.0508 C   0  0  0  0  0  0  0  0  0  0  0  0
    4.9014    0.3019    0.9463 C   0  0  0  0  0  0  0  0  0  0  0  0
    4.4157   -0.9886    1.0171 C   0  0  0  0  0  0  0  0  0  0  0  0
    3.2178   -1.2964    0.3878 C   0  0  0  0  0  0  0  0  0  0  0  0
    2.3027   -2.2697    0.4806 N   0  0  0  0  0  0  0  0  0  0  0  0
    1.2097   -1.9144   -0.2406 C   0  0  0  0  0  0  0  0  0  0  0  0
   -0.4571   -2.5145    0.1299 S   0  0  0  0  0  0  0  0  0  0  0  0
   -0.4321   -3.8558   -0.6676 O   0  0  0  0  0  0  0  0  0  0  0  0
   -1.5040   -1.5133   -1.0084 C   0  0  0  0  0  0  0  0  0  0  0  0
   -2.4620   -0.6929   -0.2156 C   0  0  0  0  0  0  0  0  0  0  0  0
   -3.5752   -1.3067    0.2549 N   0  0  0  0  0  0  0  0  0  0  0  0
   -4.7568   -0.6717    0.3611 C   0  0  0  0  0  0  0  0  0  0  0  0
   -4.8722    0.6912    0.1720 C   0  0  0  0  0  0  0  0  0  0  0  0
   -6.2122    1.3461    0.2488 C   0  0  0  0  0  0  0  0  0  0  0  0
   -3.7836    1.3394   -0.3641 C   0  0  0  0  0  0  0  0  0  0  0  0
   -3.8991    2.6584   -0.7522 O   0  0  0  0  0  0  0  0  0  0  0  0
   -2.8272    3.2749   -1.4317 C   0  0  0  0  0  0  0  0  0  0  0  0
   -2.6565    0.6069   -0.6678 C   0  0  0  0  0  0  0  0  0  0  0  0
   -1.6755    1.2178   -1.6058 C   0  0  0  0  0  0  0  0  0  0  0  0
    1.5966   -0.9009   -0.9989 N   0  0  0  0  0  0  0  0  0  0  0  0
    2.8375   -0.4837   -0.6646 C   0  0  0  0  0  0  0  0  0  0  0  0
    3.4286    0.7342   -0.8671 C   0  0  0  0  0  0  0  0  0  0  0  0
  1  2  1  0
  2  3  1  0
  3  4  2  0
  4  5  1  0
  5  6  2  0
  6  7  1  0
  7  8  2  0
  9  8  1  6
  9 10  2  0
  9 11  1  0
 11 12  1  0
 12 13  2  0
 13 14  1  0
 14 15  2  0
 15 16  1  0
 15 17  1  0
 17 18  1  0
 18 19  1  0
 17 20  2  0
 20 21  1  0
  8 22  1  0
 22 23  1  0
 23 24  2  0
 24  3  1  0
 23  6  1  0
 20 12  1  0
M  END
>  <supplier_code>  (588) 
DB00736

>  <zinc_id>  (588) 
ZINC000004693574

>  <catalog_short_name>  (588) 
dbfda

$$$$

     RDKit          3D

 28 31  0  0  0  0  0  0  0  0999 V2000
    6.7207    0.0987    1.6844 C   0  0  0  0  0  0  0  0  0  0  0  0
    6.0838    0.2033    0.4216 C   0  0  0  0  0  0  0  0  0  0  0  0
    6.8507    0.0635   -0.7156 C   0  0  0  0  0  0  0  0  0  0  0  0
    6.2363    0.2917   -1.9256 C   0  0  0  0  0  0  0  0  0  0  0  0
    4.8952    0.5174   -2.0452 C   0  0  0  0  0  0  0  0  0  0  0  0
    4.1303    0.5585   -0.8852 C   0  0  0  0  0  0  0  0  0  0  0  0
    2.6571    0.4973   -1.1432 C   0  0  0  0  0  0  0  0  0  0  0  0
    1.9555    1.3824   -0.2504 N   0  0  0  0  0  0  0  0  0  0  0  0
    1.4622    0.5551    0.8355 C   0  0  0  0  0  0  0  0  0  0  0  0
    0.4695   -0.4314    0.2831 C   0  0  0  0  0  0  0  0  0  0  0  0
   -0.6490    0.3223   -0.2856 N   0  0  0  0  0  0  0  0  0  0  0  0
   -1.5324   -0.8956   -0.7689 C   0  0  2  0  0  0  0  0  0  0  0  0
   -2.7003    0.0293   -1.3874 C   0  0  0  0  0  0  0  0  0  0  0  0
   -2.9829    1.2353   -0.9179 C   0  0  0  0  0  0  0  0  0  0  0  0
   -4.2693    1.7559   -1.0225 C   0  0  0  0  0  0  0  0  0  0  0  0
   -5.2292    0.9852   -1.6535 C   0  0  0  0  0  0  0  0  0  0  0  0
   -4.9682   -0.2920   -2.1297 C   0  0  0  0  0  0  0  0  0  0  0  0
   -3.7375   -0.8143   -1.7595 C   0  0  0  0  0  0  0  0  0  0  0  0
   -2.2827   -1.0710    0.6502 C   0  0  0  0  0  0  0  0  0  0  0  0
   -2.5361    0.0020    1.4136 C   0  0  0  0  0  0  0  0  0  0  0  0
   -3.0544   -0.1342    2.6816 C   0  0  0  0  0  0  0  0  0  0  0  0
   -3.4119   -1.4029    3.0808 C   0  0  0  0  0  0  0  0  0  0  0  0
   -4.8093   -1.6711    4.1137 Cl  0  0  0  0  0  0  0  0  0  0  0  0
   -2.6863   -2.4389    2.5103 C   0  0  0  0  0  0  0  0  0  0  0  0
   -2.0112   -2.2594    1.3065 C   0  0  0  0  0  0  0  0  0  0  0  0
   -0.1380    0.9459   -1.4760 C   0  0  0  0  0  0  0  0  0  0  0  0
    0.8379    1.9889   -0.9434 C   0  0  0  0  0  0  0  0  0  0  0  0
    4.6995    0.2835    0.3284 C   0  0  0  0  0  0  0  0  0  0  0  0
  1  2  1  0
  2  3  2  0
  3  4  1  0
  4  5  2  0
  5  6  1  0
  6  7  1  0
  7  8  1  0
  8  9  1  0
  9 10  1  0
 10 11  1  0
 12 11  1  1
 12 13  1  0
 13 14  2  0
 14 15  1  0
 15 16  2  0
 16 17  1  0
 17 18  2  0
 12 19  1  0
 19 20  2  0
 20 21  1  0
 21 22  2  0
 22 23  1  0
 22 24  1  0
 24 25  2  0
 11 26  1  0
 26 27  1  0
  6 28  2  0
 28  2  1  0
 27  8  1  0
 18 13  1  0
 25 19  1  0
M  END
>  <supplier_code>  (589) 
DB00737

>  <zinc_id>  (589) 
ZINC000019361042

>  <catalog_short_name>  (589) 
dbfda

$$$$

     RDKit          3D

 28 31  0  0  0  0  0  0  0  0999 V2000
    6.7441   -0.7348   -1.5555 C   0  0  0  0  0  0  0  0  0  0  0  0
    6.0539   -0.5123   -0.4760 C   0  0  0  0  0  0  0  0  0  0  0  0
    6.4824   -1.0254    0.7356 C   0  0  0  0  0  0  0  0  0  0  0  0
    5.7581   -0.8329    1.9052 C   0  0  0  0  0  0  0  0  0  0  0  0
    4.5968   -0.0719    1.8803 C   0  0  0  0  0  0  0  0  0  0  0  0
    4.1770    0.4818    0.6910 C   0  0  0  0  0  0  0  0  0  0  0  0
    2.7359    0.8602    0.5717 C   0  0  0  0  0  0  0  0  0  0  0  0
    2.1377    0.2720   -0.6266 N   0  0  0  0  0  0  0  0  0  0  0  0
    1.4424   -0.9686   -0.3083 C   0  0  0  0  0  0  0  0  0  0  0  0
    0.3811   -0.8369    0.7114 C   0  0  0  0  0  0  0  0  0  0  0  0
   -0.5160    0.2661    0.5783 N   0  0  0  0  0  0  0  0  0  0  0  0
   -1.2705    0.0911   -0.8065 C   0  0  1  0  0  0  0  0  0  0  0  0
   -2.4808   -0.7825   -0.1619 C   0  0  0  0  0  0  0  0  0  0  0  0
   -3.3114   -1.1966   -1.2074 C   0  0  0  0  0  0  0  0  0  0  0  0
   -4.3229   -2.1240   -0.9775 C   0  0  0  0  0  0  0  0  0  0  0  0
   -4.2756   -2.7725    0.2517 C   0  0  0  0  0  0  0  0  0  0  0  0
   -3.0762   -2.7606    0.9537 C   0  0  0  0  0  0  0  0  0  0  0  0
   -2.0705   -1.8732    0.5905 C   0  0  0  0  0  0  0  0  0  0  0  0
   -2.1112    1.4746   -0.6960 C   0  0  0  0  0  0  0  0  0  0  0  0
   -3.2473    1.4679   -1.5034 C   0  0  0  0  0  0  0  0  0  0  0  0
   -4.2966    2.3626   -1.3124 C   0  0  0  0  0  0  0  0  0  0  0  0
   -4.4247    2.8339   -0.0110 C   0  0  0  0  0  0  0  0  0  0  0  0
   -5.9696    3.0682    0.7706 Cl  0  0  0  0  0  0  0  0  0  0  0  0
   -3.2106    3.0818    0.6190 C   0  0  0  0  0  0  0  0  0  0  0  0
   -2.2391    2.0983    0.4845 C   0  0  0  0  0  0  0  0  0  0  0  0
    0.3530    1.4235    0.3503 C   0  0  0  0  0  0  0  0  0  0  0  0
    1.0479    1.1816   -0.9876 C   0  0  0  0  0  0  0  0  0  0  0  0
    4.9126    0.2695   -0.4638 C   0  0  0  0  0  0  0  0  0  0  0  0
  1  2  1  0
  2  3  2  0
  3  4  1  0
  4  5  2  0
  5  6  1  0
  6  7  1  0
  7  8  1  0
  8  9  1  0
  9 10  1  0
 10 11  1  0
 12 11  1  1
 12 13  1  0
 13 14  2  0
 14 15  1  0
 15 16  2  0
 16 17  1  0
 17 18  2  0
 12 19  1  0
 19 20  2  0
 20 21  1  0
 21 22  2  0
 22 23  1  0
 22 24  1  0
 24 25  2  0
 11 26  1  0
 26 27  1  0
  6 28  2  0
 28  2  1  0
 27  8  1  0
 18 13  1  0
 25 19  1  0
M  END
>  <supplier_code>  (590) 
DB00737

>  <zinc_id>  (590) 
ZINC000019594557

>  <catalog_short_name>  (590) 
dbfda

$$$$

     RDKit          3D

 25 26  0  0  0  0  0  0  0  0999 V2000
   -7.5638    1.0420   -1.2632 N   0  0  0  0  0  0  0  0  0  0  0  0
   -6.5341    1.5603   -0.6761 C   0  0  0  0  0  0  0  0  0  0  0  0
   -6.7146    2.8545   -0.1008 N   0  0  0  0  0  0  0  0  0  0  0  0
   -5.3956    0.7075   -0.3774 C   0  0  0  0  0  0  0  0  0  0  0  0
   -5.5713   -0.6523   -0.2483 C   0  0  0  0  0  0  0  0  0  0  0  0
   -4.7435   -1.3799    0.5657 C   0  0  0  0  0  0  0  0  0  0  0  0
   -3.5115   -0.8851    0.9542 C   0  0  0  0  0  0  0  0  0  0  0  0
   -2.6248   -1.7751    1.5220 O   0  0  0  0  0  0  0  0  0  0  0  0
   -1.2583   -1.4888    1.7474 C   0  0  0  0  0  0  0  0  0  0  0  0
   -0.4641   -1.7111    0.4839 C   0  0  0  0  0  0  0  0  0  0  0  0
    0.5771   -0.6189    0.3653 C   0  0  0  0  0  0  0  0  0  0  0  0
    0.9182   -0.3044   -1.0644 C   0  0  0  0  0  0  0  0  0  0  0  0
    1.9086   -1.3048   -1.5871 C   0  0  0  0  0  0  0  0  0  0  0  0
    2.5883   -2.0093   -0.5729 O   0  0  0  0  0  0  0  0  0  0  0  0
    3.8311   -1.5769   -0.0962 C   0  0  0  0  0  0  0  0  0  0  0  0
    3.9326   -0.8992    1.1134 C   0  0  0  0  0  0  0  0  0  0  0  0
    4.7239    0.2366    1.2347 C   0  0  0  0  0  0  0  0  0  0  0  0
    5.5332    0.6550    0.1851 C   0  0  0  0  0  0  0  0  0  0  0  0
    5.7131    2.0808   -0.1201 C   0  0  0  0  0  0  0  0  0  0  0  0
    6.8246    2.5461   -0.6001 N   0  0  0  0  0  0  0  0  0  0  0  0
    4.6046    2.9873   -0.1555 N   0  0  0  0  0  0  0  0  0  0  0  0
    5.7855   -0.3264   -0.7664 C   0  0  0  0  0  0  0  0  0  0  0  0
    4.9095   -1.3888   -0.9535 C   0  0  0  0  0  0  0  0  0  0  0  0
   -3.2236    0.4127    0.6275 C   0  0  0  0  0  0  0  0  0  0  0  0
   -4.2451    1.2383    0.1877 C   0  0  0  0  0  0  0  0  0  0  0  0
  1  2  2  0
  2  3  1  0
  2  4  1  0
  4  5  2  0
  5  6  1  0
  6  7  2  0
  7  8  1  0
  8  9  1  0
  9 10  1  0
 10 11  1  0
 11 12  1  0
 12 13  1  0
 13 14  1  0
 14 15  1  0
 15 16  2  0
 16 17  1  0
 17 18  2  0
 18 19  1  0
 19 20  2  0
 19 21  1  0
 18 22  1  0
 22 23  2  0
  7 24  1  0
 24 25  2  0
 25  4  1  0
 23 15  1  0
M  END
>  <supplier_code>  (591) 
DB00738

>  <zinc_id>  (591) 
ZINC000001530775

>  <catalog_short_name>  (591) 
dbfda

$$$$

     RDKit          3D

 15 16  0  0  0  0  0  0  0  0999 V2000
    5.1032    0.5718    0.9467 N   0  0  0  0  0  0  0  0  0  0  0  0
    3.6874    0.6406    0.7543 C   0  0  0  0  0  0  0  0  0  0  0  0
    3.0086    1.0465   -0.3486 N   0  0  0  0  0  0  0  0  0  0  0  0
    1.7915    0.4963   -0.4131 C   0  0  0  0  0  0  0  0  0  0  0  0
    1.0292    0.2607   -1.5530 C   0  0  0  0  0  0  0  0  0  0  0  0
   -0.2800   -0.1846   -1.4149 C   0  0  0  0  0  0  0  0  0  0  0  0
   -1.0206    0.2440   -0.3389 C   0  0  0  0  0  0  0  0  0  0  0  0
   -2.3742    0.4933   -0.3668 O   0  0  0  0  0  0  0  0  0  0  0  0
   -3.3049   -0.5458   -0.2018 C   0  0  0  0  0  0  0  0  0  0  0  0
   -4.4518   -0.1570    0.4499 F   0  0  0  0  0  0  0  0  0  0  0  0
   -3.6674   -0.9773   -1.4640 F   0  0  0  0  0  0  0  0  0  0  0  0
   -2.7097   -1.5672    0.4932 F   0  0  0  0  0  0  0  0  0  0  0  0
   -0.2967    0.5980    0.7946 C   0  0  0  0  0  0  0  0  0  0  0  0
    1.0898    0.6832    0.7734 C   0  0  0  0  0  0  0  0  0  0  0  0
    2.3958    0.6846    1.8889 S   0  0  0  0  0  0  0  0  0  0  0  0
  1  2  1  0
  2  3  2  0
  3  4  1  0
  4  5  2  0
  5  6  1  0
  6  7  2  0
  7  8  1  0
  8  9  1  0
  9 10  1  0
  9 11  1  0
  9 12  1  0
  7 13  1  0
 13 14  2  0
 14 15  1  0
 15  2  1  0
 14  4  1  0
M  END
>  <supplier_code>  (592) 
DB00740

>  <zinc_id>  (592) 
ZINC000000006481

>  <catalog_short_name>  (592) 
dbfda

$$$$

     RDKit          3D

 26 29  0  0  0  0  0  0  0  0999 V2000
    2.0621   -1.6196    0.5315 C   0  0  0  0  0  0  0  0  0  0  0  0
    1.7396   -0.2304    0.5075 C   0  0  2  0  0  0  0  0  0  0  0  0
    0.8326    0.0264    1.5174 C   0  0  0  0  0  0  0  0  0  0  0  0
   -0.3459    1.1152    1.2387 C   0  0  2  0  0  0  0  0  0  0  0  0
   -1.1303    0.5709    2.4141 O   0  0  0  0  0  0  0  0  0  0  0  0
   -1.2166    0.3588   -0.0221 C   0  0  1  0  0  0  0  0  0  0  0  0
   -0.2791   -1.0138   -0.2216 C   0  0  1  0  0  0  0  0  0  0  0  0
   -0.9254   -1.3194   -1.6582 C   0  0  0  0  0  0  0  0  0  0  0  0
   -2.2552   -1.9609   -1.2736 C   0  0  0  0  0  0  0  0  0  0  0  0
   -3.0346   -0.9290   -0.5106 C   0  0  0  0  0  0  0  0  0  0  0  0
   -3.6591   -0.0718   -1.3270 C   0  0  0  0  0  0  0  0  0  0  0  0
   -4.6464    0.7828   -0.6506 C   0  0  0  0  0  0  0  0  0  0  0  0
   -4.9066    1.9328   -1.1168 O   0  0  0  0  0  0  0  0  0  0  0  0
   -4.7157    0.5500    0.8266 C   0  0  0  0  0  0  0  0  0  0  0  0
   -3.3296    0.5393    1.3472 C   0  0  0  0  0  0  0  0  0  0  0  0
   -2.3818   -0.4155    0.7538 C   0  0  2  0  0  0  0  0  0  0  0  0
   -1.9421   -1.5785    1.4960 C   0  0  0  0  0  0  0  0  0  0  0  0
    0.8790    0.0385   -0.8429 C   0  0  2  0  0  0  0  0  0  0  0  0
    1.7929   -1.0374   -1.6329 C   0  0  0  0  0  0  0  0  0  0  0  0
    3.0645   -0.2167   -1.3854 C   0  0  0  0  0  0  0  0  0  0  0  0
    2.8730    0.4533   -0.0214 C   0  0  1  0  0  0  0  0  0  0  0  0
    2.6595    1.8046   -0.0958 O   0  0  0  0  0  0  0  0  0  0  0  0
    4.1982    0.2510    0.6439 C   0  0  0  0  0  0  0  0  0  0  0  0
    4.4524   -0.9381    0.8472 O   0  0  0  0  0  0  0  0  0  0  0  0
    5.3258    0.9582   -0.0550 C   0  0  0  0  0  0  0  0  0  0  0  0
    4.8888    1.9493   -0.9110 O   0  0  0  0  0  0  0  0  0  0  0  0
  2  1  1  6
  2  3  1  0
  3  4  1  0
  4  5  1  1
  6  4  1  1
  6  7  1  0
  7  8  1  6
  8  9  1  0
  9 10  1  0
 10 11  2  0
 11 12  1  0
 12 13  2  0
 12 14  1  0
 14 15  1  0
 15 16  1  0
 16 17  1  1
  7 18  1  0
 18 19  1  6
 19 20  1  0
 20 21  1  0
 21 22  1  6
 21 23  1  0
 23 24  2  0
 23 25  1  0
 25 26  1  0
 18  2  1  0
 21  2  1  0
 16  6  1  0
 16 10  1  0
M  END
>  <supplier_code>  (593) 
DB00741

>  <zinc_id>  (593) 
ZINC000013540519

>  <catalog_short_name>  (593) 
dbfda

$$$$

     RDKit          3D

 12 11  0  0  0  0  0  0  0  0999 V2000
    1.9588    0.3412    1.9346 O   0  0  0  0  0  0  0  0  0  0  0  0
    1.1688   -0.7541    1.7486 C   0  0  0  0  0  0  0  0  0  0  0  0
    1.6731   -1.3817    0.3119 C   0  0  1  0  0  0  0  0  0  0  0  0
    0.3523   -2.0554    0.0524 O   0  0  0  0  0  0  0  0  0  0  0  0
    1.3653    0.1206   -0.4566 C   0  0  1  0  0  0  0  0  0  0  0  0
    1.8771   -0.4118   -1.7642 O   0  0  0  0  0  0  0  0  0  0  0  0
   -0.2385   -0.1559   -0.9556 C   0  0  2  0  0  0  0  0  0  0  0  0
   -0.1724    1.1001   -1.7686 O   0  0  0  0  0  0  0  0  0  0  0  0
   -0.9349    0.5349    0.4593 C   0  0  2  0  0  0  0  0  0  0  0  0
   -2.0198   -0.5226    0.4086 O   0  0  0  0  0  0  0  0  0  0  0  0
   -1.8995    1.6196   -0.3087 C   0  0  0  0  0  0  0  0  0  0  0  0
   -3.1302    1.5650    0.3383 O   0  0  0  0  0  0  0  0  0  0  0  0
  1  2  1  0
  3  2  1  1
  3  4  1  0
  3  5  1  0
  5  6  1  6
  5  7  1  0
  7  8  1  6
  7  9  1  0
  9 10  1  6
  9 11  1  0
 11 12  1  0
M  END
>  <supplier_code>  (594) 
DB00742

>  <zinc_id>  (594) 
ZINC000002041302

>  <catalog_short_name>  (594) 
dbfda

$$$$

     RDKit          3D

 36 36  0  0  0  0  0  0  0  0999 V2000
   -3.2969   -2.9995    0.9347 O   0  0  0  0  0  0  0  0  0  0  0  0
   -2.5506   -2.4828    0.3266 C   0  0  0  0  0  0  0  0  0  0  0  0
   -2.0189   -3.0914   -0.7927 O   0  0  0  0  0  0  0  0  0  0  0  0
   -2.2157   -1.0572    0.6286 C   0  0  0  0  0  0  0  0  0  0  0  0
   -2.0429   -0.2805   -0.5702 N   0  0  0  0  0  0  0  0  0  0  0  0
   -3.0811    0.7039   -0.7547 C   0  0  0  0  0  0  0  0  0  0  0  0
   -3.6475    1.1858    0.5591 C   0  0  0  0  0  0  0  0  0  0  0  0
   -5.0584    0.8311    0.6466 N   0  0  0  0  0  0  0  0  0  0  0  0
   -5.4437    0.1282   -0.5521 C   0  0  0  0  0  0  0  0  0  0  0  0
   -6.3049   -1.0566   -0.2650 C   0  0  0  0  0  0  0  0  0  0  0  0
   -7.2531   -1.2590   -1.0822 O   0  0  0  0  0  0  0  0  0  0  0  0
   -5.7406   -2.2117    0.2849 O   0  0  0  0  0  0  0  0  0  0  0  0
   -5.8783    1.9988    0.8468 C   0  0  0  0  0  0  0  0  0  0  0  0
   -5.3941    3.1772    0.0690 C   0  0  0  0  0  0  0  0  0  0  0  0
   -4.2576    3.6794    0.2767 O   0  0  0  0  0  0  0  0  0  0  0  0
   -6.3708    4.0712   -0.3799 O   0  0  0  0  0  0  0  0  0  0  0  0
   -0.7906    0.4560   -0.4412 C   0  0  0  0  0  0  0  0  0  0  0  0
    0.2778   -0.3927    0.2354 C   0  0  0  0  0  0  0  0  0  0  0  0
    1.3693   -0.5145   -0.6768 N   0  0  0  0  0  0  0  0  0  0  0  0
    1.6982   -1.9016   -0.9332 C   0  0  0  0  0  0  0  0  0  0  0  0
    1.5788   -2.7566    0.2650 C   0  0  0  0  0  0  0  0  0  0  0  0
    1.7386   -2.3118    1.4415 O   0  0  0  0  0  0  0  0  0  0  0  0
    1.6273   -4.1387    0.0628 O   0  0  0  0  0  0  0  0  0  0  0  0
    2.6544    0.0302    0.1175 C   0  0  1  0  0  0  0  0  0  0  0  0
    3.2442    0.7435   -1.2819 C   0  0  0  0  0  0  0  0  0  0  0  0
    4.1007   -0.2196   -1.7903 O   0  0  0  0  0  0  0  0  0  0  0  0
    4.8003   -0.7575   -0.7232 C   0  0  0  0  0  0  0  0  0  0  0  0
    5.9558    0.1146   -0.4054 C   0  0  0  0  0  0  0  0  0  0  0  0
    6.0046    1.4598   -0.7174 C   0  0  0  0  0  0  0  0  0  0  0  0
    6.9301    2.2639   -0.0810 C   0  0  0  0  0  0  0  0  0  0  0  0
    8.1138    1.6566    0.2967 C   0  0  0  0  0  0  0  0  0  0  0  0
    8.1531    0.2792    0.4192 C   0  0  0  0  0  0  0  0  0  0  0  0
    7.0071   -0.4661    0.2755 C   0  0  0  0  0  0  0  0  0  0  0  0
    1.8725    1.4076    0.5728 C   0  0  0  0  0  0  0  0  0  0  0  0
    1.4955    1.1850    1.7705 O   0  0  0  0  0  0  0  0  0  0  0  0
    2.7235    2.5259    0.5501 O   0  0  0  0  0  0  0  0  0  0  0  0
  1  2  2  0
  2  3  1  0
  2  4  1  0
  4  5  1  0
  5  6  1  0
  6  7  1  0
  7  8  1  0
  8  9  1  0
  9 10  1  0
 10 11  2  0
 10 12  1  0
  8 13  1  0
 13 14  1  0
 14 15  2  0
 14 16  1  0
  5 17  1  0
 17 18  1  0
 18 19  1  0
 19 20  1  0
 20 21  1  0
 21 22  2  0
 21 23  1  0
 24 19  1  6
 24 25  1  0
 25 26  1  0
 26 27  1  0
 27 28  1  0
 28 29  2  0
 29 30  1  0
 30 31  2  0
 31 32  1  0
 32 33  2  0
 24 34  1  0
 34 35  2  0
 34 36  1  0
 33 28  1  0
M  END
>  <supplier_code>  (595) 
DB00743

>  <zinc_id>  (595) 
ZINC000021982937

>  <catalog_short_name>  (595) 
dbfda

$$$$

     RDKit          3D

 36 36  0  0  0  0  0  0  0  0999 V2000
   -3.4704   -3.8375    0.8985 O   0  0  0  0  0  0  0  0  0  0  0  0
   -3.1520   -3.0846    0.1868 C   0  0  0  0  0  0  0  0  0  0  0  0
   -3.5825   -3.1762   -1.1419 O   0  0  0  0  0  0  0  0  0  0  0  0
   -2.1773   -2.0378    0.6270 C   0  0  0  0  0  0  0  0  0  0  0  0
   -2.0150   -0.9886   -0.3040 N   0  0  0  0  0  0  0  0  0  0  0  0
   -2.1887    0.3355    0.2289 C   0  0  0  0  0  0  0  0  0  0  0  0
   -3.5433    0.5048    0.8597 C   0  0  0  0  0  0  0  0  0  0  0  0
   -4.3754    1.2370   -0.0507 N   0  0  0  0  0  0  0  0  0  0  0  0
   -5.7507    0.8665    0.1330 C   0  0  0  0  0  0  0  0  0  0  0  0
   -5.9914   -0.3173   -0.7511 C   0  0  0  0  0  0  0  0  0  0  0  0
   -5.9481   -1.4632   -0.2096 O   0  0  0  0  0  0  0  0  0  0  0  0
   -5.3910   -0.2450   -2.0123 O   0  0  0  0  0  0  0  0  0  0  0  0
   -4.1337    2.6477   -0.0773 C   0  0  0  0  0  0  0  0  0  0  0  0
   -5.2234    3.4644    0.4866 C   0  0  0  0  0  0  0  0  0  0  0  0
   -5.2710    3.5928    1.7370 O   0  0  0  0  0  0  0  0  0  0  0  0
   -6.2990    3.8235   -0.3139 O   0  0  0  0  0  0  0  0  0  0  0  0
   -1.0077   -1.0183   -1.2416 C   0  0  0  0  0  0  0  0  0  0  0  0
    0.2741   -1.5853   -1.1271 C   0  0  0  0  0  0  0  0  0  0  0  0
    1.1251   -1.4480    0.0003 N   0  0  0  0  0  0  0  0  0  0  0  0
    1.6967   -2.7884    0.1754 C   0  0  0  0  0  0  0  0  0  0  0  0
    1.6553   -3.2397    1.5722 C   0  0  0  0  0  0  0  0  0  0  0  0
    1.7010   -4.4619    1.8435 O   0  0  0  0  0  0  0  0  0  0  0  0
    1.4593   -2.3774    2.6514 O   0  0  0  0  0  0  0  0  0  0  0  0
    2.3508   -0.7083   -0.6713 C   0  0  2  0  0  0  0  0  0  0  0  0
    3.3659   -1.0783    0.5712 C   0  0  0  0  0  0  0  0  0  0  0  0
    4.5673   -0.5898    0.0353 O   0  0  0  0  0  0  0  0  0  0  0  0
    4.8523    0.5911    0.6967 C   0  0  0  0  0  0  0  0  0  0  0  0
    5.8227    1.4473   -0.0126 C   0  0  0  0  0  0  0  0  0  0  0  0
    7.0613    1.0309   -0.4404 C   0  0  0  0  0  0  0  0  0  0  0  0
    7.9873    1.8939   -1.0067 C   0  0  0  0  0  0  0  0  0  0  0  0
    7.7309    3.2436   -0.9968 C   0  0  0  0  0  0  0  0  0  0  0  0
    6.5304    3.6798   -0.4907 C   0  0  0  0  0  0  0  0  0  0  0  0
    5.5917    2.8157    0.0219 C   0  0  0  0  0  0  0  0  0  0  0  0
    1.9495    0.7188   -0.0411 C   0  0  0  0  0  0  0  0  0  0  0  0
    1.6728    0.7839    1.1456 O   0  0  0  0  0  0  0  0  0  0  0  0
    2.1261    1.7687   -0.9072 O   0  0  0  0  0  0  0  0  0  0  0  0
  1  2  2  0
  2  3  1  0
  2  4  1  0
  4  5  1  0
  5  6  1  0
  6  7  1  0
  7  8  1  0
  8  9  1  0
  9 10  1  0
 10 11  2  0
 10 12  1  0
  8 13  1  0
 13 14  1  0
 14 15  2  0
 14 16  1  0
  5 17  1  0
 17 18  1  0
 18 19  1  0
 19 20  1  0
 20 21  1  0
 21 22  2  0
 21 23  1  0
 24 19  1  1
 24 25  1  0
 25 26  1  0
 26 27  1  0
 27 28  1  0
 28 29  2  0
 29 30  1  0
 30 31  2  0
 31 32  1  0
 32 33  2  0
 24 34  1  0
 34 35  2  0
 34 36  1  0
 33 28  1  0
M  END
>  <supplier_code>  (596) 
DB00743

>  <zinc_id>  (596) 
ZINC000033965961

>  <catalog_short_name>  (596) 
dbfda

$$$$

     RDKit          3D

 16 17  0  0  0  0  0  0  0  0999 V2000
    1.4199   -2.0603   -1.5818 C   0  0  0  0  0  0  0  0  0  0  0  0
    1.3885   -0.4472   -1.1608 C   0  0  1  0  0  0  0  0  0  0  0  0
    0.3552   -0.7341    0.0879 C   0  0  0  0  0  0  0  0  0  0  0  0
   -0.8514   -1.2926   -0.1773 C   0  0  0  0  0  0  0  0  0  0  0  0
   -1.9684   -0.6116    0.0668 C   0  0  0  0  0  0  0  0  0  0  0  0
   -3.2516   -0.7167   -0.4770 C   0  0  0  0  0  0  0  0  0  0  0  0
   -3.9241    0.4602   -0.7967 C   0  0  0  0  0  0  0  0  0  0  0  0
   -3.8892    1.4447    0.1858 C   0  0  0  0  0  0  0  0  0  0  0  0
   -2.9269    1.3101    1.1863 C   0  0  0  0  0  0  0  0  0  0  0  0
   -1.8609    0.4250    0.9839 C   0  0  0  0  0  0  0  0  0  0  0  0
   -0.1479    0.5443    1.1221 S   0  0  0  0  0  0  0  0  0  0  0  0
    2.6808   -0.6004   -0.2319 N   0  0  0  0  0  0  0  0  0  0  0  0
    3.7671   -0.9032   -1.0065 O   0  0  0  0  0  0  0  0  0  0  0  0
    2.8716    0.6695    0.4225 C   0  0  0  0  0  0  0  0  0  0  0  0
    3.6375    0.7857    1.6125 N   0  0  0  0  0  0  0  0  0  0  0  0
    2.6997    1.7265   -0.2356 O   0  0  0  0  0  0  0  0  0  0  0  0
  2  1  1  6
  2  3  1  0
  3  4  2  0
  4  5  1  0
  5  6  2  0
  6  7  1  0
  7  8  2  0
  8  9  1  0
  9 10  2  0
 10 11  1  0
  2 12  1  0
 12 13  1  0
 12 14  1  0
 14 15  1  0
 14 16  2  0
 11  3  1  0
 10  5  1  0
M  END
>  <supplier_code>  (597) 
DB00744

>  <zinc_id>  (597) 
ZINC000000000850

>  <catalog_short_name>  (597) 
dbfda

$$$$

     RDKit          3D

 16 17  0  0  0  0  0  0  0  0999 V2000
   -1.7418   -2.4203   -0.6681 C   0  0  0  0  0  0  0  0  0  0  0  0
   -1.6586   -0.7594   -0.8638 C   0  0  2  0  0  0  0  0  0  0  0  0
   -0.3230   -0.6517    0.0993 C   0  0  0  0  0  0  0  0  0  0  0  0
    0.8258   -1.0221   -0.5634 C   0  0  0  0  0  0  0  0  0  0  0  0
    1.9701   -0.5246   -0.0254 C   0  0  0  0  0  0  0  0  0  0  0  0
    3.2725   -0.9723   -0.2322 C   0  0  0  0  0  0  0  0  0  0  0  0
    4.3288   -0.1120   -0.1611 C   0  0  0  0  0  0  0  0  0  0  0  0
    4.1522    1.2626   -0.2415 C   0  0  0  0  0  0  0  0  0  0  0  0
    2.9182    1.7004    0.2281 C   0  0  0  0  0  0  0  0  0  0  0  0
    1.8512    0.8121    0.3344 C   0  0  0  0  0  0  0  0  0  0  0  0
    0.1743    0.8841    0.7032 S   0  0  0  0  0  0  0  0  0  0  0  0
   -2.6586   -0.4914    0.3584 N   0  0  0  0  0  0  0  0  0  0  0  0
   -2.4215   -1.1622    1.4717 O   0  0  0  0  0  0  0  0  0  0  0  0
   -3.2755    0.7756    0.2460 C   0  0  0  0  0  0  0  0  0  0  0  0
   -3.2678    1.7732    1.2661 N   0  0  0  0  0  0  0  0  0  0  0  0
   -4.1464    0.9082   -0.6673 O   0  0  0  0  0  0  0  0  0  0  0  0
  2  1  1  1
  2  3  1  0
  3  4  2  0
  4  5  1  0
  5  6  2  0
  6  7  1  0
  7  8  2  0
  8  9  1  0
  9 10  2  0
 10 11  1  0
  2 12  1  0
 12 13  1  0
 12 14  1  0
 14 15  1  0
 14 16  2  0
 11  3  1  0
 10  5  1  0
M  END
>  <supplier_code>  (598) 
DB00744

>  <zinc_id>  (598) 
ZINC000000896731

>  <catalog_short_name>  (598) 
dbfda

$$$$

     RDKit          3D

 19 20  0  0  0  0  0  0  0  0999 V2000
    4.5977   -0.7630   -0.1777 N   0  0  0  0  0  0  0  0  0  0  0  0
    3.6132   -1.1134    0.7595 C   0  0  0  0  0  0  0  0  0  0  0  0
    3.6187   -0.4067    1.8147 O   0  0  0  0  0  0  0  0  0  0  0  0
    2.2427   -1.3202    0.1851 C   0  0  0  0  0  0  0  0  0  0  0  0
    1.6047    0.3974    0.0419 S   0  0  0  0  0  0  0  0  0  0  0  0
    2.5324    0.9406   -1.0811 O   0  0  0  0  0  0  0  0  0  0  0  0
    0.0468    0.1451   -0.8958 C   0  0  0  0  0  0  0  0  0  0  0  0
   -0.7611    1.3736   -0.6148 C   0  0  0  0  0  0  0  0  0  0  0  0
   -2.1351    1.3434   -0.4913 C   0  0  0  0  0  0  0  0  0  0  0  0
   -2.7742    2.2936    0.2955 C   0  0  0  0  0  0  0  0  0  0  0  0
   -2.0096    3.2600    0.9378 C   0  0  0  0  0  0  0  0  0  0  0  0
   -0.8500    3.6346    0.2700 C   0  0  0  0  0  0  0  0  0  0  0  0
   -0.1583    2.5955   -0.3414 C   0  0  0  0  0  0  0  0  0  0  0  0
   -0.6328   -1.0851   -0.4529 C   0  0  0  0  0  0  0  0  0  0  0  0
   -1.1198   -1.2245    0.8401 C   0  0  0  0  0  0  0  0  0  0  0  0
   -2.0456   -2.1914    1.1748 C   0  0  0  0  0  0  0  0  0  0  0  0
   -2.6119   -2.9464    0.1800 C   0  0  0  0  0  0  0  0  0  0  0  0
   -1.9680   -3.0045   -1.0470 C   0  0  0  0  0  0  0  0  0  0  0  0
   -1.1898   -1.9286   -1.3973 C   0  0  0  0  0  0  0  0  0  0  0  0
  1  2  1  0
  2  3  2  0
  2  4  1  0
  5  4  1  6
  5  6  2  0
  5  7  1  0
  7  8  1  0
  8  9  2  0
  9 10  1  0
 10 11  2  0
 11 12  1  0
 12 13  2  0
  7 14  1  0
 14 15  2  0
 15 16  1  0
 16 17  2  0
 17 18  1  0
 18 19  2  0
 13  8  1  0
 19 14  1  0
M  END
>  <supplier_code>  (599) 
DB00745

>  <zinc_id>  (599) 
ZINC000000006156

>  <catalog_short_name>  (599) 
dbfda

$$$$

     RDKit          3D

 19 20  0  0  0  0  0  0  0  0999 V2000
    4.0121   -1.4120   -0.0502 N   0  0  0  0  0  0  0  0  0  0  0  0
    3.8306   -0.3915   -0.3446 C   0  0  0  0  0  0  0  0  0  0  0  0
    4.4736    0.1433   -1.3002 O   0  0  0  0  0  0  0  0  0  0  0  0
    2.5525    0.3110   -0.0002 C   0  0  0  0  0  0  0  0  0  0  0  0
    1.2351   -0.6648   -0.8323 S   0  0  0  0  0  0  0  0  0  0  0  0
    0.9335    0.2469   -2.0539 O   0  0  0  0  0  0  0  0  0  0  0  0
   -0.1841   -0.2761    0.2549 C   0  0  0  0  0  0  0  0  0  0  0  0
   -1.3578   -1.0982   -0.0652 C   0  0  0  0  0  0  0  0  0  0  0  0
   -1.4094   -2.0746   -1.0269 C   0  0  0  0  0  0  0  0  0  0  0  0
   -2.2186   -3.1887   -0.8369 C   0  0  0  0  0  0  0  0  0  0  0  0
   -2.9506   -3.3631    0.3312 C   0  0  0  0  0  0  0  0  0  0  0  0
   -3.0853   -2.2746    1.1794 C   0  0  0  0  0  0  0  0  0  0  0  0
   -2.3676   -1.1244    0.8894 C   0  0  0  0  0  0  0  0  0  0  0  0
   -0.4453    1.1689    0.2993 C   0  0  0  0  0  0  0  0  0  0  0  0
   -1.2358    1.6074    1.3555 C   0  0  0  0  0  0  0  0  0  0  0  0
   -1.5213    2.9259    1.5820 C   0  0  0  0  0  0  0  0  0  0  0  0
   -0.7066    3.8660    0.9821 C   0  0  0  0  0  0  0  0  0  0  0  0
    0.1331    3.4715   -0.0314 C   0  0  0  0  0  0  0  0  0  0  0  0
    0.3119    2.1273   -0.3319 C   0  0  0  0  0  0  0  0  0  0  0  0
  1  2  1  0
  2  3  2  0
  2  4  1  0
  5  4  1  1
  5  6  2  0
  5  7  1  0
  7  8  1  0
  8  9  2  0
  9 10  1  0
 10 11  2  0
 11 12  1  0
 12 13  2  0
  7 14  1  0
 14 15  2  0
 15 16  1  0
 16 17  2  0
 17 18  1  0
 18 19  2  0
 13  8  1  0
 19 14  1  0
M  END
>  <supplier_code>  (600) 
DB00745

>  <zinc_id>  (600) 
ZINC000003831139

>  <catalog_short_name>  (600) 
dbfda

$$$$

     RDKit          3D

 39 38  0  0  0  0  0  0  0  0999 V2000
  -10.9929   -0.6298    1.1522 C   0  0  0  0  0  0  0  0  0  0  0  0
  -10.1396    0.2048    0.2620 C   0  0  0  0  0  0  0  0  0  0  0  0
   -9.0529    0.6306    0.7435 O   0  0  0  0  0  0  0  0  0  0  0  0
  -10.3461    0.0630   -1.1416 N   0  0  0  0  0  0  0  0  0  0  0  0
  -10.6042    1.1445   -1.9277 O   0  0  0  0  0  0  0  0  0  0  0  0
   -9.6387   -1.0350   -1.7887 C   0  0  0  0  0  0  0  0  0  0  0  0
   -8.2104   -1.0324   -1.3068 C   0  0  0  0  0  0  0  0  0  0  0  0
   -7.3540   -0.3871   -2.3626 C   0  0  0  0  0  0  0  0  0  0  0  0
   -5.9035   -0.3024   -1.9048 C   0  0  0  0  0  0  0  0  0  0  0  0
   -5.8060   -0.8652   -0.5157 C   0  0  0  0  0  0  0  0  0  0  0  0
   -5.3934    0.1550    0.4315 N   0  0  0  0  0  0  0  0  0  0  0  0
   -4.4177   -0.2057    1.4149 C   0  0  0  0  0  0  0  0  0  0  0  0
   -3.8929   -1.3497    1.3572 O   0  0  0  0  0  0  0  0  0  0  0  0
   -3.6590    0.8569    2.1308 C   0  0  0  0  0  0  0  0  0  0  0  0
   -2.6589    1.5224    1.2235 C   0  0  0  0  0  0  0  0  0  0  0  0
   -2.0006    0.5451    0.3026 C   0  0  0  0  0  0  0  0  0  0  0  0
   -2.0427    0.8433   -0.9283 O   0  0  0  0  0  0  0  0  0  0  0  0
   -0.9541   -0.3068    0.7819 N   0  0  0  0  0  0  0  0  0  0  0  0
   -0.7268   -0.3817    2.1188 O   0  0  0  0  0  0  0  0  0  0  0  0
   -0.4951   -1.3328   -0.1463 C   0  0  0  0  0  0  0  0  0  0  0  0
    0.6893   -2.0465    0.4441 C   0  0  0  0  0  0  0  0  0  0  0  0
    1.6882   -1.0359    0.9393 C   0  0  0  0  0  0  0  0  0  0  0  0
    1.6065    0.2792    0.1883 C   0  0  0  0  0  0  0  0  0  0  0  0
    2.3871    1.2935    1.0162 C   0  0  0  0  0  0  0  0  0  0  0  0
    3.7936    1.0618    0.6985 N   0  0  0  0  0  0  0  0  0  0  0  0
    4.3614   -0.1337    1.2467 C   0  0  0  0  0  0  0  0  0  0  0  0
    4.2500   -0.2529    2.5043 O   0  0  0  0  0  0  0  0  0  0  0  0
    5.5210   -0.7875    0.6070 C   0  0  0  0  0  0  0  0  0  0  0  0
    5.1993   -1.3940   -0.7311 C   0  0  0  0  0  0  0  0  0  0  0  0
    5.5786   -0.5188   -1.8686 C   0  0  0  0  0  0  0  0  0  0  0  0
    4.7408   -0.4532   -2.8184 O   0  0  0  0  0  0  0  0  0  0  0  0
    6.9449   -0.2867   -2.2188 N   0  0  0  0  0  0  0  0  0  0  0  0
    7.2034    0.6752   -3.1424 O   0  0  0  0  0  0  0  0  0  0  0  0
    8.0569   -0.7488   -1.4284 C   0  0  0  0  0  0  0  0  0  0  0  0
    8.4749    0.3529   -0.4660 C   0  0  0  0  0  0  0  0  0  0  0  0
    9.3807   -0.2395    0.6033 C   0  0  0  0  0  0  0  0  0  0  0  0
   10.3786    0.8202    0.9831 C   0  0  0  0  0  0  0  0  0  0  0  0
   11.3405    0.1957    1.9794 C   0  0  0  0  0  0  0  0  0  0  0  0
   12.6939    0.4786    1.5671 N   0  0  0  0  0  0  0  0  0  0  0  0
  1  2  1  0
  2  3  2  0
  2  4  1  0
  4  5  1  0
  4  6  1  0
  6  7  1  0
  7  8  1  0
  8  9  1  0
  9 10  1  0
 10 11  1  0
 11 12  1  0
 12 13  2  0
 12 14  1  0
 14 15  1  0
 15 16  1  0
 16 17  2  0
 16 18  1  0
 18 19  1  0
 18 20  1  0
 20 21  1  0
 21 22  1  0
 22 23  1  0
 23 24  1  0
 24 25  1  0
 25 26  1  0
 26 27  2  0
 26 28  1  0
 28 29  1  0
 29 30  1  0
 30 31  2  0
 30 32  1  0
 32 33  1  0
 32 34  1  0
 34 35  1  0
 35 36  1  0
 36 37  1  0
 37 38  1  0
 38 39  1  0
M  END
>  <supplier_code>  (601) 
DB00746

>  <zinc_id>  (601) 
ZINC000003830635

>  <catalog_short_name>  (601) 
dbfda

$$$$

     RDKit          3D

 22 25  0  0  0  0  0  0  0  0999 V2000
    4.1719   -1.6136   -0.1496 C   0  0  0  0  0  0  0  0  0  0  0  0
    3.9281   -0.4438   -0.8477 N   0  0  0  0  0  0  0  0  0  0  0  0
    2.9774    0.5096   -0.1137 C   0  0  2  0  0  0  0  0  0  0  0  0
    1.8594    0.7734   -1.2028 C   0  0  0  0  0  0  0  0  0  0  0  0
    1.0406    0.2480    0.1899 C   0  0  1  0  0  0  0  0  0  0  0  0
    0.1452   -0.7513   -0.5341 O   0  0  0  0  0  0  0  0  0  0  0  0
   -0.8738   -1.3475    0.1888 C   0  0  0  0  0  0  0  0  0  0  0  0
   -0.2690   -2.1021    1.0280 O   0  0  0  0  0  0  0  0  0  0  0  0
   -1.8445   -0.4759    1.1416 C   0  0  2  0  0  0  0  0  0  0  0  0
   -2.8333   -1.7385    1.4836 C   0  0  0  0  0  0  0  0  0  0  0  0
   -3.3279   -2.2367    0.3267 O   0  0  0  0  0  0  0  0  0  0  0  0
   -2.8091    0.1295    0.0235 C   0  0  0  0  0  0  0  0  0  0  0  0
   -2.9575   -0.2735   -1.2059 C   0  0  0  0  0  0  0  0  0  0  0  0
   -3.9419    0.4167   -1.9215 C   0  0  0  0  0  0  0  0  0  0  0  0
   -4.8121    1.2850   -1.2629 C   0  0  0  0  0  0  0  0  0  0  0  0
   -4.2230    2.0260   -0.2370 C   0  0  0  0  0  0  0  0  0  0  0  0
   -3.1629    1.4162    0.4194 C   0  0  0  0  0  0  0  0  0  0  0  0
    2.1667   -0.8566    0.8241 C   0  0  0  0  0  0  0  0  0  0  0  0
    3.0012    0.3120    0.1662 C   0  0  1  0  0  0  0  0  0  0  0  0
    4.3033    0.7630    1.1989 C   0  0  2  0  0  0  0  0  0  0  0  0
    3.3548    2.1439    1.3331 O   0  0  0  0  0  0  0  0  0  0  0  0
    4.1065    1.8161   -0.1308 C   0  0  2  0  0  0  0  0  0  0  0  0
  1  2  1  0
  2  3  1  0
  3  4  1  6
  4  5  1  0
  5  6  1  6
  6  7  1  0
  7  8  2  0
  9  7  1  6
  9 10  1  0
 10 11  1  0
  9 12  1  0
 12 13  2  0
 13 14  1  0
 14 15  2  0
 15 16  1  0
 16 17  2  0
  5 18  1  0
 19 18  1  1
 19 20  1  0
 20 21  1  1
 22 21  1  1
 19  2  1  0
 22 20  1  0
 22  3  1  0
 17 12  1  0
M  END
>  <supplier_code>  (602) 
DB00747

>  <zinc_id>  (602) 
ZINC000100037020

>  <catalog_short_name>  (602) 
dbfda

$$$$

     RDKit          3D

 20 21  0  0  0  0  0  0  0  0999 V2000
    4.3678    0.2110    0.0878 C   0  0  0  0  0  0  0  0  0  0  0  0
    3.9817   -0.7764    0.0731 N   0  0  0  0  0  0  0  0  0  0  0  0
    4.7501   -1.8195    0.7489 C   0  0  0  0  0  0  0  0  0  0  0  0
    2.5960   -1.1209    0.1908 C   0  0  0  0  0  0  0  0  0  0  0  0
    1.8822   -0.8689   -1.1050 C   0  0  0  0  0  0  0  0  0  0  0  0
    0.5037   -1.0408   -0.9856 O   0  0  0  0  0  0  0  0  0  0  0  0
    0.2816   -0.7618    0.5215 C   0  0  1  0  0  0  0  0  0  0  0  0
   -0.1706    0.7969    0.2625 C   0  0  0  0  0  0  0  0  0  0  0  0
   -0.6794    1.4105    1.3811 C   0  0  0  0  0  0  0  0  0  0  0  0
   -1.1875    2.6876    1.1722 C   0  0  0  0  0  0  0  0  0  0  0  0
   -0.8421    3.3802    0.0189 C   0  0  0  0  0  0  0  0  0  0  0  0
   -1.7468    4.8163   -0.4486 Cl  0  0  0  0  0  0  0  0  0  0  0  0
    0.1259    2.8140   -0.8017 C   0  0  0  0  0  0  0  0  0  0  0  0
    0.6133    1.5283   -0.5661 C   0  0  0  0  0  0  0  0  0  0  0  0
   -1.2776   -1.2862    0.4670 C   0  0  0  0  0  0  0  0  0  0  0  0
   -1.4686   -2.5043    1.0695 C   0  0  0  0  0  0  0  0  0  0  0  0
   -2.7708   -2.9911    1.0107 C   0  0  0  0  0  0  0  0  0  0  0  0
   -3.6549   -2.3993    0.1159 C   0  0  0  0  0  0  0  0  0  0  0  0
   -3.2965   -1.2471   -0.5706 C   0  0  0  0  0  0  0  0  0  0  0  0
   -2.0074   -0.8285   -0.5356 N   0  0  0  0  0  0  0  0  0  0  0  0
  1  2  1  0
  2  3  1  0
  2  4  1  0
  4  5  1  0
  5  6  1  0
  7  6  1  6
  7  8  1  0
  8  9  2  0
  9 10  1  0
 10 11  2  0
 11 12  1  0
 11 13  1  0
 13 14  2  0
  7 15  1  0
 15 16  2  0
 16 17  1  0
 17 18  2  0
 18 19  1  0
 19 20  2  0
 14  8  1  0
 20 15  1  0
M  END
>  <supplier_code>  (603) 
DB00748

>  <zinc_id>  (603) 
ZINC000000000122

>  <catalog_short_name>  (603) 
dbfda

$$$$

     RDKit          3D

 20 21  0  0  0  0  0  0  0  0999 V2000
    4.6557   -1.9470    1.0287 C   0  0  0  0  0  0  0  0  0  0  0  0
    3.8833   -1.6254   -0.1283 N   0  0  0  0  0  0  0  0  0  0  0  0
    4.3333   -0.3310   -0.5644 C   0  0  0  0  0  0  0  0  0  0  0  0
    2.4913   -1.6138    0.2347 C   0  0  0  0  0  0  0  0  0  0  0  0
    1.5835   -1.2783   -0.9422 C   0  0  0  0  0  0  0  0  0  0  0  0
    0.8097   -0.1893   -0.4990 O   0  0  0  0  0  0  0  0  0  0  0  0
   -0.4895   -0.3122   -1.3509 C   0  0  2  0  0  0  0  0  0  0  0  0
   -0.9587    1.2281   -0.9705 C   0  0  0  0  0  0  0  0  0  0  0  0
   -1.7430    1.4543    0.0682 C   0  0  0  0  0  0  0  0  0  0  0  0
   -1.6980    2.7265    0.6352 C   0  0  0  0  0  0  0  0  0  0  0  0
   -0.5983    3.5393    0.3844 C   0  0  0  0  0  0  0  0  0  0  0  0
    0.1610    4.4984    1.6476 Cl  0  0  0  0  0  0  0  0  0  0  0  0
   -0.1009    3.4541   -0.9061 C   0  0  0  0  0  0  0  0  0  0  0  0
   -0.1177    2.1818   -1.4734 C   0  0  0  0  0  0  0  0  0  0  0  0
   -1.2855   -1.0277   -0.0756 C   0  0  0  0  0  0  0  0  0  0  0  0
   -0.7383   -2.2814    0.1890 C   0  0  0  0  0  0  0  0  0  0  0  0
   -1.4545   -3.1032    1.0122 C   0  0  0  0  0  0  0  0  0  0  0  0
   -2.7601   -2.7219    1.3017 C   0  0  0  0  0  0  0  0  0  0  0  0
   -3.3463   -1.6129    0.7022 C   0  0  0  0  0  0  0  0  0  0  0  0
   -2.6269   -1.0384   -0.2936 N   0  0  0  0  0  0  0  0  0  0  0  0
  1  2  1  0
  2  3  1  0
  2  4  1  0
  4  5  1  0
  5  6  1  0
  7  6  1  1
  7  8  1  0
  8  9  2  0
  9 10  1  0
 10 11  2  0
 11 12  1  0
 11 13  1  0
 13 14  2  0
  7 15  1  0
 15 16  2  0
 16 17  1  0
 17 18  2  0
 18 19  1  0
 19 20  2  0
 14  8  1  0
 20 15  1  0
M  END
>  <supplier_code>  (604) 
DB00748

>  <zinc_id>  (604) 
ZINC000000002043

>  <catalog_short_name>  (604) 
dbfda

$$$$

     RDKit          3D

 21 23  0  0  0  0  0  0  0  0999 V2000
    4.0810    2.9570    0.3479 C   0  0  0  0  0  0  0  0  0  0  0  0
    3.0371    2.4316   -0.4143 C   0  0  0  0  0  0  0  0  0  0  0  0
    2.9969    0.9491   -0.3636 C   0  0  0  0  0  0  0  0  0  0  0  0
    4.1834    0.2413   -0.2200 C   0  0  0  0  0  0  0  0  0  0  0  0
    4.1618   -1.1042    0.0809 C   0  0  0  0  0  0  0  0  0  0  0  0
    2.9430   -1.7496    0.0770 C   0  0  0  0  0  0  0  0  0  0  0  0
    1.7776   -1.0501   -0.1290 C   0  0  0  0  0  0  0  0  0  0  0  0
    0.4627   -1.4137   -0.0200 C   0  0  0  0  0  0  0  0  0  0  0  0
   -0.3317   -0.2970   -0.1656 C   0  0  0  0  0  0  0  0  0  0  0  0
    0.4891    0.6838   -0.5452 N   0  0  0  0  0  0  0  0  0  0  0  0
    1.7852    0.3118   -0.4035 C   0  0  0  0  0  0  0  0  0  0  0  0
   -1.7427   -0.2898    0.2217 C   0  0  1  0  0  0  0  0  0  0  0  0
   -1.9772    0.8812    1.1733 C   0  0  0  0  0  0  0  0  0  0  0  0
   -3.0044    0.5050    2.2324 C   0  0  0  0  0  0  0  0  0  0  0  0
   -2.5582    0.0319   -1.0252 C   0  0  0  0  0  0  0  0  0  0  0  0
   -3.7566    0.8624   -0.6882 C   0  0  0  0  0  0  0  0  0  0  0  0
   -3.5919    2.0844   -0.3901 O   0  0  0  0  0  0  0  0  0  0  0  0
   -4.8939    0.6014   -1.4601 O   0  0  0  0  0  0  0  0  0  0  0  0
   -2.2269   -1.3917    0.8241 O   0  0  0  0  0  0  0  0  0  0  0  0
   -1.5996   -2.5641    0.7799 C   0  0  0  0  0  0  0  0  0  0  0  0
   -0.2347   -2.6803    0.2533 C   0  0  0  0  0  0  0  0  0  0  0  0
  1  2  1  0
  2  3  1  0
  3  4  2  0
  4  5  1  0
  5  6  2  0
  6  7  1  0
  7  8  1  0
  8  9  2  0
  9 10  1  0
 10 11  1  0
  9 12  1  0
 12 13  1  1
 13 14  1  0
 12 15  1  0
 15 16  1  0
 16 17  2  0
 16 18  1  0
 12 19  1  0
 19 20  1  0
 20 21  1  0
 11  3  1  0
 11  7  2  0
 21  8  1  0
M  END
>  <supplier_code>  (605) 
DB00749

>  <zinc_id>  (605) 
ZINC000000003642

>  <catalog_short_name>  (605) 
dbfda

$$$$

     RDKit          3D

 21 23  0  0  0  0  0  0  0  0999 V2000
    2.7145    3.1313   -0.1428 C   0  0  0  0  0  0  0  0  0  0  0  0
    2.5996    2.6480    0.2513 C   0  0  0  0  0  0  0  0  0  0  0  0
    2.7049    1.1620    0.1436 C   0  0  0  0  0  0  0  0  0  0  0  0
    3.9286    0.5620    0.2937 C   0  0  0  0  0  0  0  0  0  0  0  0
    4.0569   -0.7796   -0.0080 C   0  0  0  0  0  0  0  0  0  0  0  0
    2.9511   -1.6191   -0.0400 C   0  0  0  0  0  0  0  0  0  0  0  0
    1.7043   -1.0108    0.0174 C   0  0  0  0  0  0  0  0  0  0  0  0
    0.4201   -1.4672   -0.1522 C   0  0  0  0  0  0  0  0  0  0  0  0
   -0.4711   -0.4064   -0.1235 C   0  0  0  0  0  0  0  0  0  0  0  0
    0.2989    0.7027   -0.1822 N   0  0  0  0  0  0  0  0  0  0  0  0
    1.6066    0.3684   -0.0824 C   0  0  0  0  0  0  0  0  0  0  0  0
   -1.8286   -0.6512    0.4551 C   0  0  2  0  0  0  0  0  0  0  0  0
   -2.8106   -0.8204   -0.6721 C   0  0  0  0  0  0  0  0  0  0  0  0
   -4.1629   -1.1693   -0.0704 C   0  0  0  0  0  0  0  0  0  0  0  0
   -2.3009    0.5315    1.2815 C   0  0  0  0  0  0  0  0  0  0  0  0
   -2.5490    1.7321    0.4544 C   0  0  0  0  0  0  0  0  0  0  0  0
   -2.4619    1.7565   -0.7920 O   0  0  0  0  0  0  0  0  0  0  0  0
   -3.1138    2.8242    1.1180 O   0  0  0  0  0  0  0  0  0  0  0  0
   -1.7736   -1.7370    1.3090 O   0  0  0  0  0  0  0  0  0  0  0  0
   -1.4038   -2.9171    0.7031 C   0  0  0  0  0  0  0  0  0  0  0  0
   -0.1092   -2.8406   -0.0559 C   0  0  0  0  0  0  0  0  0  0  0  0
  1  2  1  0
  2  3  1  0
  3  4  2  0
  4  5  1  0
  5  6  2  0
  6  7  1  0
  7  8  1  0
  8  9  2  0
  9 10  1  0
 10 11  1  0
  9 12  1  0
 12 13  1  6
 13 14  1  0
 12 15  1  0
 15 16  1  0
 16 17  2  0
 16 18  1  0
 12 19  1  0
 19 20  1  0
 20 21  1  0
 11  3  1  0
 11  7  2  0
 21  8  1  0
M  END
>  <supplier_code>  (606) 
DB00749

>  <zinc_id>  (606) 
ZINC000000057313

>  <catalog_short_name>  (606) 
dbfda

$$$$

     RDKit          3D

 16 16  0  0  0  0  0  0  0  0999 V2000
   -4.1492    1.9065   -0.1477 C   0  0  0  0  0  0  0  0  0  0  0  0
   -4.7779    0.5932   -0.2651 C   0  0  0  0  0  0  0  0  0  0  0  0
   -3.9170   -0.5226    0.2433 C   0  0  0  0  0  0  0  0  0  0  0  0
   -2.5988   -0.5353   -0.3699 N   0  0  0  0  0  0  0  0  0  0  0  0
   -1.7278   -0.7896    0.9192 C   0  0  1  0  0  0  0  0  0  0  0  0
   -1.9598   -2.4177    0.8511 C   0  0  0  0  0  0  0  0  0  0  0  0
   -0.3680   -0.8467    0.0710 C   0  0  0  0  0  0  0  0  0  0  0  0
   -0.2029   -1.6572   -0.8143 O   0  0  0  0  0  0  0  0  0  0  0  0
    0.2022    0.4265   -0.2884 N   0  0  0  0  0  0  0  0  0  0  0  0
    1.5731    0.4199    0.1373 C   0  0  0  0  0  0  0  0  0  0  0  0
    1.8768    1.5833    0.8491 C   0  0  0  0  0  0  0  0  0  0  0  0
    3.1774    1.9235    1.1269 C   0  0  0  0  0  0  0  0  0  0  0  0
    4.1362    0.9852    0.7966 C   0  0  0  0  0  0  0  0  0  0  0  0
    3.8212   -0.1392    0.0359 C   0  0  0  0  0  0  0  0  0  0  0  0
    2.5508   -0.2815   -0.5250 C   0  0  0  0  0  0  0  0  0  0  0  0
    2.3635   -0.6483   -1.9615 C   0  0  0  0  0  0  0  0  0  0  0  0
  1  2  1  0
  2  3  1  0
  3  4  1  0
  5  4  1  6
  5  6  1  0
  5  7  1  0
  7  8  2  0
  7  9  1  0
  9 10  1  0
 10 11  2  0
 11 12  1  0
 12 13  2  0
 13 14  1  0
 14 15  2  0
 15 16  1  0
 15 10  1  0
M  END
>  <supplier_code>  (607) 
DB00750

>  <zinc_id>  (607) 
ZINC000001530816

>  <catalog_short_name>  (607) 
dbfda

$$$$

     RDKit          3D

 16 16  0  0  0  0  0  0  0  0999 V2000
    4.8943    0.9089   -0.1158 C   0  0  0  0  0  0  0  0  0  0  0  0
    4.7580    0.6332    0.2232 C   0  0  0  0  0  0  0  0  0  0  0  0
    3.9289   -0.2371    1.1633 C   0  0  0  0  0  0  0  0  0  0  0  0
    2.9219   -0.8563    0.3051 N   0  0  0  0  0  0  0  0  0  0  0  0
    2.0070    0.3847   -0.1398 C   0  0  2  0  0  0  0  0  0  0  0  0
    1.7366    0.7922    1.4637 C   0  0  0  0  0  0  0  0  0  0  0  0
    0.6734   -0.5734   -0.2375 C   0  0  0  0  0  0  0  0  0  0  0  0
    0.5658   -0.8400   -1.4782 O   0  0  0  0  0  0  0  0  0  0  0  0
   -0.4801   -0.0681    0.3587 N   0  0  0  0  0  0  0  0  0  0  0  0
   -1.7628    0.1154   -0.2437 C   0  0  0  0  0  0  0  0  0  0  0  0
   -2.4625    1.2059    0.2630 C   0  0  0  0  0  0  0  0  0  0  0  0
   -3.8119    1.1458    0.5846 C   0  0  0  0  0  0  0  0  0  0  0  0
   -4.5548    0.2098   -0.0704 C   0  0  0  0  0  0  0  0  0  0  0  0
   -3.9059   -0.7780   -0.8019 C   0  0  0  0  0  0  0  0  0  0  0  0
   -2.5354   -0.9673   -0.6635 C   0  0  0  0  0  0  0  0  0  0  0  0
   -1.9725   -2.3540   -0.6108 C   0  0  0  0  0  0  0  0  0  0  0  0
  1  2  1  0
  2  3  1  0
  3  4  1  0
  5  4  1  1
  5  6  1  0
  5  7  1  0
  7  8  2  0
  7  9  1  0
  9 10  1  0
 10 11  2  0
 11 12  1  0
 12 13  2  0
 13 14  1  0
 14 15  2  0
 15 16  1  0
 15 10  1  0
M  END
>  <supplier_code>  (608) 
DB00750

>  <zinc_id>  (608) 
ZINC000001530817

>  <catalog_short_name>  (608) 
dbfda

$$$$

     RDKit          3D

 19 22  0  0  0  0  0  0  0  0999 V2000
   -1.7679    3.1657   -0.0051 N   0  0  0  0  0  0  0  0  0  0  0  0
   -0.5612    2.4961    0.1574 C   0  0  0  0  0  0  0  0  0  0  0  0
    0.5940    3.0412   -0.0252 N   0  0  0  0  0  0  0  0  0  0  0  0
    1.6698    2.1364    0.2153 C   0  0  0  0  0  0  0  0  0  0  0  0
    0.8800    0.8275    0.8105 C   0  0  2  0  0  0  0  0  0  0  0  0
    1.5674   -0.1626   -0.2641 C   0  0  0  0  0  0  0  0  0  0  0  0
    2.9354    0.0524   -0.1745 C   0  0  0  0  0  0  0  0  0  0  0  0
    3.8520   -0.9728   -0.0258 C   0  0  0  0  0  0  0  0  0  0  0  0
    3.4110   -2.2709   -0.0627 C   0  0  0  0  0  0  0  0  0  0  0  0
    2.0668   -2.5012   -0.3333 C   0  0  0  0  0  0  0  0  0  0  0  0
    1.1275   -1.4811   -0.2071 C   0  0  0  0  0  0  0  0  0  0  0  0
   -0.1676   -1.9350   -0.7183 C   0  0  0  0  0  0  0  0  0  0  0  0
   -1.3321   -1.1687   -0.2562 C   0  0  0  0  0  0  0  0  0  0  0  0
   -2.4732   -1.9289   -0.0214 C   0  0  0  0  0  0  0  0  0  0  0  0
   -3.5399   -1.3463    0.6510 C   0  0  0  0  0  0  0  0  0  0  0  0
   -3.8040   -0.0197    0.3293 C   0  0  0  0  0  0  0  0  0  0  0  0
   -2.6695    0.7711    0.1694 C   0  0  0  0  0  0  0  0  0  0  0  0
   -1.4400    0.1863   -0.1091 C   0  0  0  0  0  0  0  0  0  0  0  0
   -0.3486    1.1103   -0.1301 N   0  0  0  0  0  0  0  0  0  0  0  0
  1  2  1  0
  2  3  2  0
  3  4  1  0
  5  4  1  6
  5  6  1  0
  6  7  2  0
  7  8  1  0
  8  9  2  0
  9 10  1  0
 10 11  2  0
 11 12  1  0
 12 13  1  0
 13 14  2  0
 14 15  1  0
 15 16  2  0
 16 17  1  0
 17 18  2  0
 18 19  1  0
 19  2  1  0
 19  5  1  0
 11  6  1  0
 18 13  1  0
M  END
>  <supplier_code>  (609) 
DB00751

>  <zinc_id>  (609) 
ZINC000000006157

>  <catalog_short_name>  (609) 
dbfda

$$$$

     RDKit          3D

 19 22  0  0  0  0  0  0  0  0999 V2000
   -1.3925    2.9007    0.9520 N   0  0  0  0  0  0  0  0  0  0  0  0
   -0.5378    2.3582    0.0008 C   0  0  0  0  0  0  0  0  0  0  0  0
    0.4345    3.0549   -0.5084 N   0  0  0  0  0  0  0  0  0  0  0  0
    1.5968    2.2341   -0.7309 C   0  0  0  0  0  0  0  0  0  0  0  0
    0.7615    0.9099   -1.3335 C   0  0  1  0  0  0  0  0  0  0  0  0
    1.6639   -0.2139   -0.5585 C   0  0  0  0  0  0  0  0  0  0  0  0
    2.8250    0.2821   -0.1418 C   0  0  0  0  0  0  0  0  0  0  0  0
    3.5058   -0.5149    0.7803 C   0  0  0  0  0  0  0  0  0  0  0  0
    2.9854   -1.7437    1.1803 C   0  0  0  0  0  0  0  0  0  0  0  0
    2.0764   -2.3353    0.3069 C   0  0  0  0  0  0  0  0  0  0  0  0
    1.1851   -1.4854   -0.3424 C   0  0  0  0  0  0  0  0  0  0  0  0
   -0.1113   -2.1460   -0.6867 C   0  0  0  0  0  0  0  0  0  0  0  0
   -1.2310   -1.3296   -0.1314 C   0  0  0  0  0  0  0  0  0  0  0  0
   -2.3319   -2.0792    0.2576 C   0  0  0  0  0  0  0  0  0  0  0  0
   -3.5790   -1.4656    0.2494 C   0  0  0  0  0  0  0  0  0  0  0  0
   -3.6925   -0.1017    0.4258 C   0  0  0  0  0  0  0  0  0  0  0  0
   -2.5227    0.6483    0.4314 C   0  0  0  0  0  0  0  0  0  0  0  0
   -1.3615    0.0512   -0.0434 C   0  0  0  0  0  0  0  0  0  0  0  0
   -0.2740    0.9758   -0.1076 N   0  0  0  0  0  0  0  0  0  0  0  0
  1  2  1  0
  2  3  2  0
  3  4  1  0
  5  4  1  1
  5  6  1  0
  6  7  2  0
  7  8  1  0
  8  9  2  0
  9 10  1  0
 10 11  2  0
 11 12  1  0
 12 13  1  0
 13 14  2  0
 14 15  1  0
 15 16  2  0
 16 17  1  0
 17 18  2  0
 18 19  1  0
 19  2  1  0
 19  5  1  0
 11  6  1  0
 18 13  1  0
M  END
>  <supplier_code>  (610) 
DB00751

>  <zinc_id>  (610) 
ZINC000001999487

>  <catalog_short_name>  (610) 
dbfda

$$$$

     RDKit          3D

 10 11  0  0  0  0  0  0  0  0999 V2000
    3.6442    0.2680    0.1636 N   0  0  0  0  0  0  0  0  0  0  0  0
    2.2146   -0.1893   -0.4517 C   0  0  1  0  0  0  0  0  0  0  0  0
    1.8376   -1.1606    0.9585 C   0  0  0  0  0  0  0  0  0  0  0  0
    1.2922    0.5073    0.8745 C   0  0  2  0  0  0  0  0  0  0  0  0
   -0.1560    0.1689    0.1721 C   0  0  0  0  0  0  0  0  0  0  0  0
   -0.8153   -0.9388    0.5438 C   0  0  0  0  0  0  0  0  0  0  0  0
   -2.0224   -1.1473   -0.1164 C   0  0  0  0  0  0  0  0  0  0  0  0
   -2.8386   -0.0525   -0.2395 C   0  0  0  0  0  0  0  0  0  0  0  0
   -2.2471    1.2000   -0.1449 C   0  0  0  0  0  0  0  0  0  0  0  0
   -0.9092    1.3445    0.1941 C   0  0  0  0  0  0  0  0  0  0  0  0
  2  1  1  1
  2  3  1  0
  3  4  1  0
  4  5  1  6
  5  6  2  0
  6  7  1  0
  7  8  2  0
  8  9  1  0
  9 10  2  0
  4  2  1  0
 10  5  1  0
M  END
>  <supplier_code>  (611) 
DB00752

>  <zinc_id>  (611) 
ZINC000000896663

>  <catalog_short_name>  (611) 
dbfda

$$$$

     RDKit          3D

 10 11  0  0  0  0  0  0  0  0999 V2000
    1.6814    1.0256    0.8684 N   0  0  0  0  0  0  0  0  0  0  0  0
    2.5766    0.2020   -0.1543 C   0  0  1  0  0  0  0  0  0  0  0  0
    2.1031   -1.3502    0.4145 C   0  0  0  0  0  0  0  0  0  0  0  0
    1.3693   -0.7116   -1.0034 C   0  0  1  0  0  0  0  0  0  0  0  0
    0.0083   -0.1793   -0.3093 C   0  0  0  0  0  0  0  0  0  0  0  0
   -0.9391   -1.1599   -0.0405 C   0  0  0  0  0  0  0  0  0  0  0  0
   -2.1373   -0.6608    0.4635 C   0  0  0  0  0  0  0  0  0  0  0  0
   -2.5188    0.6233    0.0908 C   0  0  0  0  0  0  0  0  0  0  0  0
   -1.6061    1.4354   -0.5695 C   0  0  0  0  0  0  0  0  0  0  0  0
   -0.5373    0.7755   -1.1681 C   0  0  0  0  0  0  0  0  0  0  0  0
  2  1  1  1
  2  3  1  0
  3  4  1  0
  4  5  1  1
  5  6  2  0
  6  7  1  0
  7  8  2  0
  8  9  1  0
  9 10  2  0
  4  2  1  0
 10  5  1  0
M  END
>  <supplier_code>  (612) 
DB00752

>  <zinc_id>  (612) 
ZINC000000896666

>  <catalog_short_name>  (612) 
dbfda

$$$$

     RDKit          3D

 10 11  0  0  0  0  0  0  0  0999 V2000
    3.4116    0.8381   -0.2502 N   0  0  0  0  0  0  0  0  0  0  0  0
    1.8578    1.0583   -0.0454 C   0  0  2  0  0  0  0  0  0  0  0  0
    1.7762    0.0258    1.3211 C   0  0  0  0  0  0  0  0  0  0  0  0
    1.4811   -0.6099   -0.2448 C   0  0  1  0  0  0  0  0  0  0  0  0
   -0.1125   -0.3756   -0.1639 C   0  0  0  0  0  0  0  0  0  0  0  0
   -0.8412   -1.2936    0.5249 C   0  0  0  0  0  0  0  0  0  0  0  0
   -2.1925   -0.9862    0.6708 C   0  0  0  0  0  0  0  0  0  0  0  0
   -2.6564    0.2487    0.2302 C   0  0  0  0  0  0  0  0  0  0  0  0
   -2.0448    0.6583   -0.9504 C   0  0  0  0  0  0  0  0  0  0  0  0
   -0.6795    0.4361   -1.0924 C   0  0  0  0  0  0  0  0  0  0  0  0
  2  1  1  6
  2  3  1  0
  3  4  1  0
  4  5  1  1
  5  6  2  0
  6  7  1  0
  7  8  2  0
  8  9  1  0
  9 10  2  0
  4  2  1  0
 10  5  1  0
M  END
>  <supplier_code>  (613) 
DB00752

>  <zinc_id>  (613) 
ZINC000001482197

>  <catalog_short_name>  (613) 
dbfda

$$$$

     RDKit          3D

 10 11  0  0  0  0  0  0  0  0999 V2000
    1.5734    1.1162   -1.1127 N   0  0  0  0  0  0  0  0  0  0  0  0
    2.5898    0.1988   -0.3219 C   0  0  2  0  0  0  0  0  0  0  0  0
    1.9028   -1.3114   -0.7741 C   0  0  0  0  0  0  0  0  0  0  0  0
    1.5087   -0.6218    0.7605 C   0  0  2  0  0  0  0  0  0  0  0  0
    0.0616   -0.0745    0.3253 C   0  0  0  0  0  0  0  0  0  0  0  0
   -0.4450    1.0890    0.6796 C   0  0  0  0  0  0  0  0  0  0  0  0
   -1.6615    1.3289    0.0248 C   0  0  0  0  0  0  0  0  0  0  0  0
   -2.6139    0.3545    0.3682 C   0  0  0  0  0  0  0  0  0  0  0  0
   -2.1410   -0.9334    0.0486 C   0  0  0  0  0  0  0  0  0  0  0  0
   -0.7750   -1.1462    0.0334 C   0  0  0  0  0  0  0  0  0  0  0  0
  2  1  1  6
  2  3  1  0
  3  4  1  0
  4  5  1  6
  5  6  2  0
  6  7  1  0
  7  8  2  0
  8  9  1  0
  9 10  2  0
  4  2  1  0
 10  5  1  0
M  END
>  <supplier_code>  (614) 
DB00752

>  <zinc_id>  (614) 
ZINC000001639567

>  <catalog_short_name>  (614) 
dbfda

$$$$

     RDKit          3D

 10  9  0  0  0  0  0  0  0  0999 V2000
    2.0550    0.3572    1.0344 F   0  0  0  0  0  0  0  0  0  0  0  0
    1.8479    0.0008   -0.2037 C   0  0  0  0  0  0  0  0  0  0  0  0
    2.3162   -1.2256   -0.5558 F   0  0  0  0  0  0  0  0  0  0  0  0
    0.6555    0.3703   -0.7751 O   0  0  0  0  0  0  0  0  0  0  0  0
   -0.1403    0.7961    0.4079 C   0  0  1  0  0  0  0  0  0  0  0  0
   -1.1058    2.1123   -0.5645 Cl  0  0  0  0  0  0  0  0  0  0  0  0
   -1.2441   -0.3627    0.1968 C   0  0  0  0  0  0  0  0  0  0  0  0
   -1.7057   -0.2973   -1.0746 F   0  0  0  0  0  0  0  0  0  0  0  0
   -0.5030   -1.5280    0.3554 F   0  0  0  0  0  0  0  0  0  0  0  0
   -2.1759   -0.2231    1.1792 F   0  0  0  0  0  0  0  0  0  0  0  0
  1  2  1  0
  2  3  1  0
  2  4  1  0
  5  4  1  6
  5  6  1  0
  5  7  1  0
  7  8  1  0
  7  9  1  0
  7 10  1  0
M  END
>  <supplier_code>  (615) 
DB00753

>  <zinc_id>  (615) 
ZINC000003812960

>  <catalog_short_name>  (615) 
dbfda

$$$$

     RDKit          3D

 10  9  0  0  0  0  0  0  0  0999 V2000
    2.2882    1.4954   -0.5938 F   0  0  0  0  0  0  0  0  0  0  0  0
    1.8885    0.2290   -0.4135 C   0  0  0  0  0  0  0  0  0  0  0  0
    2.7916   -0.7057   -0.1197 F   0  0  0  0  0  0  0  0  0  0  0  0
    0.6126   -0.1022   -0.6680 O   0  0  0  0  0  0  0  0  0  0  0  0
   -0.2213    0.5842    0.3608 C   0  0  2  0  0  0  0  0  0  0  0  0
    0.2696   -0.6611    1.7169 Cl  0  0  0  0  0  0  0  0  0  0  0  0
   -1.6083   -0.1531    0.0014 C   0  0  0  0  0  0  0  0  0  0  0  0
   -2.2069   -0.5401    1.1607 F   0  0  0  0  0  0  0  0  0  0  0  0
   -1.4675   -1.0674   -0.9544 F   0  0  0  0  0  0  0  0  0  0  0  0
   -2.3466    0.9211   -0.4904 F   0  0  0  0  0  0  0  0  0  0  0  0
  1  2  1  0
  2  3  1  0
  2  4  1  0
  5  4  1  6
  5  6  1  0
  5  7  1  0
  7  8  1  0
  7  9  1  0
  7 10  1  0
M  END
>  <supplier_code>  (616) 
DB00753

>  <zinc_id>  (616) 
ZINC000003872952

>  <catalog_short_name>  (616) 
dbfda

$$$$

     RDKit          3D

 15 16  0  0  0  0  0  0  0  0999 V2000
   -4.0882   -0.2121    0.4584 C   0  0  0  0  0  0  0  0  0  0  0  0
   -3.4657   -0.6328    0.1066 C   0  0  0  0  0  0  0  0  0  0  0  0
   -2.0758   -0.3505    0.3817 N   0  0  0  0  0  0  0  0  0  0  0  0
   -1.5604    0.8428    0.9593 C   0  0  0  0  0  0  0  0  0  0  0  0
   -2.1086    1.9865    1.0167 O   0  0  0  0  0  0  0  0  0  0  0  0
   -0.3371    0.5832    1.5294 N   0  0  0  0  0  0  0  0  0  0  0  0
    0.1164   -0.8706    1.0745 C   0  0  2  0  0  0  0  0  0  0  0  0
    1.3717   -0.3634    0.1649 C   0  0  0  0  0  0  0  0  0  0  0  0
    1.3985    0.9073   -0.2631 C   0  0  0  0  0  0  0  0  0  0  0  0
    2.6174    1.4480   -0.6621 C   0  0  0  0  0  0  0  0  0  0  0  0
    3.6866    1.0267    0.1056 C   0  0  0  0  0  0  0  0  0  0  0  0
    3.7310   -0.3242    0.4100 C   0  0  0  0  0  0  0  0  0  0  0  0
    2.5532   -1.0530    0.4216 C   0  0  0  0  0  0  0  0  0  0  0  0
   -0.8901   -0.9028   -0.2134 C   0  0  0  0  0  0  0  0  0  0  0  0
   -0.9489   -2.0851   -0.6796 O   0  0  0  0  0  0  0  0  0  0  0  0
  1  2  1  0
  2  3  1  0
  3  4  1  0
  4  5  2  0
  4  6  1  0
  6  7  1  0
  7  8  1  6
  8  9  2  0
  9 10  1  0
 10 11  2  0
 11 12  1  0
 12 13  2  0
  7 14  1  0
 14 15  2  0
 14  3  1  0
 13  8  1  0
M  END
>  <supplier_code>  (617) 
DB00754

>  <zinc_id>  (617) 
ZINC000000000271

>  <catalog_short_name>  (617) 
dbfda

$$$$

     RDKit          3D

 15 16  0  0  0  0  0  0  0  0999 V2000
   -3.4024    1.9192   -0.5113 C   0  0  0  0  0  0  0  0  0  0  0  0
   -3.1032    1.0528    0.6066 C   0  0  0  0  0  0  0  0  0  0  0  0
   -2.0215    0.1336    0.3899 N   0  0  0  0  0  0  0  0  0  0  0  0
   -2.0052   -1.1840   -0.1714 C   0  0  0  0  0  0  0  0  0  0  0  0
   -3.0678   -1.8506   -0.3179 O   0  0  0  0  0  0  0  0  0  0  0  0
   -0.6477   -1.5752   -0.4120 N   0  0  0  0  0  0  0  0  0  0  0  0
   -0.0201   -0.8773    0.8765 C   0  0  1  0  0  0  0  0  0  0  0  0
    1.4034   -0.6157    0.1316 C   0  0  0  0  0  0  0  0  0  0  0  0
    1.3901   -0.0261   -1.0804 C   0  0  0  0  0  0  0  0  0  0  0  0
    2.6252    0.4685   -1.4975 C   0  0  0  0  0  0  0  0  0  0  0  0
    3.5918    0.7883   -0.5514 C   0  0  0  0  0  0  0  0  0  0  0  0
    3.5438    0.2177    0.7093 C   0  0  0  0  0  0  0  0  0  0  0  0
    2.4594   -0.5799    1.0143 C   0  0  0  0  0  0  0  0  0  0  0  0
   -0.6816    0.5391    0.4202 C   0  0  0  0  0  0  0  0  0  0  0  0
   -0.0643    1.5896    0.3935 O   0  0  0  0  0  0  0  0  0  0  0  0
  1  2  1  0
  2  3  1  0
  3  4  1  0
  4  5  2  0
  4  6  1  0
  6  7  1  0
  7  8  1  6
  8  9  2  0
  9 10  1  0
 10 11  2  0
 11 12  1  0
 12 13  2  0
  7 14  1  0
 14 15  2  0
 14  3  1  0
 13  8  1  0
M  END
>  <supplier_code>  (618) 
DB00754

>  <zinc_id>  (618) 
ZINC000000897291

>  <catalog_short_name>  (618) 
dbfda

$$$$

     RDKit          3D

 22 22  0  0  0  0  0  0  0  0999 V2000
    1.0642    0.5528    2.0223 C   0  0  0  0  0  0  0  0  0  0  0  0
    0.5570   -0.3058    0.9185 C   0  0  0  0  0  0  0  0  0  0  0  0
   -0.8572   -0.5524    0.7584 C   0  0  0  0  0  0  0  0  0  0  0  0
   -1.5179   -0.4551   -0.3798 C   0  0  0  0  0  0  0  0  0  0  0  0
   -2.9308   -0.0666   -0.2667 C   0  0  0  0  0  0  0  0  0  0  0  0
   -3.3002    1.1348   -0.7072 C   0  0  0  0  0  0  0  0  0  0  0  0
   -2.7154    1.5601   -2.0163 C   0  0  0  0  0  0  0  0  0  0  0  0
   -4.1914    2.0380    0.0844 C   0  0  0  0  0  0  0  0  0  0  0  0
   -4.6099    1.2629    1.3153 C   0  0  0  0  0  0  0  0  0  0  0  0
   -5.0726   -0.0937    0.8504 C   0  0  0  0  0  0  0  0  0  0  0  0
   -3.8727   -0.9574    0.4807 C   0  0  0  0  0  0  0  0  0  0  0  0
   -3.2624   -1.4361    1.7668 C   0  0  0  0  0  0  0  0  0  0  0  0
   -4.2786   -2.1084   -0.4243 C   0  0  0  0  0  0  0  0  0  0  0  0
    1.4644   -0.9884    0.2333 C   0  0  0  0  0  0  0  0  0  0  0  0
    2.7498   -1.3944    0.8060 C   0  0  0  0  0  0  0  0  0  0  0  0
    3.7667   -1.4448   -0.0558 C   0  0  0  0  0  0  0  0  0  0  0  0
    3.7995   -0.3573   -1.0423 C   0  0  0  0  0  0  0  0  0  0  0  0
    2.7281   -0.3677   -2.0866 C   0  0  0  0  0  0  0  0  0  0  0  0
    4.0745    0.8508   -0.5475 C   0  0  0  0  0  0  0  0  0  0  0  0
    5.1961    0.9360    0.3794 C   0  0  0  0  0  0  0  0  0  0  0  0
    5.9428    1.9585    0.3052 O   0  0  0  0  0  0  0  0  0  0  0  0
    5.2661    0.2342    1.5683 O   0  0  0  0  0  0  0  0  0  0  0  0
  1  2  1  0
  2  3  1  0
  3  4  2  0
  4  5  1  0
  5  6  2  0
  6  7  1  0
  6  8  1  0
  8  9  1  0
  9 10  1  0
 10 11  1  0
 11 12  1  0
 11 13  1  0
  2 14  2  0
 14 15  1  0
 15 16  2  0
 16 17  1  0
 17 18  1  0
 17 19  2  0
 19 20  1  0
 20 21  2  0
 20 22  1  0
 11  5  1  0
M  END
>  <supplier_code>  (619) 
DB00755

>  <zinc_id>  (619) 
ZINC000005456939

>  <catalog_short_name>  (619) 
dbfda

$$$$

     RDKit          3D

 22 22  0  0  0  0  0  0  0  0999 V2000
    0.5973    1.9978   -1.3799 C   0  0  0  0  0  0  0  0  0  0  0  0
    0.5979    0.5492   -1.0278 C   0  0  0  0  0  0  0  0  0  0  0  0
   -0.7163   -0.1054   -1.0082 C   0  0  0  0  0  0  0  0  0  0  0  0
   -1.3724   -0.3885    0.0917 C   0  0  0  0  0  0  0  0  0  0  0  0
   -2.7450    0.0595    0.3603 C   0  0  0  0  0  0  0  0  0  0  0  0
   -3.0286    0.8344    1.4044 C   0  0  0  0  0  0  0  0  0  0  0  0
   -2.1549    0.6995    2.6114 C   0  0  0  0  0  0  0  0  0  0  0  0
   -3.9175    2.0324    1.2746 C   0  0  0  0  0  0  0  0  0  0  0  0
   -4.2175    2.1740   -0.2136 C   0  0  0  0  0  0  0  0  0  0  0  0
   -4.8418    0.8636   -0.6505 C   0  0  0  0  0  0  0  0  0  0  0  0
   -3.8596   -0.2701   -0.5812 C   0  0  0  0  0  0  0  0  0  0  0  0
   -3.3065   -0.4659   -1.9876 C   0  0  0  0  0  0  0  0  0  0  0  0
   -4.5288   -1.5586   -0.1208 C   0  0  0  0  0  0  0  0  0  0  0  0
    1.5149    0.0105   -0.2246 C   0  0  0  0  0  0  0  0  0  0  0  0
    1.7280   -1.4303   -0.4161 C   0  0  0  0  0  0  0  0  0  0  0  0
    2.9973   -1.8241   -0.2950 C   0  0  0  0  0  0  0  0  0  0  0  0
    3.6388   -1.4521    0.9732 C   0  0  0  0  0  0  0  0  0  0  0  0
    3.3863   -2.3890    2.1128 C   0  0  0  0  0  0  0  0  0  0  0  0
    4.8393   -0.8852    0.8513 C   0  0  0  0  0  0  0  0  0  0  0  0
    4.9042    0.2651   -0.0566 C   0  0  0  0  0  0  0  0  0  0  0  0
    5.5245    1.2730    0.3989 O   0  0  0  0  0  0  0  0  0  0  0  0
    4.9604    0.0100   -1.4297 O   0  0  0  0  0  0  0  0  0  0  0  0
  1  2  1  0
  2  3  1  0
  3  4  2  0
  4  5  1  0
  5  6  2  0
  6  7  1  0
  6  8  1  0
  8  9  1  0
  9 10  1  0
 10 11  1  0
 11 12  1  0
 11 13  1  0
  2 14  2  0
 14 15  1  0
 15 16  2  0
 16 17  1  0
 17 18  1  0
 17 19  2  0
 19 20  1  0
 20 21  2  0
 20 22  1  0
 11  5  1  0
M  END
>  <supplier_code>  (620) 
DB00755

>  <zinc_id>  (620) 
ZINC000009212654

>  <catalog_short_name>  (620) 
dbfda

$$$$

     RDKit          3D

 22 22  0  0  0  0  0  0  0  0999 V2000
    0.2061    2.9007   -0.7609 C   0  0  0  0  0  0  0  0  0  0  0  0
   -0.2011    1.6397   -0.0654 C   0  0  0  0  0  0  0  0  0  0  0  0
    0.7098    0.6735   -0.0246 C   0  0  0  0  0  0  0  0  0  0  0  0
    1.8008    0.5760   -0.9943 C   0  0  0  0  0  0  0  0  0  0  0  0
    2.7951   -0.2481   -0.6618 C   0  0  0  0  0  0  0  0  0  0  0  0
    3.2487   -0.1469    0.7304 C   0  0  0  0  0  0  0  0  0  0  0  0
    2.2979   -0.2512    1.8788 C   0  0  0  0  0  0  0  0  0  0  0  0
    4.5354    0.0471    0.9280 C   0  0  0  0  0  0  0  0  0  0  0  0
    5.4517   -0.4288   -0.0914 C   0  0  0  0  0  0  0  0  0  0  0  0
    5.5979   -1.6797   -0.2376 O   0  0  0  0  0  0  0  0  0  0  0  0
    6.0256    0.4742   -0.9615 O   0  0  0  0  0  0  0  0  0  0  0  0
   -1.1095    1.6833    1.0882 C   0  0  0  0  0  0  0  0  0  0  0  0
   -1.7429    0.5378    1.3438 C   0  0  0  0  0  0  0  0  0  0  0  0
   -2.4848   -0.0311    0.2110 C   0  0  0  0  0  0  0  0  0  0  0  0
   -3.3986    0.7207   -0.4059 C   0  0  0  0  0  0  0  0  0  0  0  0
   -3.5436    2.1526   -0.0206 C   0  0  0  0  0  0  0  0  0  0  0  0
   -4.5952    0.0042   -0.9493 C   0  0  0  0  0  0  0  0  0  0  0  0
   -4.2211   -1.1942   -1.7719 C   0  0  0  0  0  0  0  0  0  0  0  0
   -2.9142   -1.8274   -1.3320 C   0  0  0  0  0  0  0  0  0  0  0  0
   -2.7383   -1.5041    0.1332 C   0  0  0  0  0  0  0  0  0  0  0  0
   -1.6540   -2.3091    0.7881 C   0  0  0  0  0  0  0  0  0  0  0  0
   -4.0657   -1.7891    0.8211 C   0  0  0  0  0  0  0  0  0  0  0  0
  1  2  1  0
  2  3  2  0
  3  4  1  0
  4  5  2  0
  5  6  1  0
  6  7  1  0
  6  8  2  0
  8  9  1  0
  9 10  2  0
  9 11  1  0
  2 12  1  0
 12 13  2  0
 13 14  1  0
 14 15  2  0
 15 16  1  0
 15 17  1  0
 17 18  1  0
 18 19  1  0
 19 20  1  0
 20 21  1  0
 20 22  1  0
 20 14  1  0
M  END
>  <supplier_code>  (621) 
DB00755

>  <zinc_id>  (621) 
ZINC000009302201

>  <catalog_short_name>  (621) 
dbfda

$$$$

     RDKit          3D

 22 22  0  0  0  0  0  0  0  0999 V2000
    0.0061    0.0365    1.1790 C   0  0  0  0  0  0  0  0  0  0  0  0
    0.1776    0.3396   -0.2600 C   0  0  0  0  0  0  0  0  0  0  0  0
   -0.8913    0.2037   -1.2535 C   0  0  0  0  0  0  0  0  0  0  0  0
   -2.0670    0.6994   -0.8598 C   0  0  0  0  0  0  0  0  0  0  0  0
   -2.5977    0.0379    0.3413 C   0  0  0  0  0  0  0  0  0  0  0  0
   -2.9151   -1.2509    0.1833 C   0  0  0  0  0  0  0  0  0  0  0  0
   -2.4265   -2.0400   -0.9928 C   0  0  0  0  0  0  0  0  0  0  0  0
   -4.1125   -1.8363    0.8677 C   0  0  0  0  0  0  0  0  0  0  0  0
   -4.0856   -1.3669    2.2937 C   0  0  0  0  0  0  0  0  0  0  0  0
   -3.9028    0.1185    2.4344 C   0  0  0  0  0  0  0  0  0  0  0  0
   -3.6074    0.8114    1.1319 C   0  0  0  0  0  0  0  0  0  0  0  0
   -4.8761    0.9169    0.2933 C   0  0  0  0  0  0  0  0  0  0  0  0
   -3.1630    2.2153    1.4225 C   0  0  0  0  0  0  0  0  0  0  0  0
    1.3298    0.7645   -0.7836 C   0  0  0  0  0  0  0  0  0  0  0  0
    1.8674    0.0564   -1.9558 C   0  0  0  0  0  0  0  0  0  0  0  0
    3.1294   -0.3479   -1.7842 C   0  0  0  0  0  0  0  0  0  0  0  0
    4.0743    0.7479   -1.5302 C   0  0  0  0  0  0  0  0  0  0  0  0
    4.0225    1.9638   -2.3608 C   0  0  0  0  0  0  0  0  0  0  0  0
    4.9906    0.5660   -0.6066 C   0  0  0  0  0  0  0  0  0  0  0  0
    4.9744   -0.4920    0.3788 C   0  0  0  0  0  0  0  0  0  0  0  0
    4.0141   -1.2555    0.6008 O   0  0  0  0  0  0  0  0  0  0  0  0
    6.0589   -0.5422    1.2607 O   0  0  0  0  0  0  0  0  0  0  0  0
  1  2  1  0
  2  3  1  0
  3  4  2  0
  4  5  1  0
  5  6  2  0
  6  7  1  0
  6  8  1  0
  8  9  1  0
  9 10  1  0
 10 11  1  0
 11 12  1  0
 11 13  1  0
  2 14  2  0
 14 15  1  0
 15 16  2  0
 16 17  1  0
 17 18  1  0
 17 19  2  0
 19 20  1  0
 20 21  2  0
 20 22  1  0
 11  5  1  0
M  END
>  <supplier_code>  (622) 
DB00755

>  <zinc_id>  (622) 
ZINC000012484958

>  <catalog_short_name>  (622) 
dbfda

$$$$

     RDKit          3D

 22 22  0  0  0  0  0  0  0  0999 V2000
    5.1192   -1.3559    0.6623 C   0  0  0  0  0  0  0  0  0  0  0  0
    4.0484   -0.3173    0.5374 C   0  0  0  0  0  0  0  0  0  0  0  0
    2.7112   -0.7841    0.2539 C   0  0  0  0  0  0  0  0  0  0  0  0
    1.6957   -0.0417   -0.1200 C   0  0  0  0  0  0  0  0  0  0  0  0
    0.9053   -0.3032   -1.3322 C   0  0  0  0  0  0  0  0  0  0  0  0
    0.0886   -1.3568   -1.2601 C   0  0  0  0  0  0  0  0  0  0  0  0
   -0.2515   -2.0695   -2.5319 C   0  0  0  0  0  0  0  0  0  0  0  0
   -0.8711   -1.2709   -0.1484 C   0  0  0  0  0  0  0  0  0  0  0  0
   -1.4589   -0.1512    0.2022 C   0  0  0  0  0  0  0  0  0  0  0  0
   -2.9084   -0.0092    0.3856 C   0  0  0  0  0  0  0  0  0  0  0  0
   -3.7178   -1.0549    0.3647 C   0  0  0  0  0  0  0  0  0  0  0  0
   -3.2037   -2.4027   -0.0353 C   0  0  0  0  0  0  0  0  0  0  0  0
   -5.2063   -0.9319    0.3800 C   0  0  0  0  0  0  0  0  0  0  0  0
   -5.5329    0.3866   -0.2794 C   0  0  0  0  0  0  0  0  0  0  0  0
   -4.9050    1.4681    0.5802 C   0  0  0  0  0  0  0  0  0  0  0  0
   -3.4082    1.3984    0.4538 C   0  0  0  0  0  0  0  0  0  0  0  0
   -2.8259    2.0757    1.6875 C   0  0  0  0  0  0  0  0  0  0  0  0
   -2.9590    2.0996   -0.8089 C   0  0  0  0  0  0  0  0  0  0  0  0
    4.4692    0.9264    0.3426 C   0  0  0  0  0  0  0  0  0  0  0  0
    5.6993    1.2349   -0.3981 C   0  0  0  0  0  0  0  0  0  0  0  0
    5.5945    1.8136   -1.5217 O   0  0  0  0  0  0  0  0  0  0  0  0
    6.9174    0.6461   -0.1060 O   0  0  0  0  0  0  0  0  0  0  0  0
  1  2  1  0
  2  3  1  0
  3  4  2  0
  4  5  1  0
  5  6  2  0
  6  7  1  0
  6  8  1  0
  8  9  2  0
  9 10  1  0
 10 11  2  0
 11 12  1  0
 11 13  1  0
 13 14  1  0
 14 15  1  0
 15 16  1  0
 16 17  1  0
 16 18  1  0
  2 19  2  0
 19 20  1  0
 20 21  2  0
 20 22  1  0
 16 10  1  0
M  END
>  <supplier_code>  (623) 
DB00755

>  <zinc_id>  (623) 
ZINC000012661824

>  <catalog_short_name>  (623) 
dbfda

$$$$

     RDKit          3D

 22 22  0  0  0  0  0  0  0  0999 V2000
   -0.2574   -1.7126    2.4567 C   0  0  0  0  0  0  0  0  0  0  0  0
   -0.4469   -1.0792    1.1288 C   0  0  0  0  0  0  0  0  0  0  0  0
    0.5623   -0.1220    0.6551 C   0  0  0  0  0  0  0  0  0  0  0  0
    1.7893   -0.6218    0.5143 C   0  0  0  0  0  0  0  0  0  0  0  0
    2.9465    0.1737    0.1665 C   0  0  0  0  0  0  0  0  0  0  0  0
    3.0558    0.6540   -1.0728 C   0  0  0  0  0  0  0  0  0  0  0  0
    1.9440    0.5330   -2.0497 C   0  0  0  0  0  0  0  0  0  0  0  0
    4.1826    1.6147   -1.2874 C   0  0  0  0  0  0  0  0  0  0  0  0
    4.5401    2.2179    0.0645 C   0  0  0  0  0  0  0  0  0  0  0  0
    5.0329    1.1584    1.0258 C   0  0  0  0  0  0  0  0  0  0  0  0
    4.2449   -0.1339    0.8438 C   0  0  0  0  0  0  0  0  0  0  0  0
    5.0957   -1.0616    0.0114 C   0  0  0  0  0  0  0  0  0  0  0  0
    3.9512   -0.7577    2.1819 C   0  0  0  0  0  0  0  0  0  0  0  0
   -1.1871   -1.6277    0.1640 C   0  0  0  0  0  0  0  0  0  0  0  0
   -1.8671   -0.6666   -0.7157 C   0  0  0  0  0  0  0  0  0  0  0  0
   -3.1383   -0.4256   -0.4324 C   0  0  0  0  0  0  0  0  0  0  0  0
   -3.7655    0.8785   -0.5794 C   0  0  0  0  0  0  0  0  0  0  0  0
   -3.0866    2.1477   -0.1685 C   0  0  0  0  0  0  0  0  0  0  0  0
   -4.9950    0.9026   -1.0927 C   0  0  0  0  0  0  0  0  0  0  0  0
   -5.9314   -0.1980   -0.8357 C   0  0  0  0  0  0  0  0  0  0  0  0
   -5.4354   -1.3123   -0.4899 O   0  0  0  0  0  0  0  0  0  0  0  0
   -7.2345    0.1702   -0.4885 O   0  0  0  0  0  0  0  0  0  0  0  0
  1  2  1  0
  2  3  1  0
  3  4  2  0
  4  5  1  0
  5  6  2  0
  6  7  1  0
  6  8  1  0
  8  9  1  0
  9 10  1  0
 10 11  1  0
 11 12  1  0
 11 13  1  0
  2 14  2  0
 14 15  1  0
 15 16  2  0
 16 17  1  0
 17 18  1  0
 17 19  2  0
 19 20  1  0
 20 21  2  0
 20 22  1  0
 11  5  1  0
M  END
>  <supplier_code>  (624) 
DB00755

>  <zinc_id>  (624) 
ZINC000033943508

>  <catalog_short_name>  (624) 
dbfda

$$$$

     RDKit          3D

 22 22  0  0  0  0  0  0  0  0999 V2000
    4.9547   -1.0630   -0.4273 C   0  0  0  0  0  0  0  0  0  0  0  0
    3.8682   -0.6995    0.5058 C   0  0  0  0  0  0  0  0  0  0  0  0
    2.7574   -1.6333    0.7299 C   0  0  0  0  0  0  0  0  0  0  0  0
    1.8957   -1.8784   -0.2294 C   0  0  0  0  0  0  0  0  0  0  0  0
    0.5415   -2.3950    0.0088 C   0  0  0  0  0  0  0  0  0  0  0  0
   -0.5090   -1.9176   -0.6616 C   0  0  0  0  0  0  0  0  0  0  0  0
   -1.4938   -2.8158   -1.3397 C   0  0  0  0  0  0  0  0  0  0  0  0
   -0.3208   -0.5594   -1.1912 C   0  0  0  0  0  0  0  0  0  0  0  0
   -0.9411    0.3710   -0.4620 C   0  0  0  0  0  0  0  0  0  0  0  0
   -2.4006    0.1989   -0.3968 C   0  0  0  0  0  0  0  0  0  0  0  0
   -3.1135    0.8647   -1.3120 C   0  0  0  0  0  0  0  0  0  0  0  0
   -2.5157    1.1966   -2.6428 C   0  0  0  0  0  0  0  0  0  0  0  0
   -4.3521    1.5610   -0.8338 C   0  0  0  0  0  0  0  0  0  0  0  0
   -3.9192    2.3739    0.3781 C   0  0  0  0  0  0  0  0  0  0  0  0
   -3.2550    1.5314    1.4308 C   0  0  0  0  0  0  0  0  0  0  0  0
   -3.1249    0.1096    0.9115 C   0  0  0  0  0  0  0  0  0  0  0  0
   -4.5502   -0.3294    0.5927 C   0  0  0  0  0  0  0  0  0  0  0  0
   -2.4605   -0.8077    1.8852 C   0  0  0  0  0  0  0  0  0  0  0  0
    4.0380    0.3639    1.2815 C   0  0  0  0  0  0  0  0  0  0  0  0
    4.8848    1.4839    0.8592 C   0  0  0  0  0  0  0  0  0  0  0  0
    5.6847    1.2869   -0.1013 O   0  0  0  0  0  0  0  0  0  0  0  0
    4.3314    2.7572    1.0142 O   0  0  0  0  0  0  0  0  0  0  0  0
  1  2  1  0
  2  3  1  0
  3  4  2  0
  4  5  1  0
  5  6  2  0
  6  7  1  0
  6  8  1  0
  8  9  2  0
  9 10  1  0
 10 11  2  0
 11 12  1  0
 11 13  1  0
 13 14  1  0
 14 15  1  0
 15 16  1  0
 16 17  1  0
 16 18  1  0
  2 19  2  0
 19 20  1  0
 20 21  2  0
 20 22  1  0
 16 10  1  0
M  END
>  <supplier_code>  (625) 
DB00755

>  <zinc_id>  (625) 
ZINC000036766734

>  <catalog_short_name>  (625) 
dbfda

$$$$

     RDKit          3D

 22 22  0  0  0  0  0  0  0  0999 V2000
   -4.5332   -2.5972   -0.2893 C   0  0  0  0  0  0  0  0  0  0  0  0
   -4.1182   -1.1728   -0.1203 C   0  0  0  0  0  0  0  0  0  0  0  0
   -2.6782   -0.9068   -0.1785 C   0  0  0  0  0  0  0  0  0  0  0  0
   -2.0974   -0.1739   -1.0925 C   0  0  0  0  0  0  0  0  0  0  0  0
   -1.0025   -0.5839   -1.9421 C   0  0  0  0  0  0  0  0  0  0  0  0
    0.2458   -0.7589   -1.5233 C   0  0  0  0  0  0  0  0  0  0  0  0
    1.1632   -1.4714   -2.4590 C   0  0  0  0  0  0  0  0  0  0  0  0
    0.4111   -1.0719   -0.0989 C   0  0  0  0  0  0  0  0  0  0  0  0
    1.1485   -0.2314    0.5952 C   0  0  0  0  0  0  0  0  0  0  0  0
    2.4642    0.1085    0.0377 C   0  0  0  0  0  0  0  0  0  0  0  0
    2.5617    1.2913   -0.5615 C   0  0  0  0  0  0  0  0  0  0  0  0
    1.3773    2.2059   -0.6217 C   0  0  0  0  0  0  0  0  0  0  0  0
    3.8822    1.9555   -0.7996 C   0  0  0  0  0  0  0  0  0  0  0  0
    4.7541    1.6652    0.4113 C   0  0  0  0  0  0  0  0  0  0  0  0
    4.9240    0.1533    0.4478 C   0  0  0  0  0  0  0  0  0  0  0  0
    3.6203   -0.5271    0.7430 C   0  0  0  0  0  0  0  0  0  0  0  0
    3.7412   -1.9904    0.4159 C   0  0  0  0  0  0  0  0  0  0  0  0
    3.3329   -0.4263    2.2357 C   0  0  0  0  0  0  0  0  0  0  0  0
   -5.0328   -0.2426   -0.2730 C   0  0  0  0  0  0  0  0  0  0  0  0
   -4.6566    1.1329   -0.0442 C   0  0  0  0  0  0  0  0  0  0  0  0
   -4.1686    1.5324    1.0559 O   0  0  0  0  0  0  0  0  0  0  0  0
   -5.3391    2.1098   -0.7768 O   0  0  0  0  0  0  0  0  0  0  0  0
  1  2  1  0
  2  3  1  0
  3  4  2  0
  4  5  1  0
  5  6  2  0
  6  7  1  0
  6  8  1  0
  8  9  2  0
  9 10  1  0
 10 11  2  0
 11 12  1  0
 11 13  1  0
 13 14  1  0
 14 15  1  0
 15 16  1  0
 16 17  1  0
 16 18  1  0
  2 19  2  0
 19 20  1  0
 20 21  2  0
 20 22  1  0
 16 10  1  0
M  END
>  <supplier_code>  (626) 
DB00755

>  <zinc_id>  (626) 
ZINC000096014710

>  <catalog_short_name>  (626) 
dbfda

$$$$

     RDKit          3D

 21 22  0  0  0  0  0  0  0  0999 V2000
   -1.6338   -2.3432   -0.4836 O   0  0  0  0  0  0  0  0  0  0  0  0
   -2.0840   -1.0802   -0.1027 C   0  0  0  0  0  0  0  0  0  0  0  0
   -3.4168   -0.9475    0.1864 C   0  0  0  0  0  0  0  0  0  0  0  0
   -4.6421   -2.1029   -0.3058 Cl  0  0  0  0  0  0  0  0  0  0  0  0
   -3.8698    0.2640    0.6703 C   0  0  0  0  0  0  0  0  0  0  0  0
   -3.0280    1.3661    0.6560 C   0  0  0  0  0  0  0  0  0  0  0  0
   -3.4541    2.8027    1.5735 Cl  0  0  0  0  0  0  0  0  0  0  0  0
   -1.7770    1.2383    0.0824 C   0  0  0  0  0  0  0  0  0  0  0  0
   -0.9887    2.7118   -0.4339 Cl  0  0  0  0  0  0  0  0  0  0  0  0
   -1.1944   -0.0116   -0.0941 C   0  0  0  0  0  0  0  0  0  0  0  0
   -0.0582   -0.0636   -1.0497 C   0  0  0  0  0  0  0  0  0  0  0  0
    1.2540    0.1320   -0.4033 C   0  0  0  0  0  0  0  0  0  0  0  0
    1.5355   -0.7024    0.6719 C   0  0  0  0  0  0  0  0  0  0  0  0
    0.5755   -0.6961    1.6887 O   0  0  0  0  0  0  0  0  0  0  0  0
    2.8222   -1.1617    0.9259 C   0  0  0  0  0  0  0  0  0  0  0  0
    3.1483   -1.9519    2.4650 Cl  0  0  0  0  0  0  0  0  0  0  0  0
    3.8724   -0.7817    0.1004 C   0  0  0  0  0  0  0  0  0  0  0  0
    3.6341    0.2217   -0.8316 C   0  0  0  0  0  0  0  0  0  0  0  0
    4.9264    1.2869   -1.3756 Cl  0  0  0  0  0  0  0  0  0  0  0  0
    2.3244    0.4640   -1.2240 C   0  0  0  0  0  0  0  0  0  0  0  0
    2.0539    1.3553   -2.7163 Cl  0  0  0  0  0  0  0  0  0  0  0  0
  1  2  1  0
  2  3  2  0
  3  4  1  0
  3  5  1  0
  5  6  2  0
  6  7  1  0
  6  8  1  0
  8  9  1  0
  8 10  2  0
 10 11  1  0
 11 12  1  0
 12 13  2  0
 13 14  1  0
 13 15  1  0
 15 16  1  0
 15 17  2  0
 17 18  1  0
 18 19  1  0
 18 20  2  0
 20 21  1  0
 10  2  1  0
 20 12  1  0
M  END
>  <supplier_code>  (627) 
DB00756

>  <zinc_id>  (627) 
ZINC000001530968

>  <catalog_short_name>  (627) 
dbfda

$$$$

     RDKit          3D

 24 28  0  0  0  0  0  0  0  0999 V2000
   -0.9380   -0.4963   -1.3557 O   0  0  0  0  0  0  0  0  0  0  0  0
   -1.1795   -0.0102   -0.2361 C   0  0  0  0  0  0  0  0  0  0  0  0
   -0.3475   -0.4797    0.7862 O   0  0  0  0  0  0  0  0  0  0  0  0
    1.0277   -0.4933    0.6256 C   0  0  0  0  0  0  0  0  0  0  0  0
    1.5453   -1.2054   -0.5767 C   0  0  0  0  0  0  0  0  0  0  0  0
    2.9360   -1.7854    0.1579 C   0  0  1  0  0  0  0  0  0  0  0  0
    3.8861   -1.7100   -1.2188 C   0  0  0  0  0  0  0  0  0  0  0  0
    4.3252   -0.3620   -1.4468 C   0  0  0  0  0  0  0  0  0  0  0  0
    3.0683    0.4002   -1.4397 C   0  0  0  0  0  0  0  0  0  0  0  0
    3.1108    0.8962    0.1585 C   0  0  1  0  0  0  0  0  0  0  0  0
    1.4541    0.8738    0.3645 C   0  0  0  0  0  0  0  0  0  0  0  0
    3.4234   -0.4711    0.8488 N   0  0  0  0  0  0  0  0  0  0  0  0
    4.8557   -0.5465    0.9331 C   0  0  0  0  0  0  0  0  0  0  0  0
    5.3064    0.0267   -0.3837 C   0  0  0  0  0  0  0  0  0  0  0  0
    5.6558    1.2033   -0.4121 O   0  0  0  0  0  0  0  0  0  0  0  0
   -2.4153    0.7278    0.0263 C   0  0  0  0  0  0  0  0  0  0  0  0
   -2.4836    2.0449    0.4629 C   0  0  0  0  0  0  0  0  0  0  0  0
   -3.6954    2.1949    1.0499 N   0  0  0  0  0  0  0  0  0  0  0  0
   -4.3902    1.0398    0.9455 C   0  0  0  0  0  0  0  0  0  0  0  0
   -5.5836    0.5552    1.4626 C   0  0  0  0  0  0  0  0  0  0  0  0
   -6.0566   -0.6647    0.9917 C   0  0  0  0  0  0  0  0  0  0  0  0
   -5.5259   -1.1900   -0.1815 C   0  0  0  0  0  0  0  0  0  0  0  0
   -4.2943   -0.7759   -0.6382 C   0  0  0  0  0  0  0  0  0  0  0  0
   -3.6850    0.2277    0.0797 C   0  0  0  0  0  0  0  0  0  0  0  0
  1  2  2  0
  2  3  1  0
  3  4  1  0
  4  5  1  0
  6  5  1  6
  6  7  1  0
  7  8  1  0
  8  9  1  0
  9 10  1  0
 10 11  1  1
 10 12  1  0
 12 13  1  0
 13 14  1  0
 14 15  2  0
  2 16  1  0
 16 17  2  0
 17 18  1  0
 18 19  1  0
 19 20  2  0
 20 21  1  0
 21 22  2  0
 22 23  1  0
 23 24  2  0
 11  4  1  0
 24 16  1  0
 12  6  1  0
 24 19  1  0
 14  8  1  0
M  END
>  <supplier_code>  (628) 
DB00757

>  <zinc_id>  (628) 
ZINC000000002688

>  <catalog_short_name>  (628) 
dbfda

$$$$

     RDKit          3D

 24 28  0  0  0  0  0  0  0  0999 V2000
   -1.0749   -1.8069    0.6847 O   0  0  0  0  0  0  0  0  0  0  0  0
   -1.2396   -0.8057    0.3302 C   0  0  0  0  0  0  0  0  0  0  0  0
   -0.3776   -0.3795   -0.6875 O   0  0  0  0  0  0  0  0  0  0  0  0
    0.9847   -0.6853   -0.6300 C   0  0  0  0  0  0  0  0  0  0  0  0
    1.4343   -0.4725    0.8494 C   0  0  0  0  0  0  0  0  0  0  0  0
    2.5281    0.5553    0.2251 C   0  0  1  0  0  0  0  0  0  0  0  0
    3.6825    0.7169    1.3519 C   0  0  0  0  0  0  0  0  0  0  0  0
    4.5260    1.2765    0.1595 C   0  0  0  0  0  0  0  0  0  0  0  0
    3.7792    1.4676   -1.1279 C   0  0  0  0  0  0  0  0  0  0  0  0
    3.2118    0.0503   -1.7574 C   0  0  2  0  0  0  0  0  0  0  0  0
    1.5895    0.3181   -1.6154 C   0  0  0  0  0  0  0  0  0  0  0  0
    3.2582   -0.7076   -0.3971 N   0  0  0  0  0  0  0  0  0  0  0  0
    4.4628   -1.0499    0.0093 C   0  0  0  0  0  0  0  0  0  0  0  0
    5.4342    0.0965   -0.0730 C   0  0  0  0  0  0  0  0  0  0  0  0
    6.3585    0.0119    0.7350 O   0  0  0  0  0  0  0  0  0  0  0  0
   -2.4162    0.0367    0.5949 C   0  0  0  0  0  0  0  0  0  0  0  0
   -2.3861    1.3707    0.9699 C   0  0  0  0  0  0  0  0  0  0  0  0
   -3.6580    1.7895    1.0527 N   0  0  0  0  0  0  0  0  0  0  0  0
   -4.4826    0.8132    0.6125 C   0  0  0  0  0  0  0  0  0  0  0  0
   -5.8542    0.6040    0.6394 C   0  0  0  0  0  0  0  0  0  0  0  0
   -6.3504   -0.5631    0.0716 C   0  0  0  0  0  0  0  0  0  0  0  0
   -5.5148   -1.4524   -0.5929 C   0  0  0  0  0  0  0  0  0  0  0  0
   -4.2278   -1.0053   -0.8696 C   0  0  0  0  0  0  0  0  0  0  0  0
   -3.6676   -0.1789    0.0872 C   0  0  0  0  0  0  0  0  0  0  0  0
  1  2  2  0
  2  3  1  0
  3  4  1  0
  4  5  1  0
  6  5  1  1
  6  7  1  0
  7  8  1  0
  8  9  1  0
  9 10  1  0
 10 11  1  1
 10 12  1  0
 12 13  1  0
 13 14  1  0
 14 15  2  0
  2 16  1  0
 16 17  2  0
 17 18  1  0
 18 19  1  0
 19 20  2  0
 20 21  1  0
 21 22  2  0
 22 23  1  0
 23 24  2  0
 11  4  1  0
 24 16  1  0
 12  6  1  0
 24 19  1  0
 14  8  1  0
M  END
>  <supplier_code>  (629) 
DB00757

>  <zinc_id>  (629) 
ZINC000000897301

>  <catalog_short_name>  (629) 
dbfda

$$$$

     RDKit          3D

 24 28  0  0  0  0  0  0  0  0999 V2000
    1.3016    0.0488    1.1979 O   0  0  0  0  0  0  0  0  0  0  0  0
    1.3758   -0.6501    0.8763 C   0  0  0  0  0  0  0  0  0  0  0  0
    0.2369   -1.1542    0.2377 O   0  0  0  0  0  0  0  0  0  0  0  0
   -0.8480   -0.0627    0.3340 C   0  0  1  0  0  0  0  0  0  0  0  0
   -1.7602   -0.7849   -0.8253 C   0  0  0  0  0  0  0  0  0  0  0  0
   -2.6655    0.5618   -1.0660 C   0  0  1  0  0  0  0  0  0  0  0  0
   -3.9853   -0.3802   -1.5654 C   0  0  0  0  0  0  0  0  0  0  0  0
   -3.9494   -0.0071   -0.0181 C   0  0  2  0  0  0  0  0  0  0  0  0
   -3.9642   -1.4295    0.7127 C   0  0  0  0  0  0  0  0  0  0  0  0
   -3.1331   -0.1883    1.5130 C   0  0  1  0  0  0  0  0  0  0  0  0
   -1.6802   -0.9145    1.4440 C   0  0  0  0  0  0  0  0  0  0  0  0
   -2.9728    0.9213    0.4163 N   0  0  0  0  0  0  0  0  0  0  0  0
   -4.2820    1.6633    0.4721 C   0  0  0  0  0  0  0  0  0  0  0  0
   -5.4130    0.5838    0.2649 C   0  0  0  0  0  0  0  0  0  0  0  0
   -6.1407    0.7299   -0.6791 O   0  0  0  0  0  0  0  0  0  0  0  0
    2.7382   -0.9262    0.4076 C   0  0  0  0  0  0  0  0  0  0  0  0
    3.3715   -2.0692    0.0002 C   0  0  0  0  0  0  0  0  0  0  0  0
    4.6163   -1.7504   -0.4368 N   0  0  0  0  0  0  0  0  0  0  0  0
    4.8072   -0.4208   -0.4039 C   0  0  0  0  0  0  0  0  0  0  0  0
    5.6573    0.5018   -0.9521 C   0  0  0  0  0  0  0  0  0  0  0  0
    5.3414    1.8509   -1.0468 C   0  0  0  0  0  0  0  0  0  0  0  0
    4.2435    2.3528   -0.3932 C   0  0  0  0  0  0  0  0  0  0  0  0
    3.4306    1.4444    0.2383 C   0  0  0  0  0  0  0  0  0  0  0  0
    3.6740    0.0795    0.2016 C   0  0  0  0  0  0  0  0  0  0  0  0
  1  2  2  0
  2  3  1  0
  4  3  1  6
  4  5  1  0
  6  5  1  1
  6  7  1  0
  8  7  1  6
  8  9  1  0
  9 10  1  0
 10 11  1  6
 10 12  1  0
 12 13  1  0
 13 14  1  0
 14 15  2  0
  2 16  1  0
 16 17  2  0
 17 18  1  0
 18 19  1  0
 19 20  2  0
 20 21  1  0
 21 22  2  0
 22 23  1  0
 23 24  2  0
 11  4  1  0
 24 16  1  0
 12  6  1  0
 24 19  1  0
 14  8  1  0
M  END
>  <supplier_code>  (630) 
DB00757

>  <zinc_id>  (630) 
ZINC000103105084

>  <catalog_short_name>  (630) 
dbfda

$$$$

     RDKit          3D

 21 23  0  0  0  0  0  0  0  0999 V2000
   -1.5509    4.0112    0.6805 C   0  0  0  0  0  0  0  0  0  0  0  0
   -0.9648    2.8684    0.3779 O   0  0  0  0  0  0  0  0  0  0  0  0
   -1.5901    1.6344    0.1690 C   0  0  0  0  0  0  0  0  0  0  0  0
   -2.7187    1.7842   -0.4055 O   0  0  0  0  0  0  0  0  0  0  0  0
   -0.7677    0.6796   -0.8834 C   0  0  2  0  0  0  0  0  0  0  0  0
   -1.4461   -0.7310   -0.4130 C   0  0  0  0  0  0  0  0  0  0  0  0
   -1.3785   -1.6946   -1.4157 C   0  0  0  0  0  0  0  0  0  0  0  0
   -2.3006   -2.7302   -1.3762 C   0  0  0  0  0  0  0  0  0  0  0  0
   -3.4015   -2.5894   -0.5435 C   0  0  0  0  0  0  0  0  0  0  0  0
   -3.3285   -1.7474    0.5590 C   0  0  0  0  0  0  0  0  0  0  0  0
   -2.4223   -0.7006    0.5104 C   0  0  0  0  0  0  0  0  0  0  0  0
   -1.8312    0.1133    1.9640 Cl  0  0  0  0  0  0  0  0  0  0  0  0
    0.4680    0.4866    0.1214 N   0  0  0  0  0  0  0  0  0  0  0  0
    1.1829    1.6909   -0.1831 C   0  0  0  0  0  0  0  0  0  0  0  0
    2.6177    1.7343    0.1522 C   0  0  0  0  0  0  0  0  0  0  0  0
    3.2545    0.4170   -0.0715 C   0  0  0  0  0  0  0  0  0  0  0  0
    4.8610   -0.1795   -0.0068 S   0  0  0  0  0  0  0  0  0  0  0  0
    4.5069   -1.8588   -0.0805 C   0  0  0  0  0  0  0  0  0  0  0  0
    3.1694   -1.8478    0.2021 C   0  0  0  0  0  0  0  0  0  0  0  0
    2.5405   -0.7351   -0.3298 C   0  0  0  0  0  0  0  0  0  0  0  0
    1.1000   -0.6056   -0.6180 C   0  0  0  0  0  0  0  0  0  0  0  0
  1  2  1  0
  2  3  1  0
  3  4  2  0
  5  3  1  1
  5  6  1  0
  6  7  2  0
  7  8  1  0
  8  9  2  0
  9 10  1  0
 10 11  2  0
 11 12  1  0
  5 13  1  0
 13 14  1  0
 14 15  1  0
 15 16  1  0
 16 17  1  0
 17 18  1  0
 18 19  2  0
 19 20  1  0
 20 21  1  0
 11  6  1  0
 21 13  1  0
 20 16  2  0
M  END
>  <supplier_code>  (631) 
DB00758

>  <zinc_id>  (631) 
ZINC000034781704

>  <catalog_short_name>  (631) 
dbfda

$$$$

     RDKit          3D

 32 35  0  0  0  0  0  0  0  0999 V2000
   -3.6420    3.2598   -0.6998 C   0  0  0  0  0  0  0  0  0  0  0  0
   -2.6228    2.6630    0.1330 N   0  0  0  0  0  0  0  0  0  0  0  0
   -1.3878    3.2966   -0.1732 C   0  0  0  0  0  0  0  0  0  0  0  0
   -2.5461    1.1895   -0.4588 C   0  0  2  0  0  0  0  0  0  0  0  0
   -3.4540    0.5889    0.7594 C   0  0  0  0  0  0  0  0  0  0  0  0
   -4.6586    1.2749    0.9562 O   0  0  0  0  0  0  0  0  0  0  0  0
   -3.5924   -0.7115    0.4796 C   0  0  0  0  0  0  0  0  0  0  0  0
   -4.7978   -1.4800    0.6889 C   0  0  0  0  0  0  0  0  0  0  0  0
   -4.9460   -2.1224    1.9608 N   0  0  0  0  0  0  0  0  0  0  0  0
   -5.3078   -2.0628   -0.3065 O   0  0  0  0  0  0  0  0  0  0  0  0
   -2.4003   -1.2158   -0.2211 C   0  0  0  0  0  0  0  0  0  0  0  0
   -2.4564   -2.3384   -0.7551 O   0  0  0  0  0  0  0  0  0  0  0  0
   -1.1205   -0.7608    0.2465 C   0  0  1  0  0  0  0  0  0  0  0  0
   -0.9580   -1.0944    1.6080 O   0  0  0  0  0  0  0  0  0  0  0  0
    0.0625   -1.3001   -0.3954 C   0  0  0  0  0  0  0  0  0  0  0  0
    0.0852   -2.7001   -0.3829 O   0  0  0  0  0  0  0  0  0  0  0  0
    1.2302   -0.7611   -0.5804 C   0  0  0  0  0  0  0  0  0  0  0  0
    2.5195   -1.3975   -0.4031 C   0  0  0  0  0  0  0  0  0  0  0  0
    2.5428   -2.5748    0.0282 O   0  0  0  0  0  0  0  0  0  0  0  0
    3.6684   -0.4900   -0.2164 C   0  0  0  0  0  0  0  0  0  0  0  0
    4.6925   -0.8191    0.6709 C   0  0  0  0  0  0  0  0  0  0  0  0
    4.6711   -2.0601    1.3166 O   0  0  0  0  0  0  0  0  0  0  0  0
    5.4005    0.1992    1.3020 C   0  0  0  0  0  0  0  0  0  0  0  0
    4.9762    1.4997    1.0992 C   0  0  0  0  0  0  0  0  0  0  0  0
    4.2540    1.7718   -0.0492 C   0  0  0  0  0  0  0  0  0  0  0  0
    3.5339    0.7962   -0.7337 C   0  0  0  0  0  0  0  0  0  0  0  0
    2.2399    1.2635   -1.3325 C   0  0  1  0  0  0  0  0  0  0  0  0
    2.1694    2.7554   -1.3919 C   0  0  0  0  0  0  0  0  0  0  0  0
    1.8428    0.6113   -2.4428 O   0  0  0  0  0  0  0  0  0  0  0  0
    1.2249    0.8001   -0.1030 C   0  0  1  0  0  0  0  0  0  0  0  0
   -0.1640    1.0661   -0.9844 C   0  0  0  0  0  0  0  0  0  0  0  0
   -1.0593    0.8530    0.3809 C   0  0  1  0  0  0  0  0  0  0  0  0
  1  2  1  0
  2  3  1  0
  4  2  1  1
  4  5  1  0
  5  6  1  0
  5  7  2  0
  7  8  1  0
  8  9  1  0
  8 10  2  0
  7 11  1  0
 11 12  2  0
 11 13  1  0
 13 14  1  1
 13 15  1  0
 15 16  1  0
 15 17  2  0
 17 18  1  0
 18 19  2  0
 18 20  1  0
 20 21  2  0
 21 22  1  0
 21 23  1  0
 23 24  2  0
 24 25  1  0
 25 26  2  0
 26 27  1  0
 27 28  1  6
 27 29  1  0
 27 30  1  0
 30 31  1  6
 32 31  1  6
 32  4  1  0
 32 13  1  0
 30 17  1  0
 26 20  1  0
M  END
>  <supplier_code>  (632) 
DB00759

>  <zinc_id>  (632) 
ZINC000084441937

>  <catalog_short_name>  (632) 
dbfda

$$$$

     RDKit          3D

 26 28  0  0  0  0  0  0  0  0999 V2000
   -5.8218   -1.4871    0.7935 C   0  0  0  0  0  0  0  0  0  0  0  0
   -5.6054    0.1582    0.5997 C   0  0  1  0  0  0  0  0  0  0  0  0
   -6.2586    0.4179    1.9659 O   0  0  0  0  0  0  0  0  0  0  0  0
   -4.0075    0.1793    1.2690 C   0  0  1  0  0  0  0  0  0  0  0  0
   -3.4962   -1.0486    0.4042 C   0  0  0  0  0  0  0  0  0  0  0  0
   -3.2426   -2.1825    0.8842 O   0  0  0  0  0  0  0  0  0  0  0  0
   -2.6236   -0.2203   -0.3604 N   0  0  0  0  0  0  0  0  0  0  0  0
   -1.5274    0.4094   -1.0279 C   0  0  0  0  0  0  0  0  0  0  0  0
   -0.8494   -0.2302   -2.1571 C   0  0  0  0  0  0  0  0  0  0  0  0
   -0.4688   -1.4069   -2.1066 O   0  0  0  0  0  0  0  0  0  0  0  0
   -0.8818    0.3937   -3.4069 O   0  0  0  0  0  0  0  0  0  0  0  0
   -1.0530    1.4418   -0.4230 C   0  0  0  0  0  0  0  0  0  0  0  0
    0.7162    1.7549   -0.2588 S   0  0  0  0  0  0  0  0  0  0  0  0
    1.6111    0.0624   -0.2886 C   0  0  2  0  0  0  0  0  0  0  0  0
    1.8802    0.0066    1.2767 C   0  0  0  0  0  0  0  0  0  0  0  0
    2.8727   -0.9394    1.3656 N   0  0  0  0  0  0  0  0  0  0  0  0
    3.6299   -0.9296   -0.0399 C   0  0  2  0  0  0  0  0  0  0  0  0
    5.0013   -0.3482    0.6539 C   0  0  0  0  0  0  0  0  0  0  0  0
    5.4302   -1.1058    1.5485 O   0  0  0  0  0  0  0  0  0  0  0  0
    5.8420    0.1874   -0.3256 N   0  0  0  0  0  0  0  0  0  0  0  0
    7.0550   -0.5276   -0.6892 C   0  0  0  0  0  0  0  0  0  0  0  0
    5.7525    1.5536   -0.6906 C   0  0  0  0  0  0  0  0  0  0  0  0
    3.0984    0.6099   -0.4381 C   0  0  0  0  0  0  0  0  0  0  0  0
   -2.0502    1.7646    0.8019 C   0  0  2  0  0  0  0  0  0  0  0  0
   -1.5971    0.3983    1.5925 C   0  0  0  0  0  0  0  0  0  0  0  0
   -3.4061    1.0880   -0.0349 C   0  0  2  0  0  0  0  0  0  0  0  0
  2  1  1  1
  2  3  1  0
  2  4  1  0
  4  5  1  6
  5  6  2  0
  5  7  1  0
  7  8  1  0
  8  9  1  0
  9 10  2  0
  9 11  1  0
  8 12  2  0
 12 13  1  0
 14 13  1  1
 14 15  1  0
 15 16  1  0
 16 17  1  0
 17 18  1  1
 18 19  2  0
 18 20  1  0
 20 21  1  0
 20 22  1  0
 17 23  1  0
 12 24  1  0
 24 25  1  1
 24 26  1  0
 26  4  1  0
 26  7  1  6
 23 14  1  0
M  END
>  <supplier_code>  (633) 
DB00760

>  <zinc_id>  (633) 
ZINC000003808779

>  <catalog_short_name>  (633) 
dbfda

$$$$

     RDKit          3D

 43 49  0  0  0  0  0  0  0  0999 V2000
   -0.8675   -1.6708   -3.7805 C   0  0  0  0  0  0  0  0  0  0  0  0
   -1.1631   -2.2948   -2.4572 C   0  0  0  0  0  0  0  0  0  0  0  0
   -1.4071   -1.2088   -1.4838 C   0  0  0  0  0  0  0  0  0  0  0  0
   -2.6862   -0.7312   -1.2471 C   0  0  0  0  0  0  0  0  0  0  0  0
   -2.8388    0.3905   -0.4424 C   0  0  0  0  0  0  0  0  0  0  0  0
   -1.8428    0.5997    0.4525 N   0  0  0  0  0  0  0  0  0  0  0  0
   -0.6013    0.1080    0.2856 C   0  0  0  0  0  0  0  0  0  0  0  0
    0.4828    0.6147    0.9795 C   0  0  0  0  0  0  0  0  0  0  0  0
    1.7208    0.6512    0.3728 C   0  0  0  0  0  0  0  0  0  0  0  0
    1.9109    0.2186   -0.9324 C   0  0  0  0  0  0  0  0  0  0  0  0
    3.0403    0.5752   -1.6411 O   0  0  0  0  0  0  0  0  0  0  0  0
    4.2054    0.7824   -0.9009 C   0  0  0  0  0  0  0  0  0  0  0  0
    4.2424    0.4236    0.3147 O   0  0  0  0  0  0  0  0  0  0  0  0
    5.4443    1.1407   -1.4868 N   0  0  0  0  0  0  0  0  0  0  0  0
    6.3535    1.9511   -0.6888 C   0  0  0  0  0  0  0  0  0  0  0  0
    7.1605    1.1102    0.2782 C   0  0  0  0  0  0  0  0  0  0  0  0
    7.3616   -0.2585   -0.3237 C   0  0  0  0  0  0  0  0  0  0  0  0
    8.5812   -0.8931    0.1008 N   0  0  0  0  0  0  0  0  0  0  0  0
    9.6963   -0.6456   -0.7751 C   0  0  0  0  0  0  0  0  0  0  0  0
   10.9751   -0.3430   -0.0448 C   0  0  0  0  0  0  0  0  0  0  0  0
   10.7123    0.8808    0.8208 C   0  0  0  0  0  0  0  0  0  0  0  0
    9.6074    0.5747    1.7922 C   0  0  0  0  0  0  0  0  0  0  0  0
    8.8828   -0.7061    1.4938 C   0  0  0  0  0  0  0  0  0  0  0  0
    7.4721   -0.0563   -1.8306 C   0  0  0  0  0  0  0  0  0  0  0  0
    6.0685    0.1582   -2.3678 C   0  0  0  0  0  0  0  0  0  0  0  0
    0.9408   -0.6405   -1.4274 C   0  0  0  0  0  0  0  0  0  0  0  0
   -0.3140   -0.6608   -0.8314 C   0  0  0  0  0  0  0  0  0  0  0  0
   -4.2796    0.4394   -0.1627 C   0  0  0  0  0  0  0  0  0  0  0  0
   -5.0392    1.0205    0.8400 C   0  0  0  0  0  0  0  0  0  0  0  0
   -6.3563    0.6564    1.0778 C   0  0  0  0  0  0  0  0  0  0  0  0
   -6.9812   -0.0432    0.0529 C   0  0  0  0  0  0  0  0  0  0  0  0
   -6.2697   -0.2805   -1.1121 C   0  0  0  0  0  0  0  0  0  0  0  0
   -6.8456   -0.8742   -2.0728 O   0  0  0  0  0  0  0  0  0  0  0  0
   -4.9183   -0.2158   -1.1623 N   0  0  0  0  0  0  0  0  0  0  0  0
   -3.9256   -0.7650   -2.0820 C   0  0  0  0  0  0  0  0  0  0  0  0
   -8.2061   -0.8405    0.3745 C   0  0  0  0  0  0  0  0  0  0  0  0
   -7.8728   -1.6153    1.5239 O   0  0  0  0  0  0  0  0  0  0  0  0
   -7.1058   -1.0636    2.5535 C   0  0  0  0  0  0  0  0  0  0  0  0
   -6.1876   -1.7373    3.1110 O   0  0  0  0  0  0  0  0  0  0  0  0
   -6.8702    0.4111    2.4616 C   0  0  1  0  0  0  0  0  0  0  0  0
   -5.9271    0.8288    3.3982 O   0  0  0  0  0  0  0  0  0  0  0  0
   -8.1364    1.1939    2.7292 C   0  0  0  0  0  0  0  0  0  0  0  0
   -8.2166    1.3760    4.2402 C   0  0  0  0  0  0  0  0  0  0  0  0
  1  2  1  0
  2  3  1  0
  3  4  2  0
  4  5  1  0
  5  6  2  0
  6  7  1  0
  7  8  2  0
  8  9  1  0
  9 10  2  0
 10 11  1  0
 11 12  1  0
 12 13  2  0
 12 14  1  0
 14 15  1  0
 15 16  1  0
 16 17  1  0
 17 18  1  0
 18 19  1  0
 19 20  1  0
 20 21  1  0
 21 22  1  0
 22 23  1  0
 17 24  1  0
 24 25  1  0
 10 26  1  0
 26 27  2  0
  5 28  1  0
 28 29  2  0
 29 30  1  0
 30 31  2  0
 31 32  1  0
 32 33  2  0
 32 34  1  0
 34 35  1  0
 31 36  1  0
 36 37  1  0
 37 38  1  0
 38 39  2  0
 38 40  1  0
 40 41  1  1
 40 42  1  0
 42 43  1  0
 27  3  1  0
 34 28  1  0
 35  4  1  0
 27  7  1  0
 40 30  1  0
 25 14  1  0
 23 18  1  0
M  END
>  <supplier_code>  (634) 
DB00762

>  <zinc_id>  (634) 
ZINC000001612996

>  <catalog_short_name>  (634) 
dbfda

$$$$

     RDKit          3D

  7  7  0  0  0  0  0  0  0  0999 V2000
    1.0757    1.7375    0.3299 C   0  0  0  0  0  0  0  0  0  0  0  0
    0.1458    0.7289   -0.1205 N   0  0  0  0  0  0  0  0  0  0  0  0
   -1.1345    0.9316   -0.5204 C   0  0  0  0  0  0  0  0  0  0  0  0
   -1.6431   -0.3423   -0.6987 C   0  0  0  0  0  0  0  0  0  0  0  0
   -0.7458   -1.2015   -0.1787 N   0  0  0  0  0  0  0  0  0  0  0  0
    0.4577   -0.5820   -0.2607 C   0  0  0  0  0  0  0  0  0  0  0  0
    1.8442   -1.2722    0.2613 S   0  0  0  0  0  0  0  0  0  0  0  0
  1  2  1  0
  2  3  1  0
  3  4  2  0
  4  5  1  0
  5  6  1  0
  6  7  2  0
  6  2  1  0
M  END
>  <supplier_code>  (635) 
DB00763

>  <zinc_id>  (635) 
ZINC000001187543

>  <catalog_short_name>  (635) 
dbfda

$$$$

     RDKit          3D

 28 31  0  0  0  0  0  0  0  0999 V2000
    2.6299   -2.8800   -0.9939 C   0  0  0  0  0  0  0  0  0  0  0  0
    3.2184   -1.8749    0.1523 C   0  0  2  0  0  0  0  0  0  0  0  0
    1.7694   -1.8249    0.9096 C   0  0  0  0  0  0  0  0  0  0  0  0
    0.9465   -1.3063   -0.3786 C   0  0  1  0  0  0  0  0  0  0  0  0
   -0.2591   -0.5008    0.4955 C   0  0  2  0  0  0  0  0  0  0  0  0
   -1.2023   -1.8103    0.6323 C   0  0  0  0  0  0  0  0  0  0  0  0
   -2.2858   -1.1924    1.5183 C   0  0  0  0  0  0  0  0  0  0  0  0
   -2.7927    0.0422    0.8316 C   0  0  0  0  0  0  0  0  0  0  0  0
   -4.0329    0.4996    1.0480 C   0  0  0  0  0  0  0  0  0  0  0  0
   -4.9859    0.6477   -0.0677 C   0  0  0  0  0  0  0  0  0  0  0  0
   -6.0770    1.2446    0.0430 O   0  0  0  0  0  0  0  0  0  0  0  0
   -4.6324   -0.2042   -1.2155 C   0  0  0  0  0  0  0  0  0  0  0  0
   -3.3647   -0.6240   -1.3320 C   0  0  0  0  0  0  0  0  0  0  0  0
   -2.3844    0.2278   -0.6003 C   0  0  1  0  0  0  0  0  0  0  0  0
   -2.7627    1.6567   -0.9822 C   0  0  0  0  0  0  0  0  0  0  0  0
   -0.9568   -0.0278   -0.8693 C   0  0  2  0  0  0  0  0  0  0  0  0
   -0.7164   -1.0296   -2.2198 Cl  0  0  0  0  0  0  0  0  0  0  0  0
   -0.2937    1.4524   -1.1654 C   0  0  1  0  0  0  0  0  0  0  0  0
   -0.4834    1.9015    0.2809 O   0  0  0  0  0  0  0  0  0  0  0  0
    1.2888    1.1342   -0.9701 C   0  0  0  0  0  0  0  0  0  0  0  0
    1.7854    0.0672   -0.3264 C   0  0  1  0  0  0  0  0  0  0  0  0
    1.9831    0.4385    1.1471 C   0  0  0  0  0  0  0  0  0  0  0  0
    3.0324   -0.5285   -0.7392 C   0  0  2  0  0  0  0  0  0  0  0  0
    3.2662   -0.8105   -2.0464 O   0  0  0  0  0  0  0  0  0  0  0  0
    4.1673    0.3684   -0.3228 C   0  0  0  0  0  0  0  0  0  0  0  0
    4.5784    0.4082    0.8135 O   0  0  0  0  0  0  0  0  0  0  0  0
    4.5609    1.4719   -1.2369 C   0  0  0  0  0  0  0  0  0  0  0  0
    4.0035    3.0535   -0.6743 Cl  0  0  0  0  0  0  0  0  0  0  0  0
  2  1  1  6
  2  3  1  0
  4  3  1  1
  4  5  1  0
  5  6  1  6
  6  7  1  0
  7  8  1  0
  8  9  2  0
  9 10  1  0
 10 11  2  0
 10 12  1  0
 12 13  2  0
 13 14  1  0
 14 15  1  6
 14 16  1  0
 16 17  1  6
 16 18  1  0
 18 19  1  1
 18 20  1  0
 20 21  1  0
 21 22  1  1
 21 23  1  0
 23 24  1  6
 23 25  1  0
 25 26  2  0
 25 27  1  0
 27 28  1  0
 23  2  1  0
 21  4  1  0
 16  5  1  0
 14  8  1  0
M  END
>  <supplier_code>  (636) 
DB00764

>  <zinc_id>  (636) 
ZINC000004097440

>  <catalog_short_name>  (636) 
dbfda

$$$$

     RDKit          3D

 14 14  0  0  0  0  0  0  0  0999 V2000
   -2.9422   -1.2505    0.2719 C   0  0  0  0  0  0  0  0  0  0  0  0
   -1.9843   -0.1890   -0.1332 C   0  0  2  0  0  0  0  0  0  0  0  0
   -1.5284   -0.4676   -1.4917 N   0  0  0  0  0  0  0  0  0  0  0  0
   -0.8025   -0.1654    0.8011 C   0  0  0  0  0  0  0  0  0  0  0  0
    0.4593   -0.5705    0.1060 C   0  0  0  0  0  0  0  0  0  0  0  0
    0.9612    0.2541   -0.8925 C   0  0  0  0  0  0  0  0  0  0  0  0
    2.3291    0.2938   -1.1359 C   0  0  0  0  0  0  0  0  0  0  0  0
    3.2187   -0.2787   -0.2364 C   0  0  0  0  0  0  0  0  0  0  0  0
    4.4457    0.3508   -0.0252 O   0  0  0  0  0  0  0  0  0  0  0  0
    2.7140   -1.2336    0.6286 C   0  0  0  0  0  0  0  0  0  0  0  0
    1.3436   -1.4326    0.7426 C   0  0  0  0  0  0  0  0  0  0  0  0
   -2.6193    1.1635   -0.0769 C   0  0  0  0  0  0  0  0  0  0  0  0
   -3.6878    1.2458    0.5882 O   0  0  0  0  0  0  0  0  0  0  0  0
   -1.9071    2.2799   -0.4538 O   0  0  0  0  0  0  0  0  0  0  0  0
  2  1  1  1
  2  3  1  0
  2  4  1  0
  4  5  1  0
  5  6  2  0
  6  7  1  0
  7  8  2  0
  8  9  1  0
  8 10  1  0
 10 11  2  0
  2 12  1  0
 12 13  2  0
 12 14  1  0
 11  5  1  0
M  END
>  <supplier_code>  (637) 
DB00765

>  <zinc_id>  (637) 
ZINC000000000693

>  <catalog_short_name>  (637) 
dbfda

$$$$

     RDKit          3D

 14 15  0  0  0  0  0  0  0  0999 V2000
   -0.7125    1.7719    1.2068 O   0  0  0  0  0  0  0  0  0  0  0  0
   -0.6046    1.9554   -0.0064 C   0  0  0  0  0  0  0  0  0  0  0  0
   -1.2292    2.9275   -0.7479 O   0  0  0  0  0  0  0  0  0  0  0  0
   -0.2972    0.5938   -0.8823 C   0  0  1  0  0  0  0  0  0  0  0  0
    0.9959    0.1976    0.0627 C   0  0  0  0  0  0  0  0  0  0  0  0
    2.0867    0.9433   -0.1213 C   0  0  0  0  0  0  0  0  0  0  0  0
    3.4102    0.2860   -0.2851 C   0  0  0  0  0  0  0  0  0  0  0  0
    3.6819   -0.5394    0.8199 O   0  0  0  0  0  0  0  0  0  0  0  0
    0.8163   -1.1178   -0.3980 O   0  0  0  0  0  0  0  0  0  0  0  0
   -0.2992   -1.2988    0.7168 C   0  0  2  0  0  0  0  0  0  0  0  0
   -1.0776   -2.4895   -0.1756 C   0  0  0  0  0  0  0  0  0  0  0  0
   -2.1379   -1.4404   -0.2961 C   0  0  0  0  0  0  0  0  0  0  0  0
   -3.3275   -1.4850    0.1341 O   0  0  0  0  0  0  0  0  0  0  0  0
   -1.3053   -0.3047   -0.0276 N   0  0  0  0  0  0  0  0  0  0  0  0
  1  2  2  0
  2  3  1  0
  4  2  1  1
  4  5  1  0
  5  6  2  0
  6  7  1  0
  7  8  1  0
  5  9  1  0
 10  9  1  6
 10 11  1  0
 11 12  1  0
 12 13  2  0
 12 14  1  0
 14  4  1  0
 14 10  1  0
M  END
>  <supplier_code>  (638) 
DB00766

>  <zinc_id>  (638) 
ZINC000003830569

>  <catalog_short_name>  (638) 
dbfda

$$$$

     RDKit          3D

 25 27  0  0  0  0  0  0  0  0999 V2000
   -2.4040    3.4863    0.8418 C   0  0  0  0  0  0  0  0  0  0  0  0
   -1.5227    4.0371   -0.1508 N   0  0  0  0  0  0  0  0  0  0  0  0
   -2.0758    4.0473   -1.4776 C   0  0  0  0  0  0  0  0  0  0  0  0
   -0.1759    3.5431   -0.0803 C   0  0  0  0  0  0  0  0  0  0  0  0
    0.0089    2.1885   -0.7015 C   0  0  0  0  0  0  0  0  0  0  0  0
   -1.1381    1.2718   -0.4305 C   0  0  0  0  0  0  0  0  0  0  0  0
   -0.8992    0.0497   -0.0215 C   0  0  0  0  0  0  0  0  0  0  0  0
   -2.0852   -0.6928    0.4204 C   0  0  0  0  0  0  0  0  0  0  0  0
   -3.2739   -0.1755   -0.0786 C   0  0  0  0  0  0  0  0  0  0  0  0
   -4.3924   -0.9994   -0.1257 C   0  0  0  0  0  0  0  0  0  0  0  0
   -4.3750   -2.1578    0.6402 C   0  0  0  0  0  0  0  0  0  0  0  0
   -3.2226   -2.5734    1.2950 C   0  0  0  0  0  0  0  0  0  0  0  0
   -2.0432   -2.0087    0.8639 C   0  0  0  0  0  0  0  0  0  0  0  0
   -0.8535   -2.7857    1.3303 C   0  0  0  0  0  0  0  0  0  0  0  0
    0.1659   -2.8272    0.3479 O   0  0  0  0  0  0  0  0  0  0  0  0
    0.8289   -1.7944   -0.2759 C   0  0  0  0  0  0  0  0  0  0  0  0
    1.9230   -2.1696   -1.0347 C   0  0  0  0  0  0  0  0  0  0  0  0
    2.8114   -1.1521   -1.3665 C   0  0  0  0  0  0  0  0  0  0  0  0
    2.6602    0.1242   -0.8358 C   0  0  0  0  0  0  0  0  0  0  0  0
    3.8407    0.9730   -0.4778 C   0  0  0  0  0  0  0  0  0  0  0  0
    4.7406    0.2022    0.4359 C   0  0  0  0  0  0  0  0  0  0  0  0
    4.7330    0.4611    1.6777 O   0  0  0  0  0  0  0  0  0  0  0  0
    4.9407   -1.1427    0.1106 O   0  0  0  0  0  0  0  0  0  0  0  0
    1.3555    0.5510   -0.6139 C   0  0  0  0  0  0  0  0  0  0  0  0
    0.4525   -0.4559   -0.2925 C   0  0  0  0  0  0  0  0  0  0  0  0
  1  2  1  0
  2  3  1  0
  2  4  1  0
  4  5  1  0
  5  6  1  0
  6  7  2  0
  7  8  1  0
  8  9  2  0
  9 10  1  0
 10 11  2  0
 11 12  1  0
 12 13  2  0
 13 14  1  0
 14 15  1  0
 15 16  1  0
 16 17  2  0
 17 18  1  0
 18 19  2  0
 19 20  1  0
 20 21  1  0
 21 22  2  0
 21 23  1  0
 19 24  1  0
 24 25  2  0
 25  7  1  0
 13  8  1  0
 25 16  1  0
M  END
>  <supplier_code>  (639) 
DB00768

>  <zinc_id>  (639) 
ZINC000000001850

>  <catalog_short_name>  (639) 
dbfda

$$$$

     RDKit          3D

 25 25  0  0  0  0  0  0  0  0999 V2000
   -6.7143    3.5526   -0.2852 C   0  0  0  0  0  0  0  0  0  0  0  0
   -5.6044    3.7296   -0.1067 C   0  0  0  0  0  0  0  0  0  0  0  0
   -4.8162    2.6622    0.6381 C   0  0  0  0  0  0  0  0  0  0  0  0
   -4.6040    1.5446   -0.3782 C   0  0  0  0  0  0  0  0  0  0  0  0
   -5.1312    0.3138    0.1846 C   0  0  0  0  0  0  0  0  0  0  0  0
   -4.0705   -0.3984    1.2255 C   0  0  2  0  0  0  0  0  0  0  0  0
   -3.1358    0.8029    1.2887 O   0  0  0  0  0  0  0  0  0  0  0  0
   -3.2242   -1.0555    0.0022 C   0  0  0  0  0  0  0  0  0  0  0  0
   -2.2316   -1.8047    0.4696 C   0  0  0  0  0  0  0  0  0  0  0  0
   -1.1563   -2.2743   -0.6058 C   0  0  1  0  0  0  0  0  0  0  0  0
   -0.8018   -0.6694   -1.0050 C   0  0  2  0  0  0  0  0  0  0  0  0
    0.0445   -1.1309   -2.1796 O   0  0  0  0  0  0  0  0  0  0  0  0
    0.4896   -0.4381   -0.0496 C   0  0  0  0  0  0  0  0  0  0  0  0
    0.0003   -1.0466    1.1071 C   0  0  0  0  0  0  0  0  0  0  0  0
   -0.1961   -0.8530    2.2775 O   0  0  0  0  0  0  0  0  0  0  0  0
   -0.0058   -2.5543    0.5823 C   0  0  2  0  0  0  0  0  0  0  0  0
    1.2678   -2.4964   -0.4424 C   0  0  0  0  0  0  0  0  0  0  0  0
    2.4120   -2.4563    0.5709 C   0  0  0  0  0  0  0  0  0  0  0  0
    3.5852   -1.7354    0.1347 C   0  0  0  0  0  0  0  0  0  0  0  0
    4.4292   -0.9306    0.9851 C   0  0  0  0  0  0  0  0  0  0  0  0
    4.3146    0.5330    0.6797 C   0  0  0  0  0  0  0  0  0  0  0  0
    5.5041    1.2549    1.3034 C   0  0  0  0  0  0  0  0  0  0  0  0
    6.3466    1.6717    0.1392 C   0  0  0  0  0  0  0  0  0  0  0  0
    7.3149    0.9813   -0.2505 O   0  0  0  0  0  0  0  0  0  0  0  0
    5.9837    2.7972   -0.5924 O   0  0  0  0  0  0  0  0  0  0  0  0
  1  2  1  0
  2  3  1  0
  3  4  1  0
  4  5  1  0
  6  5  1  6
  6  7  1  0
  6  8  1  0
  8  9  2  0
 10  9  1  1
 10 11  1  0
 11 12  1  6
 11 13  1  0
 13 14  1  0
 14 15  2  0
 14 16  1  0
 16 17  1  6
 17 18  1  0
 18 19  1  0
 19 20  1  0
 20 21  1  0
 21 22  1  0
 22 23  1  0
 23 24  2  0
 23 25  1  0
 16 10  1  0
M  END
>  <supplier_code>  (640) 
DB00770

>  <zinc_id>  (640) 
ZINC000003813088

>  <catalog_short_name>  (640) 
dbfda

$$$$

     RDKit          3D

 25 25  0  0  0  0  0  0  0  0999 V2000
   -5.7379   -0.2487    2.7735 C   0  0  0  0  0  0  0  0  0  0  0  0
   -5.7847   -0.2895    2.9524 C   0  0  0  0  0  0  0  0  0  0  0  0
   -6.4638   -0.0921    1.5891 C   0  0  0  0  0  0  0  0  0  0  0  0
   -5.5640    0.7965    0.7966 C   0  0  0  0  0  0  0  0  0  0  0  0
   -4.6897   -0.0137   -0.1388 C   0  0  0  0  0  0  0  0  0  0  0  0
   -3.5555    1.1272   -0.5300 C   0  0  2  0  0  0  0  0  0  0  0  0
   -4.5533    1.8492   -1.4287 O   0  0  0  0  0  0  0  0  0  0  0  0
   -3.0156    0.2297   -1.7729 C   0  0  0  0  0  0  0  0  0  0  0  0
   -1.7898   -0.2036   -1.6770 C   0  0  0  0  0  0  0  0  0  0  0  0
   -0.9000    0.3059   -0.4743 C   0  0  1  0  0  0  0  0  0  0  0  0
   -1.0713   -1.1644    0.3688 C   0  0  2  0  0  0  0  0  0  0  0  0
   -1.5917   -0.4352    1.5890 O   0  0  0  0  0  0  0  0  0  0  0  0
    0.4480   -1.1529    0.9798 C   0  0  0  0  0  0  0  0  0  0  0  0
    1.1366   -0.0894    0.2944 C   0  0  0  0  0  0  0  0  0  0  0  0
    1.2384    1.0011    0.8274 O   0  0  0  0  0  0  0  0  0  0  0  0
    0.5064   -0.3332   -1.1538 C   0  0  2  0  0  0  0  0  0  0  0  0
    0.9663    1.0947   -1.7916 C   0  0  0  0  0  0  0  0  0  0  0  0
    2.4344    0.8388   -2.1703 C   0  0  0  0  0  0  0  0  0  0  0  0
    3.2571    0.2312   -1.2540 C   0  0  0  0  0  0  0  0  0  0  0  0
    4.3653   -0.5459   -1.0858 C   0  0  0  0  0  0  0  0  0  0  0  0
    4.9523   -0.5826    0.3256 C   0  0  0  0  0  0  0  0  0  0  0  0
    5.0734    0.8586    0.8124 C   0  0  0  0  0  0  0  0  0  0  0  0
    6.3753    1.3235    0.2288 C   0  0  0  0  0  0  0  0  0  0  0  0
    6.4715    1.1170   -1.0207 O   0  0  0  0  0  0  0  0  0  0  0  0
    7.4921    0.8997    0.9600 O   0  0  0  0  0  0  0  0  0  0  0  0
  1  2  1  0
  2  3  1  0
  3  4  1  0
  4  5  1  0
  6  5  1  1
  6  7  1  0
  6  8  1  0
  8  9  2  0
 10  9  1  6
 10 11  1  0
 11 12  1  1
 11 13  1  0
 13 14  1  0
 14 15  2  0
 14 16  1  0
 16 17  1  6
 17 18  1  0
 18 19  1  0
 19 20  1  0
 20 21  1  0
 21 22  1  0
 22 23  1  0
 23 24  2  0
 23 25  1  0
 16 10  1  0
M  END
>  <supplier_code>  (641) 
DB00770

>  <zinc_id>  (641) 
ZINC000012503177

>  <catalog_short_name>  (641) 
dbfda

$$$$

     RDKit          3D

 26 29  0  0  0  0  0  0  0  0999 V2000
    4.7391   -1.2119   -1.5448 C   0  0  0  0  0  0  0  0  0  0  0  0
    4.1443   -0.4693   -0.5769 N   0  0  0  0  0  0  0  0  0  0  0  0
    4.2240   -1.1932    0.6951 C   0  0  0  0  0  0  0  0  0  0  0  0
    3.0429   -0.6236    1.4811 C   0  0  0  0  0  0  0  0  0  0  0  0
    3.1027    0.8438    1.2382 C   0  0  0  0  0  0  0  0  0  0  0  0
    4.4991    1.3496    0.9086 C   0  0  0  0  0  0  0  0  0  0  0  0
    4.8021    0.8056   -0.4833 C   0  0  0  0  0  0  0  0  0  0  0  0
    2.2613    1.0930   -0.1907 C   0  0  2  0  0  0  0  0  0  0  0  0
    0.9638    0.4448    0.4094 O   0  0  0  0  0  0  0  0  0  0  0  0
    0.1605   -0.1088   -0.5847 C   0  0  0  0  0  0  0  0  0  0  0  0
    0.7965   -0.6608   -1.5339 O   0  0  0  0  0  0  0  0  0  0  0  0
   -1.3045   -0.0922   -0.6187 C   0  0  0  0  0  0  0  0  0  0  0  0
   -1.7218   -0.4228   -1.9201 O   0  0  0  0  0  0  0  0  0  0  0  0
   -1.9042    1.2187   -0.3014 C   0  0  0  0  0  0  0  0  0  0  0  0
   -2.8457    1.8064   -1.1396 C   0  0  0  0  0  0  0  0  0  0  0  0
   -3.5171    2.9627   -0.8183 C   0  0  0  0  0  0  0  0  0  0  0  0
   -3.0460    3.6404    0.2988 C   0  0  0  0  0  0  0  0  0  0  0  0
   -2.5658    2.8674    1.3423 C   0  0  0  0  0  0  0  0  0  0  0  0
   -1.9482    1.6746    1.0108 C   0  0  0  0  0  0  0  0  0  0  0  0
   -1.9206   -1.1305    0.2670 C   0  0  0  0  0  0  0  0  0  0  0  0
   -1.4243   -2.4251    0.3148 C   0  0  0  0  0  0  0  0  0  0  0  0
   -2.2600   -3.5273    0.4381 C   0  0  0  0  0  0  0  0  0  0  0  0
   -3.6346   -3.3601    0.3129 C   0  0  0  0  0  0  0  0  0  0  0  0
   -4.1082   -2.1069    0.6843 C   0  0  0  0  0  0  0  0  0  0  0  0
   -3.2739   -1.0040    0.5482 C   0  0  0  0  0  0  0  0  0  0  0  0
    2.7388   -0.3706   -0.8562 C   0  0  0  0  0  0  0  0  0  0  0  0
  1  2  1  0
  2  3  1  0
  3  4  1  0
  4  5  1  0
  5  6  1  0
  6  7  1  0
  5  8  1  0
  8  9  1  1
  9 10  1  0
 10 11  2  0
 10 12  1  0
 12 13  1  0
 12 14  1  0
 14 15  2  0
 15 16  1  0
 16 17  2  0
 17 18  1  0
 18 19  2  0
 12 20  1  0
 20 21  2  0
 21 22  1  0
 22 23  2  0
 23 24  1  0
 24 25  2  0
  8 26  1  0
  7  2  1  0
 19 14  1  0
 25 20  1  0
 26  2  1  0
M  CHG  1   2   1
M  END
>  <supplier_code>  (642) 
DB00771

>  <zinc_id>  (642) 
ZINC000000601316

>  <catalog_short_name>  (642) 
dbfda

$$$$

     RDKit          3D

 26 29  0  0  0  0  0  0  0  0999 V2000
    5.1866   -1.7715   -0.1976 C   0  0  0  0  0  0  0  0  0  0  0  0
    4.4039   -0.6758   -0.1479 N   0  0  0  0  0  0  0  0  0  0  0  0
    4.7381    0.2308    0.9469 C   0  0  0  0  0  0  0  0  0  0  0  0
    4.2189    1.6054    0.5412 C   0  0  0  0  0  0  0  0  0  0  0  0
    2.9138    1.3488   -0.2073 C   0  0  0  0  0  0  0  0  0  0  0  0
    3.1684    0.7592   -1.5430 C   0  0  0  0  0  0  0  0  0  0  0  0
    4.5045    0.0258   -1.4286 C   0  0  0  0  0  0  0  0  0  0  0  0
    2.2912    0.1707    0.7699 C   0  0  1  0  0  0  0  0  0  0  0  0
    0.9874    0.0744   -0.0622 O   0  0  0  0  0  0  0  0  0  0  0  0
   -0.0313    0.5919    0.7097 C   0  0  0  0  0  0  0  0  0  0  0  0
    0.1908    1.7614    1.1528 O   0  0  0  0  0  0  0  0  0  0  0  0
   -1.3843    0.0999    0.8946 C   0  0  0  0  0  0  0  0  0  0  0  0
   -1.6679    0.1496    2.2710 O   0  0  0  0  0  0  0  0  0  0  0  0
   -2.3082    1.0364    0.1823 C   0  0  0  0  0  0  0  0  0  0  0  0
   -3.6668    1.0713    0.4523 C   0  0  0  0  0  0  0  0  0  0  0  0
   -4.4850    1.5973   -0.5208 C   0  0  0  0  0  0  0  0  0  0  0  0
   -3.9936    2.5565   -1.3731 C   0  0  0  0  0  0  0  0  0  0  0  0
   -2.6551    2.8503   -1.3573 C   0  0  0  0  0  0  0  0  0  0  0  0
   -1.8322    2.1233   -0.5408 C   0  0  0  0  0  0  0  0  0  0  0  0
   -1.6707   -1.2594    0.4549 C   0  0  0  0  0  0  0  0  0  0  0  0
   -1.0677   -1.9452   -0.5574 C   0  0  0  0  0  0  0  0  0  0  0  0
   -1.7602   -2.9634   -1.2025 C   0  0  0  0  0  0  0  0  0  0  0  0
   -2.9139   -3.5197   -0.6861 C   0  0  0  0  0  0  0  0  0  0  0  0
   -3.3821   -2.9757    0.4882 C   0  0  0  0  0  0  0  0  0  0  0  0
   -2.7818   -1.8726    1.0274 C   0  0  0  0  0  0  0  0  0  0  0  0
    2.9970   -1.0698   -0.0665 C   0  0  0  0  0  0  0  0  0  0  0  0
  1  2  1  0
  2  3  1  0
  3  4  1  0
  4  5  1  0
  5  6  1  0
  6  7  1  0
  5  8  1  0
  8  9  1  6
  9 10  1  0
 10 11  2  0
 10 12  1  0
 12 13  1  0
 12 14  1  0
 14 15  2  0
 15 16  1  0
 16 17  2  0
 17 18  1  0
 18 19  2  0
 12 20  1  0
 20 21  2  0
 21 22  1  0
 22 23  2  0
 23 24  1  0
 24 25  2  0
  8 26  1  0
  7  2  1  0
 19 14  1  0
 25 20  1  0
 26  2  1  0
M  CHG  1   2   1
M  END
>  <supplier_code>  (643) 
DB00771

>  <zinc_id>  (643) 
ZINC000003830579

>  <catalog_short_name>  (643) 
dbfda

$$$$

     RDKit          3D

 42 48  0  0  0  0  0  0  0  0999 V2000
   -3.4604    4.7076    1.0590 C   0  0  0  0  0  0  0  0  0  0  0  0
   -3.5904    3.9042    1.1804 O   0  0  0  0  0  0  0  0  0  0  0  0
   -3.5632    2.5381    0.9966 C   0  0  0  0  0  0  0  0  0  0  0  0
   -2.4425    1.7436    1.2615 C   0  0  0  0  0  0  0  0  0  0  0  0
   -2.4483    0.3546    1.0153 C   0  0  0  0  0  0  0  0  0  0  0  0
   -1.0588    0.1727    0.2418 C   0  0  2  0  0  0  0  0  0  0  0  0
   -1.1940   -1.3064   -0.3487 C   0  0  0  0  0  0  0  0  0  0  0  0
   -2.2227   -1.3843   -1.2820 C   0  0  0  0  0  0  0  0  0  0  0  0
   -2.2672   -2.4614   -2.1536 C   0  0  0  0  0  0  0  0  0  0  0  0
   -1.0701   -3.1481   -2.2645 C   0  0  0  0  0  0  0  0  0  0  0  0
    0.0856   -2.6606   -1.6550 C   0  0  0  0  0  0  0  0  0  0  0  0
    0.0337   -1.3840   -1.0749 C   0  0  0  0  0  0  0  0  0  0  0  0
    1.3394   -1.0797   -0.1456 C   0  0  1  0  0  0  0  0  0  0  0  0
    1.0260    0.3897    0.0623 O   0  0  0  0  0  0  0  0  0  0  0  0
    2.1271    1.0388   -0.7423 C   0  0  2  0  0  0  0  0  0  0  0  0
    3.1208   -0.0791   -0.4445 O   0  0  0  0  0  0  0  0  0  0  0  0
    4.1910    0.4902   -1.3273 C   0  0  2  0  0  0  0  0  0  0  0  0
    5.1043   -0.8620   -1.1951 C   0  0  0  0  0  0  0  0  0  0  0  0
    6.2768   -0.3353   -1.6811 O   0  0  0  0  0  0  0  0  0  0  0  0
    6.9034    0.4085   -0.4970 C   0  0  1  0  0  0  0  0  0  0  0  0
    8.0932    1.0292   -1.4781 C   0  0  0  0  0  0  0  0  0  0  0  0
    6.0481    1.6540   -0.7462 O   0  0  0  0  0  0  0  0  0  0  0  0
    4.9000    1.1699    0.0721 C   0  0  1  0  0  0  0  0  0  0  0  0
    4.0019    2.5860   -0.1940 C   0  0  2  0  0  0  0  0  0  0  0  0
    4.5366    3.1988    1.0623 O   0  0  0  0  0  0  0  0  0  0  0  0
    2.6588    1.9444    0.6258 C   0  0  1  0  0  0  0  0  0  0  0  0
    1.8243    3.1227    0.2435 O   0  0  0  0  0  0  0  0  0  0  0  0
    0.4040   -1.6988    1.1062 C   0  0  1  0  0  0  0  0  0  0  0  0
    1.2767   -1.5399    2.4437 C   0  0  0  0  0  0  0  0  0  0  0  0
    0.0050   -1.7680    3.1420 O   0  0  0  0  0  0  0  0  0  0  0  0
   -1.1148   -1.2148    2.4466 C   0  0  0  0  0  0  0  0  0  0  0  0
   -1.8436   -2.1080    1.9362 O   0  0  0  0  0  0  0  0  0  0  0  0
   -0.1999   -0.2054    1.6629 C   0  0  2  0  0  0  0  0  0  0  0  0
   -1.3442   -4.2947   -2.9897 O   0  0  0  0  0  0  0  0  0  0  0  0
   -2.7229   -4.6123   -2.8151 C   0  0  0  0  0  0  0  0  0  0  0  0
   -3.2641   -3.3634   -2.5335 O   0  0  0  0  0  0  0  0  0  0  0  0
   -3.5860   -0.1407    0.5723 C   0  0  0  0  0  0  0  0  0  0  0  0
   -4.6752    0.6451    0.2300 C   0  0  0  0  0  0  0  0  0  0  0  0
   -5.5246    0.0020   -0.6759 O   0  0  0  0  0  0  0  0  0  0  0  0
   -6.8781   -0.2225   -0.4561 C   0  0  0  0  0  0  0  0  0  0  0  0
   -4.5728    2.0345    0.1727 C   0  0  0  0  0  0  0  0  0  0  0  0
   -4.9129    2.7346   -0.9923 O   0  0  0  0  0  0  0  0  0  0  0  0
  1  2  1  0
  2  3  1  0
  3  4  2  0
  4  5  1  0
  6  5  1  1
  6  7  1  0
  7  8  2  0
  8  9  1  0
  9 10  2  0
 10 11  1  0
 11 12  2  0
 12 13  1  0
 13 14  1  1
 15 14  1  1
 15 16  1  0
 17 16  1  1
 17 18  1  0
 18 19  1  0
 19 20  1  0
 20 21  1  6
 20 22  1  0
 23 22  1  6
 23 24  1  0
 24 25  1  1
 24 26  1  0
 26 27  1  6
 13 28  1  0
 28 29  1  1
 29 30  1  0
 30 31  1  0
 31 32  2  0
 33 31  1  1
 10 34  1  0
 34 35  1  0
 35 36  1  0
  5 37  2  0
 37 38  1  0
 38 39  1  0
 39 40  1  0
 38 41  2  0
 41 42  1  0
 41  3  1  0
 33  6  1  0
 12  7  1  0
 26 15  1  0
 33 28  1  0
 36  9  1  0
 23 17  1  0
M  END
>  <supplier_code>  (644) 
DB00773

>  <zinc_id>  (644) 
ZINC000003938684

>  <catalog_short_name>  (644) 
dbfda

$$$$

     RDKit          3D

 30 31  0  0  0  0  0  0  0  0999 V2000
   -6.9367   -0.0329   -3.2612 C   0  0  0  0  0  0  0  0  0  0  0  0
   -6.7568   -0.0440   -2.5956 C   0  0  0  0  0  0  0  0  0  0  0  0
   -6.9244   -0.5996   -1.1861 C   0  0  0  0  0  0  0  0  0  0  0  0
   -6.3696    0.4087   -0.2263 C   0  0  0  0  0  0  0  0  0  0  0  0
   -5.7598   -0.3022    1.2684 S   0  0  0  0  0  0  0  0  0  0  0  0
   -6.5467   -1.5399    1.6393 O   0  0  0  0  0  0  0  0  0  0  0  0
   -5.9985    0.6937    2.3790 O   0  0  0  0  0  0  0  0  0  0  0  0
   -4.0966   -0.7621    1.1673 N   0  0  0  0  0  0  0  0  0  0  0  0
   -3.3746    0.0337    2.3553 C   0  0  1  0  0  0  0  0  0  0  0  0
   -2.0752   -1.0084    2.3056 C   0  0  0  0  0  0  0  0  0  0  0  0
   -0.9979   -0.4209    1.5643 C   0  0  0  0  0  0  0  0  0  0  0  0
   -0.9894   -0.5567    0.1782 C   0  0  0  0  0  0  0  0  0  0  0  0
   -0.0845    0.2326   -0.5229 C   0  0  0  0  0  0  0  0  0  0  0  0
    1.1879    0.3879    0.0127 C   0  0  0  0  0  0  0  0  0  0  0  0
    2.2406    0.6232   -0.8772 O   0  0  0  0  0  0  0  0  0  0  0  0
    2.4399   -0.2545   -1.9823 C   0  0  0  0  0  0  0  0  0  0  0  0
    2.9844   -1.5508   -1.4214 C   0  0  0  0  0  0  0  0  0  0  0  0
    4.4190   -1.3963   -0.9693 C   0  0  0  0  0  0  0  0  0  0  0  0
    4.9067   -0.0635   -1.5041 C   0  0  0  0  0  0  0  0  0  0  0  0
    6.3983    0.0721   -1.4789 C   0  0  0  0  0  0  0  0  0  0  0  0
    7.0409   -0.9012   -0.5339 C   0  0  0  0  0  0  0  0  0  0  0  0
    8.3926   -0.3728   -0.1080 C   0  0  0  0  0  0  0  0  0  0  0  0
    8.9271    0.4981   -1.1515 N   0  0  0  0  0  0  0  0  0  0  0  0
    8.1965    1.7635   -1.1580 C   0  0  0  0  0  0  0  0  0  0  0  0
    6.7142    1.5032   -1.0854 C   0  0  0  0  0  0  0  0  0  0  0  0
    1.3936   -0.0875    1.2992 C   0  0  0  0  0  0  0  0  0  0  0  0
    0.2733   -0.2580    2.1055 C   0  0  0  0  0  0  0  0  0  0  0  0
   -2.7317    1.1489    1.3396 C   0  0  0  0  0  0  0  0  0  0  0  0
   -2.3008    2.0744    2.1007 O   0  0  0  0  0  0  0  0  0  0  0  0
   -3.5717    1.5954    0.3469 O   0  0  0  0  0  0  0  0  0  0  0  0
  1  2  1  0
  2  3  1  0
  3  4  1  0
  4  5  1  0
  5  6  2  0
  5  7  2  0
  5  8  1  0
  9  8  1  6
  9 10  1  0
 10 11  1  0
 11 12  2  0
 12 13  1  0
 13 14  2  0
 14 15  1  0
 15 16  1  0
 16 17  1  0
 17 18  1  0
 18 19  1  0
 19 20  1  0
 20 21  1  0
 21 22  1  0
 22 23  1  0
 23 24  1  0
 24 25  1  0
 14 26  1  0
 26 27  2  0
  9 28  1  0
 28 29  2  0
 28 30  1  0
 27 11  1  0
 25 20  1  0
M  END
>  <supplier_code>  (645) 
DB00775

>  <zinc_id>  (645) 
ZINC000003806104

>  <catalog_short_name>  (645) 
dbfda

$$$$

     RDKit          3D

 19 21  0  0  0  0  0  0  0  0999 V2000
   -0.5791    2.8263   -1.6749 N   0  0  0  0  0  0  0  0  0  0  0  0
   -0.4121    2.3218   -0.3436 C   0  0  0  0  0  0  0  0  0  0  0  0
    0.0736    3.0646    0.5395 O   0  0  0  0  0  0  0  0  0  0  0  0
   -0.2103    0.9275   -0.1863 N   0  0  0  0  0  0  0  0  0  0  0  0
   -1.4207    0.1695   -0.1338 C   0  0  0  0  0  0  0  0  0  0  0  0
   -2.4328    0.8948    0.4788 C   0  0  0  0  0  0  0  0  0  0  0  0
   -3.4167    0.2152    1.1850 C   0  0  0  0  0  0  0  0  0  0  0  0
   -3.4455   -1.1683    1.1458 C   0  0  0  0  0  0  0  0  0  0  0  0
   -2.6290   -1.8126    0.2368 C   0  0  0  0  0  0  0  0  0  0  0  0
   -1.4928   -1.1895   -0.2633 C   0  0  0  0  0  0  0  0  0  0  0  0
   -0.6437   -2.2078   -0.9037 C   0  0  0  0  0  0  0  0  0  0  0  0
    0.8021   -1.9569   -0.7621 C   0  0  0  0  0  0  0  0  0  0  0  0
    1.5109   -2.9769   -0.9970 O   0  0  0  0  0  0  0  0  0  0  0  0
    1.5750   -0.8209   -0.2535 C   0  0  0  0  0  0  0  0  0  0  0  0
    2.8176   -1.1741    0.2308 C   0  0  0  0  0  0  0  0  0  0  0  0
    3.5801   -0.2092    0.8748 C   0  0  0  0  0  0  0  0  0  0  0  0
    3.1893    1.1197    0.8513 C   0  0  0  0  0  0  0  0  0  0  0  0
    1.9814    1.4747    0.2616 C   0  0  0  0  0  0  0  0  0  0  0  0
    1.1528    0.5020   -0.2863 C   0  0  0  0  0  0  0  0  0  0  0  0
  1  2  1  0
  2  3  2  0
  2  4  1  0
  4  5  1  0
  5  6  2  0
  6  7  1  0
  7  8  2  0
  8  9  1  0
  9 10  2  0
 10 11  1  0
 11 12  1  0
 12 13  2  0
 12 14  1  0
 14 15  2  0
 15 16  1  0
 16 17  2  0
 17 18  1  0
 18 19  2  0
 19  4  1  0
 10  5  1  0
 19 14  1  0
M  END
>  <supplier_code>  (646) 
DB00776

>  <zinc_id>  (646) 
ZINC000000004724

>  <catalog_short_name>  (646) 
dbfda

$$$$

     RDKit          3D

 10 10  0  0  0  0  0  0  0  0999 V2000
    2.4708    1.4619    0.6674 N   0  0  0  0  0  0  0  0  0  0  0  0
    2.9187    0.2695    0.0784 N   0  0  0  0  0  0  0  0  0  0  0  0
    2.0169   -0.7814    0.5093 C   0  0  0  0  0  0  0  0  0  0  0  0
    1.0777   -1.1605   -0.6162 C   0  0  0  0  0  0  0  0  0  0  0  0
   -0.2930   -0.7625   -0.1712 C   0  0  0  0  0  0  0  0  0  0  0  0
   -0.5211    0.2613    0.7395 C   0  0  0  0  0  0  0  0  0  0  0  0
   -1.3735    1.3055    0.3886 C   0  0  0  0  0  0  0  0  0  0  0  0
   -2.4140    0.9592   -0.4663 C   0  0  0  0  0  0  0  0  0  0  0  0
   -2.4340   -0.3044   -1.0510 C   0  0  0  0  0  0  0  0  0  0  0  0
   -1.4485   -1.2486   -0.7720 C   0  0  0  0  0  0  0  0  0  0  0  0
  1  2  1  0
  2  3  1  0
  3  4  1  0
  4  5  1  0
  5  6  2  0
  6  7  1  0
  7  8  2  0
  8  9  1  0
  9 10  2  0
 10  5  1  0
M  END
>  <supplier_code>  (647) 
DB00780

>  <zinc_id>  (647) 
ZINC000019166991

>  <catalog_short_name>  (647) 
dbfda

$$$$

     RDKit          3D

 27 29  0  0  0  0  0  0  0  0999 V2000
    3.3960    2.4100   -0.1763 C   0  0  0  0  0  0  0  0  0  0  0  0
    4.2396    1.2120   -0.5007 C   0  0  0  0  0  0  0  0  0  0  0  0
    4.5259    1.0685   -1.9670 C   0  0  0  0  0  0  0  0  0  0  0  0
    3.7803   -0.0073    0.1124 N   0  0  0  0  0  0  0  0  0  0  0  0
    3.1206    0.2809    1.3772 C   0  0  0  0  0  0  0  0  0  0  0  0
    2.8591   -0.7567   -0.6994 C   0  0  0  0  0  0  0  0  0  0  0  0
    1.6256    0.0160   -1.0776 C   0  0  0  0  0  0  0  0  0  0  0  0
    0.7410    0.2054    0.0234 O   0  0  0  0  0  0  0  0  0  0  0  0
   -0.0666   -0.7866    0.5356 C   0  0  0  0  0  0  0  0  0  0  0  0
    0.3325   -1.9798    0.3747 O   0  0  0  0  0  0  0  0  0  0  0  0
   -1.5405   -0.6325    0.7336 C   0  0  0  0  0  0  0  0  0  0  0  0
   -2.2628   -1.1102   -0.4791 C   0  0  0  0  0  0  0  0  0  0  0  0
   -2.7094   -2.4179   -0.5103 C   0  0  0  0  0  0  0  0  0  0  0  0
   -3.7946   -2.7827   -1.2944 C   0  0  0  0  0  0  0  0  0  0  0  0
   -4.0711   -2.0346   -2.4297 C   0  0  0  0  0  0  0  0  0  0  0  0
   -3.5863   -0.7431   -2.4366 C   0  0  0  0  0  0  0  0  0  0  0  0
   -2.7812   -0.2392   -1.4225 C   0  0  0  0  0  0  0  0  0  0  0  0
   -2.7508    1.1263   -1.1218 O   0  0  0  0  0  0  0  0  0  0  0  0
   -2.5403    1.5957    0.1729 C   0  0  0  0  0  0  0  0  0  0  0  0
   -3.0844    2.7876    0.6319 C   0  0  0  0  0  0  0  0  0  0  0  0
   -3.4324    2.9667    1.9634 C   0  0  0  0  0  0  0  0  0  0  0  0
   -2.9784    2.0087    2.8620 C   0  0  0  0  0  0  0  0  0  0  0  0
   -2.0733    1.0559    2.4357 C   0  0  0  0  0  0  0  0  0  0  0  0
   -1.9115    0.7600    1.0884 C   0  0  0  0  0  0  0  0  0  0  0  0
    4.9622   -0.8449    0.3039 C   0  0  0  0  0  0  0  0  0  0  0  0
    5.2258   -0.9360    1.7974 C   0  0  0  0  0  0  0  0  0  0  0  0
    4.7754   -2.2221   -0.2969 C   0  0  0  0  0  0  0  0  0  0  0  0
  1  2  1  0
  2  3  1  0
  2  4  1  0
  4  5  1  0
  4  6  1  0
  6  7  1  0
  7  8  1  0
  8  9  1  0
  9 10  2  0
  9 11  1  0
 11 12  1  0
 12 13  2  0
 13 14  1  0
 14 15  2  0
 15 16  1  0
 16 17  2  0
 17 18  1  0
 18 19  1  0
 19 20  2  0
 20 21  1  0
 21 22  2  0
 22 23  1  0
 23 24  2  0
  4 25  1  0
 25 26  1  0
 25 27  1  0
 24 11  1  0
 17 12  1  0
 24 19  1  0
M  CHG  1   4   1
M  END
>  <supplier_code>  (648) 
DB00782

>  <zinc_id>  (648) 
ZINC000001530761

>  <catalog_short_name>  (648) 
dbfda

$$$$

     RDKit          3D

 20 23  0  0  0  0  0  0  0  0999 V2000
   -2.9995    0.4598   -1.3177 C   0  0  0  0  0  0  0  0  0  0  0  0
   -2.4547    0.7810   -0.0560 C   0  0  2  0  0  0  0  0  0  0  0  0
   -1.6448    1.9298    0.2514 C   0  0  0  0  0  0  0  0  0  0  0  0
   -0.2885    1.6702   -0.4183 C   0  0  0  0  0  0  0  0  0  0  0  0
    0.3255    0.3923    0.4214 C   0  0  2  0  0  0  0  0  0  0  0  0
    1.6057    0.2317   -0.5617 C   0  0  0  0  0  0  0  0  0  0  0  0
    2.4892    1.2947   -0.3907 C   0  0  0  0  0  0  0  0  0  0  0  0
    3.8594    1.1361   -0.3336 C   0  0  0  0  0  0  0  0  0  0  0  0
    4.3638   -0.0723    0.0603 C   0  0  0  0  0  0  0  0  0  0  0  0
    5.5879   -0.0993    0.7360 O   0  0  0  0  0  0  0  0  0  0  0  0
    3.5288   -1.1550    0.0055 C   0  0  0  0  0  0  0  0  0  0  0  0
    2.1864   -0.9863   -0.2189 C   0  0  0  0  0  0  0  0  0  0  0  0
    1.3477   -2.2108   -0.4237 C   0  0  0  0  0  0  0  0  0  0  0  0
    0.0042   -1.9994    0.2659 C   0  0  0  0  0  0  0  0  0  0  0  0
   -0.6258   -0.7147   -0.4731 C   0  0  1  0  0  0  0  0  0  0  0  0
   -1.8315   -0.5241    0.7192 C   0  0  2  0  0  0  0  0  0  0  0  0
   -2.9484   -1.4695   -0.0181 C   0  0  0  0  0  0  0  0  0  0  0  0
   -4.2255   -0.7781    0.3469 C   0  0  0  0  0  0  0  0  0  0  0  0
   -3.6499    0.6110    1.1062 C   0  0  2  0  0  0  0  0  0  0  0  0
   -4.6299    1.5029    0.2991 O   0  0  0  0  0  0  0  0  0  0  0  0
  2  1  1  6
  2  3  1  0
  3  4  1  0
  5  4  1  6
  5  6  1  0
  6  7  2  0
  7  8  1  0
  8  9  2  0
  9 10  1  0
  9 11  1  0
 11 12  2  0
 12 13  1  0
 13 14  1  0
 15 14  1  1
 15 16  1  0
 16 17  1  6
 17 18  1  0
 18 19  1  0
 19 20  1  6
 16  2  1  0
 19  2  1  0
 15  5  1  0
 12  6  1  0
M  END
>  <supplier_code>  (649) 
DB00783

>  <zinc_id>  (649) 
ZINC000013520815

>  <catalog_short_name>  (649) 
dbfda

$$$$

     RDKit          3D

 18 19  0  0  0  0  0  0  0  0999 V2000
    4.8447    0.9288   -0.7981 C   0  0  0  0  0  0  0  0  0  0  0  0
    3.6469    0.1852   -0.3132 C   0  0  0  0  0  0  0  0  0  0  0  0
    3.7317   -1.1303    0.1085 C   0  0  0  0  0  0  0  0  0  0  0  0
    2.6179   -1.9520    0.0738 C   0  0  0  0  0  0  0  0  0  0  0  0
    1.4418   -1.4093   -0.3802 C   0  0  0  0  0  0  0  0  0  0  0  0
    1.2750   -0.0458   -0.2082 C   0  0  0  0  0  0  0  0  0  0  0  0
   -0.0237    0.4885   -0.0447 N   0  0  0  0  0  0  0  0  0  0  0  0
   -1.1772   -0.3074    0.0802 C   0  0  0  0  0  0  0  0  0  0  0  0
   -1.1897   -1.6723    0.2628 C   0  0  0  0  0  0  0  0  0  0  0  0
   -2.2068   -2.3788   -0.3667 C   0  0  0  0  0  0  0  0  0  0  0  0
   -3.4820   -1.8326   -0.3837 C   0  0  0  0  0  0  0  0  0  0  0  0
   -3.5478   -0.4561   -0.2294 C   0  0  0  0  0  0  0  0  0  0  0  0
   -2.4166    0.3171    0.0049 C   0  0  0  0  0  0  0  0  0  0  0  0
   -2.5765    1.6800    0.5248 C   0  0  0  0  0  0  0  0  0  0  0  0
   -1.8464    2.6221    0.1333 O   0  0  0  0  0  0  0  0  0  0  0  0
   -3.7348    2.0003    1.1973 O   0  0  0  0  0  0  0  0  0  0  0  0
    2.3800    0.7400   -0.3633 C   0  0  0  0  0  0  0  0  0  0  0  0
    2.2638    2.2224   -0.4057 C   0  0  0  0  0  0  0  0  0  0  0  0
  1  2  1  0
  2  3  2  0
  3  4  1  0
  4  5  2  0
  5  6  1  0
  6  7  1  0
  7  8  1  0
  8  9  2  0
  9 10  1  0
 10 11  2  0
 11 12  1  0
 12 13  2  0
 13 14  1  0
 14 15  2  0
 14 16  1  0
  6 17  2  0
 17 18  1  0
 17  2  1  0
 13  8  1  0
M  END
>  <supplier_code>  (650) 
DB00784

>  <zinc_id>  (650) 
ZINC000000020241

>  <catalog_short_name>  (650) 
dbfda

$$$$

     RDKit          3D

 16 17  0  0  0  0  0  0  0  0999 V2000
   -3.1804    2.7090   -0.5986 N   0  0  0  0  0  0  0  0  0  0  0  0
   -2.6274    1.4037   -0.8007 C   0  0  0  0  0  0  0  0  0  0  0  0
   -1.3024    1.2082   -1.0059 N   0  0  0  0  0  0  0  0  0  0  0  0
   -0.6382    0.1634   -0.4626 C   0  0  0  0  0  0  0  0  0  0  0  0
   -1.4134   -0.9522   -0.1741 C   0  0  0  0  0  0  0  0  0  0  0  0
   -0.5509   -1.8588    0.3256 N   0  0  0  0  0  0  0  0  0  0  0  0
    0.6768   -1.3049    0.4558 C   0  0  0  0  0  0  0  0  0  0  0  0
    0.6261   -0.0429   -0.0220 N   0  0  0  0  0  0  0  0  0  0  0  0
    1.5618    1.0306    0.3020 C   0  0  0  0  0  0  0  0  0  0  0  0
    2.8236    0.6731   -0.1517 O   0  0  0  0  0  0  0  0  0  0  0  0
    3.3338   -0.3698    0.6384 C   0  0  0  0  0  0  0  0  0  0  0  0
    4.7462   -0.6193    0.1231 C   0  0  0  0  0  0  0  0  0  0  0  0
    5.5584    0.2999    0.8068 O   0  0  0  0  0  0  0  0  0  0  0  0
   -2.7961   -0.8389   -0.1074 C   0  0  0  0  0  0  0  0  0  0  0  0
   -3.4812   -1.8896   -0.1363 O   0  0  0  0  0  0  0  0  0  0  0  0
   -3.3368    0.3885   -0.2718 N   0  0  0  0  0  0  0  0  0  0  0  0
  1  2  1  0
  2  3  2  0
  3  4  1  0
  4  5  2  0
  5  6  1  0
  6  7  2  0
  7  8  1  0
  8  9  1  0
  9 10  1  0
 10 11  1  0
 11 12  1  0
 12 13  1  0
  5 14  1  0
 14 15  2  0
 14 16  1  0
 16  2  1  0
  8  4  1  0
M  END
>  <supplier_code>  (651) 
DB00787

>  <zinc_id>  (651) 
ZINC000001530555

>  <catalog_short_name>  (651) 
dbfda

$$$$

     RDKit          3D

 17 18  0  0  0  0  0  0  0  0999 V2000
    5.4048   -0.1913    1.3668 C   0  0  0  0  0  0  0  0  0  0  0  0
    4.6753   -0.1971    0.1847 O   0  0  0  0  0  0  0  0  0  0  0  0
    3.2913   -0.3223    0.2371 C   0  0  0  0  0  0  0  0  0  0  0  0
    2.6884   -0.6447    1.4377 C   0  0  0  0  0  0  0  0  0  0  0  0
    1.3373   -0.4377    1.6354 C   0  0  0  0  0  0  0  0  0  0  0  0
    0.5202   -0.4335    0.5331 C   0  0  0  0  0  0  0  0  0  0  0  0
   -0.6866    0.2607    0.5841 C   0  0  0  0  0  0  0  0  0  0  0  0
   -1.6773   -0.0866   -0.3263 C   0  0  0  0  0  0  0  0  0  0  0  0
   -2.7827    1.0873   -0.5937 C   0  0  2  0  0  0  0  0  0  0  0  0
   -2.8286    1.6018    0.9881 C   0  0  0  0  0  0  0  0  0  0  0  0
   -4.0303    0.0591   -0.4176 C   0  0  0  0  0  0  0  0  0  0  0  0
   -4.2862   -0.5940   -1.4738 O   0  0  0  0  0  0  0  0  0  0  0  0
   -4.3273   -0.4147    0.8174 O   0  0  0  0  0  0  0  0  0  0  0  0
   -1.1346   -0.3937   -1.5772 C   0  0  0  0  0  0  0  0  0  0  0  0
    0.2384   -0.4973   -1.7863 C   0  0  0  0  0  0  0  0  0  0  0  0
    1.1124   -0.3702   -0.7211 C   0  0  0  0  0  0  0  0  0  0  0  0
    2.4855   -0.2298   -0.8884 C   0  0  0  0  0  0  0  0  0  0  0  0
  1  2  1  0
  2  3  1  0
  3  4  2  0
  4  5  1  0
  5  6  2  0
  6  7  1  0
  7  8  2  0
  9  8  1  1
  9 10  1  0
  9 11  1  0
 11 12  2  0
 11 13  1  0
  8 14  1  0
 14 15  2  0
 15 16  1  0
 16 17  2  0
 17  3  1  0
 16  6  1  0
M  END
>  <supplier_code>  (652) 
DB00788

>  <zinc_id>  (652) 
ZINC000000105216

>  <catalog_short_name>  (652) 
dbfda

$$$$

     RDKit          3D

 27 26  0  0  0  0  0  0  0  0999 V2000
    0.5791    2.9510    0.6078 O   0  0  0  0  0  0  0  0  0  0  0  0
    0.1988    1.8901    0.0363 C   0  0  0  0  0  0  0  0  0  0  0  0
   -0.0406    2.0153   -1.3361 O   0  0  0  0  0  0  0  0  0  0  0  0
    0.1579    0.5690    0.7319 C   0  0  0  0  0  0  0  0  0  0  0  0
   -0.2195   -0.4112   -0.2575 N   0  0  0  0  0  0  0  0  0  0  0  0
    0.8505   -1.2920   -0.6362 C   0  0  0  0  0  0  0  0  0  0  0  0
    2.0008   -0.4247   -1.1333 C   0  0  0  0  0  0  0  0  0  0  0  0
    3.1679   -0.8230   -0.4230 N   0  0  0  0  0  0  0  0  0  0  0  0
    3.9392   -1.8643   -1.0216 C   0  0  0  0  0  0  0  0  0  0  0  0
    4.4409   -2.7320    0.0913 C   0  0  0  0  0  0  0  0  0  0  0  0
    4.2462   -2.4385    1.3090 O   0  0  0  0  0  0  0  0  0  0  0  0
    4.8262   -4.0555   -0.1436 O   0  0  0  0  0  0  0  0  0  0  0  0
    3.9042    0.2101    0.2173 C   0  0  0  0  0  0  0  0  0  0  0  0
    4.5677    1.1608   -0.6985 C   0  0  0  0  0  0  0  0  0  0  0  0
    4.1496    2.3579   -0.6563 O   0  0  0  0  0  0  0  0  0  0  0  0
    5.9556    1.0425   -0.8271 O   0  0  0  0  0  0  0  0  0  0  0  0
   -1.4297   -1.1208    0.1013 C   0  0  0  0  0  0  0  0  0  0  0  0
   -2.5847   -0.2221   -0.3209 C   0  0  0  0  0  0  0  0  0  0  0  0
   -3.3914    0.0037    0.8519 N   0  0  0  0  0  0  0  0  0  0  0  0
   -3.4935    1.3948    1.2169 C   0  0  0  0  0  0  0  0  0  0  0  0
   -3.8439    2.1862    0.0132 C   0  0  0  0  0  0  0  0  0  0  0  0
   -3.0198    2.2371   -0.9477 O   0  0  0  0  0  0  0  0  0  0  0  0
   -4.9559    3.0194   -0.0108 O   0  0  0  0  0  0  0  0  0  0  0  0
   -4.7370   -0.5491    0.7115 C   0  0  0  0  0  0  0  0  0  0  0  0
   -4.8189   -1.4687   -0.4667 C   0  0  0  0  0  0  0  0  0  0  0  0
   -5.0719   -0.9033   -1.5729 O   0  0  0  0  0  0  0  0  0  0  0  0
   -5.3776   -2.7325   -0.2944 O   0  0  0  0  0  0  0  0  0  0  0  0
  1  2  2  0
  2  3  1  0
  2  4  1  0
  4  5  1  0
  5  6  1  0
  6  7  1  0
  7  8  1  0
  8  9  1  0
  9 10  1  0
 10 11  2  0
 10 12  1  0
  8 13  1  0
 13 14  1  0
 14 15  2  0
 14 16  1  0
  5 17  1  0
 17 18  1  0
 18 19  1  0
 19 20  1  0
 20 21  1  0
 21 22  2  0
 21 23  1  0
 19 24  1  0
 24 25  1  0
 25 26  2  0
 25 27  1  0
M  END
>  <supplier_code>  (653) 
DB00789

>  <zinc_id>  (653) 
ZINC000019419017

>  <catalog_short_name>  (653) 
dbfda

$$$$

     RDKit          3D

 26 27  0  0  0  0  0  0  0  0999 V2000
    4.7745   -2.8814    0.7403 C   0  0  0  0  0  0  0  0  0  0  0  0
    4.4924   -1.5937    0.5861 C   0  0  0  0  0  0  0  0  0  0  0  0
    3.1245   -1.3580   -0.0512 C   0  0  0  0  0  0  0  0  0  0  0  0
    2.4975   -0.3322    1.0756 C   0  0  2  0  0  0  0  0  0  0  0  0
    1.1176   -0.1532    0.3432 N   0  0  0  0  0  0  0  0  0  0  0  0
    0.6863   -1.6348    0.0438 C   0  0  1  0  0  0  0  0  0  0  0  0
    1.1771   -2.2217    1.5045 C   0  0  0  0  0  0  0  0  0  0  0  0
   -0.8145   -1.4478    0.6024 C   0  0  0  0  0  0  0  0  0  0  0  0
   -1.2819   -2.5590    1.0073 O   0  0  0  0  0  0  0  0  0  0  0  0
   -1.6326   -0.4588   -0.0261 N   0  0  0  0  0  0  0  0  0  0  0  0
   -3.0588   -1.0089   -0.3743 C   0  0  2  0  0  0  0  0  0  0  0  0
   -2.8390   -0.9273   -1.9758 C   0  0  0  0  0  0  0  0  0  0  0  0
   -3.8076   -1.5735   -2.4883 O   0  0  0  0  0  0  0  0  0  0  0  0
   -1.6146   -1.4444   -2.4291 O   0  0  0  0  0  0  0  0  0  0  0  0
   -3.8094    0.4520   -0.3383 C   0  0  0  0  0  0  0  0  0  0  0  0
   -3.4984    0.3685    1.2430 C   0  0  2  0  0  0  0  0  0  0  0  0
   -3.9325    1.8756    1.6166 C   0  0  0  0  0  0  0  0  0  0  0  0
   -3.9284    2.7675    0.4572 C   0  0  0  0  0  0  0  0  0  0  0  0
   -2.4337    3.0800    0.3267 C   0  0  0  0  0  0  0  0  0  0  0  0
   -1.9903    1.7753   -0.2323 C   0  0  0  0  0  0  0  0  0  0  0  0
   -1.8496    0.7035    0.9882 C   0  0  2  0  0  0  0  0  0  0  0  0
    3.1754    0.9596    0.3959 C   0  0  0  0  0  0  0  0  0  0  0  0
    4.3833    0.9932    0.7894 O   0  0  0  0  0  0  0  0  0  0  0  0
    2.9961    1.2405   -0.9095 O   0  0  0  0  0  0  0  0  0  0  0  0
    3.9220    1.9942   -1.6894 C   0  0  0  0  0  0  0  0  0  0  0  0
    4.1447    3.3846   -1.2059 C   0  0  0  0  0  0  0  0  0  0  0  0
  1  2  1  0
  2  3  1  0
  4  3  1  6
  4  5  1  0
  6  5  1  1
  6  7  1  0
  6  8  1  0
  8  9  2  0
  8 10  1  0
 10 11  1  0
 11 12  1  6
 12 13  2  0
 12 14  1  0
 11 15  1  0
 16 15  1  6
 16 17  1  0
 17 18  1  0
 18 19  1  0
 19 20  1  0
 21 20  1  6
  4 22  1  0
 22 23  2  0
 22 24  1  0
 24 25  1  0
 25 26  1  0
 21 10  1  0
 21 16  1  0
M  END
>  <supplier_code>  (654) 
DB00790

>  <zinc_id>  (654) 
ZINC000003812867

>  <catalog_short_name>  (654) 
dbfda

$$$$

     RDKit          3D

 16 17  0  0  0  0  0  0  0  0999 V2000
   -0.6560    2.7778    0.1041 C   0  0  0  0  0  0  0  0  0  0  0  0
   -0.7676    1.7236   -0.9572 C   0  0  0  0  0  0  0  0  0  0  0  0
   -0.6422    0.3365   -0.3316 C   0  0  0  0  0  0  0  0  0  0  0  0
    0.8283    0.0777   -0.2272 C   0  0  0  0  0  0  0  0  0  0  0  0
    1.3203   -1.2147   -0.1895 C   0  0  0  0  0  0  0  0  0  0  0  0
    2.6828   -1.3634   -0.0005 C   0  0  0  0  0  0  0  0  0  0  0  0
    3.4531   -0.3150    0.4827 C   0  0  0  0  0  0  0  0  0  0  0  0
    2.8336    0.8969    0.7625 C   0  0  0  0  0  0  0  0  0  0  0  0
    1.6683    1.1499    0.0491 C   0  0  0  0  0  0  0  0  0  0  0  0
   -1.2335    0.2923    1.0191 C   0  0  0  0  0  0  0  0  0  0  0  0
   -0.6722    0.9745    1.9142 O   0  0  0  0  0  0  0  0  0  0  0  0
   -1.9889   -0.8244    1.4432 N   0  0  0  0  0  0  0  0  0  0  0  0
   -2.5924   -1.7231    0.5045 C   0  0  0  0  0  0  0  0  0  0  0  0
   -1.9964   -1.7053   -0.8011 N   0  0  0  0  0  0  0  0  0  0  0  0
   -1.2803   -0.5948   -1.2814 C   0  0  0  0  0  0  0  0  0  0  0  0
   -0.9568   -0.4887   -2.4908 O   0  0  0  0  0  0  0  0  0  0  0  0
  1  2  1  0
  2  3  1  0
  3  4  1  0
  4  5  2  0
  5  6  1  0
  6  7  2  0
  7  8  1  0
  8  9  2  0
  3 10  1  0
 10 11  2  0
 10 12  1  0
 12 13  1  0
 13 14  1  0
 14 15  1  0
 15 16  2  0
 15  3  1  0
  9  4  1  0
M  END
>  <supplier_code>  (655) 
DB00794

>  <zinc_id>  (655) 
ZINC000000001979

>  <catalog_short_name>  (655) 
dbfda

$$$$

     RDKit          3D

 28 30  0  0  0  0  0  0  0  0999 V2000
   -5.7713   -1.7384   -1.4358 O   0  0  0  0  0  0  0  0  0  0  0  0
   -5.8534   -1.2316   -0.2774 C   0  0  0  0  0  0  0  0  0  0  0  0
   -5.8583   -2.1398    0.7828 O   0  0  0  0  0  0  0  0  0  0  0  0
   -5.1859    0.0517   -0.0448 C   0  0  0  0  0  0  0  0  0  0  0  0
   -4.1696    0.1527    0.8984 C   0  0  0  0  0  0  0  0  0  0  0  0
   -3.4215    1.3182    1.0130 C   0  0  0  0  0  0  0  0  0  0  0  0
   -1.9910    1.2611    1.0950 N   0  0  0  0  0  0  0  0  0  0  0  0
   -1.2500    1.1420    0.0876 N   0  0  0  0  0  0  0  0  0  0  0  0
   -0.1994    0.2232   -0.0731 C   0  0  0  0  0  0  0  0  0  0  0  0
   -0.1925   -1.0608    0.4533 C   0  0  0  0  0  0  0  0  0  0  0  0
    0.9377   -1.8669    0.3875 C   0  0  0  0  0  0  0  0  0  0  0  0
    1.9660   -1.4949   -0.4687 C   0  0  0  0  0  0  0  0  0  0  0  0
    3.6104   -1.9824   -0.0751 S   0  0  0  0  0  0  0  0  0  0  0  0
    4.4270   -2.0092   -1.3285 O   0  0  0  0  0  0  0  0  0  0  0  0
    3.5414   -3.3165    0.6003 O   0  0  0  0  0  0  0  0  0  0  0  0
    4.2295   -0.7742    1.0079 N   0  0  0  0  0  0  0  0  0  0  0  0
    5.0878    0.2441    0.5099 C   0  0  0  0  0  0  0  0  0  0  0  0
    4.5753    1.3004   -0.2293 C   0  0  0  0  0  0  0  0  0  0  0  0
    5.2913    1.9092   -1.2460 C   0  0  0  0  0  0  0  0  0  0  0  0
    6.6419    1.6313   -1.3202 C   0  0  0  0  0  0  0  0  0  0  0  0
    7.2093    0.8865   -0.2960 C   0  0  0  0  0  0  0  0  0  0  0  0
    6.4281    0.1137    0.4910 N   0  0  0  0  0  0  0  0  0  0  0  0
    1.7255   -0.4343   -1.3334 C   0  0  0  0  0  0  0  0  0  0  0  0
    0.6378    0.4146   -1.1664 C   0  0  0  0  0  0  0  0  0  0  0  0
   -4.0977    2.4979    0.7450 C   0  0  0  0  0  0  0  0  0  0  0  0
   -5.3003    2.4492    0.0531 C   0  0  0  0  0  0  0  0  0  0  0  0
   -5.8333    1.2373   -0.3696 C   0  0  0  0  0  0  0  0  0  0  0  0
   -7.1849    1.2160   -0.7287 O   0  0  0  0  0  0  0  0  0  0  0  0
  1  2  2  0
  2  3  1  0
  2  4  1  0
  4  5  2  0
  5  6  1  0
  6  7  1  0
  7  8  2  0
  8  9  1  0
  9 10  2  0
 10 11  1  0
 11 12  2  0
 12 13  1  0
 13 14  2  0
 13 15  2  0
 13 16  1  0
 16 17  1  0
 17 18  2  0
 18 19  1  0
 19 20  2  0
 20 21  1  0
 21 22  2  0
 12 23  1  0
 23 24  2  0
  6 25  2  0
 25 26  1  0
 26 27  2  0
 27 28  1  0
 27  4  1  0
 24  9  1  0
 22 17  1  0
M  END
>  <supplier_code>  (656) 
DB00795

>  <zinc_id>  (656) 
ZINC000003831490

>  <catalog_short_name>  (656) 
dbfda

$$$$

     RDKit          3D

 33 37  0  0  0  0  0  0  0  0999 V2000
   -3.5162    3.8965   -2.6560 C   0  0  0  0  0  0  0  0  0  0  0  0
   -2.8532    2.5438   -2.7754 C   0  0  0  0  0  0  0  0  0  0  0  0
   -1.9783    2.4114   -1.6592 O   0  0  0  0  0  0  0  0  0  0  0  0
   -2.4217    1.6268   -0.5893 C   0  0  0  0  0  0  0  0  0  0  0  0
   -3.0492    2.0076    0.5346 N   0  0  0  0  0  0  0  0  0  0  0  0
   -3.4867    0.8788    1.1410 C   0  0  0  0  0  0  0  0  0  0  0  0
   -4.3186    0.6563    2.2310 C   0  0  0  0  0  0  0  0  0  0  0  0
   -4.9134   -0.5874    2.3858 C   0  0  0  0  0  0  0  0  0  0  0  0
   -4.5099   -1.6690    1.6191 C   0  0  0  0  0  0  0  0  0  0  0  0
   -3.7357   -1.4492    0.5083 C   0  0  0  0  0  0  0  0  0  0  0  0
   -3.7957   -2.3923   -0.5949 C   0  0  0  0  0  0  0  0  0  0  0  0
   -4.5716   -2.1095   -1.5519 O   0  0  0  0  0  0  0  0  0  0  0  0
   -3.6749   -3.7460   -0.2917 O   0  0  0  0  0  0  0  0  0  0  0  0
   -3.0703   -0.2337    0.4269 C   0  0  0  0  0  0  0  0  0  0  0  0
   -2.4823    0.2835   -0.6762 N   0  0  0  0  0  0  0  0  0  0  0  0
   -1.6314   -0.5145   -1.5546 C   0  0  0  0  0  0  0  0  0  0  0  0
   -0.3047   -0.5755   -0.8751 C   0  0  0  0  0  0  0  0  0  0  0  0
   -0.3300   -0.9520    0.4623 C   0  0  0  0  0  0  0  0  0  0  0  0
    0.8414   -0.9196    1.2080 C   0  0  0  0  0  0  0  0  0  0  0  0
    1.9853   -0.2928    0.7302 C   0  0  0  0  0  0  0  0  0  0  0  0
    3.3034   -0.8481    1.0631 C   0  0  0  0  0  0  0  0  0  0  0  0
    3.4435   -2.0796    1.6901 C   0  0  0  0  0  0  0  0  0  0  0  0
    4.3954   -3.0069    1.2852 C   0  0  0  0  0  0  0  0  0  0  0  0
    5.3882   -2.6285    0.3998 C   0  0  0  0  0  0  0  0  0  0  0  0
    5.4880   -1.2690    0.1309 C   0  0  0  0  0  0  0  0  0  0  0  0
    4.4162   -0.4133    0.3542 C   0  0  0  0  0  0  0  0  0  0  0  0
    4.4534    0.9954   -0.0404 C   0  0  0  0  0  0  0  0  0  0  0  0
    4.4447    2.0205    0.8464 N   0  0  0  0  0  0  0  0  0  0  0  0
    4.4746    3.1585    0.1578 N   0  0  0  0  0  0  0  0  0  0  0  0
    4.8054    2.8135   -1.0837 N   0  0  0  0  0  0  0  0  0  0  0  0
    4.7451    1.5157   -1.2490 N   0  0  0  0  0  0  0  0  0  0  0  0
    1.7887    0.5157   -0.3831 C   0  0  0  0  0  0  0  0  0  0  0  0
    0.6701    0.3629   -1.1940 C   0  0  0  0  0  0  0  0  0  0  0  0
  1  2  1  0
  2  3  1  0
  3  4  1  0
  4  5  2  0
  5  6  1  0
  6  7  2  0
  7  8  1  0
  8  9  2  0
  9 10  1  0
 10 11  1  0
 11 12  2  0
 11 13  1  0
 10 14  2  0
 14 15  1  0
 15 16  1  0
 16 17  1  0
 17 18  2  0
 18 19  1  0
 19 20  2  0
 20 21  1  0
 21 22  2  0
 22 23  1  0
 23 24  2  0
 24 25  1  0
 25 26  2  0
 26 27  1  0
 27 28  2  0
 28 29  1  0
 29 30  2  0
 30 31  1  0
 20 32  1  0
 32 33  2  0
 15  4  1  0
 33 17  1  0
 14  6  1  0
 26 21  1  0
 31 27  1  0
M  END
>  <supplier_code>  (657) 
DB00796

>  <zinc_id>  (657) 
ZINC000003782818

>  <catalog_short_name>  (657) 
dbfda

$$$$

     RDKit          3D

 45 50  0  0  0  0  0  0  0  0999 V2000
    0.4700   -1.1002   -3.3292 C   0  0  0  0  0  0  0  0  0  0  0  0
    0.0100   -1.0713   -3.5350 C   0  0  0  0  0  0  0  0  0  0  0  0
   -0.9944   -1.8188   -2.8649 O   0  0  0  0  0  0  0  0  0  0  0  0
   -0.7650   -2.4107   -1.6243 C   0  0  0  0  0  0  0  0  0  0  0  0
   -0.8427   -3.7187   -1.2796 N   0  0  0  0  0  0  0  0  0  0  0  0
   -0.0946   -3.9555   -0.1932 C   0  0  0  0  0  0  0  0  0  0  0  0
    0.0330   -4.9565    0.7474 C   0  0  0  0  0  0  0  0  0  0  0  0
    0.9287   -4.7692    1.7900 C   0  0  0  0  0  0  0  0  0  0  0  0
    1.8260   -3.7076    1.7706 C   0  0  0  0  0  0  0  0  0  0  0  0
    1.6568   -2.6884    0.8587 C   0  0  0  0  0  0  0  0  0  0  0  0
    2.6017   -1.5722    0.6894 C   0  0  0  0  0  0  0  0  0  0  0  0
    2.8550   -1.2917   -0.5298 O   0  0  0  0  0  0  0  0  0  0  0  0
    3.8218   -1.8238    1.3125 O   0  0  0  0  0  0  0  0  0  0  0  0
    4.8194   -0.6255    1.3089 C   0  0  2  0  0  0  0  0  0  0  0  0
    3.6771    0.4868    1.7853 C   0  0  0  0  0  0  0  0  0  0  0  0
    4.6377   -0.2869   -0.2093 O   0  0  0  0  0  0  0  0  0  0  0  0
    4.9564    1.0515   -0.4520 C   0  0  0  0  0  0  0  0  0  0  0  0
    4.5090    1.8758    0.3974 O   0  0  0  0  0  0  0  0  0  0  0  0
    5.8703    1.5341   -1.3524 O   0  0  0  0  0  0  0  0  0  0  0  0
    6.6075    2.7501   -1.1709 C   0  0  0  0  0  0  0  0  0  0  0  0
    6.6807    2.9420    0.3026 C   0  0  0  0  0  0  0  0  0  0  0  0
    7.8437    3.6733    0.8410 C   0  0  0  0  0  0  0  0  0  0  0  0
    9.1276    3.4976    0.1034 C   0  0  0  0  0  0  0  0  0  0  0  0
    9.0516    2.3776   -0.8965 C   0  0  0  0  0  0  0  0  0  0  0  0
    7.9227    2.5951   -1.8662 C   0  0  0  0  0  0  0  0  0  0  0  0
    0.5191   -2.7429    0.0989 C   0  0  0  0  0  0  0  0  0  0  0  0
    0.0348   -1.7836   -0.7255 N   0  0  0  0  0  0  0  0  0  0  0  0
   -0.0630   -0.3971   -0.2776 C   0  0  0  0  0  0  0  0  0  0  0  0
   -1.3746   -0.2179    0.4280 C   0  0  0  0  0  0  0  0  0  0  0  0
   -2.2412   -1.2908    0.6179 C   0  0  0  0  0  0  0  0  0  0  0  0
   -3.6023   -1.0726    0.4238 C   0  0  0  0  0  0  0  0  0  0  0  0
   -4.1351    0.2141    0.4287 C   0  0  0  0  0  0  0  0  0  0  0  0
   -5.5869    0.2663    0.6541 C   0  0  0  0  0  0  0  0  0  0  0  0
   -6.2678   -0.7897    1.2521 C   0  0  0  0  0  0  0  0  0  0  0  0
   -7.6509   -0.7911    1.3621 C   0  0  0  0  0  0  0  0  0  0  0  0
   -8.3808   -0.0136    0.4900 C   0  0  0  0  0  0  0  0  0  0  0  0
   -7.6749    0.7178   -0.4513 C   0  0  0  0  0  0  0  0  0  0  0  0
   -6.3620    1.0789   -0.1652 C   0  0  0  0  0  0  0  0  0  0  0  0
   -5.8075    2.3717   -0.5910 C   0  0  0  0  0  0  0  0  0  0  0  0
   -5.3425    3.3640    0.2082 N   0  0  0  0  0  0  0  0  0  0  0  0
   -5.5274    4.5381   -0.3389 N   0  0  0  0  0  0  0  0  0  0  0  0
   -6.1677    4.3591   -1.4774 N   0  0  0  0  0  0  0  0  0  0  0  0
   -6.3691    3.0512   -1.6221 N   0  0  0  0  0  0  0  0  0  0  0  0
   -3.2704    1.1196    1.0403 C   0  0  0  0  0  0  0  0  0  0  0  0
   -1.9402    1.0317    0.6403 C   0  0  0  0  0  0  0  0  0  0  0  0
  1  2  1  0
  2  3  1  0
  3  4  1  0
  4  5  2  0
  5  6  1  0
  6  7  2  0
  7  8  1  0
  8  9  2  0
  9 10  1  0
 10 11  1  0
 11 12  2  0
 11 13  1  0
 14 13  1  6
 14 15  1  0
 14 16  1  0
 16 17  1  0
 17 18  2  0
 17 19  1  0
 19 20  1  0
 20 21  1  0
 21 22  1  0
 22 23  1  0
 23 24  1  0
 24 25  1  0
 10 26  2  0
 26 27  1  0
 27 28  1  0
 28 29  1  0
 29 30  2  0
 30 31  1  0
 31 32  2  0
 32 33  1  0
 33 34  2  0
 34 35  1  0
 35 36  2  0
 36 37  1  0
 37 38  2  0
 38 39  1  0
 39 40  1  0
 40 41  2  0
 41 42  1  0
 42 43  1  0
 32 44  1  0
 44 45  2  0
 27  4  1  0
 45 29  1  0
 26  6  1  0
 38 33  1  0
 43 39  2  0
 25 20  1  0
M  END
>  <supplier_code>  (658) 
DB00796

>  <zinc_id>  (658) 
ZINC000004074875

>  <catalog_short_name>  (658) 
dbfda

$$$$

     RDKit          3D

 45 50  0  0  0  0  0  0  0  0999 V2000
   -0.1178   -4.9153    1.5020 C   0  0  0  0  0  0  0  0  0  0  0  0
   -0.1883   -4.3581    0.4596 C   0  0  0  0  0  0  0  0  0  0  0  0
   -1.0527   -3.2695    0.2637 O   0  0  0  0  0  0  0  0  0  0  0  0
   -0.6848   -2.1500   -0.4910 C   0  0  0  0  0  0  0  0  0  0  0  0
   -0.5139   -2.0658   -1.8328 N   0  0  0  0  0  0  0  0  0  0  0  0
    0.1962   -0.9311   -2.0516 C   0  0  0  0  0  0  0  0  0  0  0  0
    0.5243   -0.2153   -3.1924 C   0  0  0  0  0  0  0  0  0  0  0  0
    1.3147    0.9234   -3.0947 C   0  0  0  0  0  0  0  0  0  0  0  0
    1.7534    1.3502   -1.8464 C   0  0  0  0  0  0  0  0  0  0  0  0
    1.3286    0.7312   -0.6756 C   0  0  0  0  0  0  0  0  0  0  0  0
    2.1691    0.6931    0.5318 C   0  0  0  0  0  0  0  0  0  0  0  0
    1.9256    1.3245    1.5759 O   0  0  0  0  0  0  0  0  0  0  0  0
    3.4354    0.0941    0.5384 O   0  0  0  0  0  0  0  0  0  0  0  0
    3.4693   -1.0270    1.6602 C   0  0  1  0  0  0  0  0  0  0  0  0
    3.9714   -2.2032    0.5480 C   0  0  0  0  0  0  0  0  0  0  0  0
    4.9583   -0.7330    2.1015 O   0  0  0  0  0  0  0  0  0  0  0  0
    5.7886   -0.3162    1.0857 C   0  0  0  0  0  0  0  0  0  0  0  0
    5.3556    0.8042    0.6598 O   0  0  0  0  0  0  0  0  0  0  0  0
    7.1576   -0.2834    1.3791 O   0  0  0  0  0  0  0  0  0  0  0  0
    8.0563    0.5869    0.7515 C   0  0  0  0  0  0  0  0  0  0  0  0
    7.3221    1.7651    0.1948 C   0  0  0  0  0  0  0  0  0  0  0  0
    8.3271    2.7849   -0.3335 C   0  0  0  0  0  0  0  0  0  0  0  0
    9.7309    2.2663   -0.1073 C   0  0  0  0  0  0  0  0  0  0  0  0
    9.8956    0.9322   -0.8259 C   0  0  0  0  0  0  0  0  0  0  0  0
    8.8574   -0.0776   -0.3532 C   0  0  0  0  0  0  0  0  0  0  0  0
    0.3449   -0.2395   -0.8552 C   0  0  0  0  0  0  0  0  0  0  0  0
   -0.0463   -1.1145    0.1083 N   0  0  0  0  0  0  0  0  0  0  0  0
   -0.4487   -0.5944    1.4156 C   0  0  0  0  0  0  0  0  0  0  0  0
   -1.7951    0.0514    1.2796 C   0  0  0  0  0  0  0  0  0  0  0  0
   -2.3524    0.3045    0.0314 C   0  0  0  0  0  0  0  0  0  0  0  0
   -3.6763    0.0336   -0.2657 C   0  0  0  0  0  0  0  0  0  0  0  0
   -4.5619   -0.0530    0.7782 C   0  0  0  0  0  0  0  0  0  0  0  0
   -5.9207   -0.4812    0.4240 C   0  0  0  0  0  0  0  0  0  0  0  0
   -6.0698   -1.7974    0.0022 C   0  0  0  0  0  0  0  0  0  0  0  0
   -7.1010   -2.1922   -0.8134 C   0  0  0  0  0  0  0  0  0  0  0  0
   -7.7132   -1.2361   -1.6141 C   0  0  0  0  0  0  0  0  0  0  0  0
   -7.7018    0.0584   -1.1086 C   0  0  0  0  0  0  0  0  0  0  0  0
   -6.6673    0.4622   -0.2727 C   0  0  0  0  0  0  0  0  0  0  0  0
   -6.5619    1.8928    0.0252 C   0  0  0  0  0  0  0  0  0  0  0  0
   -5.4568    2.6737    0.0686 N   0  0  0  0  0  0  0  0  0  0  0  0
   -5.7720    3.8461    0.5845 N   0  0  0  0  0  0  0  0  0  0  0  0
   -7.0801    3.9623    0.3623 N   0  0  0  0  0  0  0  0  0  0  0  0
   -7.5933    2.7718    0.0615 N   0  0  0  0  0  0  0  0  0  0  0  0
   -4.0862   -0.0788    2.0798 C   0  0  0  0  0  0  0  0  0  0  0  0
   -2.7202    0.0196    2.3178 C   0  0  0  0  0  0  0  0  0  0  0  0
  1  2  1  0
  2  3  1  0
  3  4  1  0
  4  5  2  0
  5  6  1  0
  6  7  2  0
  7  8  1  0
  8  9  2  0
  9 10  1  0
 10 11  1  0
 11 12  2  0
 11 13  1  0
 14 13  1  6
 14 15  1  0
 14 16  1  0
 16 17  1  0
 17 18  2  0
 17 19  1  0
 19 20  1  0
 20 21  1  0
 21 22  1  0
 22 23  1  0
 23 24  1  0
 24 25  1  0
 10 26  2  0
 26 27  1  0
 27 28  1  0
 28 29  1  0
 29 30  2  0
 30 31  1  0
 31 32  2  0
 32 33  1  0
 33 34  2  0
 34 35  1  0
 35 36  2  0
 36 37  1  0
 37 38  2  0
 38 39  1  0
 39 40  2  0
 40 41  1  0
 41 42  2  0
 42 43  1  0
 32 44  1  0
 44 45  2  0
 27  4  1  0
 45 29  1  0
 26  6  1  0
 38 33  1  0
 43 39  1  0
 25 20  1  0
M  END
>  <supplier_code>  (659) 
DB00796

>  <zinc_id>  (659) 
ZINC000004097427

>  <catalog_short_name>  (659) 
dbfda

$$$$

     RDKit          3D

 33 35  0  0  0  0  0  0  0  0999 V2000
    6.6084    0.3009    0.0032 C   0  0  0  0  0  0  0  0  0  0  0  0
    6.4131    0.4893   -0.0717 N   0  0  0  0  0  0  0  0  0  0  0  0
    5.6245    1.6599   -0.7482 C   0  0  1  0  0  0  0  0  0  0  0  0
    5.6314    0.9445   -2.2133 C   0  0  0  0  0  0  0  0  0  0  0  0
    4.0411    1.1243   -0.3418 C   0  0  2  0  0  0  0  0  0  0  0  0
    4.4504    1.0598    1.2507 C   0  0  0  0  0  0  0  0  0  0  0  0
    3.3073    0.3351    1.9080 C   0  0  0  0  0  0  0  0  0  0  0  0
    3.7692   -1.1591    1.4569 C   0  0  1  0  0  0  0  0  0  0  0  0
    2.4797   -1.8449    2.0112 N   0  0  0  0  0  0  0  0  0  0  0  0
    3.1941   -1.1176   -0.1892 C   0  0  1  0  0  0  0  0  0  0  0  0
    2.1553    0.0074   -0.0037 O   0  0  0  0  0  0  0  0  0  0  0  0
    1.1754   -1.1405   -0.0421 C   0  0  1  0  0  0  0  0  0  0  0  0
   -0.0976   -0.4349    0.8629 C   0  0  1  0  0  0  0  0  0  0  0  0
    0.0460    0.9180    0.2210 O   0  0  0  0  0  0  0  0  0  0  0  0
   -1.3548   -0.8144   -0.2206 C   0  0  2  0  0  0  0  0  0  0  0  0
   -2.3924   -1.0453    0.8516 O   0  0  0  0  0  0  0  0  0  0  0  0
   -3.3873   -0.3452   -0.0822 C   0  0  2  0  0  0  0  0  0  0  0  0
   -2.7123    0.9998    0.1842 O   0  0  0  0  0  0  0  0  0  0  0  0
   -3.4882    1.7408   -0.6298 C   0  0  0  0  0  0  0  0  0  0  0  0
   -4.6721    2.0408    0.0642 C   0  0  1  0  0  0  0  0  0  0  0  0
   -4.7139    2.9898    1.2049 C   0  0  0  0  0  0  0  0  0  0  0  0
   -5.5187    2.6323   -0.9040 O   0  0  0  0  0  0  0  0  0  0  0  0
   -5.6443    0.7796    0.3637 C   0  0  1  0  0  0  0  0  0  0  0  0
   -5.4344    0.1582   -1.0672 N   0  0  0  0  0  0  0  0  0  0  0  0
   -6.2278   -1.0504   -0.9877 C   0  0  0  0  0  0  0  0  0  0  0  0
   -4.5530   -0.2561    1.1891 C   0  0  2  0  0  0  0  0  0  0  0  0
   -3.8887    0.7934    2.0196 O   0  0  0  0  0  0  0  0  0  0  0  0
   -1.1330   -2.5006   -0.3820 C   0  0  2  0  0  0  0  0  0  0  0  0
   -0.2401   -2.7584    0.8811 N   0  0  0  0  0  0  0  0  0  0  0  0
    0.0182   -2.3702   -1.5418 C   0  0  0  0  0  0  0  0  0  0  0  0
    0.4260   -0.7891   -1.5347 C   0  0  2  0  0  0  0  0  0  0  0  0
    1.7295   -1.0496   -2.3553 N   0  0  0  0  0  0  0  0  0  0  0  0
    4.3891   -0.2975   -0.6231 O   0  0  0  0  0  0  0  0  0  0  0  0
  1  2  1  0
  3  2  1  1
  3  4  1  0
  3  5  1  0
  5  6  1  1
  6  7  1  0
  7  8  1  0
  8  9  1  1
  8 10  1  0
 10 11  1  1
 12 11  1  6
 12 13  1  0
 13 14  1  6
 13 15  1  0
 15 16  1  1
 17 16  1  1
 17 18  1  0
 18 19  1  0
 19 20  1  0
 20 21  1  1
 20 22  1  0
 20 23  1  0
 23 24  1  6
 24 25  1  0
 23 26  1  0
 26 27  1  1
 15 28  1  0
 28 29  1  1
 28 30  1  0
 30 31  1  0
 31 32  1  6
 10 33  1  0
 33  5  1  0
 31 12  1  0
 26 17  1  0
M  END
>  <supplier_code>  (660) 
DB00798

>  <zinc_id>  (660) 
ZINC000008551177

>  <catalog_short_name>  (660) 
dbfda

$$$$

     RDKit          3D

 33 35  0  0  0  0  0  0  0  0999 V2000
    6.9213    0.3676   -0.1447 C   0  0  0  0  0  0  0  0  0  0  0  0
    6.5076    0.5602   -0.0569 N   0  0  0  0  0  0  0  0  0  0  0  0
    5.1291    0.6081    0.6741 C   0  0  2  0  0  0  0  0  0  0  0  0
    5.8658    0.7339    2.1228 C   0  0  0  0  0  0  0  0  0  0  0  0
    5.0244   -1.0896    0.8855 C   0  0  2  0  0  0  0  0  0  0  0  0
    5.3889   -1.4411   -0.6764 C   0  0  0  0  0  0  0  0  0  0  0  0
    4.1742   -1.9884   -1.2765 C   0  0  0  0  0  0  0  0  0  0  0  0
    3.4248   -0.6033   -1.6725 C   0  0  1  0  0  0  0  0  0  0  0  0
    2.1181   -1.3882   -1.9800 N   0  0  0  0  0  0  0  0  0  0  0  0
    3.0494   -0.0238   -0.0730 C   0  0  1  0  0  0  0  0  0  0  0  0
    1.6879   -0.6196    0.0713 O   0  0  0  0  0  0  0  0  0  0  0  0
    0.6355    0.1752   -0.5825 C   0  0  1  0  0  0  0  0  0  0  0  0
   -0.2824   -0.0543    0.8558 C   0  0  1  0  0  0  0  0  0  0  0  0
    0.2605    1.0752    1.6714 O   0  0  0  0  0  0  0  0  0  0  0  0
   -1.7657    0.6898    0.3863 C   0  0  2  0  0  0  0  0  0  0  0  0
   -1.6749    0.2288   -0.9935 O   0  0  0  0  0  0  0  0  0  0  0  0
   -3.0304   -0.1353   -1.5565 C   0  0  2  0  0  0  0  0  0  0  0  0
   -3.8724    0.9016   -0.8123 O   0  0  0  0  0  0  0  0  0  0  0  0
   -5.1447    0.3968   -1.1345 C   0  0  0  0  0  0  0  0  0  0  0  0
   -5.5018   -0.3202    0.1648 C   0  0  1  0  0  0  0  0  0  0  0  0
   -6.2082    0.6705    1.0125 C   0  0  0  0  0  0  0  0  0  0  0  0
   -6.1215   -1.4796   -0.0928 O   0  0  0  0  0  0  0  0  0  0  0  0
   -4.0233   -0.5720    0.7979 C   0  0  1  0  0  0  0  0  0  0  0  0
   -4.4275   -1.8850    1.5320 N   0  0  0  0  0  0  0  0  0  0  0  0
   -5.3298   -1.4948    2.5851 C   0  0  0  0  0  0  0  0  0  0  0  0
   -3.5111   -1.4685   -0.5575 C   0  0  2  0  0  0  0  0  0  0  0  0
   -2.2007   -1.8053    0.0467 O   0  0  0  0  0  0  0  0  0  0  0  0
   -1.1097    2.2784    0.3258 C   0  0  2  0  0  0  0  0  0  0  0  0
   -2.2996    2.9514   -0.4201 N   0  0  0  0  0  0  0  0  0  0  0  0
   -0.2598    2.1745   -1.0435 C   0  0  0  0  0  0  0  0  0  0  0  0
    1.1162    1.7692   -0.2422 C   0  0  2  0  0  0  0  0  0  0  0  0
    1.9059    2.0209   -1.5574 N   0  0  0  0  0  0  0  0  0  0  0  0
    3.5539   -1.2332    0.6900 O   0  0  0  0  0  0  0  0  0  0  0  0
  1  2  1  0
  3  2  1  6
  3  4  1  0
  3  5  1  0
  5  6  1  6
  6  7  1  0
  7  8  1  0
  8  9  1  6
  8 10  1  0
 10 11  1  6
 12 11  1  1
 12 13  1  0
 13 14  1  1
 13 15  1  0
 15 16  1  6
 17 16  1  1
 17 18  1  0
 18 19  1  0
 19 20  1  0
 20 21  1  1
 20 22  1  0
 20 23  1  0
 23 24  1  1
 24 25  1  0
 23 26  1  0
 26 27  1  1
 15 28  1  0
 28 29  1  6
 28 30  1  0
 30 31  1  0
 31 32  1  6
 10 33  1  0
 33  5  1  0
 31 12  1  0
 26 17  1  0
M  END
>  <supplier_code>  (661) 
DB00798

>  <zinc_id>  (661) 
ZINC000008551178

>  <catalog_short_name>  (661) 
dbfda

$$$$

     RDKit          3D

 33 35  0  0  0  0  0  0  0  0999 V2000
   -7.5552    1.3234    0.6433 C   0  0  0  0  0  0  0  0  0  0  0  0
   -7.0081    0.6789    0.1400 N   0  0  0  0  0  0  0  0  0  0  0  0
   -5.9902   -0.1928    0.9419 C   0  0  1  0  0  0  0  0  0  0  0  0
   -7.0244   -1.4522    1.0235 C   0  0  0  0  0  0  0  0  0  0  0  0
   -5.1841   -0.8683   -0.4213 C   0  0  1  0  0  0  0  0  0  0  0  0
   -5.0283    0.5622   -1.2025 C   0  0  0  0  0  0  0  0  0  0  0  0
   -4.5643    1.5835   -0.2656 C   0  0  0  0  0  0  0  0  0  0  0  0
   -2.9701    1.3988   -0.0203 C   0  0  1  0  0  0  0  0  0  0  0  0
   -3.1694    0.9480    1.4600 N   0  0  0  0  0  0  0  0  0  0  0  0
   -2.9738   -0.1741   -0.7532 C   0  0  1  0  0  0  0  0  0  0  0  0
   -1.6561   -0.5220   -0.0524 O   0  0  0  0  0  0  0  0  0  0  0  0
   -0.9562    0.1011   -1.2298 C   0  0  1  0  0  0  0  0  0  0  0  0
    0.6050    0.2997   -0.5976 C   0  0  1  0  0  0  0  0  0  0  0  0
    0.0656    1.3261    0.3568 O   0  0  0  0  0  0  0  0  0  0  0  0
    0.5646   -0.8867    0.6330 C   0  0  2  0  0  0  0  0  0  0  0  0
    1.9023   -0.6451    1.0795 O   0  0  0  0  0  0  0  0  0  0  0  0
    3.2244   -0.7539    0.4940 C   0  0  2  0  0  0  0  0  0  0  0  0
    3.7913   -0.0602    1.7439 O   0  0  0  0  0  0  0  0  0  0  0  0
    5.0204    0.3224    1.5620 C   0  0  0  0  0  0  0  0  0  0  0  0
    5.4363    1.1961    0.5412 C   0  0  1  0  0  0  0  0  0  0  0  0
    5.2774    2.7020    0.6778 C   0  0  0  0  0  0  0  0  0  0  0  0
    6.8097    1.1872    0.2341 O   0  0  0  0  0  0  0  0  0  0  0  0
    4.8316    0.7447   -0.8964 C   0  0  1  0  0  0  0  0  0  0  0  0
    5.1476   -0.7788   -0.7235 N   0  0  0  0  0  0  0  0  0  0  0  0
    6.5266   -1.0056   -0.7913 C   0  0  0  0  0  0  0  0  0  0  0  0
    3.1667    0.6638   -0.5031 C   0  0  2  0  0  0  0  0  0  0  0  0
    3.1504    1.6883    0.5802 O   0  0  0  0  0  0  0  0  0  0  0  0
    0.6635   -2.2671   -0.3957 C   0  0  2  0  0  0  0  0  0  0  0  0
    2.1368   -2.6832   -0.1635 N   0  0  0  0  0  0  0  0  0  0  0  0
    0.9273   -1.4705   -1.8032 C   0  0  0  0  0  0  0  0  0  0  0  0
   -0.6980   -1.4085   -1.9871 C   0  0  2  0  0  0  0  0  0  0  0  0
   -0.6110   -0.7246   -3.3895 N   0  0  0  0  0  0  0  0  0  0  0  0
   -3.8584   -0.8324    0.2934 O   0  0  0  0  0  0  0  0  0  0  0  0
  1  2  1  0
  3  2  1  6
  3  4  1  0
  3  5  1  0
  5  6  1  6
  6  7  1  0
  7  8  1  0
  8  9  1  1
  8 10  1  0
 10 11  1  1
 12 11  1  1
 12 13  1  0
 13 14  1  1
 13 15  1  0
 15 16  1  1
 17 16  1  1
 17 18  1  0
 18 19  1  0
 19 20  1  0
 20 21  1  1
 20 22  1  0
 20 23  1  0
 23 24  1  1
 24 25  1  0
 23 26  1  0
 26 27  1  1
 15 28  1  0
 28 29  1  1
 28 30  1  0
 30 31  1  0
 31 32  1  6
 10 33  1  0
 33  5  1  0
 31 12  1  0
 26 17  1  0
M  END
>  <supplier_code>  (662) 
DB00798

>  <zinc_id>  (662) 
ZINC000008551179

>  <catalog_short_name>  (662) 
dbfda

$$$$

     RDKit          3D

 33 35  0  0  0  0  0  0  0  0999 V2000
    4.5517    3.8172    0.2138 C   0  0  0  0  0  0  0  0  0  0  0  0
    4.3390    2.4333   -0.0223 N   0  0  0  0  0  0  0  0  0  0  0  0
    4.3875    2.3698   -1.5745 C   0  0  2  0  0  0  0  0  0  0  0  0
    2.7824    2.6045   -1.7247 C   0  0  0  0  0  0  0  0  0  0  0  0
    4.2467    0.6702   -1.7534 C   0  0  1  0  0  0  0  0  0  0  0  0
    5.3922    0.2555   -0.6564 C   0  0  0  0  0  0  0  0  0  0  0  0
    5.3117   -1.2580   -0.7644 C   0  0  0  0  0  0  0  0  0  0  0  0
    3.9256   -1.7819   -0.0779 C   0  0  1  0  0  0  0  0  0  0  0  0
    4.0208   -0.7120    1.0403 N   0  0  0  0  0  0  0  0  0  0  0  0
    2.9888   -0.9648   -1.2767 C   0  0  1  0  0  0  0  0  0  0  0  0
    1.5991   -1.2485   -0.7073 O   0  0  0  0  0  0  0  0  0  0  0  0
    1.7847   -1.3621    0.7646 C   0  0  1  0  0  0  0  0  0  0  0  0
    0.4672   -0.4589    1.2972 C   0  0  1  0  0  0  0  0  0  0  0  0
    0.8647    0.7336    0.4740 O   0  0  0  0  0  0  0  0  0  0  0  0
   -0.6930   -0.9428    0.1590 C   0  0  2  0  0  0  0  0  0  0  0  0
   -1.4092    0.3047    0.4348 O   0  0  0  0  0  0  0  0  0  0  0  0
   -2.8952    0.2332    0.4230 C   0  0  2  0  0  0  0  0  0  0  0  0
   -3.1210   -1.1973   -0.0477 O   0  0  0  0  0  0  0  0  0  0  0  0
   -4.5171   -1.0144   -0.0472 C   0  0  0  0  0  0  0  0  0  0  0  0
   -5.0731    0.3247    0.0442 C   0  0  1  0  0  0  0  0  0  0  0  0
   -6.5172    0.1943   -0.4863 C   0  0  0  0  0  0  0  0  0  0  0  0
   -5.1915    0.9379    1.2063 O   0  0  0  0  0  0  0  0  0  0  0  0
   -4.5918    1.3201   -1.1390 C   0  0  1  0  0  0  0  0  0  0  0  0
   -4.3448    2.5582   -0.2057 N   0  0  0  0  0  0  0  0  0  0  0  0
   -5.5952    3.3113   -0.2107 C   0  0  0  0  0  0  0  0  0  0  0  0
   -2.9291    0.9456   -1.1570 C   0  0  2  0  0  0  0  0  0  0  0  0
   -3.1861   -0.2747   -1.9732 O   0  0  0  0  0  0  0  0  0  0  0  0
   -1.3932   -1.9419    1.3699 C   0  0  2  0  0  0  0  0  0  0  0  0
   -0.7087   -1.3988    2.6747 N   0  0  0  0  0  0  0  0  0  0  0  0
   -0.3226   -3.0117    1.0185 C   0  0  0  0  0  0  0  0  0  0  0  0
    1.2179   -2.9739    0.9224 C   0  0  2  0  0  0  0  0  0  0  0  0
    1.4355   -2.9183    2.4969 N   0  0  0  0  0  0  0  0  0  0  0  0
    3.1734    0.4460   -0.7151 O   0  0  0  0  0  0  0  0  0  0  0  0
  1  2  1  0
  3  2  1  1
  3  4  1  0
  3  5  1  0
  5  6  1  1
  6  7  1  0
  7  8  1  0
  8  9  1  1
  8 10  1  0
 10 11  1  1
 12 11  1  6
 12 13  1  0
 13 14  1  6
 13 15  1  0
 15 16  1  1
 17 16  1  6
 17 18  1  0
 18 19  1  0
 19 20  1  0
 20 21  1  6
 20 22  1  0
 20 23  1  0
 23 24  1  1
 24 25  1  0
 23 26  1  0
 26 27  1  6
 15 28  1  0
 28 29  1  1
 28 30  1  0
 30 31  1  0
 31 32  1  1
 10 33  1  0
 33  5  1  0
 31 12  1  0
 26 17  1  0
M  END
>  <supplier_code>  (663) 
DB00798

>  <zinc_id>  (663) 
ZINC000008551180

>  <catalog_short_name>  (663) 
dbfda

$$$$

     RDKit          3D

 33 35  0  0  0  0  0  0  0  0999 V2000
   -4.8760    1.2119    1.2826 C   0  0  0  0  0  0  0  0  0  0  0  0
   -5.3433    1.3464    1.0415 N   0  0  0  0  0  0  0  0  0  0  0  0
   -5.0394    2.0168   -0.3357 C   0  0  2  0  0  0  0  0  0  0  0  0
   -6.5995    1.9680   -0.8017 C   0  0  0  0  0  0  0  0  0  0  0  0
   -4.5893    0.5646   -1.1481 C   0  0  2  0  0  0  0  0  0  0  0  0
   -5.9141   -0.3104   -0.7548 C   0  0  0  0  0  0  0  0  0  0  0  0
   -5.5145   -1.3956    0.1193 C   0  0  0  0  0  0  0  0  0  0  0  0
   -4.3754   -2.3010   -0.6043 C   0  0  2  0  0  0  0  0  0  0  0  0
   -3.8758   -2.7959    0.7863 N   0  0  0  0  0  0  0  0  0  0  0  0
   -3.1806   -1.0695   -0.8772 C   0  0  2  0  0  0  0  0  0  0  0  0
   -2.1701   -1.6188    0.1222 O   0  0  0  0  0  0  0  0  0  0  0  0
   -1.4002   -0.4434    0.6065 C   0  0  2  0  0  0  0  0  0  0  0  0
   -1.4851    0.5070   -0.8134 C   0  0  2  0  0  0  0  0  0  0  0  0
   -1.0573   -0.5641   -1.8657 N   0  0  0  0  0  0  0  0  0  0  0  0
   -0.0702    1.2816   -0.5280 C   0  0  0  0  0  0  0  0  0  0  0  0
   -0.1036    1.1848    1.1094 C   0  0  2  0  0  0  0  0  0  0  0  0
    0.8955    2.3516    1.3467 N   0  0  0  0  0  0  0  0  0  0  0  0
    1.0447   -0.0745    1.2620 C   0  0  2  0  0  0  0  0  0  0  0  0
    1.9251    0.3131    0.1020 O   0  0  0  0  0  0  0  0  0  0  0  0
    2.9357   -0.7675    0.4973 C   0  0  2  0  0  0  0  0  0  0  0  0
    3.5819    0.2531    1.4406 O   0  0  0  0  0  0  0  0  0  0  0  0
    3.9521    1.3165    0.6089 C   0  0  0  0  0  0  0  0  0  0  0  0
    5.3903    1.1515    0.1907 C   0  0  2  0  0  0  0  0  0  0  0  0
    6.2401    1.6899    1.2469 C   0  0  0  0  0  0  0  0  0  0  0  0
    5.5197    1.5668   -1.0809 O   0  0  0  0  0  0  0  0  0  0  0  0
    5.3714   -0.4749    0.2447 C   0  0  2  0  0  0  0  0  0  0  0  0
    6.4333   -0.6639   -0.8851 N   0  0  0  0  0  0  0  0  0  0  0  0
    7.1618   -1.7315   -0.1913 C   0  0  0  0  0  0  0  0  0  0  0  0
    4.0280   -0.4589   -0.8179 C   0  0  1  0  0  0  0  0  0  0  0  0
    4.2447   -1.9032   -1.1350 O   0  0  0  0  0  0  0  0  0  0  0  0
    0.0979   -1.2597    0.4476 C   0  0  2  0  0  0  0  0  0  0  0  0
    0.5723   -0.8834   -0.9057 O   0  0  0  0  0  0  0  0  0  0  0  0
   -3.8002   -0.0073    0.0247 O   0  0  0  0  0  0  0  0  0  0  0  0
  1  2  1  0
  3  2  1  1
  3  4  1  0
  3  5  1  0
  5  6  1  1
  6  7  1  0
  7  8  1  0
  8  9  1  1
  8 10  1  0
 10 11  1  1
 12 11  1  6
 12 13  1  0
 13 14  1  6
 13 15  1  0
 15 16  1  0
 16 17  1  1
 16 18  1  0
 18 19  1  6
 20 19  1  6
 20 21  1  0
 21 22  1  0
 22 23  1  0
 23 24  1  1
 23 25  1  0
 23 26  1  0
 26 27  1  6
 27 28  1  0
 26 29  1  0
 29 30  1  6
 18 31  1  0
 31 32  1  6
 10 33  1  0
 33  5  1  0
 31 12  1  0
 29 20  1  0
M  END
>  <supplier_code>  (664) 
DB00798

>  <zinc_id>  (664) 
ZINC000242437511

>  <catalog_short_name>  (664) 
dbfda

$$$$

     RDKit          3D

 33 35  0  0  0  0  0  0  0  0999 V2000
   -7.3278    1.2355    1.0247 C   0  0  0  0  0  0  0  0  0  0  0  0
   -6.6458    1.4839    0.5273 N   0  0  0  0  0  0  0  0  0  0  0  0
   -5.2857    1.0391    1.1463 C   0  0  2  0  0  0  0  0  0  0  0  0
   -4.8898    2.5737    1.5194 C   0  0  0  0  0  0  0  0  0  0  0  0
   -4.4497    1.1435   -0.3438 C   0  0  2  0  0  0  0  0  0  0  0  0
   -5.4845    0.1209   -1.0939 C   0  0  0  0  0  0  0  0  0  0  0  0
   -5.5192   -1.1486   -0.3230 C   0  0  0  0  0  0  0  0  0  0  0  0
   -4.2771   -2.0537   -0.8549 C   0  0  2  0  0  0  0  0  0  0  0  0
   -3.6993   -2.2565    0.5768 N   0  0  0  0  0  0  0  0  0  0  0  0
   -3.3327   -0.6643   -1.2735 C   0  0  2  0  0  0  0  0  0  0  0  0
   -2.0227   -1.3259   -0.8483 O   0  0  0  0  0  0  0  0  0  0  0  0
   -1.2534   -0.0456   -0.9730 C   0  0  2  0  0  0  0  0  0  0  0  0
   -0.4027   -0.4443   -2.4087 C   0  0  2  0  0  0  0  0  0  0  0  0
   -1.6144   -1.0655   -3.1731 N   0  0  0  0  0  0  0  0  0  0  0  0
    0.1357   -1.8893   -1.8856 C   0  0  0  0  0  0  0  0  0  0  0  0
    1.6609   -1.4791   -1.4716 C   0  0  2  0  0  0  0  0  0  0  0  0
    1.5804   -2.2830   -0.1348 N   0  0  0  0  0  0  0  0  0  0  0  0
    1.1957    0.0468   -0.8422 C   0  0  2  0  0  0  0  0  0  0  0  0
    2.2769    0.0484    0.1980 O   0  0  0  0  0  0  0  0  0  0  0  0
    3.1929    0.7251   -0.8321 C   0  0  2  0  0  0  0  0  0  0  0  0
    4.2784   -0.3355   -0.8172 O   0  0  0  0  0  0  0  0  0  0  0  0
    5.4657    0.2088   -1.0377 C   0  0  0  0  0  0  0  0  0  0  0  0
    6.0293    0.7333    0.1838 C   0  0  2  0  0  0  0  0  0  0  0  0
    6.4550    2.1674   -0.1375 C   0  0  0  0  0  0  0  0  0  0  0  0
    7.0322    0.0629    0.8164 O   0  0  0  0  0  0  0  0  0  0  0  0
    4.8684    1.0217    1.3025 C   0  0  2  0  0  0  0  0  0  0  0  0
    4.1627   -0.3569    1.2930 N   0  0  0  0  0  0  0  0  0  0  0  0
    4.8657   -1.2625    2.0761 C   0  0  0  0  0  0  0  0  0  0  0  0
    3.9334    1.8956    0.1888 C   0  0  2  0  0  0  0  0  0  0  0  0
    2.8085    2.0274    1.1823 O   0  0  0  0  0  0  0  0  0  0  0  0
   -0.0556   -0.6019    0.1083 C   0  0  1  0  0  0  0  0  0  0  0  0
   -0.1790    0.6379    0.9334 O   0  0  0  0  0  0  0  0  0  0  0  0
   -3.5025    0.0411    0.0684 O   0  0  0  0  0  0  0  0  0  0  0  0
  1  2  1  0
  3  2  1  6
  3  4  1  0
  3  5  1  0
  5  6  1  6
  6  7  1  0
  7  8  1  0
  8  9  1  1
  8 10  1  0
 10 11  1  1
 12 11  1  1
 12 13  1  0
 13 14  1  6
 13 15  1  0
 15 16  1  0
 16 17  1  1
 16 18  1  0
 18 19  1  1
 20 19  1  1
 20 21  1  0
 21 22  1  0
 22 23  1  0
 23 24  1  6
 23 25  1  0
 23 26  1  0
 26 27  1  6
 27 28  1  0
 26 29  1  0
 29 30  1  1
 18 31  1  0
 31 32  1  1
 10 33  1  0
 33  5  1  0
 31 12  1  0
 29 20  1  0
M  END
>  <supplier_code>  (665) 
DB00798

>  <zinc_id>  (665) 
ZINC000242437512

>  <catalog_short_name>  (665) 
dbfda

$$$$

     RDKit          3D

 33 35  0  0  0  0  0  0  0  0999 V2000
    4.9039    1.1739    2.1387 C   0  0  0  0  0  0  0  0  0  0  0  0
    5.3839    0.2799    2.2242 N   0  0  0  0  0  0  0  0  0  0  0  0
    6.4888    0.0661    1.1419 C   0  0  2  0  0  0  0  0  0  0  0  0
    6.3806    1.5651    0.5136 C   0  0  0  0  0  0  0  0  0  0  0  0
    5.3767   -0.6949    0.0884 C   0  0  2  0  0  0  0  0  0  0  0  0
    6.0835   -0.0940   -1.2694 C   0  0  0  0  0  0  0  0  0  0  0  0
    4.8044   -0.1955   -2.1064 C   0  0  0  0  0  0  0  0  0  0  0  0
    3.9169   -1.3974   -1.4850 C   0  0  2  0  0  0  0  0  0  0  0  0
    2.8328   -1.1454   -2.5806 N   0  0  0  0  0  0  0  0  0  0  0  0
    3.1544   -0.5472   -0.1707 C   0  0  2  0  0  0  0  0  0  0  0  0
    2.3178    0.4427   -0.9768 O   0  0  0  0  0  0  0  0  0  0  0  0
    1.1495   -0.5154   -0.9085 C   0  0  2  0  0  0  0  0  0  0  0  0
    0.1653    0.3578   -1.9888 C   0  0  2  0  0  0  0  0  0  0  0  0
    0.3080    1.7914   -1.3893 N   0  0  0  0  0  0  0  0  0  0  0  0
   -1.2150   -0.1563   -1.3031 C   0  0  0  0  0  0  0  0  0  0  0  0
   -0.7091   -1.6215   -0.8154 C   0  0  2  0  0  0  0  0  0  0  0  0
   -2.0577   -2.3644   -0.5992 N   0  0  0  0  0  0  0  0  0  0  0  0
   -0.4843   -1.3221    0.8489 C   0  0  2  0  0  0  0  0  0  0  0  0
   -1.6465   -0.5446    1.2916 O   0  0  0  0  0  0  0  0  0  0  0  0
   -2.6518   -0.1013    0.3063 C   0  0  2  0  0  0  0  0  0  0  0  0
   -2.8523    1.2530    0.9901 O   0  0  0  0  0  0  0  0  0  0  0  0
   -3.7968    1.9085    0.2253 C   0  0  0  0  0  0  0  0  0  0  0  0
   -5.0869    1.2579    0.0537 C   0  0  2  0  0  0  0  0  0  0  0  0
   -5.7103    1.7069   -1.2814 C   0  0  0  0  0  0  0  0  0  0  0  0
   -6.0346    1.4652    0.9871 O   0  0  0  0  0  0  0  0  0  0  0  0
   -4.9221   -0.3022   -0.3377 C   0  0  2  0  0  0  0  0  0  0  0  0
   -6.2715   -0.8081    0.2713 N   0  0  0  0  0  0  0  0  0  0  0  0
   -6.0503   -2.2075   -0.1218 C   0  0  0  0  0  0  0  0  0  0  0  0
   -4.0354   -0.8588    1.0258 C   0  0  2  0  0  0  0  0  0  0  0  0
   -4.4172    0.1844    2.0054 O   0  0  0  0  0  0  0  0  0  0  0  0
    0.6544   -0.0263    0.6417 C   0  0  2  0  0  0  0  0  0  0  0  0
   -0.3109    1.0607    0.4019 O   0  0  0  0  0  0  0  0  0  0  0  0
    4.3317    0.3891    0.0898 O   0  0  0  0  0  0  0  0  0  0  0  0
  1  2  1  0
  3  2  1  1
  3  4  1  0
  3  5  1  0
  5  6  1  6
  6  7  1  0
  7  8  1  0
  8  9  1  6
  8 10  1  0
 10 11  1  6
 12 11  1  6
 12 13  1  0
 13 14  1  1
 13 15  1  0
 15 16  1  0
 16 17  1  1
 16 18  1  0
 18 19  1  6
 20 19  1  1
 20 21  1  0
 21 22  1  0
 22 23  1  0
 23 24  1  6
 23 25  1  0
 23 26  1  0
 26 27  1  1
 27 28  1  0
 26 29  1  0
 29 30  1  1
 18 31  1  0
 31 32  1  6
 10 33  1  0
 33  5  1  0
 31 12  1  0
 29 20  1  0
M  END
>  <supplier_code>  (666) 
DB00798

>  <zinc_id>  (666) 
ZINC000242437513

>  <catalog_short_name>  (666) 
dbfda

$$$$

     RDKit          3D

 33 35  0  0  0  0  0  0  0  0999 V2000
    6.3154    2.4656   -0.7752 C   0  0  0  0  0  0  0  0  0  0  0  0
    6.9610    1.3655   -0.1096 N   0  0  0  0  0  0  0  0  0  0  0  0
    5.8898    0.9993    0.9658 C   0  0  2  0  0  0  0  0  0  0  0  0
    6.9856    0.1297    1.8092 C   0  0  0  0  0  0  0  0  0  0  0  0
    5.2961   -0.4464    0.2430 C   0  0  2  0  0  0  0  0  0  0  0  0
    5.7541   -0.1156   -1.2948 C   0  0  0  0  0  0  0  0  0  0  0  0
    4.4695   -0.2227   -2.0470 C   0  0  0  0  0  0  0  0  0  0  0  0
    3.9010   -1.6778   -1.5917 C   0  0  2  0  0  0  0  0  0  0  0  0
    2.6320   -1.3977   -2.4452 N   0  0  0  0  0  0  0  0  0  0  0  0
    3.2765   -1.2685   -0.0296 C   0  0  2  0  0  0  0  0  0  0  0  0
    1.8896   -0.8618   -0.4926 O   0  0  0  0  0  0  0  0  0  0  0  0
    1.2722   -0.3186    0.7506 C   0  0  2  0  0  0  0  0  0  0  0  0
    0.5328   -1.7448    1.3622 C   0  0  2  0  0  0  0  0  0  0  0  0
    1.8699   -2.4972    1.6317 N   0  0  0  0  0  0  0  0  0  0  0  0
    0.2482   -2.4776   -0.0610 C   0  0  0  0  0  0  0  0  0  0  0  0
   -1.2975   -2.0875   -0.3599 C   0  0  2  0  0  0  0  0  0  0  0  0
   -0.9435   -1.3206   -1.6685 N   0  0  0  0  0  0  0  0  0  0  0  0
   -1.2613   -0.7306    0.6822 C   0  0  2  0  0  0  0  0  0  0  0  0
   -2.4235   -0.0614    0.0307 O   0  0  0  0  0  0  0  0  0  0  0  0
   -3.3514    0.1614    1.2378 C   0  0  2  0  0  0  0  0  0  0  0  0
   -4.5799   -0.4484    0.6173 O   0  0  0  0  0  0  0  0  0  0  0  0
   -5.6683    0.0419    1.1730 C   0  0  0  0  0  0  0  0  0  0  0  0
   -6.0368    1.0843    0.3663 C   0  0  2  0  0  0  0  0  0  0  0  0
   -6.9257    2.1996    0.8339 C   0  0  0  0  0  0  0  0  0  0  0  0
   -6.6854    0.5960   -0.7955 O   0  0  0  0  0  0  0  0  0  0  0  0
   -4.7836    1.8378   -0.3433 C   0  0  2  0  0  0  0  0  0  0  0  0
   -4.2146    0.5848   -1.0555 N   0  0  0  0  0  0  0  0  0  0  0  0
   -4.4472    0.6628   -2.4553 C   0  0  0  0  0  0  0  0  0  0  0  0
   -3.5979    1.8248    0.8699 C   0  0  1  0  0  0  0  0  0  0  0  0
   -4.5791    2.0688    1.9794 O   0  0  0  0  0  0  0  0  0  0  0  0
   -0.0883    0.1628   -0.1741 C   0  0  1  0  0  0  0  0  0  0  0  0
   -0.3131    1.3657    0.6928 O   0  0  0  0  0  0  0  0  0  0  0  0
    3.9032    0.1264    0.0302 O   0  0  0  0  0  0  0  0  0  0  0  0
  1  2  1  0
  3  2  1  6
  3  4  1  0
  3  5  1  0
  5  6  1  6
  6  7  1  0
  7  8  1  0
  8  9  1  6
  8 10  1  0
 10 11  1  6
 12 11  1  6
 12 13  1  0
 13 14  1  1
 13 15  1  0
 15 16  1  0
 16 17  1  6
 16 18  1  0
 18 19  1  6
 20 19  1  6
 20 21  1  0
 21 22  1  0
 22 23  1  0
 23 24  1  1
 23 25  1  0
 23 26  1  0
 26 27  1  6
 27 28  1  0
 26 29  1  0
 29 30  1  1
 18 31  1  0
 31 32  1  1
 10 33  1  0
 33  5  1  0
 31 12  1  0
 29 20  1  0
M  END
>  <supplier_code>  (667) 
DB00798

>  <zinc_id>  (667) 
ZINC000242437514

>  <catalog_short_name>  (667) 
dbfda

$$$$

     RDKit          3D

 25 27  0  0  0  0  0  0  0  0999 V2000
    7.6754    1.5699   -0.7909 C   0  0  0  0  0  0  0  0  0  0  0  0
    7.9290    0.0702   -0.8910 C   0  0  0  0  0  0  0  0  0  0  0  0
    6.7268   -0.6176   -1.2163 O   0  0  0  0  0  0  0  0  0  0  0  0
    5.9029   -1.1908   -0.2544 C   0  0  0  0  0  0  0  0  0  0  0  0
    6.4133   -1.4705    0.8685 O   0  0  0  0  0  0  0  0  0  0  0  0
    4.4472   -0.9970   -0.2523 C   0  0  0  0  0  0  0  0  0  0  0  0
    3.9854    0.1201    0.4174 C   0  0  0  0  0  0  0  0  0  0  0  0
    2.7338    0.6301    0.1021 C   0  0  0  0  0  0  0  0  0  0  0  0
    1.9645    0.1204   -0.9336 C   0  0  0  0  0  0  0  0  0  0  0  0
    0.5287    0.2932   -0.9200 C   0  0  0  0  0  0  0  0  0  0  0  0
   -0.6427    0.1463   -0.6245 C   0  0  0  0  0  0  0  0  0  0  0  0
   -1.9307   -0.2113   -0.0735 C   0  0  0  0  0  0  0  0  0  0  0  0
   -1.9970   -0.8177    1.1746 C   0  0  0  0  0  0  0  0  0  0  0  0
   -3.2361   -0.9928    1.7724 C   0  0  0  0  0  0  0  0  0  0  0  0
   -4.3151   -0.3209    1.2627 C   0  0  0  0  0  0  0  0  0  0  0  0
   -4.2557    0.4650    0.1181 C   0  0  0  0  0  0  0  0  0  0  0  0
   -3.0331    0.4493   -0.5427 C   0  0  0  0  0  0  0  0  0  0  0  0
   -5.4286    0.8001   -0.7076 C   0  0  0  0  0  0  0  0  0  0  0  0
   -5.2523    2.1125   -1.4342 C   0  0  0  0  0  0  0  0  0  0  0  0
   -5.5449   -0.3001   -1.7575 C   0  0  0  0  0  0  0  0  0  0  0  0
   -6.7244    0.8344    0.0306 C   0  0  0  0  0  0  0  0  0  0  0  0
   -6.6272    1.3393    1.4415 C   0  0  0  0  0  0  0  0  0  0  0  0
   -5.6809    0.0782    2.3659 S   0  0  0  0  0  0  0  0  0  0  0  0
    2.5679   -0.8117   -1.7073 N   0  0  0  0  0  0  0  0  0  0  0  0
    3.7938   -1.2986   -1.4407 C   0  0  0  0  0  0  0  0  0  0  0  0
  1  2  1  0
  2  3  1  0
  3  4  1  0
  4  5  2  0
  4  6  1  0
  6  7  2  0
  7  8  1  0
  8  9  2  0
  9 10  1  0
 10 11  3  0
 11 12  1  0
 12 13  2  0
 13 14  1  0
 14 15  2  0
 15 16  1  0
 16 17  2  0
 16 18  1  0
 18 19  1  0
 18 20  1  0
 18 21  1  0
 21 22  1  0
 22 23  1  0
  9 24  1  0
 24 25  2  0
 25  6  1  0
 17 12  1  0
 23 15  1  0
M  END
>  <supplier_code>  (668) 
DB00799

>  <zinc_id>  (668) 
ZINC000001542199

>  <catalog_short_name>  (668) 
dbfda

$$$$

     RDKit          3D

 21 23  0  0  0  0  0  0  0  0999 V2000
    3.9406    2.4141   -0.4304 O   0  0  0  0  0  0  0  0  0  0  0  0
    3.4438    1.2375   -0.0120 C   0  0  0  0  0  0  0  0  0  0  0  0
    3.1867    0.9751    1.3291 C   0  0  0  0  0  0  0  0  0  0  0  0
    2.2611    0.0056    1.6988 C   0  0  0  0  0  0  0  0  0  0  0  0
    1.8452   -0.9074    0.7317 C   0  0  0  0  0  0  0  0  0  0  0  0
    0.3990   -1.5835    1.0937 C   0  0  2  0  0  0  0  0  0  0  0  0
    0.4422   -2.5781   -0.2513 C   0  0  0  0  0  0  0  0  0  0  0  0
   -0.9247   -3.0883   -0.3171 N   0  0  0  0  0  0  0  0  0  0  0  0
   -1.4209   -2.7285   -1.6436 C   0  0  0  0  0  0  0  0  0  0  0  0
   -0.9428   -1.3062   -1.8933 C   0  0  0  0  0  0  0  0  0  0  0  0
   -1.2977   -0.5263   -0.6637 C   0  0  0  0  0  0  0  0  0  0  0  0
   -2.0545    0.5963   -0.9824 C   0  0  0  0  0  0  0  0  0  0  0  0
   -2.5808    0.9095   -2.6216 Cl  0  0  0  0  0  0  0  0  0  0  0  0
   -2.3400    1.5113    0.0238 C   0  0  0  0  0  0  0  0  0  0  0  0
   -3.1359    2.6134   -0.1904 O   0  0  0  0  0  0  0  0  0  0  0  0
   -1.9472    1.2235    1.3250 C   0  0  0  0  0  0  0  0  0  0  0  0
   -2.7241    1.6762    2.3884 O   0  0  0  0  0  0  0  0  0  0  0  0
   -0.9278    0.2927    1.4826 C   0  0  0  0  0  0  0  0  0  0  0  0
   -0.4253   -0.3733    0.3667 C   0  0  0  0  0  0  0  0  0  0  0  0
    2.0261   -0.5411   -0.5645 C   0  0  0  0  0  0  0  0  0  0  0  0
    3.1770    0.1775   -0.8695 C   0  0  0  0  0  0  0  0  0  0  0  0
  1  2  1  0
  2  3  2  0
  3  4  1  0
  4  5  2  0
  6  5  1  6
  6  7  1  0
  7  8  1  0
  8  9  1  0
  9 10  1  0
 10 11  1  0
 11 12  2  0
 12 13  1  0
 12 14  1  0
 14 15  1  0
 14 16  2  0
 16 17  1  0
 16 18  1  0
 18 19  2  0
  5 20  1  0
 20 21  2  0
 21  2  1  0
 19  6  1  0
 19 11  1  0
M  END
>  <supplier_code>  (669) 
DB00800

>  <zinc_id>  (669) 
ZINC000022116608

>  <catalog_short_name>  (669) 
dbfda

$$$$

     RDKit          3D

 21 23  0  0  0  0  0  0  0  0999 V2000
    4.5120   -2.2996   -0.9915 O   0  0  0  0  0  0  0  0  0  0  0  0
    3.7896   -1.2239   -0.4722 C   0  0  0  0  0  0  0  0  0  0  0  0
    3.6710   -1.0726    0.9023 C   0  0  0  0  0  0  0  0  0  0  0  0
    2.5977   -0.3660    1.4327 C   0  0  0  0  0  0  0  0  0  0  0  0
    1.8634    0.3723    0.5429 C   0  0  0  0  0  0  0  0  0  0  0  0
    0.5515    1.0958    1.1883 C   0  0  1  0  0  0  0  0  0  0  0  0
    0.6600    2.3877    0.1359 C   0  0  0  0  0  0  0  0  0  0  0  0
   -0.2999    3.3072    0.7008 N   0  0  0  0  0  0  0  0  0  0  0  0
   -1.4644    3.3292   -0.1467 C   0  0  0  0  0  0  0  0  0  0  0  0
   -2.3556    2.1666    0.1728 C   0  0  0  0  0  0  0  0  0  0  0  0
   -1.7334    0.8542   -0.0563 C   0  0  0  0  0  0  0  0  0  0  0  0
   -2.6865    0.0080   -0.6079 C   0  0  0  0  0  0  0  0  0  0  0  0
   -3.8766    0.6538   -1.7321 Cl  0  0  0  0  0  0  0  0  0  0  0  0
   -2.5293   -1.3604   -0.4255 C   0  0  0  0  0  0  0  0  0  0  0  0
   -3.4201   -2.2374   -1.0066 O   0  0  0  0  0  0  0  0  0  0  0  0
   -1.5270   -1.8708    0.3900 C   0  0  0  0  0  0  0  0  0  0  0  0
   -1.8227   -2.9581    1.2162 O   0  0  0  0  0  0  0  0  0  0  0  0
   -0.4665   -1.0106    0.6439 C   0  0  0  0  0  0  0  0  0  0  0  0
   -0.4869    0.3073    0.1949 C   0  0  0  0  0  0  0  0  0  0  0  0
    1.9330    0.2580   -0.7961 C   0  0  0  0  0  0  0  0  0  0  0  0
    3.0906   -0.3408   -1.2860 C   0  0  0  0  0  0  0  0  0  0  0  0
  1  2  1  0
  2  3  2  0
  3  4  1  0
  4  5  2  0
  6  5  1  6
  6  7  1  0
  7  8  1  0
  8  9  1  0
  9 10  1  0
 10 11  1  0
 11 12  2  0
 12 13  1  0
 12 14  1  0
 14 15  1  0
 14 16  2  0
 16 17  1  0
 16 18  1  0
 18 19  2  0
  5 20  1  0
 20 21  2  0
 21  2  1  0
 19  6  1  0
 19 11  1  0
M  END
>  <supplier_code>  (670) 
DB00800

>  <zinc_id>  (670) 
ZINC000022116612

>  <catalog_short_name>  (670) 
dbfda

$$$$

     RDKit          3D

 30 32  0  0  0  0  0  0  0  0999 V2000
   -3.1366   -2.9100    0.9916 C   0  0  0  0  0  0  0  0  0  0  0  0
   -2.8064   -1.9480    2.0971 C   0  0  0  0  0  0  0  0  0  0  0  0
   -3.2530   -0.5688    1.8346 C   0  0  0  0  0  0  0  0  0  0  0  0
   -4.0727   -0.0523    2.6477 O   0  0  0  0  0  0  0  0  0  0  0  0
   -2.9914    0.1426    0.6313 N   0  0  0  0  0  0  0  0  0  0  0  0
   -4.1326    0.4284   -0.1867 C   0  0  0  0  0  0  0  0  0  0  0  0
   -4.9458   -0.6225   -0.5801 C   0  0  0  0  0  0  0  0  0  0  0  0
   -5.4892   -0.6767   -1.8581 C   0  0  0  0  0  0  0  0  0  0  0  0
   -5.4593    0.4777   -2.6302 C   0  0  0  0  0  0  0  0  0  0  0  0
   -4.9650    1.6384   -2.0514 C   0  0  0  0  0  0  0  0  0  0  0  0
   -4.3224    1.6274   -0.8199 C   0  0  0  0  0  0  0  0  0  0  0  0
   -1.6653    0.4389    0.1568 C   0  0  0  0  0  0  0  0  0  0  0  0
   -1.7381    0.8773   -1.2951 C   0  0  0  0  0  0  0  0  0  0  0  0
   -0.6864    0.3847   -2.0477 O   0  0  0  0  0  0  0  0  0  0  0  0
   -1.1056   -0.7879   -2.6898 C   0  0  0  0  0  0  0  0  0  0  0  0
   -1.0247    1.5682    0.9498 C   0  0  0  0  0  0  0  0  0  0  0  0
    0.4492    1.5661    0.5615 C   0  0  0  0  0  0  0  0  0  0  0  0
    1.1521    0.4562    1.1668 N   0  0  0  0  0  0  0  0  0  0  0  0
    2.0711   -0.1925    0.2675 C   0  0  0  0  0  0  0  0  0  0  0  0
    2.8223    0.7679   -0.6142 C   0  0  0  0  0  0  0  0  0  0  0  0
    4.1646    0.2254   -0.8054 N   0  0  0  0  0  0  0  0  0  0  0  0
    4.6624   -0.4027   -1.8577 N   0  0  0  0  0  0  0  0  0  0  0  0
    5.8749   -0.8325   -1.5437 N   0  0  0  0  0  0  0  0  0  0  0  0
    6.1194   -0.5864   -0.2574 N   0  0  0  0  0  0  0  0  0  0  0  0
    7.4274   -0.4162    0.3642 C   0  0  0  0  0  0  0  0  0  0  0  0
    8.0596    0.9054   -0.0562 C   0  0  0  0  0  0  0  0  0  0  0  0
    4.9177   -0.2024    0.2365 C   0  0  0  0  0  0  0  0  0  0  0  0
    4.6602   -0.0194    1.4539 O   0  0  0  0  0  0  0  0  0  0  0  0
    0.1380   -0.5335    1.5232 C   0  0  0  0  0  0  0  0  0  0  0  0
   -0.7244   -0.7528    0.2863 C   0  0  0  0  0  0  0  0  0  0  0  0
  1  2  1  0
  2  3  1  0
  3  4  2  0
  3  5  1  0
  5  6  1  0
  6  7  2  0
  7  8  1  0
  8  9  2  0
  9 10  1  0
 10 11  2  0
  5 12  1  0
 12 13  1  0
 13 14  1  0
 14 15  1  0
 12 16  1  0
 16 17  1  0
 17 18  1  0
 18 19  1  0
 19 20  1  0
 20 21  1  0
 21 22  1  0
 22 23  2  0
 23 24  1  0
 24 25  1  0
 25 26  1  0
 24 27  1  0
 27 28  2  0
 18 29  1  0
 29 30  1  0
 11  6  1  0
 30 12  1  0
 27 21  1  0
M  END
>  <supplier_code>  (671) 
DB00802

>  <zinc_id>  (671) 
ZINC000000601281

>  <catalog_short_name>  (671) 
dbfda

$$$$

     RDKit          3D

 22 23  0  0  0  0  0  0  0  0999 V2000
    3.7911   -2.1133    1.5195 C   0  0  0  0  0  0  0  0  0  0  0  0
    3.9454   -0.6090    1.6055 C   0  0  0  0  0  0  0  0  0  0  0  0
    3.7207   -0.0011    0.2969 N   0  0  0  0  0  0  0  0  0  0  0  0
    5.0056    0.4225   -0.2009 C   0  0  0  0  0  0  0  0  0  0  0  0
    6.0086   -0.7229   -0.2533 C   0  0  0  0  0  0  0  0  0  0  0  0
    3.0885   -0.9870   -0.5467 C   0  0  0  0  0  0  0  0  0  0  0  0
    1.8373   -0.4611   -1.1954 C   0  0  0  0  0  0  0  0  0  0  0  0
    0.7340   -0.4235   -0.2966 O   0  0  0  0  0  0  0  0  0  0  0  0
   -0.0609    0.7007   -0.3436 C   0  0  0  0  0  0  0  0  0  0  0  0
    0.4871    1.7872   -0.7006 O   0  0  0  0  0  0  0  0  0  0  0  0
   -1.4986    0.7446   -0.0468 C   0  0  0  0  0  0  0  0  0  0  0  0
   -2.1917   -0.5776   -0.1414 C   0  0  0  0  0  0  0  0  0  0  0  0
   -1.3977   -1.7350    0.3844 C   0  0  0  0  0  0  0  0  0  0  0  0
   -2.1822   -2.9855   -0.0011 C   0  0  0  0  0  0  0  0  0  0  0  0
   -3.5538   -2.9196    0.6490 C   0  0  0  0  0  0  0  0  0  0  0  0
   -4.3174   -1.6818    0.2637 C   0  0  0  0  0  0  0  0  0  0  0  0
   -3.4881   -0.4700    0.6395 C   0  0  0  0  0  0  0  0  0  0  0  0
   -1.8093    1.3195    1.3222 C   0  0  0  0  0  0  0  0  0  0  0  0
   -1.1654    2.6764    1.3962 C   0  0  0  0  0  0  0  0  0  0  0  0
   -1.9188    3.5906    0.4389 C   0  0  0  0  0  0  0  0  0  0  0  0
   -2.8816    2.8034   -0.4370 C   0  0  0  0  0  0  0  0  0  0  0  0
   -2.1527    1.6423   -1.0933 C   0  0  0  0  0  0  0  0  0  0  0  0
  1  2  1  0
  2  3  1  0
  3  4  1  0
  4  5  1  0
  3  6  1  0
  6  7  1  0
  7  8  1  0
  8  9  1  0
  9 10  2  0
  9 11  1  0
 11 12  1  0
 12 13  1  0
 13 14  1  0
 14 15  1  0
 15 16  1  0
 16 17  1  0
 11 18  1  0
 18 19  1  0
 19 20  1  0
 20 21  1  0
 21 22  1  0
 22 11  1  0
 17 12  1  0
M  END
>  <supplier_code>  (672) 
DB00804

>  <zinc_id>  (672) 
ZINC000001530613

>  <catalog_short_name>  (672) 
dbfda

$$$$

     RDKit          3D

 20 21  0  0  0  0  0  0  0  0999 V2000
    6.7453    0.3329   -0.5610 C   0  0  0  0  0  0  0  0  0  0  0  0
    5.3448   -0.0284   -0.2484 C   0  0  0  0  0  0  0  0  0  0  0  0
    4.7003   -0.6218   -1.0995 O   0  0  0  0  0  0  0  0  0  0  0  0
    4.5554    0.6207    0.8463 C   0  0  0  0  0  0  0  0  0  0  0  0
    3.3131    1.2032    0.1848 C   0  0  0  0  0  0  0  0  0  0  0  0
    2.1392    0.2611    0.4280 C   0  0  0  0  0  0  0  0  0  0  0  0
    0.9034    1.1115    0.4088 C   0  0  0  0  0  0  0  0  0  0  0  0
   -0.3123    0.3759    0.6149 N   0  0  0  0  0  0  0  0  0  0  0  0
   -1.4760    1.0201    0.3666 C   0  0  0  0  0  0  0  0  0  0  0  0
   -1.4808    2.2884    0.3631 O   0  0  0  0  0  0  0  0  0  0  0  0
   -2.5925    0.3252   -0.0822 C   0  0  0  0  0  0  0  0  0  0  0  0
   -2.6199   -1.0254    0.1506 C   0  0  0  0  0  0  0  0  0  0  0  0
   -3.9093   -1.3874    0.0068 N   0  0  0  0  0  0  0  0  0  0  0  0
   -4.5622   -0.3606   -0.5908 C   0  0  0  0  0  0  0  0  0  0  0  0
   -3.8118    0.7435   -0.4746 N   0  0  0  0  0  0  0  0  0  0  0  0
   -4.0504    2.0912   -0.9568 C   0  0  0  0  0  0  0  0  0  0  0  0
   -1.4997   -1.6050    0.6207 N   0  0  0  0  0  0  0  0  0  0  0  0
   -1.6450   -2.9748    1.1017 C   0  0  0  0  0  0  0  0  0  0  0  0
   -0.4034   -0.8984    0.9831 C   0  0  0  0  0  0  0  0  0  0  0  0
    0.6619   -1.4717    1.3630 O   0  0  0  0  0  0  0  0  0  0  0  0
  1  2  1  0
  2  3  2  0
  2  4  1  0
  4  5  1  0
  5  6  1  0
  6  7  1  0
  7  8  1  0
  8  9  1  0
  9 10  2  0
  9 11  1  0
 11 12  2  0
 12 13  1  0
 13 14  2  0
 14 15  1  0
 15 16  1  0
 12 17  1  0
 17 18  1  0
 17 19  1  0
 19 20  2  0
 19  8  1  0
 15 11  1  0
M  END
>  <supplier_code>  (673) 
DB00806

>  <zinc_id>  (673) 
ZINC000001530776

>  <catalog_short_name>  (673) 
dbfda

$$$$

     RDKit          3D

 21 21  0  0  0  0  0  0  0  0999 V2000
    5.4700    2.5040    0.0696 C   0  0  0  0  0  0  0  0  0  0  0  0
    4.6277    1.3174    0.4931 C   0  0  0  0  0  0  0  0  0  0  0  0
    5.3597    0.0384    0.1220 C   0  0  0  0  0  0  0  0  0  0  0  0
    4.6251   -1.0894    0.5260 O   0  0  0  0  0  0  0  0  0  0  0  0
    3.2784   -1.1721    0.2012 C   0  0  0  0  0  0  0  0  0  0  0  0
    2.6961   -0.2857   -0.6967 C   0  0  0  0  0  0  0  0  0  0  0  0
    1.3254   -0.1910   -0.7975 C   0  0  0  0  0  0  0  0  0  0  0  0
    0.5710   -0.6338    0.2790 C   0  0  0  0  0  0  0  0  0  0  0  0
   -0.8143   -0.2016    0.3389 C   0  0  0  0  0  0  0  0  0  0  0  0
   -1.7653   -0.9925    0.1145 O   0  0  0  0  0  0  0  0  0  0  0  0
   -1.0637    1.1487    0.5099 O   0  0  0  0  0  0  0  0  0  0  0  0
   -2.3756    1.6767    0.3978 C   0  0  0  0  0  0  0  0  0  0  0  0
   -3.1837    0.9694   -0.6559 C   0  0  0  0  0  0  0  0  0  0  0  0
   -4.4432    0.5229   -0.1192 N   0  0  0  0  0  0  0  0  0  0  0  0
   -5.0808    1.4892    0.7378 C   0  0  0  0  0  0  0  0  0  0  0  0
   -4.7979    2.9163    0.3400 C   0  0  0  0  0  0  0  0  0  0  0  0
   -5.3128    0.0183   -1.1498 C   0  0  0  0  0  0  0  0  0  0  0  0
   -5.6554   -1.4144   -0.7863 C   0  0  0  0  0  0  0  0  0  0  0  0
    1.1171   -1.5695    1.1179 C   0  0  0  0  0  0  0  0  0  0  0  0
    2.4500   -1.9073    1.0240 C   0  0  0  0  0  0  0  0  0  0  0  0
    2.9723   -3.1440    1.5103 N   0  0  0  0  0  0  0  0  0  0  0  0
  1  2  1  0
  2  3  1  0
  3  4  1  0
  4  5  1  0
  5  6  2  0
  6  7  1  0
  7  8  2  0
  8  9  1  0
  9 10  2  0
  9 11  1  0
 11 12  1  0
 12 13  1  0
 13 14  1  0
 14 15  1  0
 15 16  1  0
 14 17  1  0
 17 18  1  0
  8 19  1  0
 19 20  2  0
 20 21  1  0
 20  5  1  0
M  END
>  <supplier_code>  (674) 
DB00807

>  <zinc_id>  (674) 
ZINC000001530762

>  <catalog_short_name>  (674) 
dbfda

$$$$

     RDKit          3D

 24 26  0  0  0  0  0  0  0  0999 V2000
    1.9506    2.1834   -1.1217 C   0  0  0  0  0  0  0  0  0  0  0  0
    2.8133    0.8038   -1.5008 C   0  0  1  0  0  0  0  0  0  0  0  0
    4.1875    1.4126   -0.7732 C   0  0  0  0  0  0  0  0  0  0  0  0
    4.6266    0.1813   -0.0698 C   0  0  0  0  0  0  0  0  0  0  0  0
    5.9119   -0.1979    0.2972 C   0  0  0  0  0  0  0  0  0  0  0  0
    6.1462   -1.5468    0.5242 C   0  0  0  0  0  0  0  0  0  0  0  0
    5.1012   -2.4542    0.6489 C   0  0  0  0  0  0  0  0  0  0  0  0
    3.8100   -1.9396    0.6055 C   0  0  0  0  0  0  0  0  0  0  0  0
    3.5536   -0.6438    0.1745 C   0  0  0  0  0  0  0  0  0  0  0  0
    2.3695    0.1021   -0.1325 N   0  0  0  0  0  0  0  0  0  0  0  0
    1.0579   -0.3691   -0.0374 N   0  0  0  0  0  0  0  0  0  0  0  0
    0.0495    0.2615    0.7557 C   0  0  0  0  0  0  0  0  0  0  0  0
    0.4475    0.8258    1.8004 O   0  0  0  0  0  0  0  0  0  0  0  0
   -1.2758    0.5928    0.2537 C   0  0  0  0  0  0  0  0  0  0  0  0
   -1.7128    1.9088    0.1536 C   0  0  0  0  0  0  0  0  0  0  0  0
   -3.0380    2.2550    0.0848 C   0  0  0  0  0  0  0  0  0  0  0  0
   -3.9768    1.2902    0.4060 C   0  0  0  0  0  0  0  0  0  0  0  0
   -5.5015    1.6605    1.1735 Cl  0  0  0  0  0  0  0  0  0  0  0  0
   -3.5966   -0.0319    0.2085 C   0  0  0  0  0  0  0  0  0  0  0  0
   -4.8403   -1.2395    0.0401 S   0  0  0  0  0  0  0  0  0  0  0  0
   -6.3611   -0.4756   -0.3095 N   0  0  0  0  0  0  0  0  0  0  0  0
   -4.9311   -1.9798    1.3555 O   0  0  0  0  0  0  0  0  0  0  0  0
   -4.5213   -2.2291   -1.0316 O   0  0  0  0  0  0  0  0  0  0  0  0
   -2.2700   -0.3702    0.1590 C   0  0  0  0  0  0  0  0  0  0  0  0
  2  1  1  1
  2  3  1  0
  3  4  1  0
  4  5  2  0
  5  6  1  0
  6  7  2  0
  7  8  1  0
  8  9  2  0
  9 10  1  0
 10 11  1  0
 11 12  1  0
 12 13  2  0
 12 14  1  0
 14 15  2  0
 15 16  1  0
 16 17  2  0
 17 18  1  0
 17 19  1  0
 19 20  1  0
 20 21  1  0
 20 22  2  0
 20 23  2  0
 19 24  2  0
 10  2  1  0
 24 14  1  0
  9  4  1  0
M  END
>  <supplier_code>  (675) 
DB00808

>  <zinc_id>  (675) 
ZINC000000601305

>  <catalog_short_name>  (675) 
dbfda

$$$$

     RDKit          3D

 24 26  0  0  0  0  0  0  0  0999 V2000
   -4.2195   -2.0051   -1.0328 C   0  0  0  0  0  0  0  0  0  0  0  0
   -3.2020   -1.9893    0.2646 C   0  0  2  0  0  0  0  0  0  0  0  0
   -4.0885   -0.8408    1.0442 C   0  0  0  0  0  0  0  0  0  0  0  0
   -4.2771    0.1243   -0.0673 C   0  0  0  0  0  0  0  0  0  0  0  0
   -5.1841    1.1057   -0.3331 C   0  0  0  0  0  0  0  0  0  0  0  0
   -4.8456    2.1531   -1.1681 C   0  0  0  0  0  0  0  0  0  0  0  0
   -3.5014    2.4936   -1.2606 C   0  0  0  0  0  0  0  0  0  0  0  0
   -2.6177    1.4256   -1.1706 C   0  0  0  0  0  0  0  0  0  0  0  0
   -3.0391    0.2082   -0.6442 C   0  0  0  0  0  0  0  0  0  0  0  0
   -2.2555   -0.9202   -0.3999 N   0  0  0  0  0  0  0  0  0  0  0  0
   -0.8984   -1.1806   -0.5645 N   0  0  0  0  0  0  0  0  0  0  0  0
   -0.0900   -1.1618    0.6134 C   0  0  0  0  0  0  0  0  0  0  0  0
   -0.6269   -1.2320    1.7369 O   0  0  0  0  0  0  0  0  0  0  0  0
    1.3452   -1.0233    0.4882 C   0  0  0  0  0  0  0  0  0  0  0  0
    2.1161   -2.1541    0.6707 C   0  0  0  0  0  0  0  0  0  0  0  0
    3.4476   -2.0637    0.3751 C   0  0  0  0  0  0  0  0  0  0  0  0
    3.9751   -0.9077   -0.1620 C   0  0  0  0  0  0  0  0  0  0  0  0
    5.6023   -0.9081   -0.8270 Cl  0  0  0  0  0  0  0  0  0  0  0  0
    3.2415    0.2624   -0.1657 C   0  0  0  0  0  0  0  0  0  0  0  0
    4.0837    1.7724   -0.4472 S   0  0  0  0  0  0  0  0  0  0  0  0
    5.5392    1.8172    0.4714 N   0  0  0  0  0  0  0  0  0  0  0  0
    4.3582    1.9213   -1.9190 O   0  0  0  0  0  0  0  0  0  0  0  0
    3.1869    2.8938    0.0261 O   0  0  0  0  0  0  0  0  0  0  0  0
    1.9500    0.2092    0.2999 C   0  0  0  0  0  0  0  0  0  0  0  0
  2  1  1  6
  2  3  1  0
  3  4  1  0
  4  5  2  0
  5  6  1  0
  6  7  2  0
  7  8  1  0
  8  9  2  0
  9 10  1  0
 10 11  1  0
 11 12  1  0
 12 13  2  0
 12 14  1  0
 14 15  2  0
 15 16  1  0
 16 17  2  0
 17 18  1  0
 17 19  1  0
 19 20  1  0
 20 21  1  0
 20 22  2  0
 20 23  2  0
 19 24  2  0
 10  2  1  0
 24 14  1  0
  9  4  1  0
M  END
>  <supplier_code>  (676) 
DB00808

>  <zinc_id>  (676) 
ZINC000000643114

>  <catalog_short_name>  (676) 
dbfda

$$$$

     RDKit          3D

 21 22  0  0  0  0  0  0  0  0999 V2000
    1.9961    2.7072   -0.8356 C   0  0  0  0  0  0  0  0  0  0  0  0
    1.7910    1.9918   -0.8950 C   0  0  0  0  0  0  0  0  0  0  0  0
    0.8865    1.1634   -0.1008 N   0  0  0  0  0  0  0  0  0  0  0  0
    1.4139    0.3266    0.9534 C   0  0  0  0  0  0  0  0  0  0  0  0
    2.5916   -0.4404    0.4720 C   0  0  0  0  0  0  0  0  0  0  0  0
    2.6356   -0.7881   -0.8665 C   0  0  0  0  0  0  0  0  0  0  0  0
    3.4840   -1.8048   -1.2816 C   0  0  0  0  0  0  0  0  0  0  0  0
    3.9039   -2.6905   -0.3491 N   0  0  0  0  0  0  0  0  0  0  0  0
    4.0148   -2.3042    0.9453 C   0  0  0  0  0  0  0  0  0  0  0  0
    3.4365   -1.1068    1.3182 C   0  0  0  0  0  0  0  0  0  0  0  0
   -0.4851    1.5070   -0.1970 C   0  0  0  0  0  0  0  0  0  0  0  0
   -1.0054    1.8237   -1.2480 O   0  0  0  0  0  0  0  0  0  0  0  0
   -1.3698    1.2307    1.1117 C   0  0  1  0  0  0  0  0  0  0  0  0
   -2.3986    2.4702    0.8305 C   0  0  0  0  0  0  0  0  0  0  0  0
   -3.1009    2.2693   -0.3009 O   0  0  0  0  0  0  0  0  0  0  0  0
   -2.2793    0.1189    0.3777 C   0  0  0  0  0  0  0  0  0  0  0  0
   -1.6351   -1.1041    0.5640 C   0  0  0  0  0  0  0  0  0  0  0  0
   -2.2924   -2.2552    0.2219 C   0  0  0  0  0  0  0  0  0  0  0  0
   -3.6637   -2.1707    0.0163 C   0  0  0  0  0  0  0  0  0  0  0  0
   -4.3306   -1.0123    0.3950 C   0  0  0  0  0  0  0  0  0  0  0  0
   -3.5927    0.0684    0.8448 C   0  0  0  0  0  0  0  0  0  0  0  0
  1  2  1  0
  2  3  1  0
  3  4  1  0
  4  5  1  0
  5  6  2  0
  6  7  1  0
  7  8  2  0
  8  9  1  0
  9 10  2  0
  3 11  1  0
 11 12  2  0
 13 11  1  6
 13 14  1  0
 14 15  1  0
 13 16  1  0
 16 17  2  0
 17 18  1  0
 18 19  2  0
 19 20  1  0
 20 21  2  0
 10  5  1  0
 21 16  1  0
M  END
>  <supplier_code>  (677) 
DB00809

>  <zinc_id>  (677) 
ZINC000000057532

>  <catalog_short_name>  (677) 
dbfda

$$$$

     RDKit          3D

 21 22  0  0  0  0  0  0  0  0999 V2000
    0.8561   -3.5939   -0.1821 C   0  0  0  0  0  0  0  0  0  0  0  0
    0.9141   -2.3255    0.6562 C   0  0  0  0  0  0  0  0  0  0  0  0
    0.6656   -1.1825   -0.2181 N   0  0  0  0  0  0  0  0  0  0  0  0
    1.7219   -0.8600   -1.1520 C   0  0  0  0  0  0  0  0  0  0  0  0
    2.6133    0.1758   -0.5470 C   0  0  0  0  0  0  0  0  0  0  0  0
    2.6872    0.3993    0.8143 C   0  0  0  0  0  0  0  0  0  0  0  0
    3.9600    0.5074    1.3639 C   0  0  0  0  0  0  0  0  0  0  0  0
    4.9181    1.1087    0.6210 N   0  0  0  0  0  0  0  0  0  0  0  0
    4.7993    1.0884   -0.7219 C   0  0  0  0  0  0  0  0  0  0  0  0
    3.6478    0.6392   -1.3444 C   0  0  0  0  0  0  0  0  0  0  0  0
   -0.6809   -0.9309   -0.6199 C   0  0  0  0  0  0  0  0  0  0  0  0
   -0.9280   -0.3190   -1.6457 O   0  0  0  0  0  0  0  0  0  0  0  0
   -1.7073   -0.9207    0.6146 C   0  0  2  0  0  0  0  0  0  0  0  0
   -2.8562   -1.8217   -0.1200 C   0  0  0  0  0  0  0  0  0  0  0  0
   -2.6705   -1.9057   -1.4368 O   0  0  0  0  0  0  0  0  0  0  0  0
   -2.3790    0.4897    0.2168 C   0  0  0  0  0  0  0  0  0  0  0  0
   -1.6646    1.4696    0.9045 C   0  0  0  0  0  0  0  0  0  0  0  0
   -2.2872    2.6471    1.2940 C   0  0  0  0  0  0  0  0  0  0  0  0
   -3.6023    2.8634    0.9212 C   0  0  0  0  0  0  0  0  0  0  0  0
   -4.2756    1.8734    0.2563 C   0  0  0  0  0  0  0  0  0  0  0  0
   -3.7320    0.5980    0.3253 C   0  0  0  0  0  0  0  0  0  0  0  0
  1  2  1  0
  2  3  1  0
  3  4  1  0
  4  5  1  0
  5  6  2  0
  6  7  1  0
  7  8  2  0
  8  9  1  0
  9 10  2  0
  3 11  1  0
 11 12  2  0
 13 11  1  6
 13 14  1  0
 14 15  1  0
 13 16  1  0
 16 17  2  0
 17 18  1  0
 18 19  2  0
 19 20  1  0
 20 21  2  0
 10  5  1  0
 21 16  1  0
M  END
>  <supplier_code>  (678) 
DB00809

>  <zinc_id>  (678) 
ZINC000000057533

>  <catalog_short_name>  (678) 
dbfda

$$$$

     RDKit          3D

 17 18  0  0  0  0  0  0  0  0999 V2000
    4.2610    0.8477    0.6603 N   0  0  0  0  0  0  0  0  0  0  0  0
    3.9619   -0.3919    0.0200 C   0  0  0  0  0  0  0  0  0  0  0  0
    4.8107   -1.3298   -0.0617 O   0  0  0  0  0  0  0  0  0  0  0  0
    2.5909   -0.7562   -0.3662 C   0  0  0  0  0  0  0  0  0  0  0  0
    1.9458   -0.4638   -1.5226 N   0  0  0  0  0  0  0  0  0  0  0  0
    0.6797   -0.1542   -1.1402 C   0  0  0  0  0  0  0  0  0  0  0  0
    0.4749   -0.9138   -0.0828 N   0  0  0  0  0  0  0  0  0  0  0  0
   -0.8329   -0.7114    0.8547 C   0  0  2  0  0  0  0  0  0  0  0  0
   -1.7724   -0.6977   -0.3613 O   0  0  0  0  0  0  0  0  0  0  0  0
   -2.8058    0.1408    0.4052 C   0  0  2  0  0  0  0  0  0  0  0  0
   -3.7766    0.2285   -0.9593 C   0  0  0  0  0  0  0  0  0  0  0  0
   -4.6936   -0.8008   -0.7838 O   0  0  0  0  0  0  0  0  0  0  0  0
   -1.8047    1.4121   -0.2427 C   0  0  1  0  0  0  0  0  0  0  0  0
   -2.4906    2.4954    0.5789 O   0  0  0  0  0  0  0  0  0  0  0  0
   -0.6164    1.0302    0.9376 C   0  0  1  0  0  0  0  0  0  0  0  0
   -1.5719    1.0798    2.1190 O   0  0  0  0  0  0  0  0  0  0  0  0
    1.6400   -1.0148    0.5333 N   0  0  0  0  0  0  0  0  0  0  0  0
  1  2  1  0
  2  3  2  0
  2  4  1  0
  4  5  1  0
  5  6  2  0
  6  7  1  0
  8  7  1  6
  8  9  1  0
  9 10  1  0
 10 11  1  6
 11 12  1  0
 10 13  1  0
 13 14  1  1
 13 15  1  0
 15 16  1  1
  7 17  1  0
 17  4  2  0
 15  8  1  0
M  END
>  <supplier_code>  (679) 
DB00811

>  <zinc_id>  (679) 
ZINC000001035331

>  <catalog_short_name>  (679) 
dbfda

$$$$

     RDKit          3D

 25 27  0  0  0  0  0  0  0  0999 V2000
   -3.2357    3.2039    2.6742 C   0  0  0  0  0  0  0  0  0  0  0  0
   -3.0076    2.8153    1.2209 C   0  0  0  0  0  0  0  0  0  0  0  0
   -3.3632    1.3851    1.0077 C   0  0  0  0  0  0  0  0  0  0  0  0
   -3.8384    0.6868    1.9346 O   0  0  0  0  0  0  0  0  0  0  0  0
   -2.6213    0.6925   -0.0021 N   0  0  0  0  0  0  0  0  0  0  0  0
   -3.2577   -0.4253   -0.6323 C   0  0  0  0  0  0  0  0  0  0  0  0
   -4.1510   -1.1841    0.1128 C   0  0  0  0  0  0  0  0  0  0  0  0
   -4.2185   -2.5620   -0.0520 C   0  0  0  0  0  0  0  0  0  0  0  0
   -3.5849   -3.1545   -1.1291 C   0  0  0  0  0  0  0  0  0  0  0  0
   -3.0655   -2.3030   -2.0886 C   0  0  0  0  0  0  0  0  0  0  0  0
   -2.7793   -0.9828   -1.7979 C   0  0  0  0  0  0  0  0  0  0  0  0
   -1.1817    0.8158    0.0475 C   0  0  0  0  0  0  0  0  0  0  0  0
   -0.5090   -0.5111    0.3262 C   0  0  0  0  0  0  0  0  0  0  0  0
    0.6134   -0.6598   -0.6589 C   0  0  0  0  0  0  0  0  0  0  0  0
    1.4447    0.5165   -0.6425 N   0  0  0  0  0  0  0  0  0  0  0  0
    2.5263    0.2716   -1.5946 C   0  0  0  0  0  0  0  0  0  0  0  0
    3.7060    1.0743   -1.1244 C   0  0  0  0  0  0  0  0  0  0  0  0
    4.2731    0.4980    0.1347 C   0  0  0  0  0  0  0  0  0  0  0  0
    5.6427    0.6628    0.2980 C   0  0  0  0  0  0  0  0  0  0  0  0
    6.4200   -0.2247    1.0012 C   0  0  0  0  0  0  0  0  0  0  0  0
    5.9041   -1.4813    1.2847 C   0  0  0  0  0  0  0  0  0  0  0  0
    4.5182   -1.5719    1.3280 C   0  0  0  0  0  0  0  0  0  0  0  0
    3.7119   -0.5829    0.7792 C   0  0  0  0  0  0  0  0  0  0  0  0
    0.7533    1.7004   -1.1323 C   0  0  0  0  0  0  0  0  0  0  0  0
   -0.6999    1.3202   -1.2951 C   0  0  0  0  0  0  0  0  0  0  0  0
  1  2  1  0
  2  3  1  0
  3  4  2  0
  3  5  1  0
  5  6  1  0
  6  7  2  0
  7  8  1  0
  8  9  2  0
  9 10  1  0
 10 11  2  0
  5 12  1  0
 12 13  1  0
 13 14  1  0
 14 15  1  0
 15 16  1  0
 16 17  1  0
 17 18  1  0
 18 19  2  0
 19 20  1  0
 20 21  2  0
 21 22  1  0
 22 23  2  0
 15 24  1  0
 24 25  1  0
 11  6  1  0
 25 12  1  0
 23 18  1  0
M  END
>  <supplier_code>  (680) 
DB00813

>  <zinc_id>  (680) 
ZINC000002522669

>  <catalog_short_name>  (680) 
dbfda

$$$$

     RDKit          3D

 23 25  0  0  0  0  0  0  0  0999 V2000
    7.3050    0.7759    0.2011 C   0  0  0  0  0  0  0  0  0  0  0  0
    5.8688    0.4895   -0.0502 C   0  0  0  0  0  0  0  0  0  0  0  0
    4.9517    1.2067   -0.8092 C   0  0  0  0  0  0  0  0  0  0  0  0
    3.7263    1.1442   -0.3019 N   0  0  0  0  0  0  0  0  0  0  0  0
    3.3453   -0.1306   -0.0393 C   0  0  0  0  0  0  0  0  0  0  0  0
    2.0544   -0.7229   -0.1953 N   0  0  0  0  0  0  0  0  0  0  0  0
    0.9404   -0.0246    0.3392 C   0  0  0  0  0  0  0  0  0  0  0  0
    1.1611    0.8011    1.2756 O   0  0  0  0  0  0  0  0  0  0  0  0
   -0.3946   -0.1180   -0.2259 C   0  0  0  0  0  0  0  0  0  0  0  0
   -1.1769    0.9454   -0.4152 C   0  0  0  0  0  0  0  0  0  0  0  0
   -0.5636    2.2006   -0.3270 O   0  0  0  0  0  0  0  0  0  0  0  0
   -2.6334    0.8599   -0.2984 C   0  0  0  0  0  0  0  0  0  0  0  0
   -3.3763    1.9869    0.0356 C   0  0  0  0  0  0  0  0  0  0  0  0
   -4.5110    1.8879    0.8325 C   0  0  0  0  0  0  0  0  0  0  0  0
   -4.8558    0.6785    1.4247 C   0  0  0  0  0  0  0  0  0  0  0  0
   -4.3092   -0.4652    0.8591 C   0  0  0  0  0  0  0  0  0  0  0  0
   -3.3018   -0.3391   -0.0895 C   0  0  0  0  0  0  0  0  0  0  0  0
   -2.5173   -1.7569   -0.7740 S   0  0  0  0  0  0  0  0  0  0  0  0
   -2.7755   -2.9847    0.0310 O   0  0  0  0  0  0  0  0  0  0  0  0
   -3.0309   -1.9287   -2.1791 O   0  0  0  0  0  0  0  0  0  0  0  0
   -0.8302   -1.3445   -0.7952 N   0  0  0  0  0  0  0  0  0  0  0  0
    0.0779   -2.3772   -1.1929 C   0  0  0  0  0  0  0  0  0  0  0  0
    4.8455   -0.7842    0.4795 S   0  0  0  0  0  0  0  0  0  0  0  0
  1  2  1  0
  2  3  2  0
  3  4  1  0
  4  5  2  0
  5  6  1  0
  6  7  1  0
  7  8  2  0
  7  9  1  0
  9 10  2  0
 10 11  1  0
 10 12  1  0
 12 13  2  0
 13 14  1  0
 14 15  2  0
 15 16  1  0
 16 17  2  0
 17 18  1  0
 18 19  2  0
 18 20  2  0
 18 21  1  0
 21 22  1  0
  5 23  1  0
 23  2  1  0
 21  9  1  0
 17 12  1  0
M  END
>  <supplier_code>  (681) 
DB00814

>  <zinc_id>  (681) 
ZINC000013129998

>  <catalog_short_name>  (681) 
dbfda

$$$$

     RDKit          3D

 17 16  0  0  0  0  0  0  0  0999 V2000
    7.3363    0.7719   -0.1646 C   0  0  0  0  0  0  0  0  0  0  0  0
    6.0760    0.7404   -1.0035 C   0  0  0  0  0  0  0  0  0  0  0  0
    4.9193    0.2011   -0.1973 C   0  0  0  0  0  0  0  0  0  0  0  0
    4.1108   -0.8248   -0.9412 C   0  0  0  0  0  0  0  0  0  0  0  0
    3.4491   -0.2383   -2.1688 C   0  0  0  0  0  0  0  0  0  0  0  0
    2.0217    0.1660   -1.9187 C   0  0  0  0  0  0  0  0  0  0  0  0
    1.7982    0.6183   -0.4919 C   0  0  0  0  0  0  0  0  0  0  0  0
    0.3406    0.3291   -0.1654 C   0  0  0  0  0  0  0  0  0  0  0  0
    0.0907    0.4989    1.3036 C   0  0  0  0  0  0  0  0  0  0  0  0
   -0.6686   -0.6781    1.8839 C   0  0  0  0  0  0  0  0  0  0  0  0
   -2.1512   -0.5633    1.6383 C   0  0  0  0  0  0  0  0  0  0  0  0
   -2.4612   -1.0875    0.2625 C   0  0  0  0  0  0  0  0  0  0  0  0
   -3.4877   -0.3416   -0.3030 O   0  0  0  0  0  0  0  0  0  0  0  0
   -4.9767   -0.6491    0.3779 S   0  0  0  0  0  0  0  0  0  0  0  0
   -5.6929   -1.7138   -0.4111 O   0  0  0  0  0  0  0  0  0  0  0  0
   -5.8333    0.5937    0.2931 O   0  0  0  0  0  0  0  0  0  0  0  0
   -4.8710   -1.0471    2.0062 O   0  0  0  0  0  0  0  0  0  0  0  0
  1  2  1  0
  2  3  1  0
  3  4  1  0
  4  5  1  0
  5  6  1  0
  6  7  1  0
  7  8  1  0
  8  9  1  0
  9 10  1  0
 10 11  1  0
 11 12  1  0
 12 13  1  0
 13 14  1  0
 14 15  2  0
 14 16  2  0
 14 17  1  0
M  END
>  <supplier_code>  (682) 
DB00815

>  <zinc_id>  (682) 
ZINC000001532179

>  <catalog_short_name>  (682) 
dbfda

$$$$

     RDKit          3D

 15 15  0  0  0  0  0  0  0  0999 V2000
    4.0699   -0.2142   -0.6795 C   0  0  0  0  0  0  0  0  0  0  0  0
    3.6505    1.0571   -0.1900 C   0  0  0  0  0  0  0  0  0  0  0  0
    4.1469    2.2844   -0.8450 C   0  0  0  0  0  0  0  0  0  0  0  0
    2.4093    1.1543    0.4887 N   0  0  0  0  0  0  0  0  0  0  0  0
    1.2428    1.0210   -0.3350 C   0  0  0  0  0  0  0  0  0  0  0  0
    1.0331   -0.6150   -0.5372 C   0  0  1  0  0  0  0  0  0  0  0  0
    1.1725   -0.8688    0.9664 O   0  0  0  0  0  0  0  0  0  0  0  0
   -0.5801   -0.5102   -0.3985 C   0  0  0  0  0  0  0  0  0  0  0  0
   -1.2134   -1.6745   -0.0610 C   0  0  0  0  0  0  0  0  0  0  0  0
   -2.5776   -1.5713    0.1882 C   0  0  0  0  0  0  0  0  0  0  0  0
   -3.1689   -2.5681    0.9568 O   0  0  0  0  0  0  0  0  0  0  0  0
   -3.2269   -0.3819   -0.1192 C   0  0  0  0  0  0  0  0  0  0  0  0
   -2.5642    0.6163   -0.8252 C   0  0  0  0  0  0  0  0  0  0  0  0
   -3.1706    1.8521   -0.8121 O   0  0  0  0  0  0  0  0  0  0  0  0
   -1.2231    0.4185   -1.1489 C   0  0  0  0  0  0  0  0  0  0  0  0
  1  2  1  0
  2  3  1  0
  2  4  1  0
  4  5  1  0
  6  5  1  1
  6  7  1  0
  6  8  1  0
  8  9  2  0
  9 10  1  0
 10 11  1  0
 10 12  2  0
 12 13  1  0
 13 14  1  0
 13 15  2  0
 15  8  1  0
M  END
>  <supplier_code>  (683) 
DB00816

>  <zinc_id>  (683) 
ZINC000000000469

>  <catalog_short_name>  (683) 
dbfda

$$$$

     RDKit          3D

 15 15  0  0  0  0  0  0  0  0999 V2000
    4.9181   -0.0066   -0.3619 C   0  0  0  0  0  0  0  0  0  0  0  0
    3.8531    0.7188    0.3668 C   0  0  0  0  0  0  0  0  0  0  0  0
    4.1725    2.2098    0.3388 C   0  0  0  0  0  0  0  0  0  0  0  0
    2.5592    0.6262   -0.2993 N   0  0  0  0  0  0  0  0  0  0  0  0
    1.4764    0.4501    0.6313 C   0  0  0  0  0  0  0  0  0  0  0  0
    0.8474   -1.0162    0.0793 C   0  0  2  0  0  0  0  0  0  0  0  0
    0.6614   -0.4527   -1.3569 O   0  0  0  0  0  0  0  0  0  0  0  0
   -0.6870   -0.6089    0.5342 C   0  0  0  0  0  0  0  0  0  0  0  0
   -1.5392   -1.7100    0.5562 C   0  0  0  0  0  0  0  0  0  0  0  0
   -2.8888   -1.4330    0.3699 C   0  0  0  0  0  0  0  0  0  0  0  0
   -3.7209   -2.4681   -0.0717 O   0  0  0  0  0  0  0  0  0  0  0  0
   -3.3133   -0.1178    0.2346 C   0  0  0  0  0  0  0  0  0  0  0  0
   -2.4267    0.9355    0.4194 C   0  0  0  0  0  0  0  0  0  0  0  0
   -2.8156    2.2457    0.1234 O   0  0  0  0  0  0  0  0  0  0  0  0
   -1.0965    0.6273    0.1704 C   0  0  0  0  0  0  0  0  0  0  0  0
  1  2  1  0
  2  3  1  0
  2  4  1  0
  4  5  1  0
  6  5  1  1
  6  7  1  0
  6  8  1  0
  8  9  2  0
  9 10  1  0
 10 11  1  0
 10 12  2  0
 12 13  1  0
 13 14  1  0
 13 15  2  0
 15  8  1  0
M  END
>  <supplier_code>  (684) 
DB00816

>  <zinc_id>  (684) 
ZINC000000002273

>  <catalog_short_name>  (684) 
dbfda

$$$$

     RDKit          3D

 13 13  0  0  0  0  0  0  0  0999 V2000
    2.4138   -1.6708   -0.7626 C   0  0  0  0  0  0  0  0  0  0  0  0
    2.5160   -0.2523   -0.2465 C   0  0  0  0  0  0  0  0  0  0  0  0
    3.0979   -0.2596    1.1555 C   0  0  0  0  0  0  0  0  0  0  0  0
    1.1896    0.4405   -0.2860 C   0  0  0  0  0  0  0  0  0  0  0  0
    1.2180    1.7614    0.1487 C   0  0  0  0  0  0  0  0  0  0  0  0
    0.0120    2.4174    0.1423 C   0  0  0  0  0  0  0  0  0  0  0  0
   -1.1460    1.7008    0.3064 C   0  0  0  0  0  0  0  0  0  0  0  0
   -1.2146    0.3456    0.0106 C   0  0  0  0  0  0  0  0  0  0  0  0
   -2.4809   -0.3750    0.2025 C   0  0  0  0  0  0  0  0  0  0  0  0
   -3.1789   -0.7475   -1.0690 C   0  0  0  0  0  0  0  0  0  0  0  0
   -2.4221   -1.4786    1.2097 C   0  0  0  0  0  0  0  0  0  0  0  0
   -0.0040   -0.2649   -0.2733 C   0  0  0  0  0  0  0  0  0  0  0  0
   -0.0008   -1.6170   -0.5383 O   0  0  0  0  0  0  0  0  0  0  0  0
  1  2  1  0
  2  3  1  0
  2  4  1  0
  4  5  2  0
  5  6  1  0
  6  7  2  0
  7  8  1  0
  8  9  1  0
  9 10  1  0
  9 11  1  0
  8 12  2  0
 12 13  1  0
 12  4  1  0
M  END
>  <supplier_code>  (685) 
DB00818

>  <zinc_id>  (685) 
ZINC000000968303

>  <catalog_short_name>  (685) 
dbfda

$$$$

     RDKit          3D

 13 13  0  0  0  0  0  0  0  0999 V2000
    4.4078    1.0994   -0.5288 C   0  0  0  0  0  0  0  0  0  0  0  0
    3.5330    0.1600    0.2194 C   0  0  0  0  0  0  0  0  0  0  0  0
    3.3739    0.3408    1.4473 O   0  0  0  0  0  0  0  0  0  0  0  0
    2.5772   -0.6899   -0.4044 N   0  0  0  0  0  0  0  0  0  0  0  0
    1.1940   -0.7006   -0.0284 C   0  0  0  0  0  0  0  0  0  0  0  0
    0.5869   -0.2410    1.0647 N   0  0  0  0  0  0  0  0  0  0  0  0
   -0.5140    0.4136    0.8338 N   0  0  0  0  0  0  0  0  0  0  0  0
   -1.3391   -0.1891   -0.0283 C   0  0  0  0  0  0  0  0  0  0  0  0
   -3.0374    0.1312   -0.3614 S   0  0  0  0  0  0  0  0  0  0  0  0
   -3.7266    0.8410    1.0346 N   0  0  0  0  0  0  0  0  0  0  0  0
   -3.6491   -1.2089   -0.6922 O   0  0  0  0  0  0  0  0  0  0  0  0
   -3.2259    1.0265   -1.5352 O   0  0  0  0  0  0  0  0  0  0  0  0
   -0.1807   -0.9831   -1.0212 S   0  0  0  0  0  0  0  0  0  0  0  0
  1  2  1  0
  2  3  2  0
  2  4  1  0
  4  5  1  0
  5  6  2  0
  6  7  1  0
  7  8  2  0
  8  9  1  0
  9 10  1  0
  9 11  2  0
  9 12  2  0
  8 13  1  0
 13  5  1  0
M  END
>  <supplier_code>  (686) 
DB00819

>  <zinc_id>  (686) 
ZINC000003813042

>  <catalog_short_name>  (686) 
dbfda

$$$$

     RDKit          3D

 29 34  0  0  0  0  0  0  0  0999 V2000
   -0.8420   -5.1382    1.9648 C   0  0  0  0  0  0  0  0  0  0  0  0
   -0.5832   -4.1978    0.8771 N   0  0  0  0  0  0  0  0  0  0  0  0
    0.8011   -3.7470    0.7256 C   0  0  0  0  0  0  0  0  0  0  0  0
    0.7758   -2.2783    0.6848 C   0  0  0  0  0  0  0  0  0  0  0  0
    1.4307   -1.5787    1.4835 O   0  0  0  0  0  0  0  0  0  0  0  0
   -0.3122   -1.4744    0.1991 N   0  0  0  0  0  0  0  0  0  0  0  0
   -1.3390   -2.3372   -0.6857 C   0  0  2  0  0  0  0  0  0  0  0  0
   -2.6170   -1.3010   -0.3783 C   0  0  0  0  0  0  0  0  0  0  0  0
   -2.0931    0.0360   -0.5743 C   0  0  0  0  0  0  0  0  0  0  0  0
   -2.8133    1.2103   -0.3908 C   0  0  0  0  0  0  0  0  0  0  0  0
   -3.9504    1.5579    0.3251 C   0  0  0  0  0  0  0  0  0  0  0  0
   -4.3563    2.8744    0.4761 C   0  0  0  0  0  0  0  0  0  0  0  0
   -3.7999    3.7803   -0.3996 C   0  0  0  0  0  0  0  0  0  0  0  0
   -2.6225    3.4795   -1.0753 C   0  0  0  0  0  0  0  0  0  0  0  0
   -2.0838    2.2004   -1.0433 C   0  0  0  0  0  0  0  0  0  0  0  0
   -1.0059    1.5963   -1.6069 N   0  0  0  0  0  0  0  0  0  0  0  0
   -0.8815    0.4801   -0.9008 C   0  0  0  0  0  0  0  0  0  0  0  0
    0.3312   -0.6185   -1.0151 C   0  0  1  0  0  0  0  0  0  0  0  0
    1.3813    0.2084   -0.0422 C   0  0  0  0  0  0  0  0  0  0  0  0
    1.1783    1.5865   -0.0316 C   0  0  0  0  0  0  0  0  0  0  0  0
    2.2120    2.4924    0.1777 C   0  0  0  0  0  0  0  0  0  0  0  0
    3.4962    2.0629   -0.1135 C   0  0  0  0  0  0  0  0  0  0  0  0
    3.7163    0.6933   -0.2108 C   0  0  0  0  0  0  0  0  0  0  0  0
    2.6194   -0.0218   -0.6724 C   0  0  0  0  0  0  0  0  0  0  0  0
    5.0082    0.4039    0.2205 O   0  0  0  0  0  0  0  0  0  0  0  0
    5.7090    1.6344    0.1812 C   0  0  0  0  0  0  0  0  0  0  0  0
    4.7571    2.6271   -0.1965 O   0  0  0  0  0  0  0  0  0  0  0  0
   -1.6886   -3.3310    0.5725 C   0  0  0  0  0  0  0  0  0  0  0  0
   -2.4279   -2.9003    1.4492 O   0  0  0  0  0  0  0  0  0  0  0  0
  1  2  1  0
  2  3  1  0
  3  4  1  0
  4  5  2  0
  4  6  1  0
  6  7  1  0
  7  8  1  1
  8  9  1  0
  9 10  1  0
 10 11  2  0
 11 12  1  0
 12 13  2  0
 13 14  1  0
 14 15  2  0
 15 16  1  0
 16 17  1  0
 17 18  1  0
 18 19  1  1
 19 20  2  0
 20 21  1  0
 21 22  2  0
 22 23  1  0
 23 24  2  0
 23 25  1  0
 25 26  1  0
 26 27  1  0
  7 28  1  0
 28 29  2  0
 28  2  1  0
 18  6  1  0
 24 19  1  0
 17  9  2  0
 27 22  1  0
 15 10  1  0
M  END
>  <supplier_code>  (687) 
DB00820

>  <zinc_id>  (687) 
ZINC000003993855

>  <catalog_short_name>  (687) 
dbfda

$$$$

     RDKit          3D

 16 15  0  0  0  0  0  0  0  0999 V2000
   -2.4342    0.8164    1.6074 C   0  0  0  0  0  0  0  0  0  0  0  0
   -3.5145   -0.2030    1.2679 C   0  0  0  0  0  0  0  0  0  0  0  0
   -3.3367   -0.4814   -0.1553 N   0  0  0  0  0  0  0  0  0  0  0  0
   -3.8726    0.4278   -1.1623 C   0  0  0  0  0  0  0  0  0  0  0  0
   -4.2579    1.7309   -0.4914 C   0  0  0  0  0  0  0  0  0  0  0  0
   -2.1449   -1.2002   -0.5013 C   0  0  0  0  0  0  0  0  0  0  0  0
   -2.3888   -2.7796   -0.8828 S   0  0  0  0  0  0  0  0  0  0  0  0
   -0.8885   -0.2637   -1.3751 S   0  0  0  0  0  0  0  0  0  0  0  0
    1.0219   -1.1235   -1.1582 S   0  0  0  0  0  0  0  0  0  0  0  0
    1.8757   -0.4573    0.2523 C   0  0  0  0  0  0  0  0  0  0  0  0
    2.2838   -1.5061    1.4476 S   0  0  0  0  0  0  0  0  0  0  0  0
    2.8211    0.5873   -0.0094 N   0  0  0  0  0  0  0  0  0  0  0  0
    4.1799    0.5499    0.5076 C   0  0  0  0  0  0  0  0  0  0  0  0
    4.8846   -0.6482   -0.0726 C   0  0  0  0  0  0  0  0  0  0  0  0
    2.5246    1.6604   -0.9547 C   0  0  0  0  0  0  0  0  0  0  0  0
    3.2466    2.8902   -0.4207 C   0  0  0  0  0  0  0  0  0  0  0  0
  1  2  1  0
  2  3  1  0
  3  4  1  0
  4  5  1  0
  3  6  1  0
  6  7  2  0
  6  8  1  0
  8  9  1  0
  9 10  1  0
 10 11  2  0
 10 12  1  0
 12 13  1  0
 13 14  1  0
 12 15  1  0
 15 16  1  0
M  END
>  <supplier_code>  (688) 
DB00822

>  <zinc_id>  (688) 
ZINC000001529266

>  <catalog_short_name>  (688) 
dbfda

$$$$

     RDKit          3D

 28 31  0  0  0  0  0  0  0  0999 V2000
   -4.2709   -1.9713   -2.1530 C   0  0  0  0  0  0  0  0  0  0  0  0
   -3.9782   -1.1642   -1.6243 C   0  0  0  0  0  0  0  0  0  0  0  0
   -3.5253   -0.0041   -0.8552 C   0  0  2  0  0  0  0  0  0  0  0  0
   -4.5824    0.6012   -0.1134 O   0  0  0  0  0  0  0  0  0  0  0  0
   -5.2752    0.0270    0.9043 C   0  0  0  0  0  0  0  0  0  0  0  0
   -5.9445    0.9043    1.8963 C   0  0  0  0  0  0  0  0  0  0  0  0
   -5.3996   -1.2110    0.8441 O   0  0  0  0  0  0  0  0  0  0  0  0
   -3.2338    1.1927   -1.7797 C   0  0  0  0  0  0  0  0  0  0  0  0
   -2.0708    1.8187   -0.9983 C   0  0  0  0  0  0  0  0  0  0  0  0
   -1.2927    0.4037   -1.1179 C   0  0  1  0  0  0  0  0  0  0  0  0
   -0.1801    0.7526    0.0904 C   0  0  2  0  0  0  0  0  0  0  0  0
    0.6809    1.6326   -0.9478 C   0  0  0  0  0  0  0  0  0  0  0  0
    1.6233    2.0540    0.1058 C   0  0  0  0  0  0  0  0  0  0  0  0
    2.1385    1.0144    0.9240 C   0  0  0  0  0  0  0  0  0  0  0  0
    3.3136    0.9959    1.5895 C   0  0  0  0  0  0  0  0  0  0  0  0
    4.6364    0.9627    0.6536 C   0  0  1  0  0  0  0  0  0  0  0  0
    5.0827   -0.4385    1.1073 O   0  0  0  0  0  0  0  0  0  0  0  0
    6.1677   -0.7769    0.2839 C   0  0  0  0  0  0  0  0  0  0  0  0
    7.0549   -1.9310    0.5667 C   0  0  0  0  0  0  0  0  0  0  0  0
    6.4141   -0.1998   -0.8170 O   0  0  0  0  0  0  0  0  0  0  0  0
    3.7833    0.3420   -0.6125 C   0  0  0  0  0  0  0  0  0  0  0  0
    3.0446   -0.8277   -0.2136 C   0  0  0  0  0  0  0  0  0  0  0  0
    1.8532   -0.5488    0.8611 C   0  0  2  0  0  0  0  0  0  0  0  0
    0.6596   -0.6263   -0.3332 C   0  0  1  0  0  0  0  0  0  0  0  0
   -0.3043   -1.5358    0.5848 C   0  0  0  0  0  0  0  0  0  0  0  0
   -1.6917   -1.5593    0.0328 C   0  0  0  0  0  0  0  0  0  0  0  0
   -2.3212   -0.2460   -0.0502 C   0  0  2  0  0  0  0  0  0  0  0  0
   -2.3821    0.5837    1.1715 C   0  0  0  0  0  0  0  0  0  0  0  0
  1  2  3  0
  3  2  1  6
  3  4  1  0
  4  5  1  0
  5  6  1  0
  5  7  2  0
  3  8  1  0
  8  9  1  0
 10  9  1  1
 10 11  1  0
 11 12  1  6
 12 13  1  0
 13 14  1  0
 14 15  2  0
 15 16  1  0
 16 17  1  1
 17 18  1  0
 18 19  1  0
 18 20  2  0
 16 21  1  0
 21 22  1  0
 23 22  1  6
 23 24  1  0
 24 25  1  1
 25 26  1  0
 26 27  1  0
 27 28  1  1
 27  3  1  0
 27 10  1  0
 24 11  1  0
 23 14  1  0
M  END
>  <supplier_code>  (689) 
DB00823

>  <zinc_id>  (689) 
ZINC000003876023

>  <catalog_short_name>  (689) 
dbfda

$$$$

     RDKit          3D

 11 11  0  0  0  0  0  0  0  0999 V2000
    2.6852    1.4196   -0.3543 C   0  0  0  0  0  0  0  0  0  0  0  0
    1.9127    0.2267   -0.3746 C   0  0  0  0  0  0  0  0  0  0  0  0
    2.3357   -1.0049    0.2564 C   0  0  0  0  0  0  0  0  0  0  0  0
    0.3601    0.5542   -0.1081 C   0  0  2  0  0  0  0  0  0  0  0  0
    0.3116   -0.2305    1.3016 C   0  0  0  0  0  0  0  0  0  0  0  0
   -0.9711    0.2020    1.7812 C   0  0  0  0  0  0  0  0  0  0  0  0
   -2.1803   -0.1559    0.7369 C   0  0  1  0  0  0  0  0  0  0  0  0
   -1.9643    1.1815   -0.1899 C   0  0  0  0  0  0  0  0  0  0  0  0
   -1.3956   -1.2770   -0.0910 C   0  0  0  0  0  0  0  0  0  0  0  0
   -0.1284   -0.8402   -0.9726 C   0  0  1  0  0  0  0  0  0  0  0  0
   -0.9655   -0.0757   -1.9855 O   0  0  0  0  0  0  0  0  0  0  0  0
  1  2  1  0
  2  3  1  0
  4  2  1  6
  4  5  1  0
  5  6  1  0
  6  7  1  0
  7  8  1  6
  7  9  1  0
  9 10  1  0
 10 11  1  6
 10  4  1  0
M  END
>  <supplier_code>  (690) 
DB00825

>  <zinc_id>  (690) 
ZINC000001482164

>  <catalog_short_name>  (690) 
dbfda

$$$$

     RDKit          3D

 47 50  0  0  0  0  0  0  0  0999 V2000
   -6.9603    0.0985    0.5473 C   0  0  0  0  0  0  0  0  0  0  0  0
   -5.9237   -1.1186    0.1674 C   0  0  1  0  0  0  0  0  0  0  0  0
   -4.6981   -0.2655    0.4855 O   0  0  0  0  0  0  0  0  0  0  0  0
   -3.9174   -1.5421    0.1555 C   0  0  1  0  0  0  0  0  0  0  0  0
   -2.5498   -0.9535   -0.1241 O   0  0  0  0  0  0  0  0  0  0  0  0
   -2.4110    0.2850    0.7112 C   0  0  1  0  0  0  0  0  0  0  0  0
   -1.4152   -0.4489    1.7735 C   0  0  0  0  0  0  0  0  0  0  0  0
   -0.2473   -0.8010    1.4377 C   0  0  0  0  0  0  0  0  0  0  0  0
   -0.1219   -1.8539    0.4538 C   0  0  0  0  0  0  0  0  0  0  0  0
   -0.2502   -3.0215    1.0872 C   0  0  0  0  0  0  0  0  0  0  0  0
    0.9478   -3.7917    1.2961 C   0  0  0  0  0  0  0  0  0  0  0  0
    1.6556   -3.9189    0.1691 C   0  0  0  0  0  0  0  0  0  0  0  0
    3.0985   -3.8091    0.2898 C   0  0  0  0  0  0  0  0  0  0  0  0
    3.6401   -3.0251    1.1858 C   0  0  0  0  0  0  0  0  0  0  0  0
    4.5237   -1.9104    0.8100 C   0  0  0  0  0  0  0  0  0  0  0  0
    5.9165   -2.6174    0.2694 C   0  0  1  0  0  0  0  0  0  0  0  0
    5.6670   -2.4633   -1.3682 C   0  0  0  0  0  0  0  0  0  0  0  0
    6.9577   -1.5055    0.4832 O   0  0  0  0  0  0  0  0  0  0  0  0
    6.6327   -0.5510    1.4609 C   0  0  0  0  0  0  0  0  0  0  0  0
    7.4149   -0.0123    2.2433 O   0  0  0  0  0  0  0  0  0  0  0  0
    5.4182    0.0283    0.8665 C   0  0  0  0  0  0  0  0  0  0  0  0
    5.5686    0.0118   -0.4786 C   0  0  0  0  0  0  0  0  0  0  0  0
    5.2752    1.5782   -0.7222 C   0  0  1  0  0  0  0  0  0  0  0  0
    4.7864    1.3221   -2.2991 O   0  0  0  0  0  0  0  0  0  0  0  0
    3.6456    1.2689   -1.0864 C   0  0  2  0  0  0  0  0  0  0  0  0
    3.3357    2.8858   -1.2558 C   0  0  0  0  0  0  0  0  0  0  0  0
    2.0295    3.0601   -0.2682 C   0  0  2  0  0  0  0  0  0  0  0  0
    2.6509    2.2624    0.8692 O   0  0  0  0  0  0  0  0  0  0  0  0
    1.2762    1.7246   -0.8836 C   0  0  0  0  0  0  0  0  0  0  0  0
    0.2220    2.3286   -1.8099 C   0  0  2  0  0  0  0  0  0  0  0  0
    1.0612    2.6332   -2.9199 O   0  0  0  0  0  0  0  0  0  0  0  0
   -0.2020    3.7029   -1.3828 C   0  0  0  0  0  0  0  0  0  0  0  0
   -1.6729    3.7121   -2.1257 C   0  0  2  0  0  0  0  0  0  0  0  0
   -2.1051    4.9228   -1.3256 O   0  0  0  0  0  0  0  0  0  0  0  0
   -2.3154    2.7195   -0.9151 C   0  0  1  0  0  0  0  0  0  0  0  0
   -3.7502    2.7619   -1.5750 C   0  0  0  0  0  0  0  0  0  0  0  0
   -3.8910    2.3661   -2.7368 O   0  0  0  0  0  0  0  0  0  0  0  0
   -4.4119    3.9732   -1.3140 O   0  0  0  0  0  0  0  0  0  0  0  0
   -1.9284    1.2113   -1.6024 C   0  0  2  0  0  0  0  0  0  0  0  0
   -1.1325    0.7962   -0.2247 C   0  0  0  0  0  0  0  0  0  0  0  0
   -0.6867    1.5902   -2.3384 O   0  0  0  0  0  0  0  0  0  0  0  0
   -3.5953   -1.9689    1.8127 C   0  0  1  0  0  0  0  0  0  0  0  0
   -4.2760   -0.8367    2.5119 O   0  0  0  0  0  0  0  0  0  0  0  0
   -4.9441   -2.9923    1.6143 C   0  0  1  0  0  0  0  0  0  0  0  0
   -5.0249   -3.2684    3.1404 N   0  0  0  0  0  0  0  0  0  0  0  0
   -6.1433   -1.7951    1.7351 C   0  0  2  0  0  0  0  0  0  0  0  0
   -7.1491   -2.7726    1.1796 O   0  0  0  0  0  0  0  0  0  0  0  0
  2  1  1  1
  2  3  1  0
  3  4  1  0
  4  5  1  6
  6  5  1  6
  6  7  1  0
  7  8  2  0
  8  9  1  0
  9 10  2  0
 10 11  1  0
 11 12  2  0
 12 13  1  0
 13 14  2  0
 14 15  1  0
 15 16  1  0
 16 17  1  6
 16 18  1  0
 18 19  1  0
 19 20  2  0
 19 21  1  0
 21 22  2  0
 23 22  1  1
 23 24  1  0
 25 24  1  6
 25 26  1  0
 26 27  1  0
 27 28  1  1
 27 29  1  0
 29 30  1  0
 30 31  1  6
 30 32  1  0
 32 33  1  0
 33 34  1  1
 33 35  1  0
 35 36  1  6
 36 37  2  0
 36 38  1  0
 35 39  1  0
 39 40  1  1
 39 41  1  0
  4 42  1  0
 42 43  1  1
 42 44  1  0
 44 45  1  1
 44 46  1  0
 46 47  1  6
 46  2  1  0
 40  6  1  0
 25 23  1  0
 41 30  1  0
M  END
>  <supplier_code>  (691) 
DB00826

>  <zinc_id>  (691) 
ZINC000008220909

>  <catalog_short_name>  (691) 
dbfda

$$$$

     RDKit          3D

 47 50  0  0  0  0  0  0  0  0999 V2000
    5.0086    3.2861    1.8283 C   0  0  0  0  0  0  0  0  0  0  0  0
    5.9092    1.9258    1.6066 C   0  0  1  0  0  0  0  0  0  0  0  0
    4.7913    0.9798    1.4173 O   0  0  0  0  0  0  0  0  0  0  0  0
    3.5509    1.6315    0.8888 C   0  0  2  0  0  0  0  0  0  0  0  0
    2.9625    0.2243    0.6585 O   0  0  0  0  0  0  0  0  0  0  0  0
    1.7058    0.3150    1.5016 C   0  0  1  0  0  0  0  0  0  0  0  0
    1.0734    1.4058    0.4930 C   0  0  0  0  0  0  0  0  0  0  0  0
    0.5683    1.0463   -0.6444 C   0  0  0  0  0  0  0  0  0  0  0  0
    0.0830    2.1865   -1.4021 C   0  0  0  0  0  0  0  0  0  0  0  0
    0.0570    3.4244   -1.1661 C   0  0  0  0  0  0  0  0  0  0  0  0
   -1.3667    3.5846   -1.6214 C   0  0  0  0  0  0  0  0  0  0  0  0
   -1.6624    4.6266   -1.0384 C   0  0  0  0  0  0  0  0  0  0  0  0
   -2.8697    4.7697   -0.2174 C   0  0  0  0  0  0  0  0  0  0  0  0
   -3.7547    3.8534   -0.0253 C   0  0  0  0  0  0  0  0  0  0  0  0
   -4.1459    3.0755   -1.1603 C   0  0  0  0  0  0  0  0  0  0  0  0
   -5.4550    2.1117   -0.8779 C   0  0  1  0  0  0  0  0  0  0  0  0
   -4.7214    1.1422   -1.9919 C   0  0  0  0  0  0  0  0  0  0  0  0
   -4.8457    1.6847    0.4674 O   0  0  0  0  0  0  0  0  0  0  0  0
   -5.9820    1.5669    1.2860 C   0  0  0  0  0  0  0  0  0  0  0  0
   -6.6583    2.3188    1.9717 O   0  0  0  0  0  0  0  0  0  0  0  0
   -6.5011    0.2081    1.1217 C   0  0  0  0  0  0  0  0  0  0  0  0
   -6.0945   -0.3911    0.0356 C   0  0  0  0  0  0  0  0  0  0  0  0
   -4.6056   -1.0455    0.1125 C   0  0  1  0  0  0  0  0  0  0  0  0
   -4.8512   -2.1562    1.3304 O   0  0  0  0  0  0  0  0  0  0  0  0
   -5.1461   -2.6094   -0.2401 C   0  0  2  0  0  0  0  0  0  0  0  0
   -3.6795   -3.0597   -0.7418 C   0  0  0  0  0  0  0  0  0  0  0  0
   -2.5240   -3.2332    0.3593 C   0  0  2  0  0  0  0  0  0  0  0  0
   -2.7118   -1.9768    1.1957 O   0  0  0  0  0  0  0  0  0  0  0  0
   -1.4874   -2.3514   -0.6112 C   0  0  0  0  0  0  0  0  0  0  0  0
   -0.1563   -2.9463   -0.4414 C   0  0  2  0  0  0  0  0  0  0  0  0
   -0.4424   -4.2029   -1.0944 O   0  0  0  0  0  0  0  0  0  0  0  0
    0.1153   -3.4334    0.9738 C   0  0  0  0  0  0  0  0  0  0  0  0
    1.4659   -4.1915    0.4141 C   0  0  2  0  0  0  0  0  0  0  0  0
    1.8536   -4.7806    1.7712 O   0  0  0  0  0  0  0  0  0  0  0  0
    2.5605   -2.9231    0.6803 C   0  0  1  0  0  0  0  0  0  0  0  0
    3.5017   -3.3901   -0.5125 C   0  0  0  0  0  0  0  0  0  0  0  0
    3.0116   -3.8997   -1.5533 O   0  0  0  0  0  0  0  0  0  0  0  0
    4.5448   -4.1557   -0.0153 O   0  0  0  0  0  0  0  0  0  0  0  0
    1.8883   -1.6503   -0.2290 C   0  0  2  0  0  0  0  0  0  0  0  0
    0.9167   -1.0186    0.9333 C   0  0  0  0  0  0  0  0  0  0  0  0
    0.8156   -2.3883   -0.9465 O   0  0  0  0  0  0  0  0  0  0  0  0
    3.9154    1.6337   -0.8123 C   0  0  1  0  0  0  0  0  0  0  0  0
    4.3302    3.0697   -0.9381 O   0  0  0  0  0  0  0  0  0  0  0  0
    5.4315    0.8897   -0.6593 C   0  0  1  0  0  0  0  0  0  0  0  0
    5.8095    1.2546   -2.1169 N   0  0  0  0  0  0  0  0  0  0  0  0
    6.2728    2.2122   -0.0418 C   0  0  2  0  0  0  0  0  0  0  0  0
    7.5180    1.3763    0.0519 O   0  0  0  0  0  0  0  0  0  0  0  0
  2  1  1  6
  2  3  1  0
  3  4  1  0
  4  5  1  6
  6  5  1  6
  6  7  1  0
  7  8  2  0
  8  9  1  0
  9 10  2  0
 10 11  1  0
 11 12  2  0
 12 13  1  0
 13 14  2  0
 14 15  1  0
 15 16  1  0
 16 17  1  6
 16 18  1  0
 18 19  1  0
 19 20  2  0
 19 21  1  0
 21 22  2  0
 23 22  1  1
 23 24  1  0
 25 24  1  1
 25 26  1  0
 26 27  1  0
 27 28  1  1
 27 29  1  0
 29 30  1  0
 30 31  1  6
 30 32  1  0
 32 33  1  0
 33 34  1  1
 33 35  1  0
 35 36  1  6
 36 37  2  0
 36 38  1  0
 35 39  1  0
 39 40  1  1
 39 41  1  0
  4 42  1  0
 42 43  1  1
 42 44  1  0
 44 45  1  6
 44 46  1  0
 46 47  1  1
 46  2  1  0
 40  6  1  0
 25 23  1  0
 41 30  1  0
M  END
>  <supplier_code>  (692) 
DB00826

>  <zinc_id>  (692) 
ZINC000169621220

>  <catalog_short_name>  (692) 
dbfda

$$$$

     RDKit          3D

  8  8  0  0  0  0  0  0  0  0999 V2000
    1.1549    1.1964    1.1609 C   0  0  0  0  0  0  0  0  0  0  0  0
    1.9136   -0.1594    0.5890 C   0  0  2  0  0  0  0  0  0  0  0  0
    1.6291    0.1344   -1.0097 O   0  0  0  0  0  0  0  0  0  0  0  0
    0.6973   -0.9832   -0.2320 C   0  0  2  0  0  0  0  0  0  0  0  0
   -0.9617   -0.0484   -0.0921 P   0  0  0  0  0  0  0  0  0  0  0  0
   -1.1067    1.1152    0.6481 O   0  0  0  0  0  0  0  0  0  0  0  0
   -1.4524    0.0320   -1.7198 O   0  0  0  0  0  0  0  0  0  0  0  0
   -1.8741   -1.2871    0.6557 O   0  0  0  0  0  0  0  0  0  0  0  0
  2  1  1  1
  2  3  1  0
  3  4  1  0
  4  5  1  1
  5  6  2  0
  5  7  1  0
  5  8  1  0
  4  2  1  0
M  END
>  <supplier_code>  (693) 
DB00828

>  <zinc_id>  (693) 
ZINC000001530427

>  <catalog_short_name>  (693) 
dbfda

$$$$

     RDKit          3D

 20 22  0  0  0  0  0  0  0  0999 V2000
   -3.7245    1.0459    0.7451 C   0  0  0  0  0  0  0  0  0  0  0  0
   -2.4556    1.1062    0.0667 N   0  0  0  0  0  0  0  0  0  0  0  0
   -1.9048   -0.1083   -0.4557 C   0  0  0  0  0  0  0  0  0  0  0  0
   -2.8601   -1.0910   -0.4966 C   0  0  0  0  0  0  0  0  0  0  0  0
   -2.4400   -2.3943   -0.5277 C   0  0  0  0  0  0  0  0  0  0  0  0
   -1.0854   -2.6979   -0.5783 C   0  0  0  0  0  0  0  0  0  0  0  0
   -0.5522   -4.2959   -0.1074 Cl  0  0  0  0  0  0  0  0  0  0  0  0
   -0.1565   -1.6686   -0.6721 C   0  0  0  0  0  0  0  0  0  0  0  0
   -0.5576   -0.3414   -0.6971 C   0  0  0  0  0  0  0  0  0  0  0  0
    0.5801    0.5799   -0.5921 C   0  0  0  0  0  0  0  0  0  0  0  0
    1.9054   -0.0184   -0.3869 C   0  0  0  0  0  0  0  0  0  0  0  0
    2.5981    0.4047    0.7415 C   0  0  0  0  0  0  0  0  0  0  0  0
    3.9341    0.0983    0.8484 C   0  0  0  0  0  0  0  0  0  0  0  0
    4.7097   -0.2627   -0.2425 C   0  0  0  0  0  0  0  0  0  0  0  0
    4.0207   -0.5472   -1.4090 C   0  0  0  0  0  0  0  0  0  0  0  0
    2.6864   -0.2125   -1.5203 C   0  0  0  0  0  0  0  0  0  0  0  0
    0.4664    1.8246   -0.2336 N   0  0  0  0  0  0  0  0  0  0  0  0
   -0.5443    2.8173   -0.5197 C   0  0  0  0  0  0  0  0  0  0  0  0
   -1.8890    2.4121   -0.0043 C   0  0  0  0  0  0  0  0  0  0  0  0
   -2.7310    3.3492   -0.1527 O   0  0  0  0  0  0  0  0  0  0  0  0
  1  2  1  0
  2  3  1  0
  3  4  2  0
  4  5  1  0
  5  6  2  0
  6  7  1  0
  6  8  1  0
  8  9  2  0
  9 10  1  0
 10 11  1  0
 11 12  2  0
 12 13  1  0
 13 14  2  0
 14 15  1  0
 15 16  2  0
 10 17  2  0
 17 18  1  0
 18 19  1  0
 19 20  2  0
 19  2  1  0
  9  3  1  0
 16 11  1  0
M  END
>  <supplier_code>  (694) 
DB00829

>  <zinc_id>  (694) 
ZINC000000006427

>  <catalog_short_name>  (694) 
dbfda

$$$$

     RDKit          3D

 28 31  0  0  0  0  0  0  0  0999 V2000
    7.0877    0.2415    0.0499 C   0  0  0  0  0  0  0  0  0  0  0  0
    5.6631    0.0782    0.1853 N   0  0  0  0  0  0  0  0  0  0  0  0
    5.0917    0.9898    1.1763 C   0  0  0  0  0  0  0  0  0  0  0  0
    3.7068    0.4893    1.4564 C   0  0  0  0  0  0  0  0  0  0  0  0
    2.9106    0.2030    0.3268 N   0  0  0  0  0  0  0  0  0  0  0  0
    1.6455    0.8574    0.2597 C   0  0  0  0  0  0  0  0  0  0  0  0
    1.0461    0.8746   -1.1113 C   0  0  0  0  0  0  0  0  0  0  0  0
    0.2886   -0.3691   -1.4662 C   0  0  0  0  0  0  0  0  0  0  0  0
   -0.5885   -0.8250   -0.3924 N   0  0  0  0  0  0  0  0  0  0  0  0
   -0.7664   -2.2402   -0.2524 C   0  0  0  0  0  0  0  0  0  0  0  0
   -0.4173   -3.1163   -1.2733 C   0  0  0  0  0  0  0  0  0  0  0  0
   -0.7393   -4.4654   -1.1977 C   0  0  0  0  0  0  0  0  0  0  0  0
   -0.9529   -4.9711    0.0702 C   0  0  0  0  0  0  0  0  0  0  0  0
   -1.3311   -4.0979    1.0623 C   0  0  0  0  0  0  0  0  0  0  0  0
   -1.0624   -2.7423    1.0099 C   0  0  0  0  0  0  0  0  0  0  0  0
   -2.1136   -1.7194    2.0495 S   0  0  0  0  0  0  0  0  0  0  0  0
   -2.5022   -0.2684    1.0635 C   0  0  0  0  0  0  0  0  0  0  0  0
   -3.8025    0.2131    0.9737 C   0  0  0  0  0  0  0  0  0  0  0  0
   -3.9473    1.4101    0.2850 C   0  0  0  0  0  0  0  0  0  0  0  0
   -2.8390    2.0962   -0.1932 C   0  0  0  0  0  0  0  0  0  0  0  0
   -2.9225    3.5607   -0.4901 C   0  0  0  0  0  0  0  0  0  0  0  0
   -1.6726    4.0837   -0.1712 F   0  0  0  0  0  0  0  0  0  0  0  0
   -3.2331    3.7652   -1.8125 F   0  0  0  0  0  0  0  0  0  0  0  0
   -3.8261    4.1804    0.3349 F   0  0  0  0  0  0  0  0  0  0  0  0
   -1.6543    1.3885   -0.3571 C   0  0  0  0  0  0  0  0  0  0  0  0
   -1.5698    0.0784    0.1007 C   0  0  0  0  0  0  0  0  0  0  0  0
    3.5481   -0.0884   -0.8952 C   0  0  0  0  0  0  0  0  0  0  0  0
    4.9525    0.3936   -1.0519 C   0  0  0  0  0  0  0  0  0  0  0  0
  1  2  1  0
  2  3  1  0
  3  4  1  0
  4  5  1  0
  5  6  1  0
  6  7  1  0
  7  8  1  0
  8  9  1  0
  9 10  1  0
 10 11  2  0
 11 12  1  0
 12 13  2  0
 13 14  1  0
 14 15  2  0
 15 16  1  0
 16 17  1  0
 17 18  2  0
 18 19  1  0
 19 20  2  0
 20 21  1  0
 21 22  1  0
 21 23  1  0
 21 24  1  0
 20 25  1  0
 25 26  2  0
  5 27  1  0
 27 28  1  0
 28  2  1  0
 26  9  1  0
 15 10  1  0
 26 17  1  0
M  END
>  <supplier_code>  (695) 
DB00831

>  <zinc_id>  (695) 
ZINC000019418959

>  <catalog_short_name>  (695) 
dbfda

$$$$

     RDKit          3D

 24 26  0  0  0  0  0  0  0  0999 V2000
    2.7575   -2.7506   -0.3719 N   0  0  0  0  0  0  0  0  0  0  0  0
    2.6132   -1.3417   -1.1434 C   0  0  1  0  0  0  0  0  0  0  0  0
    1.1291   -1.1107   -0.4924 C   0  0  0  0  0  0  0  0  0  0  0  0
    0.2111   -1.1810   -1.3511 O   0  0  0  0  0  0  0  0  0  0  0  0
    0.8935   -0.1550    0.4483 N   0  0  0  0  0  0  0  0  0  0  0  0
   -0.2851   -0.6304    1.4319 C   0  0  2  0  0  0  0  0  0  0  0  0
   -1.3474   -1.0946    0.2796 C   0  0  0  0  0  0  0  0  0  0  0  0
   -1.6695   -2.3318    0.3416 O   0  0  0  0  0  0  0  0  0  0  0  0
   -2.2334   -0.0528    0.7404 N   0  0  0  0  0  0  0  0  0  0  0  0
   -3.3344    0.6801    0.2461 C   0  0  0  0  0  0  0  0  0  0  0  0
   -4.5454   -0.1008   -0.0453 C   0  0  0  0  0  0  0  0  0  0  0  0
   -5.0403   -0.7155    0.9479 O   0  0  0  0  0  0  0  0  0  0  0  0
   -4.5683   -0.8180   -1.2417 O   0  0  0  0  0  0  0  0  0  0  0  0
   -3.3011    1.9598   -0.1181 C   0  0  0  0  0  0  0  0  0  0  0  0
   -4.8184    2.8474   -0.1936 Cl  0  0  0  0  0  0  0  0  0  0  0  0
   -2.1076    2.5739   -0.7779 C   0  0  0  0  0  0  0  0  0  0  0  0
   -0.6593    1.6103   -0.2742 S   0  0  0  0  0  0  0  0  0  0  0  0
   -1.1742    0.8231    1.3862 C   0  0  2  0  0  0  0  0  0  0  0  0
    3.4322   -0.5484    0.0568 C   0  0  0  0  0  0  0  0  0  0  0  0
    4.7350   -1.0255    0.0008 C   0  0  0  0  0  0  0  0  0  0  0  0
    5.8551   -0.2449    0.0647 C   0  0  0  0  0  0  0  0  0  0  0  0
    5.7057    1.1348   -0.0016 C   0  0  0  0  0  0  0  0  0  0  0  0
    4.4212    1.6543   -0.0108 C   0  0  0  0  0  0  0  0  0  0  0  0
    3.3306    0.8179   -0.1887 C   0  0  0  0  0  0  0  0  0  0  0  0
  2  1  1  1
  2  3  1  0
  3  4  2  0
  3  5  1  0
  6  5  1  6
  6  7  1  0
  7  8  2  0
  7  9  1  0
  9 10  1  0
 10 11  1  0
 11 12  2  0
 11 13  1  0
 10 14  2  0
 14 15  1  0
 14 16  1  0
 16 17  1  0
 18 17  1  6
  2 19  1  0
 19 20  2  0
 20 21  1  0
 21 22  2  0
 22 23  1  0
 23 24  2  0
 18  6  1  0
 24 19  1  0
 18  9  1  0
M  END
>  <supplier_code>  (696) 
DB00833

>  <zinc_id>  (696) 
ZINC000003812869

>  <catalog_short_name>  (696) 
dbfda

$$$$

     RDKit          3D

 32 36  0  0  0  0  0  0  0  0999 V2000
   -2.6065   -6.0215   -1.3616 C   0  0  0  0  0  0  0  0  0  0  0  0
   -2.0352   -4.7247   -1.0990 C   0  0  0  0  0  0  0  0  0  0  0  0
   -1.7662   -3.7436   -0.4609 C   0  0  0  0  0  0  0  0  0  0  0  0
   -1.9701   -2.7866    0.6029 C   0  0  2  0  0  0  0  0  0  0  0  0
   -1.5601   -3.2147    1.8437 O   0  0  0  0  0  0  0  0  0  0  0  0
   -3.4149   -2.3044    0.6988 C   0  0  0  0  0  0  0  0  0  0  0  0
   -3.6424   -1.3202   -0.3694 C   0  0  0  0  0  0  0  0  0  0  0  0
   -2.1889   -1.0132   -1.0050 C   0  0  1  0  0  0  0  0  0  0  0  0
   -2.2930    0.6261   -0.5629 C   0  0  2  0  0  0  0  0  0  0  0  0
   -2.2972    1.0751   -2.1296 C   0  0  0  0  0  0  0  0  0  0  0  0
   -2.5980    2.5671   -1.9687 C   0  0  0  0  0  0  0  0  0  0  0  0
   -1.4895    3.0784   -1.1313 C   0  0  0  0  0  0  0  0  0  0  0  0
   -1.5057    4.2494   -0.4886 C   0  0  0  0  0  0  0  0  0  0  0  0
   -0.4513    4.3536    0.5336 C   0  0  0  0  0  0  0  0  0  0  0  0
   -0.6894    4.7621    1.7111 O   0  0  0  0  0  0  0  0  0  0  0  0
    0.9363    3.8698    0.2451 C   0  0  0  0  0  0  0  0  0  0  0  0
    0.9148    2.6908   -0.7266 C   0  0  0  0  0  0  0  0  0  0  0  0
   -0.4555    2.1490   -0.6406 C   0  0  0  0  0  0  0  0  0  0  0  0
   -0.7360    0.8800   -0.3326 C   0  0  0  0  0  0  0  0  0  0  0  0
    0.1911   -0.1263   -1.1619 C   0  0  1  0  0  0  0  0  0  0  0  0
    1.5365    0.3416   -0.4099 C   0  0  0  0  0  0  0  0  0  0  0  0
    2.6834    0.0033   -1.1256 C   0  0  0  0  0  0  0  0  0  0  0  0
    3.8829    0.3443   -0.5053 C   0  0  0  0  0  0  0  0  0  0  0  0
    3.9577    0.0331    0.8432 C   0  0  0  0  0  0  0  0  0  0  0  0
    5.1556   -0.4726    1.4457 N   0  0  0  0  0  0  0  0  0  0  0  0
    5.0248   -1.0998    2.7599 C   0  0  0  0  0  0  0  0  0  0  0  0
    6.1968   -1.0630    0.6071 C   0  0  0  0  0  0  0  0  0  0  0  0
    2.8353    0.2723    1.5992 C   0  0  0  0  0  0  0  0  0  0  0  0
    1.6179    0.1195    0.9458 C   0  0  0  0  0  0  0  0  0  0  0  0
   -0.0350   -1.4126   -0.1642 C   0  0  0  0  0  0  0  0  0  0  0  0
   -1.3865   -1.4559    0.3179 C   0  0  2  0  0  0  0  0  0  0  0  0
   -1.8119   -0.6562    1.4900 C   0  0  0  0  0  0  0  0  0  0  0  0
  1  2  1  0
  2  3  3  0
  4  3  1  6
  4  5  1  0
  4  6  1  0
  6  7  1  0
  8  7  1  1
  8  9  1  0
  9 10  1  6
 10 11  1  0
 11 12  1  0
 12 13  2  0
 13 14  1  0
 14 15  2  0
 14 16  1  0
 16 17  1  0
 17 18  1  0
 18 19  2  0
 19 20  1  0
 20 21  1  1
 21 22  2  0
 22 23  1  0
 23 24  2  0
 24 25  1  0
 25 26  1  0
 25 27  1  0
 24 28  1  0
 28 29  2  0
 20 30  1  0
 30 31  1  0
 31 32  1  1
 31  4  1  0
 31  8  1  0
 19  9  1  0
 29 21  1  0
 18 12  1  0
M  END
>  <supplier_code>  (697) 
DB00834

>  <zinc_id>  (697) 
ZINC000003831128

>  <catalog_short_name>  (697) 
dbfda

$$$$

     RDKit          3D

 19 20  0  0  0  0  0  0  0  0999 V2000
   -2.4039   -2.2269    1.1133 C   0  0  0  0  0  0  0  0  0  0  0  0
   -2.4855   -2.4376   -0.0347 N   0  0  0  0  0  0  0  0  0  0  0  0
   -3.7787   -3.0856   -0.3222 C   0  0  0  0  0  0  0  0  0  0  0  0
   -2.2975   -1.6014   -1.0910 C   0  0  0  0  0  0  0  0  0  0  0  0
   -1.1971   -0.7678   -1.4151 C   0  0  0  0  0  0  0  0  0  0  0  0
   -0.7174   -0.2350    0.0694 C   0  0  1  0  0  0  0  0  0  0  0  0
    0.8291   -0.5480   -0.2281 C   0  0  0  0  0  0  0  0  0  0  0  0
    1.5856    0.0106   -1.1244 C   0  0  0  0  0  0  0  0  0  0  0  0
    2.9433   -0.2695   -0.9606 C   0  0  0  0  0  0  0  0  0  0  0  0
    3.4098   -0.7366    0.2640 C   0  0  0  0  0  0  0  0  0  0  0  0
    5.2834   -0.8535    0.6658 Br  0  0  0  0  0  0  0  0  0  0  0  0
    2.5273   -1.3758    1.1575 C   0  0  0  0  0  0  0  0  0  0  0  0
    1.2211   -1.3657    0.8244 C   0  0  0  0  0  0  0  0  0  0  0  0
   -0.7638    1.3161   -0.4126 C   0  0  0  0  0  0  0  0  0  0  0  0
   -1.8677    1.7937    0.3045 C   0  0  0  0  0  0  0  0  0  0  0  0
   -1.9742    3.1051    0.7953 C   0  0  0  0  0  0  0  0  0  0  0  0
   -0.8345    3.8553    0.7066 C   0  0  0  0  0  0  0  0  0  0  0  0
    0.2141    3.3844   -0.0463 C   0  0  0  0  0  0  0  0  0  0  0  0
    0.3066    2.0382   -0.2659 N   0  0  0  0  0  0  0  0  0  0  0  0
  1  2  1  0
  2  3  1  0
  2  4  1  0
  4  5  1  0
  6  5  1  6
  6  7  1  0
  7  8  2  0
  8  9  1  0
  9 10  2  0
 10 11  1  0
 10 12  1  0
 12 13  2  0
  6 14  1  0
 14 15  2  0
 15 16  1  0
 16 17  2  0
 17 18  1  0
 18 19  2  0
 13  7  1  0
 19 14  1  0
M  END
>  <supplier_code>  (698) 
DB00835

>  <zinc_id>  (698) 
ZINC000000000096

>  <catalog_short_name>  (698) 
dbfda

$$$$

     RDKit          3D

 19 20  0  0  0  0  0  0  0  0999 V2000
    3.6033    0.2544    1.8337 C   0  0  0  0  0  0  0  0  0  0  0  0
    3.6516   -0.7935    0.8465 N   0  0  0  0  0  0  0  0  0  0  0  0
    4.2622   -0.3276   -0.3863 C   0  0  0  0  0  0  0  0  0  0  0  0
    2.3456   -1.3638    0.6204 C   0  0  0  0  0  0  0  0  0  0  0  0
    1.2515   -0.3045    0.6346 C   0  0  0  0  0  0  0  0  0  0  0  0
    0.6395   -0.4591   -0.8883 C   0  0  2  0  0  0  0  0  0  0  0  0
   -0.3355    0.8166   -0.7351 C   0  0  0  0  0  0  0  0  0  0  0  0
   -1.0550    0.9544    0.3983 C   0  0  0  0  0  0  0  0  0  0  0  0
   -1.9091    2.0416    0.4851 C   0  0  0  0  0  0  0  0  0  0  0  0
   -1.4073    3.2374   -0.0137 C   0  0  0  0  0  0  0  0  0  0  0  0
   -2.0875    4.8702    0.7190 Br  0  0  0  0  0  0  0  0  0  0  0  0
   -0.2966    3.1950   -0.8352 C   0  0  0  0  0  0  0  0  0  0  0  0
    0.2129    1.9769   -1.2730 C   0  0  0  0  0  0  0  0  0  0  0  0
   -0.4951   -1.5171   -0.4735 C   0  0  0  0  0  0  0  0  0  0  0  0
   -0.6424   -2.6130   -1.2909 C   0  0  0  0  0  0  0  0  0  0  0  0
   -1.8361   -3.3091   -1.1159 C   0  0  0  0  0  0  0  0  0  0  0  0
   -2.7524   -2.8826   -0.1602 C   0  0  0  0  0  0  0  0  0  0  0  0
   -2.1769   -2.1899    0.8996 C   0  0  0  0  0  0  0  0  0  0  0  0
   -0.9727   -1.5865    0.7348 N   0  0  0  0  0  0  0  0  0  0  0  0
  1  2  1  0
  2  3  1  0
  2  4  1  0
  4  5  1  0
  6  5  1  1
  6  7  1  0
  7  8  2  0
  8  9  1  0
  9 10  2  0
 10 11  1  0
 10 12  1  0
 12 13  2  0
  6 14  1  0
 14 15  2  0
 15 16  1  0
 16 17  2  0
 17 18  1  0
 18 19  2  0
 13  7  1  0
 19 14  1  0
M  END
>  <supplier_code>  (699) 
DB00835

>  <zinc_id>  (699) 
ZINC000000896455

>  <catalog_short_name>  (699) 
dbfda

$$$$

     RDKit          3D

 34 37  0  0  0  0  0  0  0  0999 V2000
   -3.0988    2.7499    2.1339 C   0  0  0  0  0  0  0  0  0  0  0  0
   -3.4505    2.0919    0.8793 N   0  0  0  0  0  0  0  0  0  0  0  0
   -4.3938    2.8067    0.0327 C   0  0  0  0  0  0  0  0  0  0  0  0
   -2.3933    1.4045    0.2026 C   0  0  0  0  0  0  0  0  0  0  0  0
   -1.6325    2.1035   -0.5271 O   0  0  0  0  0  0  0  0  0  0  0  0
   -2.4258   -0.0545   -0.0467 C   0  0  0  0  0  0  0  0  0  0  0  0
   -1.0128   -0.5867   -0.0999 C   0  0  0  0  0  0  0  0  0  0  0  0
   -0.2064    0.0015   -1.2210 C   0  0  0  0  0  0  0  0  0  0  0  0
    1.0304    0.5990   -0.7942 N   0  0  0  0  0  0  0  0  0  0  0  0
    2.1176    0.3515   -1.7396 C   0  0  0  0  0  0  0  0  0  0  0  0
    3.1772    1.3667   -1.4405 C   0  0  0  0  0  0  0  0  0  0  0  0
    3.5852    1.4469   -0.0075 C   0  0  0  0  0  0  0  0  0  0  0  0
    3.8808    2.7975    0.2501 O   0  0  0  0  0  0  0  0  0  0  0  0
    4.8702    0.7193    0.1415 C   0  0  0  0  0  0  0  0  0  0  0  0
    5.0673   -0.3360    0.9894 C   0  0  0  0  0  0  0  0  0  0  0  0
    6.1443   -1.1737    0.7274 C   0  0  0  0  0  0  0  0  0  0  0  0
    6.9563   -0.9689   -0.3810 C   0  0  0  0  0  0  0  0  0  0  0  0
    7.9442   -2.2461   -1.0551 Cl  0  0  0  0  0  0  0  0  0  0  0  0
    6.9999    0.3113   -0.9118 C   0  0  0  0  0  0  0  0  0  0  0  0
    5.8885    1.0956   -0.7255 C   0  0  0  0  0  0  0  0  0  0  0  0
    2.5478    1.0416    0.9815 C   0  0  0  0  0  0  0  0  0  0  0  0
    1.5087    0.0967    0.4728 C   0  0  0  0  0  0  0  0  0  0  0  0
   -3.0995   -0.7416    1.1000 C   0  0  0  0  0  0  0  0  0  0  0  0
   -4.0896   -1.6956    0.8994 C   0  0  0  0  0  0  0  0  0  0  0  0
   -4.1103   -2.8786    1.6204 C   0  0  0  0  0  0  0  0  0  0  0  0
   -3.4498   -2.8975    2.8413 C   0  0  0  0  0  0  0  0  0  0  0  0
   -2.7800   -1.7549    3.2612 C   0  0  0  0  0  0  0  0  0  0  0  0
   -2.3310   -0.9219    2.2435 C   0  0  0  0  0  0  0  0  0  0  0  0
   -3.1547   -0.3615   -1.3000 C   0  0  0  0  0  0  0  0  0  0  0  0
   -2.5290   -0.9720   -2.3693 C   0  0  0  0  0  0  0  0  0  0  0  0
   -3.2467   -1.4433   -3.4593 C   0  0  0  0  0  0  0  0  0  0  0  0
   -4.6268   -1.3215   -3.4702 C   0  0  0  0  0  0  0  0  0  0  0  0
   -5.1668   -0.4053   -2.5817 C   0  0  0  0  0  0  0  0  0  0  0  0
   -4.5204   -0.2243   -1.3776 C   0  0  0  0  0  0  0  0  0  0  0  0
  1  2  1  0
  2  3  1  0
  2  4  1  0
  4  5  2  0
  4  6  1  0
  6  7  1  0
  7  8  1  0
  8  9  1  0
  9 10  1  0
 10 11  1  0
 11 12  1  0
 12 13  1  0
 12 14  1  0
 14 15  2  0
 15 16  1  0
 16 17  2  0
 17 18  1  0
 17 19  1  0
 19 20  2  0
 12 21  1  0
 21 22  1  0
  6 23  1  0
 23 24  2  0
 24 25  1  0
 25 26  2  0
 26 27  1  0
 27 28  2  0
  6 29  1  0
 29 30  2  0
 30 31  1  0
 31 32  2  0
 32 33  1  0
 33 34  2  0
 22  9  1  0
 28 23  1  0
 34 29  1  0
 20 14  1  0
M  END
>  <supplier_code>  (700) 
DB00836

>  <zinc_id>  (700) 
ZINC000000537928

>  <catalog_short_name>  (700) 
dbfda

$$$$

     RDKit          3D

 28 31  0  0  0  0  0  0  0  0999 V2000
    2.2871   -0.1048    2.9913 C   0  0  0  0  0  0  0  0  0  0  0  0
    3.1964    0.5350    1.8050 C   0  0  2  0  0  0  0  0  0  0  0  0
    1.9529    1.3773    1.2236 C   0  0  0  0  0  0  0  0  0  0  0  0
    0.9798    0.1083    1.0773 C   0  0  1  0  0  0  0  0  0  0  0  0
   -0.0861    0.8569   -0.0058 C   0  0  2  0  0  0  0  0  0  0  0  0
   -1.1327    1.3505    1.1299 C   0  0  0  0  0  0  0  0  0  0  0  0
   -2.0507    2.0998   -0.0351 C   0  0  2  0  0  0  0  0  0  0  0  0
   -2.9595    2.7282    0.9904 F   0  0  0  0  0  0  0  0  0  0  0  0
   -2.9727    0.7755   -0.1484 C   0  0  0  0  0  0  0  0  0  0  0  0
   -4.2302    0.9484   -0.4283 C   0  0  0  0  0  0  0  0  0  0  0  0
   -5.0155   -0.2958   -0.5000 C   0  0  0  0  0  0  0  0  0  0  0  0
   -6.2655   -0.2728   -0.4074 O   0  0  0  0  0  0  0  0  0  0  0  0
   -4.2866   -1.5236   -0.1916 C   0  0  0  0  0  0  0  0  0  0  0  0
   -2.9843   -1.5601   -0.4777 C   0  0  0  0  0  0  0  0  0  0  0  0
   -2.2140   -0.3076   -0.7857 C   0  0  1  0  0  0  0  0  0  0  0  0
   -2.3100   -0.2189   -2.3067 C   0  0  0  0  0  0  0  0  0  0  0  0
   -0.8497   -0.5224   -0.2868 C   0  0  2  0  0  0  0  0  0  0  0  0
   -0.7850   -1.6525    1.0114 Cl  0  0  0  0  0  0  0  0  0  0  0  0
   -0.0399   -1.1938   -1.5508 C   0  0  1  0  0  0  0  0  0  0  0  0
    0.4467    0.1246   -2.1320 O   0  0  0  0  0  0  0  0  0  0  0  0
    1.3282   -1.4824   -0.6943 C   0  0  0  0  0  0  0  0  0  0  0  0
    1.9240   -0.3195   -0.1564 C   0  0  1  0  0  0  0  0  0  0  0  0
    2.4138    0.8049   -0.9207 C   0  0  0  0  0  0  0  0  0  0  0  0
    3.0438   -0.8653    0.8597 C   0  0  1  0  0  0  0  0  0  0  0  0
    4.2878   -0.4383   -0.0655 C   0  0  0  0  0  0  0  0  0  0  0  0
    4.2481   -0.8927   -1.2099 O   0  0  0  0  0  0  0  0  0  0  0  0
    5.6449   -0.5926    0.5454 C   0  0  0  0  0  0  0  0  0  0  0  0
    6.4288    0.5336    0.4229 O   0  0  0  0  0  0  0  0  0  0  0  0
  2  1  1  1
  2  3  1  0
  4  3  1  1
  4  5  1  0
  5  6  1  1
  6  7  1  0
  7  8  1  1
  7  9  1  0
  9 10  2  0
 10 11  1  0
 11 12  2  0
 11 13  1  0
 13 14  2  0
 14 15  1  0
 15 16  1  6
 15 17  1  0
 17 18  1  1
 17 19  1  0
 19 20  1  6
 19 21  1  0
 21 22  1  0
 22 23  1  6
 22 24  1  0
 24 25  1  6
 25 26  2  0
 25 27  1  0
 27 28  1  0
 24  2  1  0
 22  4  1  0
 17  5  1  0
 15  9  1  0
M  END
>  <supplier_code>  (701) 
DB00838

>  <zinc_id>  (701) 
ZINC000021981454

>  <catalog_short_name>  (701) 
dbfda

$$$$

     RDKit          3D

 21 22  0  0  0  0  0  0  0  0999 V2000
    6.0192    2.3739   -0.2367 C   0  0  0  0  0  0  0  0  0  0  0  0
    4.8161    1.5043   -0.2262 C   0  0  0  0  0  0  0  0  0  0  0  0
    3.5469    1.9716   -0.4499 C   0  0  0  0  0  0  0  0  0  0  0  0
    2.4720    1.0979   -0.4918 C   0  0  0  0  0  0  0  0  0  0  0  0
    2.6925   -0.2254   -0.2153 C   0  0  0  0  0  0  0  0  0  0  0  0
    1.4418   -1.3072    0.3636 S   0  0  0  0  0  0  0  0  0  0  0  0
    1.3885   -1.2242    1.8664 O   0  0  0  0  0  0  0  0  0  0  0  0
    1.6769   -2.7135   -0.0745 O   0  0  0  0  0  0  0  0  0  0  0  0
   -0.0655   -0.6815   -0.2180 N   0  0  0  0  0  0  0  0  0  0  0  0
   -1.1560   -1.3717   -0.2074 C   0  0  0  0  0  0  0  0  0  0  0  0
   -1.0311   -2.7464   -0.2377 O   0  0  0  0  0  0  0  0  0  0  0  0
   -2.3658   -0.6669   -0.3801 N   0  0  0  0  0  0  0  0  0  0  0  0
   -2.5780    0.4886    0.3585 N   0  0  0  0  0  0  0  0  0  0  0  0
   -2.8118    1.6560   -0.4519 C   0  0  0  0  0  0  0  0  0  0  0  0
   -4.2737    1.9673   -0.6309 C   0  0  0  0  0  0  0  0  0  0  0  0
   -4.9890    0.6743   -0.9969 C   0  0  0  0  0  0  0  0  0  0  0  0
   -5.6574    0.1267    0.2589 C   0  0  0  0  0  0  0  0  0  0  0  0
   -4.5847   -0.6810    0.9801 C   0  0  0  0  0  0  0  0  0  0  0  0
   -3.5320    0.3260    1.4252 C   0  0  0  0  0  0  0  0  0  0  0  0
    3.9664   -0.7158   -0.3249 C   0  0  0  0  0  0  0  0  0  0  0  0
    5.0246    0.1470   -0.4190 C   0  0  0  0  0  0  0  0  0  0  0  0
  1  2  1  0
  2  3  2  0
  3  4  1  0
  4  5  2  0
  5  6  1  0
  6  7  2  0
  6  8  2  0
  6  9  1  0
  9 10  2  0
 10 11  1  0
 10 12  1  0
 12 13  1  0
 13 14  1  0
 14 15  1  0
 15 16  1  0
 16 17  1  0
 17 18  1  0
 18 19  1  0
  5 20  1  0
 20 21  2  0
 21  2  1  0
 19 13  1  0
M  END
>  <supplier_code>  (702) 
DB00839

>  <zinc_id>  (702) 
ZINC000000057512

>  <catalog_short_name>  (702) 
dbfda

$$$$

     RDKit          3D

 22 23  0  0  0  0  0  0  0  0999 V2000
    0.4714   -0.4709   -0.8144 C   0  0  0  0  0  0  0  0  0  0  0  0
    1.2468   -0.7061    0.6479 C   0  0  2  0  0  0  0  0  0  0  0  0
    1.9497   -2.1180    0.0923 C   0  0  0  0  0  0  0  0  0  0  0  0
    2.8378   -1.5454   -0.9837 C   0  0  0  0  0  0  0  0  0  0  0  0
    3.7003   -0.5278   -0.3270 C   0  0  0  0  0  0  0  0  0  0  0  0
    3.6650    0.7844   -0.7649 C   0  0  0  0  0  0  0  0  0  0  0  0
    4.6398    1.6732   -0.3295 C   0  0  0  0  0  0  0  0  0  0  0  0
    5.6627    1.1528    0.4533 C   0  0  0  0  0  0  0  0  0  0  0  0
    6.8257    1.8871    0.6136 O   0  0  0  0  0  0  0  0  0  0  0  0
    5.4335   -0.0023    1.1925 C   0  0  0  0  0  0  0  0  0  0  0  0
    4.3896   -0.8319    0.8272 C   0  0  0  0  0  0  0  0  0  0  0  0
   -0.0083   -1.5129    1.2287 N   0  0  0  0  0  0  0  0  0  0  0  0
   -1.0960   -0.5520    1.0441 C   0  0  0  0  0  0  0  0  0  0  0  0
   -2.3596   -1.3070    1.3278 C   0  0  0  0  0  0  0  0  0  0  0  0
   -3.5168   -0.8679    0.5342 C   0  0  0  0  0  0  0  0  0  0  0  0
   -4.7791   -0.8684    1.1164 C   0  0  0  0  0  0  0  0  0  0  0  0
   -5.7129    0.1239    0.8409 C   0  0  0  0  0  0  0  0  0  0  0  0
   -5.4309    1.0898   -0.1179 C   0  0  0  0  0  0  0  0  0  0  0  0
   -5.8522    2.4124    0.0537 O   0  0  0  0  0  0  0  0  0  0  0  0
   -4.4075    0.7552   -0.9968 C   0  0  0  0  0  0  0  0  0  0  0  0
   -4.2440    1.5866   -2.0992 O   0  0  0  0  0  0  0  0  0  0  0  0
   -3.4152   -0.1550   -0.6538 C   0  0  0  0  0  0  0  0  0  0  0  0
  2  1  1  6
  2  3  1  0
  3  4  1  0
  4  5  1  0
  5  6  2  0
  6  7  1  0
  7  8  2  0
  8  9  1  0
  8 10  1  0
 10 11  2  0
  2 12  1  0
 12 13  1  0
 13 14  1  0
 14 15  1  0
 15 16  2  0
 16 17  1  0
 17 18  2  0
 18 19  1  0
 18 20  1  0
 20 21  1  0
 20 22  2  0
 11  5  1  0
 22 15  1  0
M  END
>  <supplier_code>  (703) 
DB00841

>  <zinc_id>  (703) 
ZINC000000003911

>  <catalog_short_name>  (703) 
dbfda

$$$$

     RDKit          3D

 22 23  0  0  0  0  0  0  0  0999 V2000
   -0.0035    1.5530    0.3810 C   0  0  0  0  0  0  0  0  0  0  0  0
   -0.7199    0.1401    0.8412 C   0  0  1  0  0  0  0  0  0  0  0  0
   -0.6651   -0.4571   -0.6961 C   0  0  0  0  0  0  0  0  0  0  0  0
   -1.8241    0.2841   -1.3342 C   0  0  0  0  0  0  0  0  0  0  0  0
   -3.0011    0.3451   -0.4111 C   0  0  0  0  0  0  0  0  0  0  0  0
   -3.5077    1.5874   -0.1059 C   0  0  0  0  0  0  0  0  0  0  0  0
   -4.8289    1.8001    0.1786 C   0  0  0  0  0  0  0  0  0  0  0  0
   -5.7526    0.7770    0.0443 C   0  0  0  0  0  0  0  0  0  0  0  0
   -7.1289    1.0083    0.1290 O   0  0  0  0  0  0  0  0  0  0  0  0
   -5.2435   -0.4860   -0.2038 C   0  0  0  0  0  0  0  0  0  0  0  0
   -3.8851   -0.7193   -0.2836 C   0  0  0  0  0  0  0  0  0  0  0  0
    0.6729   -0.5139    1.2076 N   0  0  0  0  0  0  0  0  0  0  0  0
    0.5588   -1.8926    0.8229 C   0  0  0  0  0  0  0  0  0  0  0  0
    1.7054   -2.4102    0.0138 C   0  0  0  0  0  0  0  0  0  0  0  0
    2.8655   -1.5133   -0.0473 C   0  0  0  0  0  0  0  0  0  0  0  0
    3.6350   -1.5422   -1.2036 C   0  0  0  0  0  0  0  0  0  0  0  0
    4.6537   -0.6452   -1.3913 C   0  0  0  0  0  0  0  0  0  0  0  0
    4.9529    0.2863   -0.4325 C   0  0  0  0  0  0  0  0  0  0  0  0
    5.9338    1.2571   -0.6044 O   0  0  0  0  0  0  0  0  0  0  0  0
    4.1209    0.3664    0.6768 C   0  0  0  0  0  0  0  0  0  0  0  0
    4.1327    1.5097    1.4499 O   0  0  0  0  0  0  0  0  0  0  0  0
    3.3288   -0.7348    0.9780 C   0  0  0  0  0  0  0  0  0  0  0  0
  2  1  1  6
  2  3  1  0
  3  4  1  0
  4  5  1  0
  5  6  2  0
  6  7  1  0
  7  8  2  0
  8  9  1  0
  8 10  1  0
 10 11  2  0
  2 12  1  0
 12 13  1  0
 13 14  1  0
 14 15  1  0
 15 16  2  0
 16 17  1  0
 17 18  2  0
 18 19  1  0
 18 20  1  0
 20 21  1  0
 20 22  2  0
 11  5  1  0
 22 15  1  0
M  END
>  <supplier_code>  (704) 
DB00841

>  <zinc_id>  (704) 
ZINC000000057278

>  <catalog_short_name>  (704) 
dbfda

$$$$

     RDKit          3D

 20 22  0  0  0  0  0  0  0  0999 V2000
    0.5277    3.9457    0.1781 O   0  0  0  0  0  0  0  0  0  0  0  0
    0.4414    3.0444    0.3979 C   0  0  0  0  0  0  0  0  0  0  0  0
    1.5955    2.2175    0.4393 N   0  0  0  0  0  0  0  0  0  0  0  0
    1.8673    0.8493    0.1105 C   0  0  0  0  0  0  0  0  0  0  0  0
    3.0465    0.4075    0.7108 C   0  0  0  0  0  0  0  0  0  0  0  0
    3.4449   -0.8723    0.3518 C   0  0  0  0  0  0  0  0  0  0  0  0
    2.5792   -1.6743   -0.3840 C   0  0  0  0  0  0  0  0  0  0  0  0
    3.1320   -3.3114   -0.7267 Cl  0  0  0  0  0  0  0  0  0  0  0  0
    1.2337   -1.3321   -0.4714 C   0  0  0  0  0  0  0  0  0  0  0  0
    0.8829   -0.0277   -0.3382 C   0  0  0  0  0  0  0  0  0  0  0  0
   -0.5684    0.2459   -0.4137 C   0  0  0  0  0  0  0  0  0  0  0  0
   -1.3262   -1.0061   -0.5216 C   0  0  0  0  0  0  0  0  0  0  0  0
   -2.4286   -1.0121   -1.3384 C   0  0  0  0  0  0  0  0  0  0  0  0
   -3.5168   -1.8147   -1.0274 C   0  0  0  0  0  0  0  0  0  0  0  0
   -3.5271   -2.4723    0.1919 C   0  0  0  0  0  0  0  0  0  0  0  0
   -2.3841   -2.6080    0.9334 C   0  0  0  0  0  0  0  0  0  0  0  0
   -1.2785   -1.9381    0.4926 C   0  0  0  0  0  0  0  0  0  0  0  0
   -1.1246    1.2743    0.1732 N   0  0  0  0  0  0  0  0  0  0  0  0
   -0.7945    2.6382   -0.5986 C   0  0  1  0  0  0  0  0  0  0  0  0
   -1.8022    3.4462    0.2275 O   0  0  0  0  0  0  0  0  0  0  0  0
  1  2  2  0
  2  3  1  0
  3  4  1  0
  4  5  2  0
  5  6  1  0
  6  7  2  0
  7  8  1  0
  7  9  1  0
  9 10  2  0
 10 11  1  0
 11 12  1  0
 12 13  2  0
 13 14  1  0
 14 15  2  0
 15 16  1  0
 16 17  2  0
 11 18  2  0
 18 19  1  0
 19 20  1  1
 19  2  1  0
 10  4  1  0
 17 12  1  0
M  END
>  <supplier_code>  (705) 
DB00842

>  <zinc_id>  (705) 
ZINC000000000575

>  <catalog_short_name>  (705) 
dbfda

$$$$

     RDKit          3D

 20 22  0  0  0  0  0  0  0  0999 V2000
   -3.5203   -2.2480    0.2482 O   0  0  0  0  0  0  0  0  0  0  0  0
   -2.8394   -1.6612    0.2999 C   0  0  0  0  0  0  0  0  0  0  0  0
   -2.7531   -0.4720    1.0649 N   0  0  0  0  0  0  0  0  0  0  0  0
   -1.7431    0.5424    1.1174 C   0  0  0  0  0  0  0  0  0  0  0  0
   -2.1501    1.7865    1.4860 C   0  0  0  0  0  0  0  0  0  0  0  0
   -1.4580    2.8643    0.9366 C   0  0  0  0  0  0  0  0  0  0  0  0
   -0.1115    2.7520    0.6134 C   0  0  0  0  0  0  0  0  0  0  0  0
    0.7875    4.0336   -0.1786 Cl  0  0  0  0  0  0  0  0  0  0  0  0
    0.3916    1.4558    0.6200 C   0  0  0  0  0  0  0  0  0  0  0  0
   -0.5008    0.4223    0.4989 C   0  0  0  0  0  0  0  0  0  0  0  0
    0.1588   -0.8423    0.1302 C   0  0  0  0  0  0  0  0  0  0  0  0
    1.6120   -0.8847    0.3105 C   0  0  0  0  0  0  0  0  0  0  0  0
    2.2137    0.1421    1.0316 C   0  0  0  0  0  0  0  0  0  0  0  0
    3.5401    0.0159    1.4148 C   0  0  0  0  0  0  0  0  0  0  0  0
    4.3500   -0.6516    0.5045 C   0  0  0  0  0  0  0  0  0  0  0  0
    3.7900   -1.2925   -0.5855 C   0  0  0  0  0  0  0  0  0  0  0  0
    2.4195   -1.5134   -0.6307 C   0  0  0  0  0  0  0  0  0  0  0  0
   -0.5139   -1.8858   -0.0629 N   0  0  0  0  0  0  0  0  0  0  0  0
   -1.8375   -2.0134   -0.9590 C   0  0  2  0  0  0  0  0  0  0  0  0
   -1.8356   -0.5502   -1.4671 O   0  0  0  0  0  0  0  0  0  0  0  0
  1  2  2  0
  2  3  1  0
  3  4  1  0
  4  5  2  0
  5  6  1  0
  6  7  2  0
  7  8  1  0
  7  9  1  0
  9 10  2  0
 10 11  1  0
 11 12  1  0
 12 13  2  0
 13 14  1  0
 14 15  2  0
 15 16  1  0
 16 17  2  0
 11 18  2  0
 18 19  1  0
 19 20  1  6
 19  2  1  0
 10  4  1  0
 17 12  1  0
M  END
>  <supplier_code>  (706) 
DB00842

>  <zinc_id>  (706) 
ZINC000000509440

>  <catalog_short_name>  (706) 
dbfda

$$$$

     RDKit          3D

 28 31  0  0  0  0  0  0  0  0999 V2000
   -6.3360   -0.0362    2.1723 C   0  0  0  0  0  0  0  0  0  0  0  0
   -6.4940    0.5675    1.0857 O   0  0  0  0  0  0  0  0  0  0  0  0
   -5.4271    0.5810    0.1805 C   0  0  0  0  0  0  0  0  0  0  0  0
   -4.3780    1.4577    0.4273 C   0  0  0  0  0  0  0  0  0  0  0  0
   -3.1199    1.0625   -0.0092 C   0  0  0  0  0  0  0  0  0  0  0  0
   -2.9207   -0.0874   -0.7591 C   0  0  0  0  0  0  0  0  0  0  0  0
   -4.0639   -0.6379   -1.3190 C   0  0  0  0  0  0  0  0  0  0  0  0
   -5.3407   -0.3297   -0.8656 C   0  0  0  0  0  0  0  0  0  0  0  0
   -6.3845   -1.2479   -0.9375 O   0  0  0  0  0  0  0  0  0  0  0  0
   -6.6399   -2.0554   -2.0644 C   0  0  0  0  0  0  0  0  0  0  0  0
   -1.5103   -0.4961   -0.6645 C   0  0  0  0  0  0  0  0  0  0  0  0
   -1.2226   -1.7308   -0.7770 O   0  0  0  0  0  0  0  0  0  0  0  0
   -1.0895    0.0718    0.8064 C   0  0  1  0  0  0  0  0  0  0  0  0
    0.3846    0.6182    0.2759 C   0  0  0  0  0  0  0  0  0  0  0  0
    0.9569   -0.4566   -0.5811 C   0  0  0  0  0  0  0  0  0  0  0  0
    2.2157   -0.9741    0.1068 C   0  0  0  0  0  0  0  0  0  0  0  0
    2.9176    0.2810    0.6149 C   0  0  0  0  0  0  0  0  0  0  0  0
    3.3000    1.0920   -0.5237 N   0  0  0  0  0  0  0  0  0  0  0  0
    4.1011    0.2296   -1.3896 C   0  0  0  0  0  0  0  0  0  0  0  0
    5.3623   -0.0273   -0.6677 C   0  0  0  0  0  0  0  0  0  0  0  0
    5.7621   -1.3012   -0.2763 C   0  0  0  0  0  0  0  0  0  0  0  0
    7.1219   -1.4520   -0.0339 C   0  0  0  0  0  0  0  0  0  0  0  0
    7.8404   -0.3283    0.3498 C   0  0  0  0  0  0  0  0  0  0  0  0
    7.1977    0.8738    0.4951 C   0  0  0  0  0  0  0  0  0  0  0  0
    5.9322    1.0460   -0.0084 C   0  0  0  0  0  0  0  0  0  0  0  0
    2.1499    1.5020   -1.3259 C   0  0  0  0  0  0  0  0  0  0  0  0
    1.4678    0.2377   -1.8413 C   0  0  0  0  0  0  0  0  0  0  0  0
   -1.7830    1.5401    0.4578 C   0  0  0  0  0  0  0  0  0  0  0  0
  1  2  1  0
  2  3  1  0
  3  4  2  0
  4  5  1  0
  5  6  2  0
  6  7  1  0
  7  8  2  0
  8  9  1  0
  9 10  1  0
  6 11  1  0
 11 12  2  0
 11 13  1  0
 13 14  1  6
 14 15  1  0
 15 16  1  0
 16 17  1  0
 17 18  1  0
 18 19  1  0
 19 20  1  0
 20 21  2  0
 21 22  1  0
 22 23  2  0
 23 24  1  0
 24 25  2  0
 18 26  1  0
 26 27  1  0
 13 28  1  0
  8  3  1  0
 27 15  1  0
 28  5  1  0
 25 20  1  0
M  END
>  <supplier_code>  (707) 
DB00843

>  <zinc_id>  (707) 
ZINC000000597013

>  <catalog_short_name>  (707) 
dbfda

$$$$

     RDKit          3D

 28 31  0  0  0  0  0  0  0  0999 V2000
   -7.0704    1.0314    0.6908 C   0  0  0  0  0  0  0  0  0  0  0  0
   -6.4504    1.2641    0.6644 O   0  0  0  0  0  0  0  0  0  0  0  0
   -5.1099    0.8661    0.6131 C   0  0  0  0  0  0  0  0  0  0  0  0
   -4.1928    1.5122   -0.2069 C   0  0  0  0  0  0  0  0  0  0  0  0
   -2.9954    0.9419   -0.5412 C   0  0  0  0  0  0  0  0  0  0  0  0
   -2.5481   -0.0636    0.2763 C   0  0  0  0  0  0  0  0  0  0  0  0
   -3.4176   -0.6509    1.1898 C   0  0  0  0  0  0  0  0  0  0  0  0
   -4.7625   -0.3232    1.2429 C   0  0  0  0  0  0  0  0  0  0  0  0
   -5.7569   -1.2891    1.4317 O   0  0  0  0  0  0  0  0  0  0  0  0
   -5.9976   -2.2155    0.3752 C   0  0  0  0  0  0  0  0  0  0  0  0
   -1.2959   -0.5824   -0.1867 C   0  0  0  0  0  0  0  0  0  0  0  0
   -0.8295   -1.7615   -0.2132 O   0  0  0  0  0  0  0  0  0  0  0  0
   -0.7581    0.4898   -1.2723 C   0  0  2  0  0  0  0  0  0  0  0  0
   -0.8018    1.7267   -0.1786 C   0  0  0  0  0  0  0  0  0  0  0  0
    0.6255    1.7585    0.3017 C   0  0  0  0  0  0  0  0  0  0  0  0
    1.6392    1.7371   -0.7936 C   0  0  0  0  0  0  0  0  0  0  0  0
    2.7038    0.7044   -0.6459 C   0  0  0  0  0  0  0  0  0  0  0  0
    3.2906    0.6100    0.6583 N   0  0  0  0  0  0  0  0  0  0  0  0
    3.7665   -0.7541    0.8591 C   0  0  0  0  0  0  0  0  0  0  0  0
    5.1147   -0.9667    0.2921 C   0  0  0  0  0  0  0  0  0  0  0  0
    5.9769    0.0575    0.0065 C   0  0  0  0  0  0  0  0  0  0  0  0
    7.3145   -0.2106   -0.2606 C   0  0  0  0  0  0  0  0  0  0  0  0
    7.8426   -1.4847   -0.2065 C   0  0  0  0  0  0  0  0  0  0  0  0
    7.0202   -2.4632    0.3359 C   0  0  0  0  0  0  0  0  0  0  0  0
    5.6562   -2.2260    0.4209 C   0  0  0  0  0  0  0  0  0  0  0  0
    2.3625    0.8737    1.7385 C   0  0  0  0  0  0  0  0  0  0  0  0
    0.9522    0.5991    1.2350 C   0  0  0  0  0  0  0  0  0  0  0  0
   -2.2786    0.8189   -1.8214 C   0  0  0  0  0  0  0  0  0  0  0  0
  1  2  1  0
  2  3  1  0
  3  4  2  0
  4  5  1  0
  5  6  2  0
  6  7  1  0
  7  8  2  0
  8  9  1  0
  9 10  1  0
  6 11  1  0
 11 12  2  0
 11 13  1  0
 13 14  1  1
 14 15  1  0
 15 16  1  0
 16 17  1  0
 17 18  1  0
 18 19  1  0
 19 20  1  0
 20 21  2  0
 21 22  1  0
 22 23  2  0
 23 24  1  0
 24 25  2  0
 18 26  1  0
 26 27  1  0
 13 28  1  0
  8  3  1  0
 27 15  1  0
 28  5  1  0
 25 20  1  0
M  END
>  <supplier_code>  (708) 
DB00843

>  <zinc_id>  (708) 
ZINC000000897251

>  <catalog_short_name>  (708) 
dbfda

$$$$

     RDKit          3D

 26 31  0  0  0  0  0  0  0  0999 V2000
   -3.8968    1.4998   -1.9251 O   0  0  0  0  0  0  0  0  0  0  0  0
   -3.0082    1.6766   -1.2674 C   0  0  0  0  0  0  0  0  0  0  0  0
   -2.2302    2.8274   -1.3492 C   0  0  0  0  0  0  0  0  0  0  0  0
   -0.9923    2.9481   -0.7327 C   0  0  0  0  0  0  0  0  0  0  0  0
   -0.5477    1.8628    0.0052 C   0  0  0  0  0  0  0  0  0  0  0  0
   -1.4867    0.9419    0.4520 C   0  0  0  0  0  0  0  0  0  0  0  0
   -2.5829    0.6972   -0.3726 C   0  0  0  0  0  0  0  0  0  0  0  0
   -2.8374   -0.6798   -0.2603 O   0  0  0  0  0  0  0  0  0  0  0  0
   -2.2608   -1.0466    1.1120 C   0  0  1  0  0  0  0  0  0  0  0  0
   -1.7355   -2.6355    0.6945 C   0  0  1  0  0  0  0  0  0  0  0  0
   -3.1884   -3.0521    0.6060 O   0  0  0  0  0  0  0  0  0  0  0  0
   -1.5759   -2.4347   -0.9194 C   0  0  0  0  0  0  0  0  0  0  0  0
   -0.5801   -1.4212   -1.2104 C   0  0  0  0  0  0  0  0  0  0  0  0
    0.0312   -0.9063    0.0306 C   0  0  1  0  0  0  0  0  0  0  0  0
    0.6845   -2.0548    0.5460 O   0  0  0  0  0  0  0  0  0  0  0  0
    1.2444    0.1162   -0.3583 C   0  0  1  0  0  0  0  0  0  0  0  0
    0.7905    1.5178    0.3634 C   0  0  0  0  0  0  0  0  0  0  0  0
    2.0514   -0.1949    0.9559 N   0  0  0  0  0  0  0  0  0  0  0  0
    3.1330   -0.8920    0.5235 C   0  0  0  0  0  0  0  0  0  0  0  0
    3.8726   -0.0208   -0.4954 C   0  0  0  0  0  0  0  0  0  0  0  0
    5.3860   -0.1539   -0.4130 C   0  0  0  0  0  0  0  0  0  0  0  0
    5.3060    0.7775    0.7923 C   0  0  0  0  0  0  0  0  0  0  0  0
    4.0546    1.3551    0.1424 C   0  0  0  0  0  0  0  0  0  0  0  0
    1.3339   -0.1782    2.0635 C   0  0  0  0  0  0  0  0  0  0  0  0
   -0.1271   -0.2500    2.1984 C   0  0  0  0  0  0  0  0  0  0  0  0
   -0.8381   -0.2993    0.9098 C   0  0  1  0  0  0  0  0  0  0  0  0
  1  2  1  0
  2  3  2  0
  3  4  1  0
  4  5  2  0
  5  6  1  0
  6  7  2  0
  7  8  1  0
  9  8  1  6
  9 10  1  0
 10 11  1  6
 10 12  1  0
 12 13  1  0
 13 14  1  0
 14 15  1  1
 14 16  1  0
 16 17  1  1
 16 18  1  0
 18 19  1  0
 19 20  1  0
 20 21  1  0
 21 22  1  0
 22 23  1  0
 18 24  1  0
 24 25  1  0
 26 25  1  1
  7  2  1  0
 26  9  1  0
 17  5  1  0
 23 20  1  0
 26  6  1  0
 26 14  1  0
M  END
>  <supplier_code>  (709) 
DB00844

>  <zinc_id>  (709) 
ZINC000003812989

>  <catalog_short_name>  (709) 
dbfda

$$$$

     RDKit          3D

 31 35  0  0  0  0  0  0  0  0999 V2000
   -3.0503   -1.8993   -0.3223 C   0  0  0  0  0  0  0  0  0  0  0  0
   -3.4181   -1.4909   -0.5348 C   0  0  0  0  0  0  0  0  0  0  0  0
   -4.4236   -2.5118   -0.6128 C   0  0  0  0  0  0  0  0  0  0  0  0
   -2.7800   -1.0137   -1.6016 O   0  0  0  0  0  0  0  0  0  0  0  0
   -2.9456    0.5023   -1.4252 C   0  0  2  0  0  0  0  0  0  0  0  0
   -1.3729    0.8057   -1.8866 C   0  0  0  0  0  0  0  0  0  0  0  0
   -0.7688   -0.2895   -0.8553 C   0  0  1  0  0  0  0  0  0  0  0  0
    0.7707    0.4104   -0.7561 C   0  0  2  0  0  0  0  0  0  0  0  0
    1.4706   -0.4191   -1.9477 C   0  0  0  0  0  0  0  0  0  0  0  0
    2.7076    0.7149   -1.9934 C   0  0  2  0  0  0  0  0  0  0  0  0
    3.6388   -0.2938   -2.6574 F   0  0  0  0  0  0  0  0  0  0  0  0
    3.2196    0.3891   -0.4784 C   0  0  0  0  0  0  0  0  0  0  0  0
    4.5463    0.4922   -0.3198 C   0  0  0  0  0  0  0  0  0  0  0  0
    5.1199   -0.4933    0.6313 C   0  0  0  0  0  0  0  0  0  0  0  0
    6.2228   -0.3357    1.1810 O   0  0  0  0  0  0  0  0  0  0  0  0
    4.7634   -1.8849    0.1792 C   0  0  0  0  0  0  0  0  0  0  0  0
    3.3019   -1.9460   -0.2727 C   0  0  0  0  0  0  0  0  0  0  0  0
    2.6930   -0.6596    0.2811 C   0  0  1  0  0  0  0  0  0  0  0  0
    3.2215   -0.5931    1.6829 C   0  0  0  0  0  0  0  0  0  0  0  0
    1.1129   -0.8150    0.3484 C   0  0  1  0  0  0  0  0  0  0  0  0
    0.8799    0.1372    1.7697 C   0  0  1  0  0  0  0  0  0  0  0  0
    1.1649    1.4889    1.1276 O   0  0  0  0  0  0  0  0  0  0  0  0
   -0.7569    0.2137    1.6172 C   0  0  0  0  0  0  0  0  0  0  0  0
   -1.2257    0.6886    0.3638 C   0  0  1  0  0  0  0  0  0  0  0  0
   -0.9380    2.1044   -0.0330 C   0  0  0  0  0  0  0  0  0  0  0  0
   -2.6245    0.4266    0.1938 C   0  0  1  0  0  0  0  0  0  0  0  0
   -3.5780    1.4563    0.7088 C   0  0  0  0  0  0  0  0  0  0  0  0
   -3.3927    2.6241    0.4071 O   0  0  0  0  0  0  0  0  0  0  0  0
   -4.9509    1.0666    1.1248 C   0  0  0  0  0  0  0  0  0  0  0  0
   -5.4812    1.9153    2.0768 O   0  0  0  0  0  0  0  0  0  0  0  0
   -3.1268   -0.7906    0.5206 O   0  0  0  0  0  0  0  0  0  0  0  0
  1  2  1  0
  2  3  1  0
  2  4  1  0
  5  4  1  6
  5  6  1  0
  7  6  1  6
  7  8  1  0
  8  9  1  6
  9 10  1  0
 10 11  1  6
 10 12  1  0
 12 13  2  0
 13 14  1  0
 14 15  2  0
 14 16  1  0
 16 17  1  0
 17 18  1  0
 18 19  1  1
 20 18  1  6
 20 21  1  0
 21 22  1  6
 21 23  1  0
 23 24  1  0
 24 25  1  6
 24 26  1  0
 26 27  1  1
 27 28  2  0
 27 29  1  0
 29 30  1  0
 26 31  1  0
 31  2  1  0
 26  5  1  0
 24  7  1  0
 20  8  1  0
 18 12  1  0
M  END
>  <supplier_code>  (710) 
DB00846

>  <zinc_id>  (710) 
ZINC000004097308

>  <catalog_short_name>  (710) 
dbfda

$$$$

     RDKit          3D

  4  3  0  0  0  0  0  0  0  0999 V2000
   -1.6292   -0.5383   -0.2007 N   0  0  0  0  0  0  0  0  0  0  0  0
   -0.7320    0.3983    0.4594 C   0  0  0  0  0  0  0  0  0  0  0  0
    0.5229    0.6408   -0.3686 C   0  0  0  0  0  0  0  0  0  0  0  0
    1.8384   -0.5007    0.1099 S   0  0  0  0  0  0  0  0  0  0  0  0
  1  2  1  0
  2  3  1  0
  3  4  1  0
M  END
>  <supplier_code>  (711) 
DB00847

>  <zinc_id>  (711) 
ZINC000008034121

>  <catalog_short_name>  (711) 
dbfda

$$$$

     RDKit          3D

 27 30  0  0  0  0  0  0  0  0999 V2000
    6.6829    0.2496    0.8902 O   0  0  0  0  0  0  0  0  0  0  0  0
    6.6664   -0.6121   -0.1934 C   0  0  0  0  0  0  0  0  0  0  0  0
    6.2396    0.1089   -1.4674 C   0  0  0  0  0  0  0  0  0  0  0  0
    4.7778    0.0793   -1.4564 N   0  0  0  0  0  0  0  0  0  0  0  0
    4.3987   -1.3046   -1.3134 C   0  0  0  0  0  0  0  0  0  0  0  0
    2.9270   -1.5047   -1.0907 C   0  0  0  0  0  0  0  0  0  0  0  0
    2.2473   -0.3188   -0.6348 N   0  0  0  0  0  0  0  0  0  0  0  0
    1.0884   -0.7683    0.1334 C   0  0  0  0  0  0  0  0  0  0  0  0
    0.4400   -1.8974   -0.6296 C   0  0  0  0  0  0  0  0  0  0  0  0
   -0.9026   -2.2042    0.0210 C   0  0  0  0  0  0  0  0  0  0  0  0
   -1.6720   -0.9687    0.1203 N   0  0  0  0  0  0  0  0  0  0  0  0
   -1.9068   -0.2277   -1.0653 C   0  0  0  0  0  0  0  0  0  0  0  0
   -1.5354   -0.6827   -2.3249 C   0  0  0  0  0  0  0  0  0  0  0  0
   -2.3170   -0.2166   -3.3755 C   0  0  0  0  0  0  0  0  0  0  0  0
   -3.0211    0.9768   -3.2800 C   0  0  0  0  0  0  0  0  0  0  0  0
   -3.1139    1.6085   -2.0514 C   0  0  0  0  0  0  0  0  0  0  0  0
   -2.3504    1.0882   -1.0168 C   0  0  0  0  0  0  0  0  0  0  0  0
   -2.3000    1.8921    0.5889 S   0  0  0  0  0  0  0  0  0  0  0  0
   -2.5796    0.5934    1.7990 C   0  0  0  0  0  0  0  0  0  0  0  0
   -3.7143    0.7387    2.5878 C   0  0  0  0  0  0  0  0  0  0  0  0
   -4.0985   -0.2861    3.4419 C   0  0  0  0  0  0  0  0  0  0  0  0
   -3.7007   -1.5812    3.1443 C   0  0  0  0  0  0  0  0  0  0  0  0
   -4.6693   -2.9193    3.7083 Cl  0  0  0  0  0  0  0  0  0  0  0  0
   -2.6935   -1.7326    2.2021 C   0  0  0  0  0  0  0  0  0  0  0  0
   -2.3061   -0.6974    1.3627 C   0  0  0  0  0  0  0  0  0  0  0  0
    3.0478    0.4939    0.2463 C   0  0  0  0  0  0  0  0  0  0  0  0
    4.3654    0.9029   -0.3466 C   0  0  0  0  0  0  0  0  0  0  0  0
  1  2  1  0
  2  3  1  0
  3  4  1  0
  4  5  1  0
  5  6  1  0
  6  7  1  0
  7  8  1  0
  8  9  1  0
  9 10  1  0
 10 11  1  0
 11 12  1  0
 12 13  2  0
 13 14  1  0
 14 15  2  0
 15 16  1  0
 16 17  2  0
 17 18  1  0
 18 19  1  0
 19 20  2  0
 20 21  1  0
 21 22  2  0
 22 23  1  0
 22 24  1  0
 24 25  2  0
  7 26  1  0
 26 27  1  0
 27  4  1  0
 25 11  1  0
 17 12  1  0
 25 19  1  0
M  END
>  <supplier_code>  (712) 
DB00850

>  <zinc_id>  (712) 
ZINC000019228902

>  <catalog_short_name>  (712) 
dbfda

$$$$

     RDKit          3D

 13 13  0  0  0  0  0  0  0  0999 V2000
    1.8146    0.8679    1.0580 C   0  0  0  0  0  0  0  0  0  0  0  0
    2.5268    0.4063   -0.1221 N   0  0  0  0  0  0  0  0  0  0  0  0
    3.5534    1.2663   -0.7031 C   0  0  0  0  0  0  0  0  0  0  0  0
    2.0015   -0.5744   -0.9850 N   0  0  0  0  0  0  0  0  0  0  0  0
    0.7333   -0.4953   -1.1392 N   0  0  0  0  0  0  0  0  0  0  0  0
   -0.0126   -0.6268    0.0807 C   0  0  0  0  0  0  0  0  0  0  0  0
    0.0095   -1.7766    0.7995 N   0  0  0  0  0  0  0  0  0  0  0  0
   -1.2545   -2.1441    1.1238 C   0  0  0  0  0  0  0  0  0  0  0  0
   -1.9945   -1.0127    1.0294 N   0  0  0  0  0  0  0  0  0  0  0  0
   -1.3553   -0.2621    0.1000 C   0  0  0  0  0  0  0  0  0  0  0  0
   -1.8737    1.0363   -0.3157 C   0  0  0  0  0  0  0  0  0  0  0  0
   -1.9223    2.1323    0.5754 N   0  0  0  0  0  0  0  0  0  0  0  0
   -2.2264    1.1829   -1.5019 O   0  0  0  0  0  0  0  0  0  0  0  0
  1  2  1  0
  2  3  1  0
  2  4  1  0
  4  5  2  0
  5  6  1  0
  6  7  1  0
  7  8  1  0
  8  9  2  0
  9 10  1  0
 10 11  1  0
 11 12  1  0
 11 13  2  0
 10  6  2  0
M  END
>  <supplier_code>  (713) 
DB00851

>  <zinc_id>  (713) 
ZINC000018099446

>  <catalog_short_name>  (713) 
dbfda

$$$$

     RDKit          3D

 13 13  0  0  0  0  0  0  0  0999 V2000
    3.1056   -1.4127    1.0012 C   0  0  0  0  0  0  0  0  0  0  0  0
    3.0177   -0.3687   -0.0171 N   0  0  0  0  0  0  0  0  0  0  0  0
    3.7137    0.8753    0.2975 C   0  0  0  0  0  0  0  0  0  0  0  0
    1.7387   -0.2103   -0.5877 N   0  0  0  0  0  0  0  0  0  0  0  0
    0.8033    0.0129    0.2321 N   0  0  0  0  0  0  0  0  0  0  0  0
   -0.3940    0.6746   -0.1360 C   0  0  0  0  0  0  0  0  0  0  0  0
   -0.5090    1.9471   -0.5477 N   0  0  0  0  0  0  0  0  0  0  0  0
   -1.6960    1.9953   -1.1953 C   0  0  0  0  0  0  0  0  0  0  0  0
   -2.4752    1.0998   -0.5400 N   0  0  0  0  0  0  0  0  0  0  0  0
   -1.6407    0.0813   -0.2783 C   0  0  0  0  0  0  0  0  0  0  0  0
   -1.9488   -1.2555    0.2370 C   0  0  0  0  0  0  0  0  0  0  0  0
   -2.6629   -1.3040    1.4672 N   0  0  0  0  0  0  0  0  0  0  0  0
   -1.0524   -2.1351    0.0671 O   0  0  0  0  0  0  0  0  0  0  0  0
  1  2  1  0
  2  3  1  0
  2  4  1  0
  4  5  2  0
  5  6  1  0
  6  7  1  0
  7  8  1  0
  8  9  2  0
  9 10  1  0
 10 11  1  0
 11 12  1  0
 11 13  2  0
 10  6  2  0
M  END
>  <supplier_code>  (714) 
DB00851

>  <zinc_id>  (714) 
ZINC000100019007

>  <catalog_short_name>  (714) 
dbfda

$$$$

     RDKit          3D

 12 12  0  0  0  0  0  0  0  0999 V2000
    3.4369    0.7157    0.5210 C   0  0  0  0  0  0  0  0  0  0  0  0
    2.9659    0.1316    0.2665 N   0  0  0  0  0  0  0  0  0  0  0  0
    1.4840    0.6513    0.4055 C   0  0  1  0  0  0  0  0  0  0  0  0
    1.6038    1.5457   -0.9720 C   0  0  0  0  0  0  0  0  0  0  0  0
    0.8725   -0.7177   -0.5101 C   0  0  1  0  0  0  0  0  0  0  0  0
    1.2385   -1.6840    0.6339 O   0  0  0  0  0  0  0  0  0  0  0  0
   -0.6568   -0.5703    0.0681 C   0  0  0  0  0  0  0  0  0  0  0  0
   -1.4592   -1.2050   -0.8821 C   0  0  0  0  0  0  0  0  0  0  0  0
   -2.7488   -0.7472   -1.1289 C   0  0  0  0  0  0  0  0  0  0  0  0
   -3.2277    0.3624   -0.4696 C   0  0  0  0  0  0  0  0  0  0  0  0
   -2.4392    0.8347    0.5735 C   0  0  0  0  0  0  0  0  0  0  0  0
   -1.0698    0.6828    0.3941 C   0  0  0  0  0  0  0  0  0  0  0  0
  1  2  1  0
  3  2  1  6
  3  4  1  0
  3  5  1  0
  5  6  1  1
  5  7  1  0
  7  8  2  0
  8  9  1  0
  9 10  2  0
 10 11  1  0
 11 12  2  0
 12  7  1  0
M  END
>  <supplier_code>  (715) 
DB00852

>  <zinc_id>  (715) 
ZINC000000020259

>  <catalog_short_name>  (715) 
dbfda

$$$$

     RDKit          3D

 14 15  0  0  0  0  0  0  0  0999 V2000
   -3.6617   -1.0413   -0.3366 C   0  0  0  0  0  0  0  0  0  0  0  0
   -2.2734   -0.7576   -0.0711 N   0  0  0  0  0  0  0  0  0  0  0  0
   -1.3846   -1.6765    0.2612 N   0  0  0  0  0  0  0  0  0  0  0  0
   -0.1089   -1.3937    0.0029 N   0  0  0  0  0  0  0  0  0  0  0  0
    0.3356   -0.1601   -0.2540 C   0  0  0  0  0  0  0  0  0  0  0  0
    1.5928    0.4280   -0.1926 C   0  0  0  0  0  0  0  0  0  0  0  0
    2.8451   -0.2503    0.1646 C   0  0  0  0  0  0  0  0  0  0  0  0
    3.2018   -1.3519   -0.6775 N   0  0  0  0  0  0  0  0  0  0  0  0
    3.0438   -0.4192    1.4055 O   0  0  0  0  0  0  0  0  0  0  0  0
    1.3831    1.7615   -0.2932 N   0  0  0  0  0  0  0  0  0  0  0  0
    0.0915    2.0182   -0.0272 C   0  0  0  0  0  0  0  0  0  0  0  0
   -0.5641    0.8515   -0.2017 N   0  0  0  0  0  0  0  0  0  0  0  0
   -1.8528    0.5302   -0.0486 C   0  0  0  0  0  0  0  0  0  0  0  0
   -2.6482    1.4613    0.2684 O   0  0  0  0  0  0  0  0  0  0  0  0
  1  2  1  0
  2  3  1  0
  3  4  2  0
  4  5  1  0
  5  6  2  0
  6  7  1  0
  7  8  1  0
  7  9  2  0
  6 10  1  0
 10 11  2  0
 11 12  1  0
 12 13  1  0
 13 14  2  0
 13  2  1  0
 12  5  1  0
M  END
>  <supplier_code>  (716) 
DB00853

>  <zinc_id>  (716) 
ZINC000001482184

>  <catalog_short_name>  (716) 
dbfda

$$$$

     RDKit          3D

 19 22  0  0  0  0  0  0  0  0999 V2000
   -2.5031   -3.0094   -0.1892 C   0  0  0  0  0  0  0  0  0  0  0  0
   -2.5636   -1.7801   -0.2825 N   0  0  0  0  0  0  0  0  0  0  0  0
   -2.6925   -1.0059    0.8763 C   0  0  0  0  0  0  0  0  0  0  0  0
   -1.5381   -0.3158    1.4783 C   0  0  0  0  0  0  0  0  0  0  0  0
   -0.7436    0.5705    0.6016 C   0  0  2  0  0  0  0  0  0  0  0  0
   -1.0257    2.0336    0.7183 C   0  0  0  0  0  0  0  0  0  0  0  0
   -0.3748    2.8197   -0.3733 C   0  0  0  0  0  0  0  0  0  0  0  0
   -0.6043    2.2554   -1.7622 C   0  0  0  0  0  0  0  0  0  0  0  0
   -0.2654    0.7647   -1.7287 C   0  0  0  0  0  0  0  0  0  0  0  0
   -1.5324    0.2863   -0.7942 C   0  0  1  0  0  0  0  0  0  0  0  0
   -1.1841   -1.4055   -0.9794 C   0  0  1  0  0  0  0  0  0  0  0  0
   -0.3840   -1.6802    0.4374 C   0  0  0  0  0  0  0  0  0  0  0  0
    0.9162   -1.0279    0.2967 C   0  0  0  0  0  0  0  0  0  0  0  0
    2.1644   -1.5609    0.3558 C   0  0  0  0  0  0  0  0  0  0  0  0
    3.1943   -0.6509    0.1336 C   0  0  0  0  0  0  0  0  0  0  0  0
    2.9403    0.7054   -0.0461 C   0  0  0  0  0  0  0  0  0  0  0  0
    3.8291    1.4422   -0.8399 O   0  0  0  0  0  0  0  0  0  0  0  0
    1.7026    1.2219    0.3312 C   0  0  0  0  0  0  0  0  0  0  0  0
    0.6646    0.3368    0.4584 C   0  0  0  0  0  0  0  0  0  0  0  0
  1  2  1  0
  2  3  1  0
  3  4  1  0
  5  4  1  1
  5  6  1  0
  6  7  1  0
  7  8  1  0
  8  9  1  0
 10  9  1  6
 10 11  1  0
 11 12  1  1
 12 13  1  0
 13 14  2  0
 14 15  1  0
 15 16  2  0
 16 17  1  0
 16 18  1  0
 18 19  2  0
 11  2  1  0
 19 13  1  0
 10  5  1  0
 19  5  1  0
M  END
>  <supplier_code>  (717) 
DB00854

>  <zinc_id>  (717) 
ZINC000003812984

>  <catalog_short_name>  (717) 
dbfda

$$$$

     RDKit          3D

  9  8  0  0  0  0  0  0  0  0999 V2000
    3.3537   -1.0755   -0.2350 N   0  0  0  0  0  0  0  0  0  0  0  0
    1.9115   -1.0414   -0.2440 C   0  0  0  0  0  0  0  0  0  0  0  0
    1.4183    0.2978    0.2095 C   0  0  0  0  0  0  0  0  0  0  0  0
    1.5002    1.2121   -0.6092 O   0  0  0  0  0  0  0  0  0  0  0  0
    0.2417    0.2494    1.1369 C   0  0  0  0  0  0  0  0  0  0  0  0
   -0.9785    0.8984    0.5439 C   0  0  0  0  0  0  0  0  0  0  0  0
   -2.0082   -0.1141    0.1422 C   0  0  0  0  0  0  0  0  0  0  0  0
   -2.5079    0.1281   -1.0005 O   0  0  0  0  0  0  0  0  0  0  0  0
   -2.9308   -0.5545    1.0968 O   0  0  0  0  0  0  0  0  0  0  0  0
  1  2  1  0
  2  3  1  0
  3  4  2  0
  3  5  1  0
  5  6  1  0
  6  7  1  0
  7  8  2  0
  7  9  1  0
M  END
>  <supplier_code>  (718) 
DB00855

>  <zinc_id>  (718) 
ZINC000003782550

>  <catalog_short_name>  (718) 
dbfda

$$$$

     RDKit          3D

 22 23  0  0  0  0  0  0  0  0999 V2000
    0.5001    0.4848   -1.2274 C   0  0  0  0  0  0  0  0  0  0  0  0
    0.2733   -0.1199    0.0584 N   0  0  0  0  0  0  0  0  0  0  0  0
    0.3369    0.8149    1.1564 C   0  0  0  0  0  0  0  0  0  0  0  0
    1.7685    1.2436    1.2560 C   0  0  0  0  0  0  0  0  0  0  0  0
    2.6987    0.5283    1.8436 C   0  0  0  0  0  0  0  0  0  0  0  0
    4.0314    0.3533    1.3101 C   0  0  0  0  0  0  0  0  0  0  0  0
    4.9936   -0.0314    0.6723 C   0  0  0  0  0  0  0  0  0  0  0  0
    5.8014   -0.6815   -0.3760 C   0  0  0  0  0  0  0  0  0  0  0  0
    5.6001   -2.1763   -0.3591 C   0  0  0  0  0  0  0  0  0  0  0  0
    5.4670   -0.1068   -1.7462 C   0  0  0  0  0  0  0  0  0  0  0  0
    7.2410   -0.3214   -0.0381 C   0  0  0  0  0  0  0  0  0  0  0  0
   -0.8628   -0.9948    0.1051 C   0  0  0  0  0  0  0  0  0  0  0  0
   -2.1128   -0.3035    0.5356 C   0  0  0  0  0  0  0  0  0  0  0  0
   -2.5422   -0.5001    1.8391 C   0  0  0  0  0  0  0  0  0  0  0  0
   -3.8889   -0.5818    2.1698 C   0  0  0  0  0  0  0  0  0  0  0  0
   -4.8484   -0.4716    1.1922 C   0  0  0  0  0  0  0  0  0  0  0  0
   -4.4491   -0.1642   -0.0923 C   0  0  0  0  0  0  0  0  0  0  0  0
   -5.4158   -0.1420   -1.0806 C   0  0  0  0  0  0  0  0  0  0  0  0
   -5.0069   -0.3123   -2.3910 C   0  0  0  0  0  0  0  0  0  0  0  0
   -3.7339    0.1322   -2.7030 C   0  0  0  0  0  0  0  0  0  0  0  0
   -2.7521    0.1330   -1.7258 C   0  0  0  0  0  0  0  0  0  0  0  0
   -3.0991   -0.0502   -0.3989 C   0  0  0  0  0  0  0  0  0  0  0  0
  1  2  1  0
  2  3  1  0
  3  4  1  0
  4  5  2  0
  5  6  1  0
  6  7  3  0
  7  8  1  0
  8  9  1  0
  8 10  1  0
  8 11  1  0
  2 12  1  0
 12 13  1  0
 13 14  2  0
 14 15  1  0
 15 16  2  0
 16 17  1  0
 17 18  2  0
 18 19  1  0
 19 20  2  0
 20 21  1  0
 21 22  2  0
 22 13  1  0
 22 17  1  0
M  END
>  <supplier_code>  (719) 
DB00857

>  <zinc_id>  (719) 
ZINC000001530981

>  <catalog_short_name>  (719) 
dbfda

$$$$

     RDKit          3D

  9  8  0  0  0  0  0  0  0  0999 V2000
   -2.0274    0.3190   -0.8998 C   0  0  0  0  0  0  0  0  0  0  0  0
   -1.0074    0.3666   -0.1364 C   0  0  0  0  0  0  0  0  0  0  0  0
   -0.6110    1.8307   -0.2138 C   0  0  0  0  0  0  0  0  0  0  0  0
   -1.2958   -0.2687    1.4684 S   0  0  0  0  0  0  0  0  0  0  0  0
    0.1889   -0.4683   -0.8928 C   0  0  2  0  0  0  0  0  0  0  0  0
   -0.2516   -1.8504   -0.2645 N   0  0  0  0  0  0  0  0  0  0  0  0
    1.3046   -0.2510    0.2522 C   0  0  0  0  0  0  0  0  0  0  0  0
    2.3999   -0.5170   -0.3403 O   0  0  0  0  0  0  0  0  0  0  0  0
    1.2998    0.8389    1.0270 O   0  0  0  0  0  0  0  0  0  0  0  0
  1  2  1  0
  2  3  1  0
  2  4  1  0
  5  2  1  1
  5  6  1  0
  5  7  1  0
  7  8  2  0
  7  9  1  0
M  END
>  <supplier_code>  (720) 
DB00859

>  <zinc_id>  (720) 
ZINC000000114124

>  <catalog_short_name>  (720) 
dbfda

$$$$

     RDKit          3D

  9  8  0  0  0  0  0  0  0  0999 V2000
   -0.9974   -1.0283    1.3897 C   0  0  0  0  0  0  0  0  0  0  0  0
   -1.0372   -0.3852    0.1012 C   0  0  0  0  0  0  0  0  0  0  0  0
   -2.0514   -1.1441   -0.7261 C   0  0  0  0  0  0  0  0  0  0  0  0
   -1.3984    1.3253    0.0585 S   0  0  0  0  0  0  0  0  0  0  0  0
    0.4246   -0.7198   -0.5676 C   0  0  1  0  0  0  0  0  0  0  0  0
    0.2314    0.3506   -1.7111 N   0  0  0  0  0  0  0  0  0  0  0  0
    1.2166    0.2731    0.4210 C   0  0  0  0  0  0  0  0  0  0  0  0
    1.0858    1.4797    0.3501 O   0  0  0  0  0  0  0  0  0  0  0  0
    2.5259   -0.1513    0.6842 O   0  0  0  0  0  0  0  0  0  0  0  0
  1  2  1  0
  2  3  1  0
  2  4  1  0
  5  2  1  1
  5  6  1  0
  5  7  1  0
  7  8  2  0
  7  9  1  0
M  END
>  <supplier_code>  (721) 
DB00859

>  <zinc_id>  (721) 
ZINC000000114127

>  <catalog_short_name>  (721) 
dbfda

$$$$

     RDKit          3D

 26 29  0  0  0  0  0  0  0  0999 V2000
    1.6490    0.0245   -1.9387 C   0  0  0  0  0  0  0  0  0  0  0  0
    1.6759   -0.2426   -0.6304 C   0  0  2  0  0  0  0  0  0  0  0  0
    1.2368   -1.4744   -0.0446 C   0  0  0  0  0  0  0  0  0  0  0  0
   -0.3416   -1.7987   -0.3280 C   0  0  2  0  0  0  0  0  0  0  0  0
   -0.3257   -1.2660   -1.7399 O   0  0  0  0  0  0  0  0  0  0  0  0
   -0.9091   -0.4016    0.4645 C   0  0  1  0  0  0  0  0  0  0  0  0
   -0.4594    0.7281   -0.6828 C   0  0  1  0  0  0  0  0  0  0  0  0
   -1.1659    1.9720    0.0264 C   0  0  0  0  0  0  0  0  0  0  0  0
   -2.1271    1.6250    1.0502 C   0  0  0  0  0  0  0  0  0  0  0  0
   -3.0713    0.5291    0.7293 C   0  0  0  0  0  0  0  0  0  0  0  0
   -4.0286    0.2856    1.6220 C   0  0  0  0  0  0  0  0  0  0  0  0
   -4.8949   -0.8591    1.3099 C   0  0  0  0  0  0  0  0  0  0  0  0
   -6.0798   -0.9039    1.7192 O   0  0  0  0  0  0  0  0  0  0  0  0
   -4.1758   -2.0255    0.7866 C   0  0  0  0  0  0  0  0  0  0  0  0
   -2.8968   -1.8908    0.4288 C   0  0  0  0  0  0  0  0  0  0  0  0
   -2.4186   -0.5804   -0.0446 C   0  0  2  0  0  0  0  0  0  0  0  0
   -2.5854   -0.2884   -1.4622 C   0  0  0  0  0  0  0  0  0  0  0  0
    0.9505    0.9382    0.2132 C   0  0  2  0  0  0  0  0  0  0  0  0
    1.5896    2.0428   -0.7773 C   0  0  0  0  0  0  0  0  0  0  0  0
    3.0073    1.6719   -0.3500 C   0  0  0  0  0  0  0  0  0  0  0  0
    2.9990    0.1641   -0.0992 C   0  0  1  0  0  0  0  0  0  0  0  0
    3.0395   -0.1329    1.2325 O   0  0  0  0  0  0  0  0  0  0  0  0
    4.1964   -0.3222   -0.7829 C   0  0  0  0  0  0  0  0  0  0  0  0
    4.3474    0.0704   -1.9413 O   0  0  0  0  0  0  0  0  0  0  0  0
    5.4614   -0.2888    0.0289 C   0  0  0  0  0  0  0  0  0  0  0  0
    5.3275    0.4036    1.2106 O   0  0  0  0  0  0  0  0  0  0  0  0
  2  1  1  6
  2  3  1  0
  3  4  1  0
  4  5  1  6
  6  4  1  6
  6  7  1  0
  7  8  1  1
  8  9  1  0
  9 10  1  0
 10 11  2  0
 11 12  1  0
 12 13  2  0
 12 14  1  0
 14 15  2  0
 15 16  1  0
 16 17  1  6
  7 18  1  0
 18 19  1  6
 19 20  1  0
 20 21  1  0
 21 22  1  1
 21 23  1  0
 23 24  2  0
 23 25  1  0
 25 26  1  0
 18  2  1  0
 21  2  1  0
 16  6  1  0
 16 10  1  0
M  END
>  <supplier_code>  (722) 
DB00860

>  <zinc_id>  (722) 
ZINC000003833821

>  <catalog_short_name>  (722) 
dbfda

$$$$

     RDKit          3D

 18 19  0  0  0  0  0  0  0  0999 V2000
   -4.1812    0.1041   -1.0295 O   0  0  0  0  0  0  0  0  0  0  0  0
   -3.4090    1.0346   -0.6447 C   0  0  0  0  0  0  0  0  0  0  0  0
   -3.2730    2.1576   -1.4604 O   0  0  0  0  0  0  0  0  0  0  0  0
   -2.1942    0.5752    0.0421 C   0  0  0  0  0  0  0  0  0  0  0  0
   -1.0906    0.1086   -0.6452 C   0  0  0  0  0  0  0  0  0  0  0  0
   -0.2021   -0.8103   -0.1125 C   0  0  0  0  0  0  0  0  0  0  0  0
    1.1944   -0.7637   -0.5651 C   0  0  0  0  0  0  0  0  0  0  0  0
    1.6091    0.1742   -1.5009 C   0  0  0  0  0  0  0  0  0  0  0  0
    2.9197    0.6321   -1.5546 C   0  0  0  0  0  0  0  0  0  0  0  0
    3.7243    0.4239   -0.4416 C   0  0  0  0  0  0  0  0  0  0  0  0
    4.6330    1.3404   -0.0478 F   0  0  0  0  0  0  0  0  0  0  0  0
    3.4437   -0.7305    0.2724 C   0  0  0  0  0  0  0  0  0  0  0  0
    2.2150   -1.3704    0.1599 C   0  0  0  0  0  0  0  0  0  0  0  0
    1.8861   -2.4702    0.8697 F   0  0  0  0  0  0  0  0  0  0  0  0
   -0.5431   -1.3192    1.1343 C   0  0  0  0  0  0  0  0  0  0  0  0
   -1.4406   -0.6298    1.9410 C   0  0  0  0  0  0  0  0  0  0  0  0
   -2.2767    0.3311    1.3971 C   0  0  0  0  0  0  0  0  0  0  0  0
   -3.0147    1.2125    2.1858 O   0  0  0  0  0  0  0  0  0  0  0  0
  1  2  2  0
  2  3  1  0
  2  4  1  0
  4  5  2  0
  5  6  1  0
  6  7  1  0
  7  8  2  0
  8  9  1  0
  9 10  2  0
 10 11  1  0
 10 12  1  0
 12 13  2  0
 13 14  1  0
  6 15  2  0
 15 16  1  0
 16 17  2  0
 17 18  1  0
 17  4  1  0
 13  7  1  0
M  END
>  <supplier_code>  (723) 
DB00861

>  <zinc_id>  (723) 
ZINC000000020243

>  <catalog_short_name>  (723) 
dbfda

$$$$

     RDKit          3D

 34 37  0  0  0  0  0  0  0  0999 V2000
    5.2854    3.5625    1.3875 C   0  0  0  0  0  0  0  0  0  0  0  0
    4.2826    4.5417    0.7970 C   0  0  0  0  0  0  0  0  0  0  0  0
    3.0480    3.7788    0.3360 C   0  0  0  0  0  0  0  0  0  0  0  0
    3.4995    2.5767   -0.4262 C   0  0  0  0  0  0  0  0  0  0  0  0
    4.6451    2.5297   -1.1379 N   0  0  0  0  0  0  0  0  0  0  0  0
    4.9081    1.2452   -1.4709 C   0  0  0  0  0  0  0  0  0  0  0  0
    6.2391    0.6134   -1.7189 C   0  0  0  0  0  0  0  0  0  0  0  0
    3.8380    0.5216   -0.9714 C   0  0  0  0  0  0  0  0  0  0  0  0
    3.5214   -0.8145   -1.0168 C   0  0  0  0  0  0  0  0  0  0  0  0
    4.4566   -1.6674   -1.0530 O   0  0  0  0  0  0  0  0  0  0  0  0
    2.2202   -1.1724   -0.9183 N   0  0  0  0  0  0  0  0  0  0  0  0
    1.3268   -0.3420   -0.3299 C   0  0  0  0  0  0  0  0  0  0  0  0
    0.1604   -0.8998    0.3674 C   0  0  0  0  0  0  0  0  0  0  0  0
   -1.1343   -0.7046   -0.0932 C   0  0  0  0  0  0  0  0  0  0  0  0
   -2.2131   -1.2360    0.6043 C   0  0  0  0  0  0  0  0  0  0  0  0
   -3.5722   -1.9804   -0.2307 S   0  0  0  0  0  0  0  0  0  0  0  0
   -3.1329   -3.2439   -0.9354 O   0  0  0  0  0  0  0  0  0  0  0  0
   -4.5595   -2.3974    0.8263 O   0  0  0  0  0  0  0  0  0  0  0  0
   -4.2577   -0.9439   -1.4035 N   0  0  0  0  0  0  0  0  0  0  0  0
   -5.6685   -0.7300   -1.2205 C   0  0  0  0  0  0  0  0  0  0  0  0
   -5.8726    0.3263   -0.1471 C   0  0  0  0  0  0  0  0  0  0  0  0
   -5.3630    1.5738   -0.7131 N   0  0  0  0  0  0  0  0  0  0  0  0
   -5.6462    2.6081    0.2733 C   0  0  0  0  0  0  0  0  0  0  0  0
   -6.2432    3.8263   -0.3784 C   0  0  0  0  0  0  0  0  0  0  0  0
   -3.9133    1.4116   -0.7733 C   0  0  0  0  0  0  0  0  0  0  0  0
   -3.5070    0.2554   -1.6408 C   0  0  0  0  0  0  0  0  0  0  0  0
   -1.9658   -1.4896    1.9482 C   0  0  0  0  0  0  0  0  0  0  0  0
   -0.6715   -1.6857    2.4141 C   0  0  0  0  0  0  0  0  0  0  0  0
    0.4211   -1.5534    1.5656 C   0  0  0  0  0  0  0  0  0  0  0  0
    1.5144   -2.4232    1.6271 O   0  0  0  0  0  0  0  0  0  0  0  0
    1.3486   -3.8370    1.6403 C   0  0  0  0  0  0  0  0  0  0  0  0
    2.3857   -4.5465    0.8190 C   0  0  0  0  0  0  0  0  0  0  0  0
    1.7085    0.9340   -0.0849 N   0  0  0  0  0  0  0  0  0  0  0  0
    2.9114    1.3626   -0.4594 N   0  0  0  0  0  0  0  0  0  0  0  0
  1  2  1  0
  2  3  1  0
  3  4  1  0
  4  5  2  0
  5  6  1  0
  6  7  1  0
  6  8  2  0
  8  9  1  0
  9 10  2  0
  9 11  1  0
 11 12  1  0
 12 13  1  0
 13 14  2  0
 14 15  1  0
 15 16  1  0
 16 17  2  0
 16 18  2  0
 16 19  1  0
 19 20  1  0
 20 21  1  0
 21 22  1  0
 22 23  1  0
 23 24  1  0
 22 25  1  0
 25 26  1  0
 15 27  2  0
 27 28  1  0
 28 29  2  0
 29 30  1  0
 30 31  1  0
 31 32  1  0
 12 33  2  0
 33 34  1  0
 34  4  1  0
 34  8  1  0
 29 13  1  0
 26 19  1  0
M  END
>  <supplier_code>  (724) 
DB00862

>  <zinc_id>  (724) 
ZINC000018324776

>  <catalog_short_name>  (724) 
dbfda

$$$$

     RDKit          3D

 21 21  0  0  0  0  0  0  0  0999 V2000
   -4.8006   -0.7451   -1.6307 C   0  0  0  0  0  0  0  0  0  0  0  0
   -4.9140   -1.2542   -0.2765 N   0  0  0  0  0  0  0  0  0  0  0  0
   -3.9857   -0.7258    0.6784 C   0  0  0  0  0  0  0  0  0  0  0  0
   -4.4969    0.0195    1.6331 C   0  0  0  0  0  0  0  0  0  0  0  0
   -5.6804    0.8087    1.4629 N   0  0  0  0  0  0  0  0  0  0  0  0
   -6.6885    0.5765    2.1537 O   0  0  0  0  0  0  0  0  0  0  0  0
   -5.4595    2.1196    1.0764 O   0  0  0  0  0  0  0  0  0  0  0  0
   -2.6193   -0.7704    0.3283 N   0  0  0  0  0  0  0  0  0  0  0  0
   -1.7887    0.3923    0.1137 C   0  0  0  0  0  0  0  0  0  0  0  0
   -0.5072    0.1665    0.8810 C   0  0  0  0  0  0  0  0  0  0  0  0
    0.4368   -1.0949   -0.0252 S   0  0  0  0  0  0  0  0  0  0  0  0
    0.7395   -0.4699   -1.7107 C   0  0  0  0  0  0  0  0  0  0  0  0
    2.1823   -0.0874   -1.8105 C   0  0  0  0  0  0  0  0  0  0  0  0
    3.1206   -0.9522   -2.3559 C   0  0  0  0  0  0  0  0  0  0  0  0
    4.3472   -0.6316   -1.7868 C   0  0  0  0  0  0  0  0  0  0  0  0
    4.1253    0.5632   -1.1129 C   0  0  0  0  0  0  0  0  0  0  0  0
    5.0723    1.1747   -0.1287 C   0  0  0  0  0  0  0  0  0  0  0  0
    5.7089    0.1487    0.6678 N   0  0  0  0  0  0  0  0  0  0  0  0
    5.2365    0.1135    2.0289 C   0  0  0  0  0  0  0  0  0  0  0  0
    7.1498    0.3851    0.7284 C   0  0  0  0  0  0  0  0  0  0  0  0
    2.8218    0.6065   -0.9148 O   0  0  0  0  0  0  0  0  0  0  0  0
  1  2  1  0
  2  3  1  0
  3  4  2  0
  4  5  1  0
  5  6  2  0
  5  7  1  0
  3  8  1  0
  8  9  1  0
  9 10  1  0
 10 11  1  0
 11 12  1  0
 12 13  1  0
 13 14  2  0
 14 15  1  0
 15 16  2  0
 16 17  1  0
 17 18  1  0
 18 19  1  0
 18 20  1  0
 16 21  1  0
 21 13  1  0
M  CHG  2   5   1   7  -1
M  END
>  <supplier_code>  (725) 
DB00863

>  <zinc_id>  (725) 
ZINC000001530728

>  <catalog_short_name>  (725) 
dbfda

$$$$

     RDKit          3D

 57 60  0  0  0  0  0  0  0  0999 V2000
   -1.0820    7.5823   -1.2348 C   0  0  0  0  0  0  0  0  0  0  0  0
   -1.5298    7.5200   -0.5181 C   0  0  0  0  0  0  0  0  0  0  0  0
   -1.7660    6.5241    0.5421 C   0  0  0  0  0  0  0  0  0  0  0  0
   -1.8313    5.0959   -0.2608 C   0  0  2  0  0  0  0  0  0  0  0  0
   -3.0057    4.5503    0.7031 C   0  0  0  0  0  0  0  0  0  0  0  0
   -4.1361    4.2581    0.1101 C   0  0  0  0  0  0  0  0  0  0  0  0
   -5.4242    5.0168    0.2414 C   0  0  0  0  0  0  0  0  0  0  0  0
   -4.2618    3.0023   -0.5568 C   0  0  0  0  0  0  0  0  0  0  0  0
   -5.2401    1.9431    0.1790 C   0  0  2  0  0  0  0  0  0  0  0  0
   -5.3403    2.7439    1.5936 C   0  0  0  0  0  0  0  0  0  0  0  0
   -3.9837    1.0453    0.7157 C   0  0  0  0  0  0  0  0  0  0  0  0
   -4.5956   -0.4037    0.2684 C   0  0  2  0  0  0  0  0  0  0  0  0
   -4.4411   -0.9524    1.6639 O   0  0  0  0  0  0  0  0  0  0  0  0
   -5.7667   -0.9417    2.0959 C   0  0  0  0  0  0  0  0  0  0  0  0
   -3.0620   -0.9296   -0.3056 C   0  0  1  0  0  0  0  0  0  0  0  0
   -3.3376   -2.3373    0.0903 O   0  0  0  0  0  0  0  0  0  0  0  0
   -2.1153   -2.9070   -0.3457 C   0  0  1  0  0  0  0  0  0  0  0  0
   -1.2946   -2.2242   -1.0072 O   0  0  0  0  0  0  0  0  0  0  0  0
   -1.9645   -4.1466    0.3948 C   0  0  0  0  0  0  0  0  0  0  0  0
   -2.9720   -4.9272    0.5488 O   0  0  0  0  0  0  0  0  0  0  0  0
   -0.7532   -4.8832    0.6566 C   0  0  0  0  0  0  0  0  0  0  0  0
   -0.6731   -6.0987    0.9780 O   0  0  0  0  0  0  0  0  0  0  0  0
    0.4590   -4.1574    0.5703 N   0  0  0  0  0  0  0  0  0  0  0  0
    1.6772   -4.8453    0.7900 C   0  0  0  0  0  0  0  0  0  0  0  0
    2.4223   -4.5410    2.0310 C   0  0  0  0  0  0  0  0  0  0  0  0
    2.1710   -3.1572    2.5076 C   0  0  0  0  0  0  0  0  0  0  0  0
    0.7640   -2.8047    2.3915 C   0  0  0  0  0  0  0  0  0  0  0  0
    0.3314   -2.6135    0.8172 C   0  0  1  0  0  0  0  0  0  0  0  0
    1.8389   -2.2995    0.3242 C   0  0  0  0  0  0  0  0  0  0  0  0
    2.2215   -2.9367   -0.6925 O   0  0  0  0  0  0  0  0  0  0  0  0
    1.9637   -0.9490    0.5763 O   0  0  0  0  0  0  0  0  0  0  0  0
    1.2501    0.0284   -0.3541 C   0  0  2  0  0  0  0  0  0  0  0  0
    2.6082    0.6418   -0.9732 C   0  0  0  0  0  0  0  0  0  0  0  0
    2.6282    0.6444   -2.4746 C   0  0  0  0  0  0  0  0  0  0  0  0
    3.7557    0.5564   -0.3512 C   0  0  0  0  0  0  0  0  0  0  0  0
    5.0368    0.2243   -1.2745 C   0  0  2  0  0  0  0  0  0  0  0  0
    5.3673   -1.1591   -0.4782 C   0  0  0  0  0  0  0  0  0  0  0  0
    6.0623   -0.9025    0.7804 C   0  0  0  0  0  0  0  0  0  0  0  0
    7.6446   -0.6633    0.4340 C   0  0  1  0  0  0  0  0  0  0  0  0
    7.7109   -1.9440   -0.3597 O   0  0  0  0  0  0  0  0  0  0  0  0
    7.3429    0.2373   -1.0021 C   0  0  2  0  0  0  0  0  0  0  0  0
    8.3617    1.2753   -0.6219 O   0  0  0  0  0  0  0  0  0  0  0  0
    8.1690    1.5971    0.6929 C   0  0  0  0  0  0  0  0  0  0  0  0
    6.0913    1.1078   -0.3852 C   0  0  0  0  0  0  0  0  0  0  0  0
    1.1533    1.2769    0.7925 C   0  0  2  0  0  0  0  0  0  0  0  0
   -0.1867    0.7035    1.4448 C   0  0  0  0  0  0  0  0  0  0  0  0
    0.4347    2.3716   -0.2976 C   0  0  1  0  0  0  0  0  0  0  0  0
   -0.6525    1.4371   -0.7810 O   0  0  0  0  0  0  0  0  0  0  0  0
   -0.5654    3.0401    0.8186 C   0  0  0  0  0  0  0  0  0  0  0  0
   -0.6347    4.4623    0.6046 C   0  0  0  0  0  0  0  0  0  0  0  0
    0.4110    5.1036    0.5033 O   0  0  0  0  0  0  0  0  0  0  0  0
   -2.9017   -3.6196   -1.6314 C   0  0  2  0  0  0  0  0  0  0  0  0
   -1.7776   -3.3749   -2.8181 C   0  0  0  0  0  0  0  0  0  0  0  0
   -3.8184   -2.4765   -2.1908 C   0  0  0  0  0  0  0  0  0  0  0  0
   -3.8040   -0.9399   -1.8610 C   0  0  2  0  0  0  0  0  0  0  0  0
   -2.5225   -0.6206   -2.6234 O   0  0  0  0  0  0  0  0  0  0  0  0
   -2.4370    0.7662   -2.6628 C   0  0  0  0  0  0  0  0  0  0  0  0
  1  2  2  0
  2  3  1  0
  4  3  1  1
  4  5  1  0
  5  6  2  0
  6  7  1  0
  6  8  1  0
  8  9  1  0
  9 10  1  1
  9 11  1  0
 11 12  1  0
 12 13  1  1
 13 14  1  0
 12 15  1  0
 15 16  1  1
 16 17  1  0
 17 18  1  6
 17 19  1  0
 19 20  2  0
 19 21  1  0
 21 22  2  0
 21 23  1  0
 23 24  1  0
 24 25  1  0
 25 26  1  0
 26 27  1  0
 28 27  1  1
 28 29  1  0
 29 30  2  0
 29 31  1  0
 31 32  1  0
 32 33  1  6
 33 34  1  0
 33 35  2  0
 36 35  1  1
 36 37  1  0
 37 38  1  0
 38 39  1  0
 39 40  1  6
 39 41  1  0
 41 42  1  1
 42 43  1  0
 41 44  1  0
 32 45  1  0
 45 46  1  1
 45 47  1  0
 47 48  1  6
 47 49  1  0
 49 50  1  0
 50 51  2  0
 17 52  1  0
 52 53  1  6
 52 54  1  0
 54 55  1  0
 55 56  1  6
 56 57  1  0
 50  4  1  0
 55 15  1  0
 28 23  1  0
 44 36  1  0
M  END
>  <supplier_code>  (726) 
DB00864

>  <zinc_id>  (726) 
ZINC000169289411

>  <catalog_short_name>  (726) 
dbfda

$$$$

     RDKit          3D

 18 19  0  0  0  0  0  0  0  0999 V2000
    0.4477   -2.6301   -0.5827 C   0  0  0  0  0  0  0  0  0  0  0  0
    0.8755   -1.5417    0.5994 C   0  0  1  0  0  0  0  0  0  0  0  0
    1.2662   -0.3862   -0.5282 C   0  0  0  0  0  0  0  0  0  0  0  0
    2.5562    0.1836   -0.0389 C   0  0  0  0  0  0  0  0  0  0  0  0
    3.3046   -0.3898    0.9647 C   0  0  0  0  0  0  0  0  0  0  0  0
    4.4072    0.3087    1.4346 C   0  0  0  0  0  0  0  0  0  0  0  0
    4.7247    1.5139    0.8546 C   0  0  0  0  0  0  0  0  0  0  0  0
    4.0701    1.9954   -0.2431 C   0  0  0  0  0  0  0  0  0  0  0  0
    2.9846    1.2941   -0.7267 C   0  0  0  0  0  0  0  0  0  0  0  0
   -0.6261   -1.0416    0.7513 N   0  0  0  0  0  0  0  0  0  0  0  0
   -1.3518   -2.2838    1.0241 C   0  0  0  0  0  0  0  0  0  0  0  0
   -1.0566   -0.6167   -0.5464 C   0  0  0  0  0  0  0  0  0  0  0  0
   -2.3217    0.0897   -0.3252 C   0  0  0  0  0  0  0  0  0  0  0  0
   -2.5095    1.4386   -0.2943 C   0  0  0  0  0  0  0  0  0  0  0  0
   -3.7675    1.9126   -0.6446 C   0  0  0  0  0  0  0  0  0  0  0  0
   -4.8402    1.0744   -0.9048 C   0  0  0  0  0  0  0  0  0  0  0  0
   -4.7136   -0.2311   -0.4669 C   0  0  0  0  0  0  0  0  0  0  0  0
   -3.4497   -0.6897   -0.1156 C   0  0  0  0  0  0  0  0  0  0  0  0
  2  1  1  6
  2  3  1  0
  3  4  1  0
  4  5  2  0
  5  6  1  0
  6  7  2  0
  7  8  1  0
  8  9  2  0
  2 10  1  0
 10 11  1  0
 10 12  1  0
 12 13  1  0
 13 14  2  0
 14 15  1  0
 15 16  2  0
 16 17  1  0
 17 18  2  0
  9  4  1  0
 18 13  1  0
M  END
>  <supplier_code>  (727) 
DB00865

>  <zinc_id>  (727) 
ZINC000000968305

>  <catalog_short_name>  (727) 
dbfda

$$$$

     RDKit          3D

 42 42  0  0  0  0  0  0  0  0999 V2000
   11.8205    6.2544    0.1027 C   0  0  0  0  0  0  0  0  0  0  0  0
   12.4229    4.8809    0.2200 C   0  0  0  0  0  0  0  0  0  0  0  0
   11.5427    3.8073   -0.3904 C   0  0  0  0  0  0  0  0  0  0  0  0
   11.4075    2.6984    0.6229 C   0  0  0  0  0  0  0  0  0  0  0  0
   11.1887    1.4062    0.0204 N   0  0  0  0  0  0  0  0  0  0  0  0
    9.8332    0.9753   -0.1431 C   0  0  0  0  0  0  0  0  0  0  0  0
    9.0639    0.6863    0.9712 C   0  0  0  0  0  0  0  0  0  0  0  0
    7.6915    0.8570    0.9401 C   0  0  0  0  0  0  0  0  0  0  0  0
    7.0796    1.5301   -0.1102 C   0  0  0  0  0  0  0  0  0  0  0  0
    5.6427    1.2731   -0.2711 C   0  0  0  0  0  0  0  0  0  0  0  0
    5.0623    1.9926   -1.1398 O   0  0  0  0  0  0  0  0  0  0  0  0
    5.0995    0.0214   -0.0155 O   0  0  0  0  0  0  0  0  0  0  0  0
    4.1753   -0.6164   -0.8820 C   0  0  0  0  0  0  0  0  0  0  0  0
    4.2132   -2.1002   -0.5705 C   0  0  0  0  0  0  0  0  0  0  0  0
    3.5600   -2.2801    0.6536 O   0  0  0  0  0  0  0  0  0  0  0  0
    2.5031   -1.3598    0.7339 C   0  0  0  0  0  0  0  0  0  0  0  0
    1.1773   -2.0939    0.7444 C   0  0  0  0  0  0  0  0  0  0  0  0
    0.2097   -1.1695    1.1553 O   0  0  0  0  0  0  0  0  0  0  0  0
    0.5189    0.1034    0.7052 C   0  0  0  0  0  0  0  0  0  0  0  0
    0.3799    0.2588   -0.7865 C   0  0  0  0  0  0  0  0  0  0  0  0
   -0.5211   -0.6919   -1.2815 O   0  0  0  0  0  0  0  0  0  0  0  0
   -1.7175   -0.4879   -0.5766 C   0  0  0  0  0  0  0  0  0  0  0  0
   -2.7093   -1.6023   -0.8662 C   0  0  0  0  0  0  0  0  0  0  0  0
   -2.1275   -2.8476   -0.7083 O   0  0  0  0  0  0  0  0  0  0  0  0
   -3.1264   -3.8089   -0.6706 C   0  0  0  0  0  0  0  0  0  0  0  0
   -3.9077   -3.7961    0.6139 C   0  0  0  0  0  0  0  0  0  0  0  0
   -4.6570   -2.6127    0.6791 O   0  0  0  0  0  0  0  0  0  0  0  0
   -5.9358   -2.9347    1.1305 C   0  0  0  0  0  0  0  0  0  0  0  0
   -6.6000   -3.8035    0.0867 C   0  0  0  0  0  0  0  0  0  0  0  0
   -7.3773   -3.0366   -0.7814 O   0  0  0  0  0  0  0  0  0  0  0  0
   -8.6522   -3.5679   -0.9125 C   0  0  0  0  0  0  0  0  0  0  0  0
   -9.5315   -3.2501    0.2644 C   0  0  0  0  0  0  0  0  0  0  0  0
   -9.2303   -2.0082    0.8092 O   0  0  0  0  0  0  0  0  0  0  0  0
   -9.2434   -0.9866   -0.1344 C   0  0  0  0  0  0  0  0  0  0  0  0
   -9.5486    0.3346    0.5362 C   0  0  0  0  0  0  0  0  0  0  0  0
  -10.6170    0.9198   -0.1304 O   0  0  0  0  0  0  0  0  0  0  0  0
  -11.1040    1.9648    0.6501 C   0  0  0  0  0  0  0  0  0  0  0  0
  -10.8231    3.3058   -0.0086 C   0  0  0  0  0  0  0  0  0  0  0  0
  -11.5788    4.2557    0.6770 O   0  0  0  0  0  0  0  0  0  0  0  0
  -12.5438    4.7220   -0.2028 C   0  0  0  0  0  0  0  0  0  0  0  0
    7.8115    1.5917   -1.2896 C   0  0  0  0  0  0  0  0  0  0  0  0
    9.1485    1.2153   -1.3279 C   0  0  0  0  0  0  0  0  0  0  0  0
  1  2  1  0
  2  3  1  0
  3  4  1  0
  4  5  1  0
  5  6  1  0
  6  7  2  0
  7  8  1  0
  8  9  2  0
  9 10  1  0
 10 11  2  0
 10 12  1  0
 12 13  1  0
 13 14  1  0
 14 15  1  0
 15 16  1  0
 16 17  1  0
 17 18  1  0
 18 19  1  0
 19 20  1  0
 20 21  1  0
 21 22  1  0
 22 23  1  0
 23 24  1  0
 24 25  1  0
 25 26  1  0
 26 27  1  0
 27 28  1  0
 28 29  1  0
 29 30  1  0
 30 31  1  0
 31 32  1  0
 32 33  1  0
 33 34  1  0
 34 35  1  0
 35 36  1  0
 36 37  1  0
 37 38  1  0
 38 39  1  0
 39 40  1  0
  9 41  1  0
 41 42  2  0
 42  6  1  0
M  END
>  <supplier_code>  (728) 
DB00868

>  <zinc_id>  (728) 
ZINC000003830276

>  <catalog_short_name>  (728) 
dbfda

$$$$

     RDKit          3D

 19 20  0  0  0  0  0  0  0  0999 V2000
   -0.1810    3.8317    0.0587 C   0  0  0  0  0  0  0  0  0  0  0  0
   -0.3179    2.7245   -0.0535 C   0  0  0  0  0  0  0  0  0  0  0  0
   -1.5143    2.3289    0.5098 N   0  0  0  0  0  0  0  0  0  0  0  0
   -1.5821    0.7878    0.8117 C   0  0  1  0  0  0  0  0  0  0  0  0
   -2.6145    0.5611   -0.4506 C   0  0  0  0  0  0  0  0  0  0  0  0
   -3.4245   -0.7498   -0.0507 C   0  0  2  0  0  0  0  0  0  0  0  0
   -3.6221   -0.3781    1.4893 C   0  0  0  0  0  0  0  0  0  0  0  0
   -1.9438   -1.8599    0.1485 S   0  0  0  0  0  0  0  0  0  0  0  0
   -2.1773   -2.9309   -0.8938 O   0  0  0  0  0  0  0  0  0  0  0  0
   -1.9434   -2.5031    1.4648 O   0  0  0  0  0  0  0  0  0  0  0  0
   -0.5120   -1.0107   -0.2910 C   0  0  0  0  0  0  0  0  0  0  0  0
    1.0565   -1.4861   -0.7893 S   0  0  0  0  0  0  0  0  0  0  0  0
    1.9424   -0.1216   -0.2276 C   0  0  0  0  0  0  0  0  0  0  0  0
    3.6761   -0.0311    0.0925 S   0  0  0  0  0  0  0  0  0  0  0  0
    3.8929    0.3288    1.7665 N   0  0  0  0  0  0  0  0  0  0  0  0
    4.3426   -1.3562   -0.1769 O   0  0  0  0  0  0  0  0  0  0  0  0
    4.2573    1.0407   -0.7646 O   0  0  0  0  0  0  0  0  0  0  0  0
    0.9554    0.4720    0.5499 C   0  0  0  0  0  0  0  0  0  0  0  0
   -0.2904    0.3520   -0.0676 C   0  0  0  0  0  0  0  0  0  0  0  0
  1  2  1  0
  2  3  1  0
  4  3  1  6
  4  5  1  0
  5  6  1  0
  6  7  1  1
  6  8  1  0
  8  9  2  0
  8 10  2  0
  8 11  1  0
 11 12  1  0
 12 13  1  0
 13 14  1  0
 14 15  1  0
 14 16  2  0
 14 17  2  0
 13 18  2  0
 18 19  1  0
 19  4  1  0
 19 11  2  0
M  END
>  <supplier_code>  (729) 
DB00869

>  <zinc_id>  (729) 
ZINC000001530621

>  <catalog_short_name>  (729) 
dbfda

$$$$

     RDKit          3D

 16 16  0  0  0  0  0  0  0  0999 V2000
    3.1646   -0.4587    0.0602 C   0  0  0  0  0  0  0  0  0  0  0  0
    3.2229   -0.4166   -0.0421 C   0  0  0  0  0  0  0  0  0  0  0  0
    4.3061   -0.6420    0.9488 C   0  0  0  0  0  0  0  0  0  0  0  0
    3.5806    0.4220   -1.2268 C   0  0  0  0  0  0  0  0  0  0  0  0
    2.4038   -1.5503   -0.3932 N   0  0  0  0  0  0  0  0  0  0  0  0
    1.0774   -1.2371    0.1218 C   0  0  0  0  0  0  0  0  0  0  0  0
    0.7408    0.2466   -0.5306 C   0  0  2  0  0  0  0  0  0  0  0  0
    1.2202    0.9714    0.7233 O   0  0  0  0  0  0  0  0  0  0  0  0
   -0.7831    0.1985    0.0357 C   0  0  0  0  0  0  0  0  0  0  0  0
   -1.3840    1.4490    0.0255 C   0  0  0  0  0  0  0  0  0  0  0  0
   -2.7372    1.5297   -0.2430 C   0  0  0  0  0  0  0  0  0  0  0  0
   -3.3270    2.7636   -0.5356 O   0  0  0  0  0  0  0  0  0  0  0  0
   -3.5055    0.3923   -0.4058 C   0  0  0  0  0  0  0  0  0  0  0  0
   -2.8667   -0.8267   -0.4174 C   0  0  0  0  0  0  0  0  0  0  0  0
   -3.6149   -1.9872   -0.2690 O   0  0  0  0  0  0  0  0  0  0  0  0
   -1.4979   -0.8544   -0.4985 C   0  0  0  0  0  0  0  0  0  0  0  0
  1  2  1  0
  2  3  1  0
  2  4  1  0
  2  5  1  0
  5  6  1  0
  7  6  1  1
  7  8  1  0
  7  9  1  0
  9 10  2  0
 10 11  1  0
 11 12  1  0
 11 13  2  0
 13 14  1  0
 14 15  1  0
 14 16  2  0
 16  9  1  0
M  END
>  <supplier_code>  (730) 
DB00871

>  <zinc_id>  (730) 
ZINC000000000746

>  <catalog_short_name>  (730) 
dbfda

$$$$

     RDKit          3D

 16 16  0  0  0  0  0  0  0  0999 V2000
   -4.2474    0.8599    0.8007 C   0  0  0  0  0  0  0  0  0  0  0  0
   -3.7067    0.1084   -0.1234 C   0  0  0  0  0  0  0  0  0  0  0  0
   -3.8874    0.6557   -1.5232 C   0  0  0  0  0  0  0  0  0  0  0  0
   -4.3798   -1.2720   -0.1528 C   0  0  0  0  0  0  0  0  0  0  0  0
   -2.4376   -0.2277    0.2817 N   0  0  0  0  0  0  0  0  0  0  0  0
   -1.2617    0.4345    0.1676 C   0  0  0  0  0  0  0  0  0  0  0  0
   -0.3705   -0.9414    0.5063 C   0  0  1  0  0  0  0  0  0  0  0  0
   -0.4632   -1.4102   -0.9455 O   0  0  0  0  0  0  0  0  0  0  0  0
    1.0948   -0.2852    0.2870 C   0  0  0  0  0  0  0  0  0  0  0  0
    1.2394    1.0159    0.1558 C   0  0  0  0  0  0  0  0  0  0  0  0
    2.4823    1.4588   -0.2730 C   0  0  0  0  0  0  0  0  0  0  0  0
    2.6345    2.7006   -0.8730 O   0  0  0  0  0  0  0  0  0  0  0  0
    3.5184    0.5613   -0.4035 C   0  0  0  0  0  0  0  0  0  0  0  0
    3.3618   -0.7506    0.0212 C   0  0  0  0  0  0  0  0  0  0  0  0
    4.3179   -1.7301   -0.2410 O   0  0  0  0  0  0  0  0  0  0  0  0
    2.1053   -1.1779    0.4228 C   0  0  0  0  0  0  0  0  0  0  0  0
  1  2  1  0
  2  3  1  0
  2  4  1  0
  2  5  1  0
  5  6  1  0
  7  6  1  6
  7  8  1  0
  7  9  1  0
  9 10  2  0
 10 11  1  0
 11 12  1  0
 11 13  2  0
 13 14  1  0
 14 15  1  0
 14 16  2  0
 16  9  1  0
M  END
>  <supplier_code>  (731) 
DB00871

>  <zinc_id>  (731) 
ZINC000000002281

>  <catalog_short_name>  (731) 
dbfda

$$$$

     RDKit          3D

 38 43  0  0  0  0  0  0  0  0999 V2000
    9.2450    0.3296   -2.0520 C   0  0  0  0  0  0  0  0  0  0  0  0
    8.0972   -0.4103   -1.4398 C   0  0  0  0  0  0  0  0  0  0  0  0
    7.2609   -1.2425   -2.1082 N   0  0  0  0  0  0  0  0  0  0  0  0
    6.0987   -1.3159   -1.4237 C   0  0  0  0  0  0  0  0  0  0  0  0
    6.2437   -0.6035   -0.2399 C   0  0  0  0  0  0  0  0  0  0  0  0
    7.5205   -0.1489   -0.2409 N   0  0  0  0  0  0  0  0  0  0  0  0
    5.1671   -0.0293    0.5774 C   0  0  0  0  0  0  0  0  0  0  0  0
    5.6829    0.6555    1.6694 C   0  0  0  0  0  0  0  0  0  0  0  0
    4.8146    0.7968    2.7456 C   0  0  0  0  0  0  0  0  0  0  0  0
    3.4493    0.8054    2.4915 C   0  0  0  0  0  0  0  0  0  0  0  0
    2.9846    0.5722    1.2022 C   0  0  0  0  0  0  0  0  0  0  0  0
    3.8092   -0.0197    0.2816 C   0  0  0  0  0  0  0  0  0  0  0  0
    3.1490   -0.3740   -0.9394 N   0  0  0  0  0  0  0  0  0  0  0  0
    1.9830    0.4175   -1.1975 C   0  0  0  0  0  0  0  0  0  0  0  0
    1.7842    0.9578   -2.3273 O   0  0  0  0  0  0  0  0  0  0  0  0
    0.8762    0.5112   -0.2483 C   0  0  0  0  0  0  0  0  0  0  0  0
    0.1937    1.7184   -0.1786 C   0  0  0  0  0  0  0  0  0  0  0  0
   -0.9773    1.8613    0.5549 C   0  0  0  0  0  0  0  0  0  0  0  0
   -1.6752    0.7205    0.9335 C   0  0  0  0  0  0  0  0  0  0  0  0
   -3.1084    0.6978    0.9290 N   0  0  0  0  0  0  0  0  0  0  0  0
   -3.8890    1.1950   -0.1427 C   0  0  0  0  0  0  0  0  0  0  0  0
   -3.3670    2.1232   -0.8317 O   0  0  0  0  0  0  0  0  0  0  0  0
   -4.8845    0.3814   -0.8547 C   0  0  0  0  0  0  0  0  0  0  0  0
   -4.6529   -0.0054   -2.1690 C   0  0  0  0  0  0  0  0  0  0  0  0
   -4.9038   -1.2994   -2.6077 C   0  0  0  0  0  0  0  0  0  0  0  0
   -5.5386   -2.2049   -1.7701 C   0  0  0  0  0  0  0  0  0  0  0  0
   -6.1528   -1.6589   -0.6525 C   0  0  0  0  0  0  0  0  0  0  0  0
   -5.6240   -0.5061   -0.0879 C   0  0  0  0  0  0  0  0  0  0  0  0
   -6.2161    0.0388    1.1398 C   0  0  0  0  0  0  0  0  0  0  0  0
   -5.8308   -0.4326    2.3885 C   0  0  0  0  0  0  0  0  0  0  0  0
   -6.3865    0.2229    3.4807 C   0  0  0  0  0  0  0  0  0  0  0  0
   -7.5354    0.9908    3.3372 C   0  0  0  0  0  0  0  0  0  0  0  0
   -8.0836    1.1946    2.0789 C   0  0  0  0  0  0  0  0  0  0  0  0
   -7.2745    0.9248    0.9837 C   0  0  0  0  0  0  0  0  0  0  0  0
   -1.0226   -0.4952    0.7701 C   0  0  0  0  0  0  0  0  0  0  0  0
    0.1301   -0.6276    0.0228 C   0  0  0  0  0  0  0  0  0  0  0  0
    3.8171   -0.7898   -2.1447 C   0  0  0  0  0  0  0  0  0  0  0  0
    4.8162   -1.8930   -1.9302 C   0  0  0  0  0  0  0  0  0  0  0  0
  1  2  1  0
  2  3  2  0
  3  4  1  0
  4  5  2  0
  5  6  1  0
  5  7  1  0
  7  8  2  0
  8  9  1  0
  9 10  2  0
 10 11  1  0
 11 12  2  0
 12 13  1  0
 13 14  1  0
 14 15  2  0
 14 16  1  0
 16 17  2  0
 17 18  1  0
 18 19  2  0
 19 20  1  0
 20 21  1  0
 21 22  2  0
 21 23  1  0
 23 24  2  0
 24 25  1  0
 25 26  2  0
 26 27  1  0
 27 28  2  0
 28 29  1  0
 29 30  2  0
 30 31  1  0
 31 32  2  0
 32 33  1  0
 33 34  2  0
 19 35  1  0
 35 36  2  0
 13 37  1  0
 37 38  1  0
  6  2  1  0
 12  7  1  0
 36 16  1  0
 38  4  1  0
 28 23  1  0
 34 29  1  0
M  END
>  <supplier_code>  (732) 
DB00872

>  <zinc_id>  (732) 
ZINC000012503187

>  <catalog_short_name>  (732) 
dbfda

$$$$

     RDKit          3D

 27 30  0  0  0  0  0  0  0  0999 V2000
    1.5760   -1.7528   -0.0729 C   0  0  0  0  0  0  0  0  0  0  0  0
    1.3824   -0.2697    0.1147 C   0  0  2  0  0  0  0  0  0  0  0  0
    0.3290   -0.0468    1.0738 C   0  0  0  0  0  0  0  0  0  0  0  0
   -0.4052    1.3540    0.6366 C   0  0  2  0  0  0  0  0  0  0  0  0
   -1.3136    1.3219    1.8384 O   0  0  0  0  0  0  0  0  0  0  0  0
   -1.5083    0.7374   -0.5133 C   0  0  1  0  0  0  0  0  0  0  0  0
   -0.6334   -0.6378   -0.9588 C   0  0  1  0  0  0  0  0  0  0  0  0
   -1.3017   -0.6008   -2.4181 C   0  0  0  0  0  0  0  0  0  0  0  0
   -2.6700   -1.1936   -2.0530 C   0  0  0  0  0  0  0  0  0  0  0  0
   -3.3161   -0.5346   -0.8947 C   0  0  0  0  0  0  0  0  0  0  0  0
   -4.3380    0.2577   -1.2435 C   0  0  0  0  0  0  0  0  0  0  0  0
   -5.1661    0.9247   -0.2841 C   0  0  0  0  0  0  0  0  0  0  0  0
   -6.4333    1.0170   -0.3467 O   0  0  0  0  0  0  0  0  0  0  0  0
   -4.5528    1.2210    1.0139 C   0  0  0  0  0  0  0  0  0  0  0  0
   -3.4254    0.6101    1.1726 C   0  0  0  0  0  0  0  0  0  0  0  0
   -2.5440   -0.1128    0.3426 C   0  0  2  0  0  0  0  0  0  0  0  0
   -2.0077   -1.3157    0.9403 C   0  0  0  0  0  0  0  0  0  0  0  0
    0.7065    0.3386   -1.2350 C   0  0  2  0  0  0  0  0  0  0  0  0
    1.6319   -0.6777   -2.0893 C   0  0  0  0  0  0  0  0  0  0  0  0
    2.8706    0.1021   -1.5988 C   0  0  0  0  0  0  0  0  0  0  0  0
    2.6451    0.3208   -0.0904 C   0  0  1  0  0  0  0  0  0  0  0  0
    2.8302    1.6752    0.2071 O   0  0  0  0  0  0  0  0  0  0  0  0
    3.8477   -0.4041    0.4594 C   0  0  0  0  0  0  0  0  0  0  0  0
    4.0543   -1.6121    0.1140 O   0  0  0  0  0  0  0  0  0  0  0  0
    5.0608    0.2837    0.6049 O   0  0  0  0  0  0  0  0  0  0  0  0
    6.3267   -0.2326    0.2871 C   0  0  0  0  0  0  0  0  0  0  0  0
    6.3541   -0.7729   -1.4238 Cl  0  0  0  0  0  0  0  0  0  0  0  0
  2  1  1  6
  2  3  1  0
  3  4  1  0
  4  5  1  1
  6  4  1  1
  6  7  1  0
  7  8  1  6
  8  9  1  0
  9 10  1  0
 10 11  2  0
 11 12  1  0
 12 13  2  0
 12 14  1  0
 14 15  2  0
 15 16  1  0
 16 17  1  1
  7 18  1  0
 18 19  1  6
 19 20  1  0
 20 21  1  0
 21 22  1  6
 21 23  1  0
 23 24  2  0
 23 25  1  0
 25 26  1  0
 26 27  1  0
 18  2  1  0
 21  2  1  0
 16  6  1  0
 16 10  1  0
M  END
>  <supplier_code>  (733) 
DB00873

>  <zinc_id>  (733) 
ZINC000030691679

>  <catalog_short_name>  (733) 
dbfda

$$$$

     RDKit          3D

 14 14  0  0  0  0  0  0  0  0999 V2000
   -1.8513    2.8798    0.1039 C   0  0  0  0  0  0  0  0  0  0  0  0
   -1.0747    1.8069   -0.0015 O   0  0  0  0  0  0  0  0  0  0  0  0
   -1.6278    0.5269    0.1090 C   0  0  0  0  0  0  0  0  0  0  0  0
   -2.6602    0.0976   -0.7085 C   0  0  0  0  0  0  0  0  0  0  0  0
   -2.8918   -1.2342   -0.9905 C   0  0  0  0  0  0  0  0  0  0  0  0
   -2.3976   -2.1400   -0.0749 C   0  0  0  0  0  0  0  0  0  0  0  0
   -1.3019   -1.7479    0.6845 C   0  0  0  0  0  0  0  0  0  0  0  0
   -0.7933   -0.4546    0.6223 C   0  0  0  0  0  0  0  0  0  0  0  0
    0.4940   -0.2284    1.0430 O   0  0  0  0  0  0  0  0  0  0  0  0
    1.4563    0.5387    0.3221 C   0  0  0  0  0  0  0  0  0  0  0  0
    2.7042   -0.5580    0.2276 C   0  0  2  0  0  0  0  0  0  0  0  0
    3.3906    0.0436    1.4563 O   0  0  0  0  0  0  0  0  0  0  0  0
    3.5776    0.4183   -0.7974 C   0  0  0  0  0  0  0  0  0  0  0  0
    2.9759    0.0513   -1.9961 O   0  0  0  0  0  0  0  0  0  0  0  0
  1  2  1  0
  2  3  1  0
  3  4  2  0
  4  5  1  0
  5  6  2  0
  6  7  1  0
  7  8  2  0
  8  9  1  0
  9 10  1  0
 11 10  1  1
 11 12  1  0
 11 13  1  0
 13 14  1  0
  8  3  1  0
M  END
>  <supplier_code>  (734) 
DB00874

>  <zinc_id>  (734) 
ZINC000000000353

>  <catalog_short_name>  (734) 
dbfda

$$$$

     RDKit          3D

 14 14  0  0  0  0  0  0  0  0999 V2000
   -1.7672    2.1359   -1.8504 C   0  0  0  0  0  0  0  0  0  0  0  0
   -1.3181    0.8008   -1.8062 O   0  0  0  0  0  0  0  0  0  0  0  0
   -1.6472    0.0510   -0.6922 C   0  0  0  0  0  0  0  0  0  0  0  0
   -2.4676   -1.0602   -0.8450 C   0  0  0  0  0  0  0  0  0  0  0  0
   -2.8583   -1.7605    0.2666 C   0  0  0  0  0  0  0  0  0  0  0  0
   -2.4227   -1.3198    1.4899 C   0  0  0  0  0  0  0  0  0  0  0  0
   -1.5053   -0.3061    1.5961 C   0  0  0  0  0  0  0  0  0  0  0  0
   -0.9224    0.2687    0.4733 C   0  0  0  0  0  0  0  0  0  0  0  0
    0.3460    0.7906    0.4672 O   0  0  0  0  0  0  0  0  0  0  0  0
    1.4482   -0.0125    0.1214 C   0  0  0  0  0  0  0  0  0  0  0  0
    2.7121    1.0482    0.3684 C   0  0  1  0  0  0  0  0  0  0  0  0
    3.2180    0.2397    1.5710 O   0  0  0  0  0  0  0  0  0  0  0  0
    3.7171    0.2305   -0.6796 C   0  0  0  0  0  0  0  0  0  0  0  0
    3.4673   -1.1064   -0.4804 O   0  0  0  0  0  0  0  0  0  0  0  0
  1  2  1  0
  2  3  1  0
  3  4  2  0
  4  5  1  0
  5  6  2  0
  6  7  1  0
  7  8  2  0
  8  9  1  0
  9 10  1  0
 11 10  1  6
 11 12  1  0
 11 13  1  0
 13 14  1  0
  8  3  1  0
M  END
>  <supplier_code>  (735) 
DB00874

>  <zinc_id>  (735) 
ZINC000000394284

>  <catalog_short_name>  (735) 
dbfda

$$$$

     RDKit          3D

 30 32  0  0  0  0  0  0  0  0999 V2000
    1.4615    5.4757   -1.2460 C   0  0  0  0  0  0  0  0  0  0  0  0
    1.7689    5.4224    0.2444 C   0  0  0  0  0  0  0  0  0  0  0  0
    1.8720    3.9923    0.6936 C   0  0  0  0  0  0  0  0  0  0  0  0
    1.8220    3.0155   -0.4760 C   0  0  0  0  0  0  0  0  0  0  0  0
    0.5887    2.1950   -0.2621 C   0  0  0  0  0  0  0  0  0  0  0  0
   -0.5803    2.7761    0.1006 N   0  0  0  0  0  0  0  0  0  0  0  0
   -1.5991    2.1036   -0.4682 C   0  0  0  0  0  0  0  0  0  0  0  0
   -1.0739    0.8828   -0.8698 C   0  0  0  0  0  0  0  0  0  0  0  0
   -1.7717   -0.3120   -1.3304 C   0  0  0  0  0  0  0  0  0  0  0  0
   -3.0337   -0.5829   -0.9920 C   0  0  0  0  0  0  0  0  0  0  0  0
   -3.5816    0.2334    0.1307 C   0  0  0  0  0  0  0  0  0  0  0  0
   -3.6425   -0.5795    1.3718 C   0  0  0  0  0  0  0  0  0  0  0  0
   -4.6425   -0.5270    2.3372 C   0  0  0  0  0  0  0  0  0  0  0  0
   -4.1713   -0.9956    3.5449 C   0  0  0  0  0  0  0  0  0  0  0  0
   -3.5651   -2.2374    3.3865 C   0  0  0  0  0  0  0  0  0  0  0  0
   -2.8576   -2.0327    1.8349 S   0  0  0  0  0  0  0  0  0  0  0  0
   -4.0099   -1.0611   -1.9822 C   0  0  0  0  0  0  0  0  0  0  0  0
   -3.5330   -1.8115   -2.8862 O   0  0  0  0  0  0  0  0  0  0  0  0
   -4.9118   -0.0926   -2.4369 O   0  0  0  0  0  0  0  0  0  0  0  0
    0.2752    1.0003   -0.8182 N   0  0  0  0  0  0  0  0  0  0  0  0
    1.2035    0.3123   -1.7057 C   0  0  0  0  0  0  0  0  0  0  0  0
    2.1652   -0.5338   -0.9705 C   0  0  0  0  0  0  0  0  0  0  0  0
    1.7843   -1.4629   -0.0109 C   0  0  0  0  0  0  0  0  0  0  0  0
    2.6986   -2.4092    0.4346 C   0  0  0  0  0  0  0  0  0  0  0  0
    4.0461   -2.2067    0.1622 C   0  0  0  0  0  0  0  0  0  0  0  0
    5.0363   -2.6831    1.1345 C   0  0  0  0  0  0  0  0  0  0  0  0
    5.0311   -3.9065    1.3930 O   0  0  0  0  0  0  0  0  0  0  0  0
    5.4130   -1.8208    2.1663 O   0  0  0  0  0  0  0  0  0  0  0  0
    4.4160   -1.3962   -0.8962 C   0  0  0  0  0  0  0  0  0  0  0  0
    3.3915   -0.7580   -1.5839 C   0  0  0  0  0  0  0  0  0  0  0  0
  1  2  1  0
  2  3  1  0
  3  4  1  0
  4  5  1  0
  5  6  2  0
  6  7  1  0
  7  8  2  0
  8  9  1  0
  9 10  2  0
 10 11  1  0
 11 12  1  0
 12 13  2  0
 13 14  1  0
 14 15  2  0
 15 16  1  0
 10 17  1  0
 17 18  2  0
 17 19  1  0
  8 20  1  0
 20 21  1  0
 21 22  1  0
 22 23  2  0
 23 24  1  0
 24 25  2  0
 25 26  1  0
 26 27  2  0
 26 28  1  0
 25 29  1  0
 29 30  2  0
 20  5  1  0
 30 22  1  0
 16 12  1  0
M  END
>  <supplier_code>  (736) 
DB00876

>  <zinc_id>  (736) 
ZINC000029319828

>  <catalog_short_name>  (736) 
dbfda

$$$$

     RDKit          3D

 65 68  0  0  0  0  0  0  0  0999 V2000
    5.1676   -2.3272    3.5760 C   0  0  0  0  0  0  0  0  0  0  0  0
    5.0247   -2.1319    2.4830 O   0  0  0  0  0  0  0  0  0  0  0  0
    6.2188   -1.2832    2.0757 C   0  0  2  0  0  0  0  0  0  0  0  0
    5.7543   -1.0847    0.5576 C   0  0  0  0  0  0  0  0  0  0  0  0
    6.0436   -2.2732   -0.4623 C   0  0  2  0  0  0  0  0  0  0  0  0
    4.7717   -1.8006   -1.3877 C   0  0  0  0  0  0  0  0  0  0  0  0
    3.5464   -2.7370   -0.9467 C   0  0  2  0  0  0  0  0  0  0  0  0
    3.3103   -3.2039   -2.4841 C   0  0  0  0  0  0  0  0  0  0  0  0
    2.3183   -1.5379   -0.8802 C   0  0  2  0  0  0  0  0  0  0  0  0
    1.2437   -2.5542   -1.5590 C   0  0  0  0  0  0  0  0  0  0  0  0
    0.6821   -3.4435   -0.5802 C   0  0  0  0  0  0  0  0  0  0  0  0
    1.1109   -3.8564    0.4749 O   0  0  0  0  0  0  0  0  0  0  0  0
    0.0704   -4.7842   -1.2602 C   0  0  2  0  0  0  0  0  0  0  0  0
   -0.5641   -4.0134   -2.5642 C   0  0  0  0  0  0  0  0  0  0  0  0
   -1.2962   -4.6682   -0.4628 C   0  0  0  0  0  0  0  0  0  0  0  0
   -2.2396   -5.4558   -0.2509 C   0  0  0  0  0  0  0  0  0  0  0  0
   -2.3101   -6.4218    0.9004 C   0  0  0  0  0  0  0  0  0  0  0  0
   -3.6608   -4.7909   -0.6603 C   0  0  1  0  0  0  0  0  0  0  0  0
   -4.3570   -6.1274   -0.7643 O   0  0  0  0  0  0  0  0  0  0  0  0
   -4.2731   -4.5937    0.9467 C   0  0  1  0  0  0  0  0  0  0  0  0
   -3.0318   -3.9130    1.4397 O   0  0  0  0  0  0  0  0  0  0  0  0
   -2.8247   -2.6891    1.0379 C   0  0  0  0  0  0  0  0  0  0  0  0
   -5.1338   -3.3001    0.5006 C   0  0  0  0  0  0  0  0  0  0  0  0
   -6.2465   -3.7591    0.2365 O   0  0  0  0  0  0  0  0  0  0  0  0
   -5.0982   -2.1288    1.5933 C   0  0  2  0  0  0  0  0  0  0  0  0
   -6.1373   -2.8523    2.6231 C   0  0  0  0  0  0  0  0  0  0  0  0
   -6.2582   -1.2492    0.8398 C   0  0  0  0  0  0  0  0  0  0  0  0
   -5.4021    0.1424    0.9807 C   0  0  2  0  0  0  0  0  0  0  0  0
   -5.7767    0.2732    2.5672 C   0  0  0  0  0  0  0  0  0  0  0  0
   -6.6112    1.0998    0.5435 C   0  0  0  0  0  0  0  0  0  0  0  0
   -6.5444    2.3239    1.0162 C   0  0  0  0  0  0  0  0  0  0  0  0
   -5.4629    3.2748    0.7193 C   0  0  0  0  0  0  0  0  0  0  0  0
   -4.3704    2.7905    0.1812 C   0  0  0  0  0  0  0  0  0  0  0  0
   -3.2623    2.8190    1.1479 C   0  0  0  0  0  0  0  0  0  0  0  0
   -2.7840    3.9883    1.5912 C   0  0  0  0  0  0  0  0  0  0  0  0
   -2.2811    3.8886    3.0046 C   0  0  0  0  0  0  0  0  0  0  0  0
   -1.6438    4.3221    0.4729 C   0  0  1  0  0  0  0  0  0  0  0  0
   -2.3803    5.5857    0.0430 O   0  0  0  0  0  0  0  0  0  0  0  0
   -2.6562    6.2953    1.1873 C   0  0  0  0  0  0  0  0  0  0  0  0
   -0.6461    5.1697    1.4643 C   0  0  0  0  0  0  0  0  0  0  0  0
    0.8677    4.7157    0.9980 C   0  0  2  0  0  0  0  0  0  0  0  0
    1.2070    6.2583    0.5258 C   0  0  0  0  0  0  0  0  0  0  0  0
    1.0607    6.3937   -0.9106 C   0  0  0  0  0  0  0  0  0  0  0  0
    2.2097    5.5228   -1.6708 C   0  0  1  0  0  0  0  0  0  0  0  0
    3.3576    5.9400   -0.5836 C   0  0  0  0  0  0  0  0  0  0  0  0
    1.7341    4.0520   -1.0719 C   0  0  1  0  0  0  0  0  0  0  0  0
    2.7171    3.8056   -0.3219 O   0  0  0  0  0  0  0  0  0  0  0  0
    0.5163    4.2638   -0.4066 O   0  0  0  0  0  0  0  0  0  0  0  0
    1.2608    3.5844   -2.3610 C   0  0  0  0  0  0  0  0  0  0  0  0
    0.5203    4.4226   -3.0042 O   0  0  0  0  0  0  0  0  0  0  0  0
    0.7870    2.2336   -2.7006 C   0  0  0  0  0  0  0  0  0  0  0  0
   -0.0881    1.9939   -3.5881 O   0  0  0  0  0  0  0  0  0  0  0  0
    0.8409    1.2239   -1.7377 N   0  0  0  0  0  0  0  0  0  0  0  0
   -0.2820    0.5877   -1.0704 C   0  0  0  0  0  0  0  0  0  0  0  0
   -0.4524    0.7899    0.3339 C   0  0  0  0  0  0  0  0  0  0  0  0
    0.8498    0.9333    0.9874 C   0  0  0  0  0  0  0  0  0  0  0  0
    1.9064    0.2690    0.1117 C   0  0  0  0  0  0  0  0  0  0  0  0
    2.2308    1.4041   -1.0410 C   0  0  1  0  0  0  0  0  0  0  0  0
    3.0460    0.4063   -2.0121 C   0  0  0  0  0  0  0  0  0  0  0  0
    4.0153    0.8563   -2.6536 O   0  0  0  0  0  0  0  0  0  0  0  0
    2.6507   -0.8598   -2.2090 O   0  0  0  0  0  0  0  0  0  0  0  0
    5.3089   -3.3734    0.4937 C   0  0  0  0  0  0  0  0  0  0  0  0
    6.3784   -3.7168    1.2895 C   0  0  0  0  0  0  0  0  0  0  0  0
    7.3403   -2.6007    1.9628 C   0  0  1  0  0  0  0  0  0  0  0  0
    8.0068   -2.0986    0.6988 O   0  0  0  0  0  0  0  0  0  0  0  0
  1  2  1  0
  3  2  1  1
  3  4  1  0
  4  5  1  0
  5  6  1  6
  7  6  1  6
  7  8  1  0
  7  9  1  0
  9 10  1  6
 10 11  1  0
 11 12  2  0
 11 13  1  0
 13 14  1  6
 13 15  1  0
 15 16  2  0
 16 17  1  0
 16 18  1  0
 18 19  1  6
 18 20  1  0
 20 21  1  1
 21 22  1  0
 20 23  1  0
 23 24  2  0
 23 25  1  0
 25 26  1  1
 25 27  1  0
 27 28  1  0
 28 29  1  1
 28 30  1  0
 30 31  2  0
 31 32  1  0
 32 33  2  0
 33 34  1  0
 34 35  2  0
 35 36  1  0
 35 37  1  0
 37 38  1  6
 38 39  1  0
 37 40  1  0
 41 40  1  1
 41 42  1  0
 42 43  1  0
 43 44  1  0
 44 45  1  1
 44 46  1  0
 46 47  1  1
 46 48  1  0
 46 49  1  0
 49 50  2  0
 49 51  1  0
 51 52  2  0
 51 53  1  0
 53 54  1  0
 54 55  1  0
 55 56  1  0
 56 57  1  0
 58 57  1  1
 58 59  1  0
 59 60  2  0
 59 61  1  0
  5 62  1  0
 62 63  1  0
 63 64  1  0
 64 65  1  6
 64  3  1  0
 61  9  1  0
 48 41  1  0
 58 53  1  0
M  END
>  <supplier_code>  (737) 
DB00877

>  <zinc_id>  (737) 
ZINC000096006018

>  <catalog_short_name>  (737) 
dbfda

$$$$

     RDKit          3D

 65 68  0  0  0  0  0  0  0  0999 V2000
    7.9543    2.3295    3.2718 C   0  0  0  0  0  0  0  0  0  0  0  0
    7.4261    1.6989    2.2884 O   0  0  0  0  0  0  0  0  0  0  0  0
    6.3993    2.6520    1.7209 C   0  0  2  0  0  0  0  0  0  0  0  0
    5.5994    1.5064    0.8756 C   0  0  0  0  0  0  0  0  0  0  0  0
    4.2235    2.3159    0.4779 C   0  0  2  0  0  0  0  0  0  0  0  0
    4.2963    1.6340   -0.9870 C   0  0  0  0  0  0  0  0  0  0  0  0
    3.1180    2.1930   -1.8874 C   0  0  1  0  0  0  0  0  0  0  0  0
    3.8817    1.7092   -3.2338 C   0  0  0  0  0  0  0  0  0  0  0  0
    2.0079    0.8570   -1.8741 C   0  0  2  0  0  0  0  0  0  0  0  0
    1.8841    0.9877   -0.2471 C   0  0  0  0  0  0  0  0  0  0  0  0
    1.0987    2.2859   -0.2700 C   0  0  0  0  0  0  0  0  0  0  0  0
    1.1302    3.0842   -1.1988 O   0  0  0  0  0  0  0  0  0  0  0  0
   -0.3444    2.3070    0.4507 C   0  0  2  0  0  0  0  0  0  0  0  0
   -1.0429    1.5531   -0.8273 C   0  0  0  0  0  0  0  0  0  0  0  0
   -0.6825    3.8193    0.0285 C   0  0  0  0  0  0  0  0  0  0  0  0
   -1.6639    4.2383   -0.6753 C   0  0  0  0  0  0  0  0  0  0  0  0
   -1.5311    5.1357   -1.8876 C   0  0  0  0  0  0  0  0  0  0  0  0
   -2.7937    4.7101    0.3847 C   0  0  1  0  0  0  0  0  0  0  0  0
   -2.5248    6.1861    0.2152 O   0  0  0  0  0  0  0  0  0  0  0  0
   -4.0899    4.7663   -0.7567 C   0  0  1  0  0  0  0  0  0  0  0  0
   -3.8635    3.3356   -1.1613 O   0  0  0  0  0  0  0  0  0  0  0  0
   -4.1290    3.1743   -2.4786 C   0  0  0  0  0  0  0  0  0  0  0  0
   -5.1064    4.3823    0.4238 C   0  0  0  0  0  0  0  0  0  0  0  0
   -5.1791    5.0095    1.3817 O   0  0  0  0  0  0  0  0  0  0  0  0
   -6.1333    3.2277    0.0309 C   0  0  2  0  0  0  0  0  0  0  0  0
   -7.3719    3.8580    0.8963 C   0  0  0  0  0  0  0  0  0  0  0  0
   -5.6547    2.2447    1.2494 C   0  0  0  0  0  0  0  0  0  0  0  0
   -7.0573    1.5028    1.6438 C   0  0  2  0  0  0  0  0  0  0  0  0
   -6.7779    1.6898    3.2456 C   0  0  0  0  0  0  0  0  0  0  0  0
   -6.3940    0.0490    1.6281 C   0  0  0  0  0  0  0  0  0  0  0  0
   -6.8377   -0.8527    2.4361 C   0  0  0  0  0  0  0  0  0  0  0  0
   -6.3938   -2.2104    2.0803 C   0  0  0  0  0  0  0  0  0  0  0  0
   -6.5084   -2.6941    0.8553 C   0  0  0  0  0  0  0  0  0  0  0  0
   -5.4258   -2.3381   -0.0035 C   0  0  0  0  0  0  0  0  0  0  0  0
   -4.1488   -2.2763    0.2359 C   0  0  0  0  0  0  0  0  0  0  0  0
   -3.2968   -1.0572    0.0061 C   0  0  0  0  0  0  0  0  0  0  0  0
   -3.3444   -3.6886    0.1577 C   0  0  1  0  0  0  0  0  0  0  0  0
   -4.1999   -4.2643   -0.9580 O   0  0  0  0  0  0  0  0  0  0  0  0
   -3.4070   -4.6699   -2.0100 C   0  0  0  0  0  0  0  0  0  0  0  0
   -2.1560   -3.1405   -0.8393 C   0  0  0  0  0  0  0  0  0  0  0  0
   -0.9243   -4.1994   -0.6553 C   0  0  2  0  0  0  0  0  0  0  0  0
   -1.5906   -4.9448    0.6469 C   0  0  0  0  0  0  0  0  0  0  0  0
   -0.6350   -5.5092    1.4924 C   0  0  0  0  0  0  0  0  0  0  0  0
    0.2821   -4.3011    2.0698 C   0  0  1  0  0  0  0  0  0  0  0  0
    1.3764   -5.4393    2.4965 C   0  0  0  0  0  0  0  0  0  0  0  0
    0.9291   -3.9017    0.6162 C   0  0  1  0  0  0  0  0  0  0  0  0
    0.9765   -5.1127   -0.1158 O   0  0  0  0  0  0  0  0  0  0  0  0
   -0.0889   -3.2221    0.1692 O   0  0  0  0  0  0  0  0  0  0  0  0
    2.1974   -3.5969    1.1413 C   0  0  0  0  0  0  0  0  0  0  0  0
    2.6328   -3.3654    2.3207 O   0  0  0  0  0  0  0  0  0  0  0  0
    3.2824   -3.9904    0.2117 C   0  0  0  0  0  0  0  0  0  0  0  0
    4.3154   -4.6349    0.4962 O   0  0  0  0  0  0  0  0  0  0  0  0
    2.9187   -3.5021   -1.1032 N   0  0  0  0  0  0  0  0  0  0  0  0
    3.6411   -3.8956   -2.1997 C   0  0  0  0  0  0  0  0  0  0  0  0
    4.7129   -2.9483   -2.6082 C   0  0  0  0  0  0  0  0  0  0  0  0
    4.8276   -1.8946   -1.6466 C   0  0  0  0  0  0  0  0  0  0  0  0
    3.9730   -1.6448   -0.4961 C   0  0  0  0  0  0  0  0  0  0  0  0
    2.3929   -2.0429   -0.8212 C   0  0  1  0  0  0  0  0  0  0  0  0
    2.4891   -1.4907   -2.3215 C   0  0  0  0  0  0  0  0  0  0  0  0
    1.8456   -2.0075   -3.1964 O   0  0  0  0  0  0  0  0  0  0  0  0
    3.0259   -0.2325   -2.1035 O   0  0  0  0  0  0  0  0  0  0  0  0
    4.9708    3.7111    0.1197 C   0  0  0  0  0  0  0  0  0  0  0  0
    6.1922    3.6652   -0.5306 C   0  0  0  0  0  0  0  0  0  0  0  0
    7.3949    2.9790    0.3504 C   0  0  1  0  0  0  0  0  0  0  0  0
    7.9013    4.2707    0.9785 O   0  0  0  0  0  0  0  0  0  0  0  0
  1  2  1  0
  3  2  1  1
  3  4  1  0
  4  5  1  0
  5  6  1  6
  7  6  1  1
  7  8  1  0
  7  9  1  0
  9 10  1  1
 10 11  1  0
 11 12  2  0
 11 13  1  0
 13 14  1  6
 13 15  1  0
 15 16  2  0
 16 17  1  0
 16 18  1  0
 18 19  1  6
 18 20  1  0
 20 21  1  6
 21 22  1  0
 20 23  1  0
 23 24  2  0
 23 25  1  0
 25 26  1  1
 25 27  1  0
 27 28  1  0
 28 29  1  1
 28 30  1  0
 30 31  2  0
 31 32  1  0
 32 33  2  0
 33 34  1  0
 34 35  2  0
 35 36  1  0
 35 37  1  0
 37 38  1  6
 38 39  1  0
 37 40  1  0
 41 40  1  6
 41 42  1  0
 42 43  1  0
 43 44  1  0
 44 45  1  1
 44 46  1  0
 46 47  1  6
 46 48  1  0
 46 49  1  0
 49 50  2  0
 49 51  1  0
 51 52  2  0
 51 53  1  0
 53 54  1  0
 54 55  1  0
 55 56  1  0
 56 57  1  0
 58 57  1  1
 58 59  1  0
 59 60  2  0
 59 61  1  0
  5 62  1  0
 62 63  1  0
 63 64  1  0
 64 65  1  1
 64  3  1  0
 61  9  1  0
 48 41  1  0
 58 53  1  0
M  END
>  <supplier_code>  (738) 
DB00877

>  <zinc_id>  (738) 
ZINC000169289388

>  <catalog_short_name>  (738) 
dbfda

$$$$

     RDKit          3D

 34 35  0  0  0  0  0  0  0  0999 V2000
   -3.4640   -0.4836   -3.8425 N   0  0  0  0  0  0  0  0  0  0  0  0
   -3.2436   -0.1238   -2.4741 C   0  0  0  0  0  0  0  0  0  0  0  0
   -2.0513   -0.0906   -1.9583 N   0  0  0  0  0  0  0  0  0  0  0  0
   -1.0638   -0.9366   -2.6163 C   0  0  0  0  0  0  0  0  0  0  0  0
    0.1938   -1.0873   -1.8093 C   0  0  0  0  0  0  0  0  0  0  0  0
   -0.0420   -0.9415   -0.3312 C   0  0  0  0  0  0  0  0  0  0  0  0
    0.4687   -2.1128    0.4654 C   0  0  0  0  0  0  0  0  0  0  0  0
    1.8930   -1.9401    0.9230 C   0  0  0  0  0  0  0  0  0  0  0  0
    2.4066   -0.5577    0.6316 C   0  0  0  0  0  0  0  0  0  0  0  0
    3.3420   -0.6112   -0.4884 N   0  0  0  0  0  0  0  0  0  0  0  0
    4.1835    0.3559   -0.7263 C   0  0  0  0  0  0  0  0  0  0  0  0
    4.4843    0.5070   -2.1239 N   0  0  0  0  0  0  0  0  0  0  0  0
    3.8164    1.5904   -0.0905 N   0  0  0  0  0  0  0  0  0  0  0  0
    4.7929    2.4342    0.0713 C   0  0  0  0  0  0  0  0  0  0  0  0
    4.4664    3.7852    0.3680 N   0  0  0  0  0  0  0  0  0  0  0  0
    6.0763    1.8667    0.3097 N   0  0  0  0  0  0  0  0  0  0  0  0
    6.1530    0.4911    0.7171 C   0  0  0  0  0  0  0  0  0  0  0  0
    5.9357    0.3095    2.0821 C   0  0  0  0  0  0  0  0  0  0  0  0
    6.3881   -0.8078    2.7514 C   0  0  0  0  0  0  0  0  0  0  0  0
    7.5278   -1.4139    2.2803 C   0  0  0  0  0  0  0  0  0  0  0  0
    8.7044   -2.1815    3.3427 Cl  0  0  0  0  0  0  0  0  0  0  0  0
    7.8577   -1.2216    0.9628 C   0  0  0  0  0  0  0  0  0  0  0  0
    7.3009   -0.1610    0.2712 C   0  0  0  0  0  0  0  0  0  0  0  0
   -4.4153    0.1492   -1.7019 N   0  0  0  0  0  0  0  0  0  0  0  0
   -4.3118    0.6440   -0.5042 C   0  0  0  0  0  0  0  0  0  0  0  0
   -3.2781    1.5925   -0.3020 N   0  0  0  0  0  0  0  0  0  0  0  0
   -5.2804    0.3013    0.4654 N   0  0  0  0  0  0  0  0  0  0  0  0
   -6.6284    0.0302    0.0648 C   0  0  0  0  0  0  0  0  0  0  0  0
   -7.5037    1.0646   -0.2358 C   0  0  0  0  0  0  0  0  0  0  0  0
   -8.8295    1.0119    0.1367 C   0  0  0  0  0  0  0  0  0  0  0  0
   -9.3847   -0.1561    0.6129 C   0  0  0  0  0  0  0  0  0  0  0  0
  -10.7281   -0.0659    1.7478 Cl  0  0  0  0  0  0  0  0  0  0  0  0
   -8.5699   -1.2793    0.5942 C   0  0  0  0  0  0  0  0  0  0  0  0
   -7.1970   -1.1865    0.4064 C   0  0  0  0  0  0  0  0  0  0  0  0
  1  2  1  0
  2  3  2  0
  3  4  1  0
  4  5  1  0
  5  6  1  0
  6  7  1  0
  7  8  1  0
  8  9  1  0
  9 10  1  0
 10 11  2  0
 11 12  1  0
 11 13  1  0
 13 14  2  0
 14 15  1  0
 14 16  1  0
 16 17  1  0
 17 18  2  0
 18 19  1  0
 19 20  2  0
 20 21  1  0
 20 22  1  0
 22 23  2  0
  2 24  1  0
 24 25  2  0
 25 26  1  0
 25 27  1  0
 27 28  1  0
 28 29  2  0
 29 30  1  0
 30 31  2  0
 31 32  1  0
 31 33  1  0
 33 34  2  0
 23 17  1  0
 34 28  1  0
M  END
>  <supplier_code>  (739) 
DB00878

>  <zinc_id>  (739) 
ZINC000014768621

>  <catalog_short_name>  (739) 
dbfda

$$$$

     RDKit          3D

 16 17  0  0  0  0  0  0  0  0999 V2000
   -4.3295    0.0009    0.1069 N   0  0  0  0  0  0  0  0  0  0  0  0
   -3.1820   -0.0111    0.1677 C   0  0  0  0  0  0  0  0  0  0  0  0
   -2.4325   -1.1084    0.4378 N   0  0  0  0  0  0  0  0  0  0  0  0
   -1.1082   -1.1745    0.1744 C   0  0  0  0  0  0  0  0  0  0  0  0
   -0.3838   -2.0636    0.7086 O   0  0  0  0  0  0  0  0  0  0  0  0
   -0.4931   -0.0891   -0.1686 N   0  0  0  0  0  0  0  0  0  0  0  0
    0.9320   -0.1517   -0.8508 C   0  0  2  0  0  0  0  0  0  0  0  0
    1.3565   -1.6346   -0.2433 C   0  0  0  0  0  0  0  0  0  0  0  0
    3.1436   -1.2567   -0.1785 S   0  0  0  0  0  0  0  0  0  0  0  0
    2.8763    0.6429   -0.3391 C   0  0  2  0  0  0  0  0  0  0  0  0
    3.7116    0.9870    0.9874 C   0  0  0  0  0  0  0  0  0  0  0  0
    5.0598    0.9653    0.5931 O   0  0  0  0  0  0  0  0  0  0  0  0
    1.5765    0.5315    0.3543 O   0  0  0  0  0  0  0  0  0  0  0  0
   -1.1499    0.9687   -0.7051 C   0  0  0  0  0  0  0  0  0  0  0  0
   -2.4723    1.0950   -0.2918 C   0  0  0  0  0  0  0  0  0  0  0  0
   -3.1050    2.2982   -0.4137 F   0  0  0  0  0  0  0  0  0  0  0  0
  1  2  1  0
  2  3  2  0
  3  4  1  0
  4  5  2  0
  4  6  1  0
  7  6  1  1
  7  8  1  0
  8  9  1  0
  9 10  1  0
 10 11  1  1
 11 12  1  0
 10 13  1  0
  6 14  1  0
 14 15  2  0
 15 16  1  0
 15  2  1  0
 13  7  1  0
M  END
>  <supplier_code>  (740) 
DB00879

>  <zinc_id>  (740) 
ZINC000003629271

>  <catalog_short_name>  (740) 
dbfda

$$$$

     RDKit          3D

 17 18  0  0  0  0  0  0  0  0999 V2000
    3.5685    1.2231   -0.6607 N   0  0  0  0  0  0  0  0  0  0  0  0
    3.0126    0.1338    0.5727 S   0  0  0  0  0  0  0  0  0  0  0  0
    3.0387    0.8841    1.8610 O   0  0  0  0  0  0  0  0  0  0  0  0
    3.9677   -1.0115    0.6265 O   0  0  0  0  0  0  0  0  0  0  0  0
    1.3882   -0.3769    0.1395 C   0  0  0  0  0  0  0  0  0  0  0  0
    0.2971   -0.0095    0.9176 C   0  0  0  0  0  0  0  0  0  0  0  0
   -1.0026   -0.2095    0.4872 C   0  0  0  0  0  0  0  0  0  0  0  0
   -1.1567   -0.8659   -0.7286 C   0  0  0  0  0  0  0  0  0  0  0  0
   -0.0628   -1.1813   -1.5285 C   0  0  0  0  0  0  0  0  0  0  0  0
    1.2062   -0.7244   -1.1937 C   0  0  0  0  0  0  0  0  0  0  0  0
    2.3454   -0.2239   -2.4414 Cl  0  0  0  0  0  0  0  0  0  0  0  0
   -2.4325   -1.2698   -1.1988 N   0  0  0  0  0  0  0  0  0  0  0  0
   -3.6190   -0.7786   -0.5666 C   0  0  0  0  0  0  0  0  0  0  0  0
   -3.6282    0.4419   -0.1161 N   0  0  0  0  0  0  0  0  0  0  0  0
   -2.3067    0.8963    0.9199 S   0  0  0  0  0  0  0  0  0  0  0  0
   -2.6854    0.7699    2.3621 O   0  0  0  0  0  0  0  0  0  0  0  0
   -1.9305    2.3021    0.5479 O   0  0  0  0  0  0  0  0  0  0  0  0
  1  2  1  0
  2  3  2  0
  2  4  2  0
  2  5  1  0
  5  6  2  0
  6  7  1  0
  7  8  2  0
  8  9  1  0
  9 10  2  0
 10 11  1  0
  8 12  1  0
 12 13  1  0
 13 14  2  0
 14 15  1  0
 15 16  2  0
 15 17  2  0
 10  5  1  0
 15  7  1  0
M  END
>  <supplier_code>  (741) 
DB00880

>  <zinc_id>  (741) 
ZINC000003872055

>  <catalog_short_name>  (741) 
dbfda

$$$$

     RDKit          3D

 32 34  0  0  0  0  0  0  0  0999 V2000
    3.1517   -1.6111   -3.2049 C   0  0  0  0  0  0  0  0  0  0  0  0
    3.4017   -1.5317   -2.5058 C   0  0  0  0  0  0  0  0  0  0  0  0
    3.2864   -0.5429   -1.5138 O   0  0  0  0  0  0  0  0  0  0  0  0
    1.9866   -0.0849   -1.2551 C   0  0  0  0  0  0  0  0  0  0  0  0
    1.5675    0.5671   -2.2656 O   0  0  0  0  0  0  0  0  0  0  0  0
    1.9662    0.9546   -0.0065 C   0  0  2  0  0  0  0  0  0  0  0  0
    2.1364   -0.2201    1.1373 C   0  0  0  0  0  0  0  0  0  0  0  0
    3.4101   -0.9034    0.9640 C   0  0  0  0  0  0  0  0  0  0  0  0
    4.4895   -0.2044    1.7067 C   0  0  0  0  0  0  0  0  0  0  0  0
    4.7339    1.1374    1.4844 C   0  0  0  0  0  0  0  0  0  0  0  0
    6.0266    1.6038    1.2715 C   0  0  0  0  0  0  0  0  0  0  0  0
    7.0897    0.8075    1.6812 C   0  0  0  0  0  0  0  0  0  0  0  0
    6.8176   -0.4330    2.2254 C   0  0  0  0  0  0  0  0  0  0  0  0
    5.5327   -0.9626    2.2262 C   0  0  0  0  0  0  0  0  0  0  0  0
    0.4004    1.0048    0.1919 N   0  0  0  0  0  0  0  0  0  0  0  0
   -0.1172   -0.2836   -0.5455 C   0  0  1  0  0  0  0  0  0  0  0  0
   -0.2460   -1.1489    0.8596 C   0  0  0  0  0  0  0  0  0  0  0  0
   -1.6622    0.1871   -0.4617 C   0  0  0  0  0  0  0  0  0  0  0  0
   -1.9205    1.3515   -0.7509 O   0  0  0  0  0  0  0  0  0  0  0  0
   -2.4949   -0.9212   -0.4003 N   0  0  0  0  0  0  0  0  0  0  0  0
   -2.9685   -1.2799    0.9384 C   0  0  0  0  0  0  0  0  0  0  0  0
   -3.8631   -0.1505    1.3403 C   0  0  0  0  0  0  0  0  0  0  0  0
   -3.8950    0.3714    2.6157 C   0  0  0  0  0  0  0  0  0  0  0  0
   -5.0725    1.0194    2.9717 C   0  0  0  0  0  0  0  0  0  0  0  0
   -6.1810    0.9969    2.1330 C   0  0  0  0  0  0  0  0  0  0  0  0
   -5.9839    0.7792    0.7761 C   0  0  0  0  0  0  0  0  0  0  0  0
   -4.7426    0.3065    0.3664 C   0  0  0  0  0  0  0  0  0  0  0  0
   -4.2823    0.4156   -1.0333 C   0  0  0  0  0  0  0  0  0  0  0  0
   -3.6900   -1.0799   -1.4150 C   0  0  1  0  0  0  0  0  0  0  0  0
   -2.8169   -0.5890   -2.6900 C   0  0  0  0  0  0  0  0  0  0  0  0
   -3.1120    0.5111   -3.1959 O   0  0  0  0  0  0  0  0  0  0  0  0
   -2.9484   -1.6163   -3.6453 O   0  0  0  0  0  0  0  0  0  0  0  0
  1  2  1  0
  2  3  1  0
  3  4  1  0
  4  5  2  0
  6  4  1  6
  6  7  1  0
  7  8  1  0
  8  9  1  0
  9 10  2  0
 10 11  1  0
 11 12  2  0
 12 13  1  0
 13 14  2  0
  6 15  1  0
 16 15  1  1
 16 17  1  0
 16 18  1  0
 18 19  2  0
 18 20  1  0
 20 21  1  0
 21 22  1  0
 22 23  2  0
 23 24  1  0
 24 25  2  0
 25 26  1  0
 26 27  2  0
 27 28  1  0
 28 29  1  0
 29 30  1  6
 30 31  2  0
 30 32  1  0
 14  9  1  0
 29 20  1  0
 27 22  1  0
M  END
>  <supplier_code>  (742) 
DB00881

>  <zinc_id>  (742) 
ZINC000003801163

>  <catalog_short_name>  (742) 
dbfda

$$$$

     RDKit          3D

 29 31  0  0  0  0  0  0  0  0999 V2000
    4.8924    2.3854   -1.2059 C   0  0  0  0  0  0  0  0  0  0  0  0
    5.0328    0.8716   -1.2030 C   0  0  0  0  0  0  0  0  0  0  0  0
    6.0672    0.4573   -0.2723 N   0  0  0  0  0  0  0  0  0  0  0  0
    6.9542   -0.4288   -1.0025 C   0  0  0  0  0  0  0  0  0  0  0  0
    6.3783   -1.8344   -0.8787 C   0  0  0  0  0  0  0  0  0  0  0  0
    5.4511   -0.2537    0.8431 C   0  0  0  0  0  0  0  0  0  0  0  0
    4.0783    0.3749    1.0420 C   0  0  0  0  0  0  0  0  0  0  0  0
    3.1583   -0.5900    1.5369 O   0  0  0  0  0  0  0  0  0  0  0  0
    1.8405   -0.5598    1.0840 C   0  0  0  0  0  0  0  0  0  0  0  0
    0.8614    0.0999    1.8088 C   0  0  0  0  0  0  0  0  0  0  0  0
   -0.3365    0.3411    1.1460 C   0  0  0  0  0  0  0  0  0  0  0  0
   -0.7088   -0.3885    0.0220 C   0  0  0  0  0  0  0  0  0  0  0  0
   -1.7509    0.2321   -0.8058 C   0  0  0  0  0  0  0  0  0  0  0  0
   -2.6356   -0.6131   -1.3339 C   0  0  0  0  0  0  0  0  0  0  0  0
   -3.5425   -0.0333   -2.7071 Cl  0  0  0  0  0  0  0  0  0  0  0  0
   -3.0831   -1.8185   -0.6313 C   0  0  0  0  0  0  0  0  0  0  0  0
   -4.4159   -2.1941   -0.7606 C   0  0  0  0  0  0  0  0  0  0  0  0
   -5.0560   -2.9386    0.2222 C   0  0  0  0  0  0  0  0  0  0  0  0
   -4.4292   -3.1804    1.4381 C   0  0  0  0  0  0  0  0  0  0  0  0
   -3.0411   -3.1199    1.4085 C   0  0  0  0  0  0  0  0  0  0  0  0
   -2.4079   -2.3719    0.4237 C   0  0  0  0  0  0  0  0  0  0  0  0
   -1.9585    1.6864   -0.8304 C   0  0  0  0  0  0  0  0  0  0  0  0
   -2.6654    2.2390    0.2282 C   0  0  0  0  0  0  0  0  0  0  0  0
   -3.1253    3.5375    0.2297 C   0  0  0  0  0  0  0  0  0  0  0  0
   -2.9662    4.2995   -0.8972 C   0  0  0  0  0  0  0  0  0  0  0  0
   -2.4061    3.7114   -2.0079 C   0  0  0  0  0  0  0  0  0  0  0  0
   -2.0177    2.3802   -2.0332 C   0  0  0  0  0  0  0  0  0  0  0  0
    0.3513   -0.9382   -0.6896 C   0  0  0  0  0  0  0  0  0  0  0  0
    1.4808   -1.3532    0.0032 C   0  0  0  0  0  0  0  0  0  0  0  0
  1  2  1  0
  2  3  1  0
  3  4  1  0
  4  5  1  0
  3  6  1  0
  6  7  1  0
  7  8  1  0
  8  9  1  0
  9 10  2  0
 10 11  1  0
 11 12  2  0
 12 13  1  0
 13 14  2  0
 14 15  1  0
 14 16  1  0
 16 17  2  0
 17 18  1  0
 18 19  2  0
 19 20  1  0
 20 21  2  0
 13 22  1  0
 22 23  2  0
 23 24  1  0
 24 25  2  0
 25 26  1  0
 26 27  2  0
 12 28  1  0
 28 29  2  0
 29  9  1  0
 21 16  1  0
 27 22  1  0
M  END
>  <supplier_code>  (743) 
DB00882

>  <zinc_id>  (743) 
ZINC000001530601

>  <catalog_short_name>  (743) 
dbfda

$$$$

     RDKit          3D

 29 31  0  0  0  0  0  0  0  0999 V2000
    6.3376    0.9401   -1.4059 C   0  0  0  0  0  0  0  0  0  0  0  0
    5.1343    1.3609   -0.6010 C   0  0  0  0  0  0  0  0  0  0  0  0
    5.3655    1.0110    0.7952 N   0  0  0  0  0  0  0  0  0  0  0  0
    6.7196    1.4640    1.0985 C   0  0  0  0  0  0  0  0  0  0  0  0
    7.7098    0.3180    1.0130 C   0  0  0  0  0  0  0  0  0  0  0  0
    5.3101   -0.4225    0.9744 C   0  0  0  0  0  0  0  0  0  0  0  0
    4.8539   -1.1546   -0.2591 C   0  0  0  0  0  0  0  0  0  0  0  0
    3.6213   -0.6976   -0.7504 O   0  0  0  0  0  0  0  0  0  0  0  0
    2.3892   -1.0280   -0.2249 C   0  0  0  0  0  0  0  0  0  0  0  0
    1.8333   -0.2846    0.8020 C   0  0  0  0  0  0  0  0  0  0  0  0
    0.4656   -0.1730    0.9694 C   0  0  0  0  0  0  0  0  0  0  0  0
   -0.3737   -0.7178    0.0057 C   0  0  0  0  0  0  0  0  0  0  0  0
   -1.8035   -0.3827   -0.0109 C   0  0  0  0  0  0  0  0  0  0  0  0
   -2.2722    0.6199   -0.7535 C   0  0  0  0  0  0  0  0  0  0  0  0
   -1.2207    1.2251   -2.0304 Cl  0  0  0  0  0  0  0  0  0  0  0  0
   -3.4196    1.3976   -0.2682 C   0  0  0  0  0  0  0  0  0  0  0  0
   -3.5435    1.7687    1.0649 C   0  0  0  0  0  0  0  0  0  0  0  0
   -3.9752    3.0278    1.4242 C   0  0  0  0  0  0  0  0  0  0  0  0
   -4.4934    3.8736    0.4531 C   0  0  0  0  0  0  0  0  0  0  0  0
   -4.8742    3.2649   -0.7364 C   0  0  0  0  0  0  0  0  0  0  0  0
   -4.1813    2.1387   -1.1629 C   0  0  0  0  0  0  0  0  0  0  0  0
   -2.7986   -1.2010    0.6910 C   0  0  0  0  0  0  0  0  0  0  0  0
   -4.0812   -1.3847    0.1922 C   0  0  0  0  0  0  0  0  0  0  0  0
   -4.7573   -2.5871    0.3399 C   0  0  0  0  0  0  0  0  0  0  0  0
   -4.1842   -3.6223    1.0487 C   0  0  0  0  0  0  0  0  0  0  0  0
   -3.0602   -3.3421    1.8074 C   0  0  0  0  0  0  0  0  0  0  0  0
   -2.3295   -2.2003    1.5302 C   0  0  0  0  0  0  0  0  0  0  0  0
    0.1349   -1.5732   -0.9452 C   0  0  0  0  0  0  0  0  0  0  0  0
    1.4935   -1.6394   -1.0896 C   0  0  0  0  0  0  0  0  0  0  0  0
  1  2  1  0
  2  3  1  0
  3  4  1  0
  4  5  1  0
  3  6  1  0
  6  7  1  0
  7  8  1  0
  8  9  1  0
  9 10  2  0
 10 11  1  0
 11 12  2  0
 12 13  1  0
 13 14  2  0
 14 15  1  0
 14 16  1  0
 16 17  2  0
 17 18  1  0
 18 19  2  0
 19 20  1  0
 20 21  2  0
 13 22  1  0
 22 23  2  0
 23 24  1  0
 24 25  2  0
 25 26  1  0
 26 27  2  0
 12 28  1  0
 28 29  2  0
 29  9  1  0
 21 16  1  0
 27 22  1  0
M  END
>  <supplier_code>  (744) 
DB00882

>  <zinc_id>  (744) 
ZINC000012402836

>  <catalog_short_name>  (744) 
dbfda

$$$$

     RDKit          3D

 16 17  0  0  0  0  0  0  0  0999 V2000
   -3.7547    1.0130   -0.0390 O   0  0  0  0  0  0  0  0  0  0  0  0
   -3.4574    0.0847   -0.1270 N   0  0  0  0  0  0  0  0  0  0  0  0
   -4.4781   -0.8173    0.1182 O   0  0  0  0  0  0  0  0  0  0  0  0
   -2.3799   -0.1512   -0.9257 O   0  0  0  0  0  0  0  0  0  0  0  0
   -1.3884   -1.2352   -0.5024 C   0  0  2  0  0  0  0  0  0  0  0  0
   -1.3037   -0.7224    1.0374 C   0  0  0  0  0  0  0  0  0  0  0  0
   -0.1994   -1.2563    1.3170 O   0  0  0  0  0  0  0  0  0  0  0  0
    0.9065   -0.9778    0.3732 C   0  0  2  0  0  0  0  0  0  0  0  0
    1.2085    0.5302    1.1361 C   0  0  1  0  0  0  0  0  0  0  0  0
    2.7166    0.4266    0.9828 O   0  0  0  0  0  0  0  0  0  0  0  0
    3.4076    0.4201   -0.1259 N   0  0  0  0  0  0  0  0  0  0  0  0
    4.1198    1.4302   -0.3974 O   0  0  0  0  0  0  0  0  0  0  0  0
    4.0536   -0.7755   -0.4541 O   0  0  0  0  0  0  0  0  0  0  0  0
    0.9530    1.3823   -0.2371 C   0  0  0  0  0  0  0  0  0  0  0  0
   -0.3897    0.9392   -0.1113 O   0  0  0  0  0  0  0  0  0  0  0  0
   -0.0143   -0.2904   -0.8776 C   0  0  2  0  0  0  0  0  0  0  0  0
  1  2  2  0
  2  3  1  0
  2  4  1  0
  5  4  1  6
  5  6  1  0
  6  7  1  0
  8  7  1  1
  8  9  1  0
  9 10  1  6
 10 11  1  0
 11 12  2  0
 11 13  1  0
  9 14  1  0
 14 15  1  0
 16 15  1  1
 16  5  1  0
 16  8  1  0
M  CHG  4   2   1   3  -1  11   1  13  -1
M  END
>  <supplier_code>  (745) 
DB00883

>  <zinc_id>  (745) 
ZINC000018089317

>  <catalog_short_name>  (745) 
dbfda

$$$$

     RDKit          3D

 17 17  0  0  0  0  0  0  0  0999 V2000
   -2.6283    1.6237    0.9478 O   0  0  0  0  0  0  0  0  0  0  0  0
   -2.1118    1.4116   -0.4687 P   0  0  0  0  0  0  0  0  0  0  0  0
   -1.4930    2.8300   -1.1235 O   0  0  0  0  0  0  0  0  0  0  0  0
   -3.3325    0.7784   -1.4432 O   0  0  0  0  0  0  0  0  0  0  0  0
   -0.8120    0.1368   -0.3605 C   0  0  0  0  0  0  0  0  0  0  0  0
   -0.2542   -0.0019   -1.6161 O   0  0  0  0  0  0  0  0  0  0  0  0
    0.1556    0.5510    0.7002 C   0  0  0  0  0  0  0  0  0  0  0  0
    1.4830   -0.1294    0.5727 C   0  0  0  0  0  0  0  0  0  0  0  0
    2.0735   -0.3732   -0.6612 C   0  0  0  0  0  0  0  0  0  0  0  0
    3.4100   -0.0650   -0.8869 C   0  0  0  0  0  0  0  0  0  0  0  0
    4.2357   -0.0132    0.2301 C   0  0  0  0  0  0  0  0  0  0  0  0
    3.6849    0.3547    1.4061 N   0  0  0  0  0  0  0  0  0  0  0  0
    2.3897    0.0117    1.6146 C   0  0  0  0  0  0  0  0  0  0  0  0
   -1.5512   -1.4341    0.1350 P   0  0  0  0  0  0  0  0  0  0  0  0
   -2.8321   -1.5926   -0.6725 O   0  0  0  0  0  0  0  0  0  0  0  0
   -0.4908   -2.7214   -0.1664 O   0  0  0  0  0  0  0  0  0  0  0  0
   -1.9265   -1.3669    1.7926 O   0  0  0  0  0  0  0  0  0  0  0  0
  1  2  2  0
  2  3  1  0
  2  4  1  0
  2  5  1  0
  5  6  1  0
  5  7  1  0
  7  8  1  0
  8  9  2  0
  9 10  1  0
 10 11  2  0
 11 12  1  0
 12 13  2  0
  5 14  1  0
 14 15  2  0
 14 16  1  0
 14 17  1  0
 13  8  1  0
M  END
>  <supplier_code>  (746) 
DB00884

>  <zinc_id>  (746) 
ZINC000001531009

>  <catalog_short_name>  (746) 
dbfda

$$$$

     RDKit          3D

 25 26  0  0  0  0  0  0  0  0999 V2000
    6.6010   -0.9086    0.1476 C   0  0  0  0  0  0  0  0  0  0  0  0
    5.5784    0.0421    0.7428 C   0  0  0  0  0  0  0  0  0  0  0  0
    4.2020   -0.5797    0.5689 C   0  0  0  0  0  0  0  0  0  0  0  0
    3.3245    0.5114   -0.0328 C   0  0  0  0  0  0  0  0  0  0  0  0
    2.0481   -0.0220   -0.4796 N   0  0  0  0  0  0  0  0  0  0  0  0
    0.8473    0.7480   -0.3962 C   0  0  0  0  0  0  0  0  0  0  0  0
    0.9258    2.1093   -0.5832 C   0  0  0  0  0  0  0  0  0  0  0  0
   -0.1810    2.8902   -0.3805 C   0  0  0  0  0  0  0  0  0  0  0  0
   -0.1108    4.3478   -0.2159 C   0  0  0  0  0  0  0  0  0  0  0  0
    0.0082    4.7552    0.9772 O   0  0  0  0  0  0  0  0  0  0  0  0
   -1.0024    5.0800   -1.0061 O   0  0  0  0  0  0  0  0  0  0  0  0
   -1.4039    2.2674   -0.2561 C   0  0  0  0  0  0  0  0  0  0  0  0
   -1.4720    0.8911   -0.0790 C   0  0  0  0  0  0  0  0  0  0  0  0
   -2.9599    0.2401    0.5912 S   0  0  0  0  0  0  0  0  0  0  0  0
   -3.9037   -0.5032   -0.6633 N   0  0  0  0  0  0  0  0  0  0  0  0
   -2.6968   -0.7274    1.6980 O   0  0  0  0  0  0  0  0  0  0  0  0
   -3.8254    1.3381    1.1674 O   0  0  0  0  0  0  0  0  0  0  0  0
   -0.3435    0.0833   -0.1482 C   0  0  0  0  0  0  0  0  0  0  0  0
   -0.2919   -0.9960    0.7294 O   0  0  0  0  0  0  0  0  0  0  0  0
   -0.2850   -2.3151    0.3340 C   0  0  0  0  0  0  0  0  0  0  0  0
   -0.8813   -2.7824   -0.8236 C   0  0  0  0  0  0  0  0  0  0  0  0
   -1.6357   -3.9494   -0.8236 C   0  0  0  0  0  0  0  0  0  0  0  0
   -1.6859   -4.7625    0.3019 C   0  0  0  0  0  0  0  0  0  0  0  0
   -0.7485   -4.4952    1.2906 C   0  0  0  0  0  0  0  0  0  0  0  0
   -0.1075   -3.2626    1.3351 C   0  0  0  0  0  0  0  0  0  0  0  0
  1  2  1  0
  2  3  1  0
  3  4  1  0
  4  5  1  0
  5  6  1  0
  6  7  2  0
  7  8  1  0
  8  9  1  0
  9 10  2  0
  9 11  1  0
  8 12  2  0
 12 13  1  0
 13 14  1  0
 14 15  1  0
 14 16  2  0
 14 17  2  0
 13 18  2  0
 18 19  1  0
 19 20  1  0
 20 21  2  0
 21 22  1  0
 22 23  2  0
 23 24  1  0
 24 25  2  0
 18  6  1  0
 25 20  1  0
M  END
>  <supplier_code>  (747) 
DB00887

>  <zinc_id>  (747) 
ZINC000003813061

>  <catalog_short_name>  (747) 
dbfda

$$$$

     RDKit          3D

  8  7  0  0  0  0  0  0  0  0999 V2000
   -0.7081   -1.5139    1.1628 C   0  0  0  0  0  0  0  0  0  0  0  0
    0.1203   -0.9683    0.1596 N   0  0  0  0  0  0  0  0  0  0  0  0
   -0.5055   -0.3664   -0.9577 C   0  0  0  0  0  0  0  0  0  0  0  0
   -1.9716   -0.1006   -0.8136 C   0  0  0  0  0  0  0  0  0  0  0  0
   -2.2394    0.8935    0.6397 Cl  0  0  0  0  0  0  0  0  0  0  0  0
    1.3646   -0.4200    0.5706 C   0  0  0  0  0  0  0  0  0  0  0  0
    1.9120    0.3827   -0.5906 C   0  0  0  0  0  0  0  0  0  0  0  0
    2.0276    2.0931   -0.1709 Cl  0  0  0  0  0  0  0  0  0  0  0  0
  1  2  1  0
  2  3  1  0
  3  4  1  0
  4  5  1  0
  2  6  1  0
  6  7  1  0
  7  8  1  0
M  END
>  <supplier_code>  (748) 
DB00888

>  <zinc_id>  (748) 
ZINC000002539484

>  <catalog_short_name>  (748) 
dbfda

$$$$

     RDKit          3D

 23 26  0  0  0  0  0  0  0  0999 V2000
    3.9332    2.8245   -0.2488 C   0  0  0  0  0  0  0  0  0  0  0  0
    3.3813    1.7318   -0.2602 N   0  0  0  0  0  0  0  0  0  0  0  0
    2.1362    1.4706   -0.6395 N   0  0  0  0  0  0  0  0  0  0  0  0
    1.7627    0.2296   -0.3150 C   0  0  0  0  0  0  0  0  0  0  0  0
    0.4247   -0.2560    0.0602 C   0  0  0  0  0  0  0  0  0  0  0  0
    0.0984   -0.0688    1.2717 O   0  0  0  0  0  0  0  0  0  0  0  0
   -0.6393   -0.2976   -0.8790 N   0  0  0  0  0  0  0  0  0  0  0  0
   -1.9852    0.0795   -0.5852 C   0  0  0  0  0  0  0  0  0  0  0  0
   -2.9076   -1.0469   -0.7609 C   0  0  0  0  0  0  0  0  0  0  0  0
   -4.3977   -0.3729   -0.9771 C   0  0  1  0  0  0  0  0  0  0  0  0
   -5.2143   -1.3509    0.0658 C   0  0  0  0  0  0  0  0  0  0  0  0
   -4.4732   -1.6286    1.2440 C   0  0  0  0  0  0  0  0  0  0  0  0
   -3.3272   -0.8715    1.5638 C   0  0  0  0  0  0  0  0  0  0  0  0
   -3.5437    0.7348    1.3117 C   0  0  1  0  0  0  0  0  0  0  0  0
   -2.0729    0.9199    0.5852 C   0  0  0  0  0  0  0  0  0  0  0  0
   -4.3211    0.8036   -0.0031 N   0  0  0  0  0  0  0  0  0  0  0  0
   -3.8923    1.9654   -0.7331 C   0  0  0  0  0  0  0  0  0  0  0  0
    2.8934   -0.3969    0.1775 C   0  0  0  0  0  0  0  0  0  0  0  0
    3.1602   -1.7397    0.3543 C   0  0  0  0  0  0  0  0  0  0  0  0
    4.4396   -2.1612    0.6250 C   0  0  0  0  0  0  0  0  0  0  0  0
    5.4206   -1.1965    0.6869 C   0  0  0  0  0  0  0  0  0  0  0  0
    5.1987    0.1027    0.2958 C   0  0  0  0  0  0  0  0  0  0  0  0
    3.9255    0.5252    0.0316 C   0  0  0  0  0  0  0  0  0  0  0  0
  1  2  1  0
  2  3  1  0
  3  4  2  0
  4  5  1  0
  5  6  2  0
  5  7  1  0
  7  8  1  0
  8  9  1  0
 10  9  1  1
 10 11  1  0
 11 12  1  0
 12 13  1  0
 14 13  1  6
 14 15  1  0
 14 16  1  0
 16 17  1  0
  4 18  1  0
 18 19  2  0
 19 20  1  0
 20 21  2  0
 21 22  1  0
 22 23  2  0
 23  2  1  0
 15  8  1  0
 23 18  1  0
 16 10  1  0
M  END
>  <supplier_code>  (749) 
DB00889

>  <zinc_id>  (749) 
ZINC000000000347

>  <catalog_short_name>  (749) 
dbfda

$$$$

     RDKit          3D

 23 26  0  0  0  0  0  0  0  0999 V2000
   -5.0138    1.4326   -1.5237 C   0  0  0  0  0  0  0  0  0  0  0  0
   -4.0597    0.9978   -0.6094 N   0  0  0  0  0  0  0  0  0  0  0  0
   -2.9150    1.6577   -0.4344 N   0  0  0  0  0  0  0  0  0  0  0  0
   -2.0906    0.9420    0.3426 C   0  0  0  0  0  0  0  0  0  0  0  0
   -0.6480    1.1822    0.4252 C   0  0  0  0  0  0  0  0  0  0  0  0
   -0.1962    2.2741    0.8705 O   0  0  0  0  0  0  0  0  0  0  0  0
    0.1915    0.4413   -0.4350 N   0  0  0  0  0  0  0  0  0  0  0  0
    1.5274    0.3155   -0.1746 C   0  0  0  0  0  0  0  0  0  0  0  0
    2.0290   -0.4501    1.0032 C   0  0  0  0  0  0  0  0  0  0  0  0
    3.2755   -1.4492    0.5530 C   0  0  2  0  0  0  0  0  0  0  0  0
    4.5192   -0.7258    1.3559 C   0  0  0  0  0  0  0  0  0  0  0  0
    5.5385   -0.1029    0.4673 C   0  0  0  0  0  0  0  0  0  0  0  0
    5.0353    1.0232   -0.4904 C   0  0  0  0  0  0  0  0  0  0  0  0
    3.5952    0.6666    0.1615 C   0  0  1  0  0  0  0  0  0  0  0  0
    2.4783    1.3698   -0.7919 C   0  0  0  0  0  0  0  0  0  0  0  0
    3.4869   -0.6239   -0.7491 N   0  0  0  0  0  0  0  0  0  0  0  0
    4.4211   -1.0048   -1.5537 C   0  0  0  0  0  0  0  0  0  0  0  0
   -2.7456   -0.2123    0.7501 C   0  0  0  0  0  0  0  0  0  0  0  0
   -2.2407   -1.4155    1.2287 C   0  0  0  0  0  0  0  0  0  0  0  0
   -3.1632   -2.4399    1.3608 C   0  0  0  0  0  0  0  0  0  0  0  0
   -4.3029   -2.4419    0.5812 C   0  0  0  0  0  0  0  0  0  0  0  0
   -4.7733   -1.2673    0.0129 C   0  0  0  0  0  0  0  0  0  0  0  0
   -3.9487   -0.1693    0.0559 C   0  0  0  0  0  0  0  0  0  0  0  0
  1  2  1  0
  2  3  1  0
  3  4  2  0
  4  5  1  0
  5  6  2  0
  5  7  1  0
  7  8  1  0
  8  9  1  0
 10  9  1  1
 10 11  1  0
 11 12  1  0
 12 13  1  0
 14 13  1  6
 14 15  1  0
 14 16  1  0
 16 17  1  0
  4 18  1  0
 18 19  2  0
 19 20  1  0
 20 21  2  0
 21 22  1  0
 22 23  2  0
 23  2  1  0
 15  8  1  0
 23 18  1  0
 16 10  1  0
M  END
>  <supplier_code>  (750) 
DB00889

>  <zinc_id>  (750) 
ZINC000000896557

>  <catalog_short_name>  (750) 
dbfda

$$$$

     RDKit          3D

 23 26  0  0  0  0  0  0  0  0999 V2000
   -5.0417    1.9814    0.0190 C   0  0  0  0  0  0  0  0  0  0  0  0
   -4.1023    1.5631    0.0179 N   0  0  0  0  0  0  0  0  0  0  0  0
   -2.8964    2.1240   -0.0594 N   0  0  0  0  0  0  0  0  0  0  0  0
   -1.9135    1.2370   -0.0149 C   0  0  0  0  0  0  0  0  0  0  0  0
   -0.4577    1.4254   -0.0147 C   0  0  0  0  0  0  0  0  0  0  0  0
   -0.0302    2.4216    0.6267 O   0  0  0  0  0  0  0  0  0  0  0  0
    0.3800    0.2703   -0.1744 N   0  0  0  0  0  0  0  0  0  0  0  0
    1.5763    0.2174    0.4564 C   0  0  0  0  0  0  0  0  0  0  0  0
    2.4623   -0.7207   -0.2614 C   0  0  0  0  0  0  0  0  0  0  0  0
    3.9334   -0.9706    0.5761 C   0  0  1  0  0  0  0  0  0  0  0  0
    4.6091   -2.0215   -0.4810 C   0  0  0  0  0  0  0  0  0  0  0  0
    3.3493   -2.6786   -0.1161 C   0  0  0  0  0  0  0  0  0  0  0  0
    2.7842   -1.3427   -0.2729 C   0  0  0  0  0  0  0  0  0  0  0  0
    3.3690   -0.1670    0.8014 C   0  0  2  0  0  0  0  0  0  0  0  0
    2.5679    1.1443    0.2473 C   0  0  0  0  0  0  0  0  0  0  0  0
    4.5389    0.1941   -0.1300 N   0  0  0  0  0  0  0  0  0  0  0  0
    4.7668    1.3505    0.6482 C   0  0  0  0  0  0  0  0  0  0  0  0
   -2.5030    0.0030    0.2193 C   0  0  0  0  0  0  0  0  0  0  0  0
   -1.9654   -1.1511    0.7753 C   0  0  0  0  0  0  0  0  0  0  0  0
   -2.8285   -2.1346    1.1940 C   0  0  0  0  0  0  0  0  0  0  0  0
   -4.1232   -2.0730    0.7153 C   0  0  0  0  0  0  0  0  0  0  0  0
   -4.6375   -0.9019    0.1689 C   0  0  0  0  0  0  0  0  0  0  0  0
   -3.8376    0.2296    0.0392 C   0  0  0  0  0  0  0  0  0  0  0  0
  1  2  1  0
  2  3  1  0
  3  4  2  0
  4  5  1  0
  5  6  2  0
  5  7  1  0
  7  8  1  0
  8  9  1  0
 10  9  1  6
 10 11  1  0
 11 12  1  0
 12 13  1  0
 14 13  1  6
 14 15  1  0
 14 16  1  0
 16 17  1  0
  4 18  1  0
 18 19  2  0
 19 20  1  0
 20 21  2  0
 21 22  1  0
 22 23  2  0
 23  2  1  0
 15  8  1  0
 23 18  1  0
 16 10  1  0
M  END
>  <supplier_code>  (751) 
DB00889

>  <zinc_id>  (751) 
ZINC000000896560

>  <catalog_short_name>  (751) 
dbfda

$$$$

     RDKit          3D

 23 26  0  0  0  0  0  0  0  0999 V2000
   -5.1337    2.3283   -0.7243 C   0  0  0  0  0  0  0  0  0  0  0  0
   -4.0521    1.4998   -0.2629 N   0  0  0  0  0  0  0  0  0  0  0  0
   -2.7772    1.8186   -0.0752 N   0  0  0  0  0  0  0  0  0  0  0  0
   -2.0049    0.7110   -0.1108 C   0  0  0  0  0  0  0  0  0  0  0  0
   -0.6242    0.5708    0.3709 C   0  0  0  0  0  0  0  0  0  0  0  0
   -0.5118   -0.0465    1.4737 O   0  0  0  0  0  0  0  0  0  0  0  0
    0.4669    0.7532   -0.5510 N   0  0  0  0  0  0  0  0  0  0  0  0
    1.7574    0.1833    0.1407 C   0  0  1  0  0  0  0  0  0  0  0  0
    2.3226   -0.5448   -1.2125 C   0  0  0  0  0  0  0  0  0  0  0  0
    3.5770   -1.3863   -0.5078 C   0  0  1  0  0  0  0  0  0  0  0  0
    4.7233   -0.8412   -1.5727 C   0  0  0  0  0  0  0  0  0  0  0  0
    5.7835   -0.1791   -0.7867 C   0  0  0  0  0  0  0  0  0  0  0  0
    5.0626    1.1272   -0.7011 C   0  0  0  0  0  0  0  0  0  0  0  0
    4.0526    1.0495    0.6041 C   0  0  1  0  0  0  0  0  0  0  0  0
    2.6886    1.4721   -0.2464 C   0  0  0  0  0  0  0  0  0  0  0  0
    3.8395   -0.4568    0.6875 N   0  0  0  0  0  0  0  0  0  0  0  0
    4.7669   -1.0295    1.5664 C   0  0  0  0  0  0  0  0  0  0  0  0
   -2.9175   -0.3371   -0.1074 C   0  0  0  0  0  0  0  0  0  0  0  0
   -2.7388   -1.6998    0.0976 C   0  0  0  0  0  0  0  0  0  0  0  0
   -3.7627   -2.5149    0.5526 C   0  0  0  0  0  0  0  0  0  0  0  0
   -5.0383   -1.9643    0.5443 C   0  0  0  0  0  0  0  0  0  0  0  0
   -5.2670   -0.6874    0.0608 C   0  0  0  0  0  0  0  0  0  0  0  0
   -4.2129    0.1740   -0.0898 C   0  0  0  0  0  0  0  0  0  0  0  0
  1  2  1  0
  2  3  1  0
  3  4  2  0
  4  5  1  0
  5  6  2  0
  5  7  1  0
  8  7  1  6
  8  9  1  0
 10  9  1  6
 10 11  1  0
 11 12  1  0
 12 13  1  0
 14 13  1  6
 14 15  1  0
 14 16  1  0
 16 17  1  0
  4 18  1  0
 18 19  2  0
 19 20  1  0
 20 21  2  0
 21 22  1  0
 22 23  2  0
 23  2  1  0
 15  8  1  0
 23 18  1  0
 16 10  1  0
M  END
>  <supplier_code>  (752) 
DB00889

>  <zinc_id>  (752) 
ZINC000100018854

>  <catalog_short_name>  (752) 
dbfda

$$$$

     RDKit          3D

 27 30  0  0  0  0  0  0  0  0999 V2000
    5.9470   -0.2438   -0.8466 C   0  0  0  0  0  0  0  0  0  0  0  0
    5.3912    0.5780   -0.3706 C   0  0  0  0  0  0  0  0  0  0  0  0
    3.9642    0.8339   -0.7691 C   0  0  0  0  0  0  0  0  0  0  0  0
    3.7547    1.9982   -1.0553 O   0  0  0  0  0  0  0  0  0  0  0  0
    2.9720   -0.0367   -0.0515 C   0  0  1  0  0  0  0  0  0  0  0  0
    3.5278   -1.4127   -0.1595 C   0  0  0  0  0  0  0  0  0  0  0  0
    3.2323    0.4968    1.4844 C   0  0  2  0  0  0  0  0  0  0  0  0
    2.9791   -0.9953    2.1726 C   0  0  0  0  0  0  0  0  0  0  0  0
    1.6656    0.9544    1.7749 C   0  0  0  0  0  0  0  0  0  0  0  0
    1.0232   -0.3838    1.0895 C   0  0  1  0  0  0  0  0  0  0  0  0
   -0.4714    0.3731    0.7645 C   0  0  2  0  0  0  0  0  0  0  0  0
   -1.0587    0.0017    2.2210 C   0  0  0  0  0  0  0  0  0  0  0  0
   -2.3895    0.6995    2.1748 C   0  0  0  0  0  0  0  0  0  0  0  0
   -2.9213    0.4880    0.7917 C   0  0  0  0  0  0  0  0  0  0  0  0
   -4.1995    0.8436    0.6147 C   0  0  0  0  0  0  0  0  0  0  0  0
   -5.1926   -0.0928    0.0611 C   0  0  0  0  0  0  0  0  0  0  0  0
   -6.3450    0.2412   -0.2811 O   0  0  0  0  0  0  0  0  0  0  0  0
   -4.7367   -1.4901    0.1355 C   0  0  0  0  0  0  0  0  0  0  0  0
   -3.4404   -1.7322    0.3519 C   0  0  0  0  0  0  0  0  0  0  0  0
   -2.5517   -0.6009   -0.0952 C   0  0  1  0  0  0  0  0  0  0  0  0
   -2.9109   -0.4025   -1.4994 C   0  0  0  0  0  0  0  0  0  0  0  0
   -1.0403   -1.0816    0.1177 C   0  0  1  0  0  0  0  0  0  0  0  0
   -0.5379   -0.7650   -1.5210 C   0  0  1  0  0  0  0  0  0  0  0  0
   -0.6805    0.7655   -1.4154 O   0  0  0  0  0  0  0  0  0  0  0  0
    1.0896   -0.8155   -1.2000 C   0  0  0  0  0  0  0  0  0  0  0  0
    1.5837    0.1668   -0.3483 C   0  0  2  0  0  0  0  0  0  0  0  0
    1.3463    1.6121   -0.4330 C   0  0  0  0  0  0  0  0  0  0  0  0
  1  2  1  0
  2  3  1  0
  3  4  2  0
  5  3  1  6
  5  6  1  0
  5  7  1  0
  7  8  1  1
  7  9  1  0
 10  9  1  1
 10 11  1  0
 11 12  1  1
 12 13  1  0
 13 14  1  0
 14 15  2  0
 15 16  1  0
 16 17  2  0
 16 18  1  0
 18 19  2  0
 19 20  1  0
 20 21  1  6
 22 20  1  6
 22 23  1  0
 23 24  1  1
 23 25  1  0
 25 26  1  0
 26 27  1  6
 26  5  1  0
 26 10  1  0
 22 11  1  0
 20 14  1  0
M  END
>  <supplier_code>  (753) 
DB00896

>  <zinc_id>  (753) 
ZINC000003945984

>  <catalog_short_name>  (753) 
dbfda

$$$$

     RDKit          3D

 23 26  0  0  0  0  0  0  0  0999 V2000
   -3.9844    0.0767    1.7727 C   0  0  0  0  0  0  0  0  0  0  0  0
   -3.3425   -0.9576    0.9337 C   0  0  0  0  0  0  0  0  0  0  0  0
   -3.8124   -2.1366    0.4878 N   0  0  0  0  0  0  0  0  0  0  0  0
   -2.8929   -2.7198   -0.2788 N   0  0  0  0  0  0  0  0  0  0  0  0
   -1.7328   -2.0567   -0.0674 C   0  0  0  0  0  0  0  0  0  0  0  0
   -2.1184   -0.8466    0.4034 N   0  0  0  0  0  0  0  0  0  0  0  0
   -1.4065    0.3967    0.3989 C   0  0  0  0  0  0  0  0  0  0  0  0
   -2.2296    1.4957    0.5789 C   0  0  0  0  0  0  0  0  0  0  0  0
   -1.8634    2.7063    0.0031 C   0  0  0  0  0  0  0  0  0  0  0  0
   -0.6515    2.8632   -0.6611 C   0  0  0  0  0  0  0  0  0  0  0  0
   -0.5176    4.1287   -1.8775 Cl  0  0  0  0  0  0  0  0  0  0  0  0
    0.2909    1.8477   -0.5540 C   0  0  0  0  0  0  0  0  0  0  0  0
   -0.1429    0.5905   -0.1478 C   0  0  0  0  0  0  0  0  0  0  0  0
    0.8585   -0.4142   -0.5291 C   0  0  0  0  0  0  0  0  0  0  0  0
    2.2270    0.0511   -0.2683 C   0  0  0  0  0  0  0  0  0  0  0  0
    2.9271    0.6556   -1.3029 C   0  0  0  0  0  0  0  0  0  0  0  0
    4.2755    0.8763   -1.0635 C   0  0  0  0  0  0  0  0  0  0  0  0
    4.9567    0.0484   -0.1789 C   0  0  0  0  0  0  0  0  0  0  0  0
    4.2550   -0.5391    0.8596 C   0  0  0  0  0  0  0  0  0  0  0  0
    2.8756   -0.5868    0.7822 C   0  0  0  0  0  0  0  0  0  0  0  0
    1.9193   -1.3629    2.0417 Cl  0  0  0  0  0  0  0  0  0  0  0  0
    0.6389   -1.6946   -0.4641 N   0  0  0  0  0  0  0  0  0  0  0  0
   -0.5297   -2.4219   -0.8687 C   0  0  0  0  0  0  0  0  0  0  0  0
  1  2  1  0
  2  3  2  0
  3  4  1  0
  4  5  2  0
  5  6  1  0
  6  7  1  0
  7  8  2  0
  8  9  1  0
  9 10  2  0
 10 11  1  0
 10 12  1  0
 12 13  2  0
 13 14  1  0
 14 15  1  0
 15 16  2  0
 16 17  1  0
 17 18  2  0
 18 19  1  0
 19 20  2  0
 20 21  1  0
 14 22  2  0
 22 23  1  0
  6  2  1  0
 13  7  1  0
 20 15  1  0
 23  5  1  0
M  END
>  <supplier_code>  (754) 
DB00897

>  <zinc_id>  (754) 
ZINC000000002212

>  <catalog_short_name>  (754) 
dbfda

$$$$

     RDKit          3D

 27 28  0  0  0  0  0  0  0  0999 V2000
   -1.8060    1.9543   -2.8952 C   0  0  0  0  0  0  0  0  0  0  0  0
   -0.6244    1.7507   -1.9856 C   0  0  0  0  0  0  0  0  0  0  0  0
   -0.9973    1.7758   -0.5511 C   0  0  0  0  0  0  0  0  0  0  0  0
   -0.8324    2.8365    0.0827 O   0  0  0  0  0  0  0  0  0  0  0  0
   -1.3195    0.5950    0.1849 N   0  0  0  0  0  0  0  0  0  0  0  0
   -2.7057    0.4294    0.5073 C   0  0  0  0  0  0  0  0  0  0  0  0
   -3.6109    0.4765   -0.5460 C   0  0  0  0  0  0  0  0  0  0  0  0
   -4.9686    0.6461   -0.3056 C   0  0  0  0  0  0  0  0  0  0  0  0
   -5.3070    1.4744    0.7461 C   0  0  0  0  0  0  0  0  0  0  0  0
   -4.4252    1.5493    1.8024 C   0  0  0  0  0  0  0  0  0  0  0  0
   -3.1602    0.9851    1.6972 C   0  0  0  0  0  0  0  0  0  0  0  0
   -0.4036   -0.5118    0.1488 C   0  0  0  0  0  0  0  0  0  0  0  0
   -1.0801   -1.6648   -0.4926 C   0  0  0  0  0  0  0  0  0  0  0  0
   -0.8488   -1.9786   -1.6991 O   0  0  0  0  0  0  0  0  0  0  0  0
   -2.1809   -2.2011    0.1519 O   0  0  0  0  0  0  0  0  0  0  0  0
   -2.8295   -3.3473   -0.3417 C   0  0  0  0  0  0  0  0  0  0  0  0
    0.1352   -0.8668    1.5303 C   0  0  0  0  0  0  0  0  0  0  0  0
    1.3200   -1.7955    1.2862 C   0  0  0  0  0  0  0  0  0  0  0  0
    2.4771   -1.0589    0.8002 N   0  0  0  0  0  0  0  0  0  0  0  0
    3.1784   -1.8129   -0.2075 C   0  0  0  0  0  0  0  0  0  0  0  0
    4.6566   -1.5511   -0.2326 C   0  0  0  0  0  0  0  0  0  0  0  0
    4.9871   -0.1063   -0.3720 C   0  0  0  0  0  0  0  0  0  0  0  0
    4.6898    0.5144   -1.4367 O   0  0  0  0  0  0  0  0  0  0  0  0
    6.1760    0.3061    0.2383 O   0  0  0  0  0  0  0  0  0  0  0  0
    6.6902    1.6135    0.1034 C   0  0  0  0  0  0  0  0  0  0  0  0
    1.9798    0.1713    0.1878 C   0  0  0  0  0  0  0  0  0  0  0  0
    0.8099   -0.1835   -0.7010 C   0  0  0  0  0  0  0  0  0  0  0  0
  1  2  1  0
  2  3  1  0
  3  4  2  0
  3  5  1  0
  5  6  1  0
  6  7  2  0
  7  8  1  0
  8  9  2  0
  9 10  1  0
 10 11  2  0
  5 12  1  0
 12 13  1  0
 13 14  2  0
 13 15  1  0
 15 16  1  0
 12 17  1  0
 17 18  1  0
 18 19  1  0
 19 20  1  0
 20 21  1  0
 21 22  1  0
 22 23  2  0
 22 24  1  0
 24 25  1  0
 19 26  1  0
 26 27  1  0
 11  6  1  0
 27 12  1  0
M  END
>  <supplier_code>  (755) 
DB00899

>  <zinc_id>  (755) 
ZINC000000538283

>  <catalog_short_name>  (755) 
dbfda

$$$$

     RDKit          3D

 17 19  0  0  0  0  0  0  0  0999 V2000
    3.3439    1.9947    0.7248 O   0  0  0  0  0  0  0  0  0  0  0  0
    3.0656    1.1303    0.4445 C   0  0  0  0  0  0  0  0  0  0  0  0
    3.7633    0.3810   -0.4450 N   0  0  0  0  0  0  0  0  0  0  0  0
    3.3113   -0.8126   -0.9013 C   0  0  0  0  0  0  0  0  0  0  0  0
    2.0109   -1.1363   -0.8285 N   0  0  0  0  0  0  0  0  0  0  0  0
    1.2621   -0.4552    0.0465 C   0  0  0  0  0  0  0  0  0  0  0  0
    1.8050    0.6230    0.7365 C   0  0  0  0  0  0  0  0  0  0  0  0
    0.8904    0.9878    1.6582 N   0  0  0  0  0  0  0  0  0  0  0  0
   -0.2600    0.3776    1.3045 C   0  0  0  0  0  0  0  0  0  0  0  0
    0.0267   -0.6350    0.5129 N   0  0  0  0  0  0  0  0  0  0  0  0
   -1.0440   -1.4157   -0.3590 C   0  0  1  0  0  0  0  0  0  0  0  0
   -1.9971   -1.6758    0.9654 C   0  0  0  0  0  0  0  0  0  0  0  0
   -2.8524   -0.5034    1.0413 C   0  0  0  0  0  0  0  0  0  0  0  0
   -3.1508   -0.5755   -0.5771 C   0  0  1  0  0  0  0  0  0  0  0  0
   -3.6870    0.9860   -0.5865 C   0  0  0  0  0  0  0  0  0  0  0  0
   -4.7574    0.8637    0.3149 O   0  0  0  0  0  0  0  0  0  0  0  0
   -1.7305   -0.1347   -0.8084 O   0  0  0  0  0  0  0  0  0  0  0  0
  1  2  2  0
  2  3  1  0
  3  4  1  0
  4  5  2  0
  5  6  1  0
  6  7  2  0
  7  8  1  0
  8  9  2  0
  9 10  1  0
 11 10  1  1
 11 12  1  0
 12 13  1  0
 13 14  1  0
 14 15  1  1
 15 16  1  0
 14 17  1  0
  7  2  1  0
 17 11  1  0
 10  6  1  0
M  END
>  <supplier_code>  (756) 
DB00900

>  <zinc_id>  (756) 
ZINC000013597823

>  <catalog_short_name>  (756) 
dbfda

$$$$

     RDKit          3D

 19 19  0  0  0  0  0  0  0  0999 V2000
   -3.3654   -0.1481    1.8048 C   0  0  0  0  0  0  0  0  0  0  0  0
   -3.7405   -0.4099    0.5637 C   0  0  0  0  0  0  0  0  0  0  0  0
   -4.9622    0.3066    0.0807 C   0  0  0  0  0  0  0  0  0  0  0  0
   -4.4928    1.7108   -0.2858 C   0  0  0  0  0  0  0  0  0  0  0  0
   -2.7175   -0.7475   -0.4332 C   0  0  0  0  0  0  0  0  0  0  0  0
   -3.0083   -0.7456   -1.6678 O   0  0  0  0  0  0  0  0  0  0  0  0
   -1.3083   -0.4708   -0.1252 C   0  0  0  0  0  0  0  0  0  0  0  0
   -0.9425    0.6752    0.5640 C   0  0  0  0  0  0  0  0  0  0  0  0
    0.3463    0.6717    1.0834 C   0  0  0  0  0  0  0  0  0  0  0  0
    1.3010   -0.1249    0.4946 C   0  0  0  0  0  0  0  0  0  0  0  0
    2.6544    0.1317    0.7381 O   0  0  0  0  0  0  0  0  0  0  0  0
    3.1773    1.3238    0.1639 C   0  0  0  0  0  0  0  0  0  0  0  0
    4.6186    1.1758   -0.1952 C   0  0  0  0  0  0  0  0  0  0  0  0
    5.4561    1.4404    0.7197 O   0  0  0  0  0  0  0  0  0  0  0  0
    4.9370    1.3657   -1.5437 O   0  0  0  0  0  0  0  0  0  0  0  0
    0.9907   -0.9053   -0.6093 C   0  0  0  0  0  0  0  0  0  0  0  0
    2.1683   -1.3972   -1.7930 Cl  0  0  0  0  0  0  0  0  0  0  0  0
   -0.3511   -1.1968   -0.8142 C   0  0  0  0  0  0  0  0  0  0  0  0
   -0.7611   -2.6554   -1.7086 Cl  0  0  0  0  0  0  0  0  0  0  0  0
  1  2  2  0
  2  3  1  0
  3  4  1  0
  2  5  1  0
  5  6  2  0
  5  7  1  0
  7  8  2  0
  8  9  1  0
  9 10  2  0
 10 11  1  0
 11 12  1  0
 12 13  1  0
 13 14  2  0
 13 15  1  0
 10 16  1  0
 16 17  1  0
 16 18  2  0
 18 19  1  0
 18  7  1  0
M  END
>  <supplier_code>  (757) 
DB00903

>  <zinc_id>  (757) 
ZINC000000001382

>  <catalog_short_name>  (757) 
dbfda

$$$$

     RDKit          3D

 22 25  0  0  0  0  0  0  0  0999 V2000
   -3.2719   -1.7601    0.7829 C   0  0  0  0  0  0  0  0  0  0  0  0
   -3.7038   -0.5167    0.5379 C   0  0  0  0  0  0  0  0  0  0  0  0
   -4.9883   -0.1293    0.7373 N   0  0  0  0  0  0  0  0  0  0  0  0
   -5.0775    1.1804    0.4075 C   0  0  0  0  0  0  0  0  0  0  0  0
   -4.0433    1.3703   -0.5013 C   0  0  0  0  0  0  0  0  0  0  0  0
   -3.1217    0.4040   -0.2677 N   0  0  0  0  0  0  0  0  0  0  0  0
   -1.6747    0.6050   -0.2690 C   0  0  0  0  0  0  0  0  0  0  0  0
   -1.2286   -0.4110   -1.5013 C   0  0  1  0  0  0  0  0  0  0  0  0
   -0.1647    0.6455   -2.2002 C   0  0  0  0  0  0  0  0  0  0  0  0
    0.1857    1.6972   -1.2358 C   0  0  0  0  0  0  0  0  0  0  0  0
    0.9041    1.0869   -0.0695 C   0  0  0  0  0  0  0  0  0  0  0  0
    0.8692   -0.2936    0.0689 C   0  0  0  0  0  0  0  0  0  0  0  0
    2.0814   -0.6795    0.6436 C   0  0  0  0  0  0  0  0  0  0  0  0
    2.7387   -1.8993    0.7592 C   0  0  0  0  0  0  0  0  0  0  0  0
    4.1202   -2.0038    0.6558 C   0  0  0  0  0  0  0  0  0  0  0  0
    4.8245   -0.8822    0.2316 C   0  0  0  0  0  0  0  0  0  0  0  0
    4.3015    0.3140    0.7117 C   0  0  0  0  0  0  0  0  0  0  0  0
    2.9185    0.4307    0.6105 C   0  0  0  0  0  0  0  0  0  0  0  0
    2.0539    1.4697    0.5350 N   0  0  0  0  0  0  0  0  0  0  0  0
    2.4374    2.8601    0.6232 C   0  0  0  0  0  0  0  0  0  0  0  0
   -0.0869   -1.1222   -0.5969 C   0  0  0  0  0  0  0  0  0  0  0  0
   -0.0737   -2.3659   -0.6635 O   0  0  0  0  0  0  0  0  0  0  0  0
  1  2  1  0
  2  3  2  0
  3  4  1  0
  4  5  2  0
  5  6  1  0
  6  7  1  0
  8  7  1  1
  8  9  1  0
  9 10  1  0
 10 11  1  0
 11 12  2  0
 12 13  1  0
 13 14  2  0
 14 15  1  0
 15 16  2  0
 16 17  1  0
 17 18  2  0
 18 19  1  0
 19 20  1  0
 12 21  1  0
 21 22  2  0
  6  2  1  0
 21  8  1  0
 19 11  1  0
 18 13  1  0
M  END
>  <supplier_code>  (758) 
DB00904

>  <zinc_id>  (758) 
ZINC000000004448

>  <catalog_short_name>  (758) 
dbfda

$$$$

     RDKit          3D

 22 25  0  0  0  0  0  0  0  0999 V2000
    4.0088   -1.5694   -1.2018 C   0  0  0  0  0  0  0  0  0  0  0  0
    4.3330   -0.6541   -0.7832 C   0  0  0  0  0  0  0  0  0  0  0  0
    5.5480   -0.0595   -0.9051 N   0  0  0  0  0  0  0  0  0  0  0  0
    5.6588    0.9574   -0.0511 C   0  0  0  0  0  0  0  0  0  0  0  0
    4.4231    1.1780    0.4718 C   0  0  0  0  0  0  0  0  0  0  0  0
    3.6000    0.2547   -0.0878 N   0  0  0  0  0  0  0  0  0  0  0  0
    2.3217   -0.0689    0.5464 C   0  0  0  0  0  0  0  0  0  0  0  0
    1.2167    0.4070   -0.5638 C   0  0  2  0  0  0  0  0  0  0  0  0
    0.7916    1.7152    0.3245 C   0  0  0  0  0  0  0  0  0  0  0  0
   -0.4781    2.2302   -0.3395 C   0  0  0  0  0  0  0  0  0  0  0  0
   -1.5992    1.2583   -0.1534 C   0  0  0  0  0  0  0  0  0  0  0  0
   -1.2773   -0.0749   -0.2616 C   0  0  0  0  0  0  0  0  0  0  0  0
   -2.4727   -0.7485   -0.4308 C   0  0  0  0  0  0  0  0  0  0  0  0
   -2.7449   -2.1055   -0.5665 C   0  0  0  0  0  0  0  0  0  0  0  0
   -4.0132   -2.5575   -0.2338 C   0  0  0  0  0  0  0  0  0  0  0  0
   -4.8848   -1.7151    0.4434 C   0  0  0  0  0  0  0  0  0  0  0  0
   -4.7359   -0.3522    0.2163 C   0  0  0  0  0  0  0  0  0  0  0  0
   -3.4998    0.1522   -0.1764 C   0  0  0  0  0  0  0  0  0  0  0  0
   -2.9391    1.3737   -0.0877 N   0  0  0  0  0  0  0  0  0  0  0  0
   -3.6397    2.6261    0.0918 C   0  0  0  0  0  0  0  0  0  0  0  0
    0.0743   -0.5043    0.1024 C   0  0  0  0  0  0  0  0  0  0  0  0
    0.3088   -1.7429    0.0176 O   0  0  0  0  0  0  0  0  0  0  0  0
  1  2  1  0
  2  3  2  0
  3  4  1  0
  4  5  2  0
  5  6  1  0
  6  7  1  0
  8  7  1  1
  8  9  1  0
  9 10  1  0
 10 11  1  0
 11 12  2  0
 12 13  1  0
 13 14  2  0
 14 15  1  0
 15 16  2  0
 16 17  1  0
 17 18  2  0
 18 19  1  0
 19 20  1  0
 12 21  1  0
 21 22  2  0
  6  2  1  0
 21  8  1  0
 19 11  1  0
 18 13  1  0
M  END
>  <supplier_code>  (759) 
DB00904

>  <zinc_id>  (759) 
ZINC000000075126

>  <catalog_short_name>  (759) 
dbfda

$$$$

     RDKit          3D

 30 31  0  0  0  0  0  0  0  0999 V2000
    7.4511    2.7868    0.0574 C   0  0  0  0  0  0  0  0  0  0  0  0
    8.0856    2.2491    0.2883 C   0  0  0  0  0  0  0  0  0  0  0  0
    7.5110    0.9099    0.2012 N   0  0  0  0  0  0  0  0  0  0  0  0
    6.2349    1.0283   -0.4996 C   0  0  0  0  0  0  0  0  0  0  0  0
    5.4955    2.0229   -0.3499 O   0  0  0  0  0  0  0  0  0  0  0  0
    6.0505   -0.1394   -1.4274 C   0  0  0  0  0  0  0  0  0  0  0  0
    4.6214   -0.6571   -1.1646 C   0  0  0  0  0  0  0  0  0  0  0  0
    4.4238   -0.0763    0.1525 C   0  0  0  0  0  0  0  0  0  0  0  0
    3.8833   -0.7175    1.2640 C   0  0  0  0  0  0  0  0  0  0  0  0
    2.6741   -1.1796    1.0785 C   0  0  0  0  0  0  0  0  0  0  0  0
    1.8076   -1.1760   -0.0753 C   0  0  0  0  0  0  0  0  0  0  0  0
    0.5303   -0.3473    0.4724 C   0  0  2  0  0  0  0  0  0  0  0  0
   -0.5149   -1.6168    0.1612 C   0  0  1  0  0  0  0  0  0  0  0  0
   -1.6578   -1.1209    1.1408 C   0  0  0  0  0  0  0  0  0  0  0  0
   -2.8837   -1.2191    0.9032 C   0  0  0  0  0  0  0  0  0  0  0  0
   -3.6846   -2.6406    0.9836 C   0  0  1  0  0  0  0  0  0  0  0  0
   -4.5433   -2.1881    2.1640 O   0  0  0  0  0  0  0  0  0  0  0  0
   -4.7683   -2.1000   -0.1566 C   0  0  0  0  0  0  0  0  0  0  0  0
   -5.6650   -1.1112    0.3680 C   0  0  0  0  0  0  0  0  0  0  0  0
   -5.6651    0.2735    0.0808 C   0  0  0  0  0  0  0  0  0  0  0  0
   -6.2108    0.8180   -1.0644 C   0  0  0  0  0  0  0  0  0  0  0  0
   -6.2488    2.1766   -1.2663 C   0  0  0  0  0  0  0  0  0  0  0  0
   -5.6388    2.9884   -0.3211 C   0  0  0  0  0  0  0  0  0  0  0  0
   -5.1544    2.4679    0.8545 C   0  0  0  0  0  0  0  0  0  0  0  0
   -5.4745    1.1526    1.1318 C   0  0  0  0  0  0  0  0  0  0  0  0
   -1.2101   -0.8887   -1.2032 C   0  0  2  0  0  0  0  0  0  0  0  0
   -1.5460   -2.2422   -1.7990 O   0  0  0  0  0  0  0  0  0  0  0  0
    0.2913   -0.8634   -1.8819 C   0  0  0  0  0  0  0  0  0  0  0  0
    0.1855    0.5190   -0.9685 C   0  0  2  0  0  0  0  0  0  0  0  0
    1.6204    0.8910   -1.3051 O   0  0  0  0  0  0  0  0  0  0  0  0
  1  2  1  0
  2  3  1  0
  3  4  1  0
  4  5  2  0
  4  6  1  0
  6  7  1  0
  7  8  1  0
  8  9  1  0
  9 10  2  0
 10 11  1  0
 12 11  1  6
 12 13  1  0
 13 14  1  1
 14 15  2  0
 16 15  1  6
 16 17  1  0
 16 18  1  0
 18 19  1  0
 19 20  1  0
 20 21  2  0
 21 22  1  0
 22 23  2  0
 23 24  1  0
 24 25  2  0
 13 26  1  0
 26 27  1  6
 26 28  1  0
 28 29  1  0
 29 30  1  6
 29 12  1  0
 25 20  1  0
M  END
>  <supplier_code>  (760) 
DB00905

>  <zinc_id>  (760) 
ZINC000004474405

>  <catalog_short_name>  (760) 
dbfda

$$$$

     RDKit          3D

 25 27  0  0  0  0  0  0  0  0999 V2000
   -4.2536    1.4894    1.1903 C   0  0  0  0  0  0  0  0  0  0  0  0
   -3.2936    2.2543    0.4486 C   0  0  0  0  0  0  0  0  0  0  0  0
   -3.0225    3.5761    0.7780 C   0  0  0  0  0  0  0  0  0  0  0  0
   -2.5689    4.2686   -0.3386 C   0  0  0  0  0  0  0  0  0  0  0  0
   -1.6157    3.0507   -1.0847 S   0  0  0  0  0  0  0  0  0  0  0  0
   -2.2088    1.6941   -0.2160 C   0  0  0  0  0  0  0  0  0  0  0  0
   -1.8214    0.2794   -0.2895 C   0  0  0  0  0  0  0  0  0  0  0  0
   -0.7013    0.0094   -0.9109 C   0  0  0  0  0  0  0  0  0  0  0  0
    0.5332   -0.4987   -0.2789 C   0  0  0  0  0  0  0  0  0  0  0  0
    1.4287   -0.9351   -1.4257 C   0  0  0  0  0  0  0  0  0  0  0  0
    2.6306   -1.5740   -1.0070 N   0  0  0  0  0  0  0  0  0  0  0  0
    2.5697   -2.3539    0.1615 C   0  0  0  0  0  0  0  0  0  0  0  0
    3.3543   -1.9166    1.3382 C   0  0  0  0  0  0  0  0  0  0  0  0
    4.4864   -0.9802    1.0525 C   0  0  0  0  0  0  0  0  0  0  0  0
    3.7126    0.1616    0.1616 C   0  0  1  0  0  0  0  0  0  0  0  0
    5.0670    0.9543   -0.1821 C   0  0  0  0  0  0  0  0  0  0  0  0
    6.0465    0.3072   -0.5549 O   0  0  0  0  0  0  0  0  0  0  0  0
    5.0657    2.2957    0.1718 O   0  0  0  0  0  0  0  0  0  0  0  0
    3.7892   -0.7616   -1.1943 C   0  0  0  0  0  0  0  0  0  0  0  0
   -2.8077   -0.7966   -0.1264 C   0  0  0  0  0  0  0  0  0  0  0  0
   -3.7466   -1.6527   -1.2803 S   0  0  0  0  0  0  0  0  0  0  0  0
   -4.2487   -2.9661   -0.2944 C   0  0  0  0  0  0  0  0  0  0  0  0
   -3.8886   -2.4824    0.9582 C   0  0  0  0  0  0  0  0  0  0  0  0
   -2.7439   -1.7369    0.8964 C   0  0  0  0  0  0  0  0  0  0  0  0
   -1.7628   -1.6861    2.0269 C   0  0  0  0  0  0  0  0  0  0  0  0
  1  2  1  0
  2  3  1  0
  3  4  2  0
  4  5  1  0
  5  6  1  0
  6  7  1  0
  7  8  2  3
  8  9  1  0
  9 10  1  0
 10 11  1  0
 11 12  1  0
 12 13  1  0
 13 14  1  0
 14 15  1  0
 15 16  1  6
 16 17  2  0
 16 18  1  0
 15 19  1  0
  7 20  1  0
 20 21  1  0
 21 22  1  0
 22 23  2  0
 23 24  1  0
 24 25  1  0
  6  2  2  0
 19 11  1  0
 24 20  2  0
M  END
>  <supplier_code>  (761) 
DB00906

>  <zinc_id>  (761) 
ZINC000003831531

>  <catalog_short_name>  (761) 
dbfda

$$$$

     RDKit          3D

 24 27  0  0  0  0  0  0  0  0999 V2000
    4.7924   -1.6024    1.5245 C   0  0  0  0  0  0  0  0  0  0  0  0
    4.2019   -1.1148    0.9626 C   0  0  0  0  0  0  0  0  0  0  0  0
    3.9715   -1.0599   -0.6136 C   0  0  1  0  0  0  0  0  0  0  0  0
    2.3698   -1.2307   -0.4541 C   0  0  0  0  0  0  0  0  0  0  0  0
    1.8819   -0.5294   -1.5622 N   0  0  0  0  0  0  0  0  0  0  0  0
    2.7541   -0.2038   -2.5959 C   0  0  0  0  0  0  0  0  0  0  0  0
    3.6780    0.8265   -2.1604 C   0  0  0  0  0  0  0  0  0  0  0  0
    4.0586    0.6475   -0.5942 C   0  0  1  0  0  0  0  0  0  0  0  0
    2.6434    0.9766    0.0775 C   0  0  0  0  0  0  0  0  0  0  0  0
    1.4257    0.8374   -0.9584 C   0  0  2  0  0  0  0  0  0  0  0  0
    0.3472   -0.0581    0.0709 C   0  0  1  0  0  0  0  0  0  0  0  0
    0.9860    0.3163    1.3883 O   0  0  0  0  0  0  0  0  0  0  0  0
   -0.7887    1.0826    0.1521 C   0  0  0  0  0  0  0  0  0  0  0  0
   -0.5893    2.1996    0.8892 C   0  0  0  0  0  0  0  0  0  0  0  0
   -1.6211    2.8851    1.5529 C   0  0  0  0  0  0  0  0  0  0  0  0
   -2.8540    2.4061    1.3644 N   0  0  0  0  0  0  0  0  0  0  0  0
   -3.0173    1.0984    1.1140 C   0  0  0  0  0  0  0  0  0  0  0  0
   -4.2453    0.4816    1.3178 C   0  0  0  0  0  0  0  0  0  0  0  0
   -4.4587   -0.7972    0.8201 C   0  0  0  0  0  0  0  0  0  0  0  0
   -3.5270   -1.4199   -0.0014 C   0  0  0  0  0  0  0  0  0  0  0  0
   -3.9024   -1.9981   -1.2197 O   0  0  0  0  0  0  0  0  0  0  0  0
   -3.8491   -3.3282   -1.5662 C   0  0  0  0  0  0  0  0  0  0  0  0
   -2.2617   -0.8504    0.0503 C   0  0  0  0  0  0  0  0  0  0  0  0
   -1.9959    0.4355    0.4417 C   0  0  0  0  0  0  0  0  0  0  0  0
  1  2  2  0
  3  2  1  1
  3  4  1  0
  4  5  1  0
  5  6  1  0
  6  7  1  0
  8  7  1  6
  8  9  1  0
 10  9  1  1
 10 11  1  0
 11 12  1  1
 11 13  1  0
 13 14  2  0
 14 15  1  0
 15 16  2  0
 16 17  1  0
 17 18  2  0
 18 19  1  0
 19 20  2  0
 20 21  1  0
 21 22  1  0
 20 23  1  0
 23 24  2  0
  8  3  1  0
 24 13  1  0
 10  5  1  0
 24 17  1  0
M  END
>  <supplier_code>  (762) 
DB00908

>  <zinc_id>  (762) 
ZINC000003831405

>  <catalog_short_name>  (762) 
dbfda

$$$$

     RDKit          3D

 14 15  0  0  0  0  0  0  0  0999 V2000
   -2.8047    1.3502   -0.9667 N   0  0  0  0  0  0  0  0  0  0  0  0
   -2.8966    0.1406    0.2743 S   0  0  0  0  0  0  0  0  0  0  0  0
   -3.9688    0.6092    1.2302 O   0  0  0  0  0  0  0  0  0  0  0  0
   -3.3712   -1.1463   -0.3029 O   0  0  0  0  0  0  0  0  0  0  0  0
   -1.4060    0.0070    1.1932 C   0  0  0  0  0  0  0  0  0  0  0  0
   -0.2747   -0.5537    0.3902 C   0  0  0  0  0  0  0  0  0  0  0  0
    0.1176   -1.8455    0.5137 N   0  0  0  0  0  0  0  0  0  0  0  0
    1.3829   -1.9547    0.2009 O   0  0  0  0  0  0  0  0  0  0  0  0
    1.8859   -0.7811   -0.1009 C   0  0  0  0  0  0  0  0  0  0  0  0
    3.1125   -0.2819   -0.4745 C   0  0  0  0  0  0  0  0  0  0  0  0
    3.5037    0.9455    0.0459 C   0  0  0  0  0  0  0  0  0  0  0  0
    2.5504    1.9079    0.3123 C   0  0  0  0  0  0  0  0  0  0  0  0
    1.2353    1.4688    0.3431 C   0  0  0  0  0  0  0  0  0  0  0  0
    0.9339    0.1341    0.3306 C   0  0  0  0  0  0  0  0  0  0  0  0
  1  2  1  0
  2  3  2  0
  2  4  2  0
  2  5  1  0
  5  6  1  0
  6  7  2  0
  7  8  1  0
  8  9  1  0
  9 10  2  0
 10 11  1  0
 11 12  2  0
 12 13  1  0
 13 14  2  0
 14  6  1  0
 14  9  1  0
M  END
>  <supplier_code>  (763) 
DB00909

>  <zinc_id>  (763) 
ZINC000000004321

>  <catalog_short_name>  (763) 
dbfda

$$$$

     RDKit          3D

 30 32  0  0  0  0  0  0  0  0999 V2000
    2.9794    1.4027    2.0441 C   0  0  0  0  0  0  0  0  0  0  0  0
    2.5981    0.4342    0.7762 C   0  0  2  0  0  0  0  0  0  0  0  0
    3.8531    0.9505   -0.0988 C   0  0  0  0  0  0  0  0  0  0  0  0
    4.7042    0.0102   -0.5032 C   0  0  0  0  0  0  0  0  0  0  0  0
    6.1344   -0.0318    0.2766 C   0  0  2  0  0  0  0  0  0  0  0  0
    6.7156    1.2832   -0.5435 C   0  0  0  0  0  0  0  0  0  0  0  0
    6.7635   -1.1022   -0.8169 C   0  0  0  0  0  0  0  0  0  0  0  0
    6.4768   -0.5480   -2.1625 C   0  0  0  0  0  0  0  0  0  0  0  0
    8.2050   -1.1114   -0.4384 C   0  0  0  0  0  0  0  0  0  0  0  0
    6.0576   -2.2323   -0.4749 O   0  0  0  0  0  0  0  0  0  0  0  0
    1.4983    1.6293    0.2021 C   0  0  1  0  0  0  0  0  0  0  0  0
    1.0049    0.7163   -1.0539 C   0  0  0  0  0  0  0  0  0  0  0  0
   -0.4750    0.8511   -1.0589 C   0  0  0  0  0  0  0  0  0  0  0  0
   -0.7611    1.8839    0.1959 C   0  0  1  0  0  0  0  0  0  0  0  0
   -2.0268    1.0112    0.7356 C   0  0  0  0  0  0  0  0  0  0  0  0
   -3.1320    1.2940    0.0245 C   0  0  0  0  0  0  0  0  0  0  0  0
   -4.4011    0.7379    0.5058 C   0  0  0  0  0  0  0  0  0  0  0  0
   -5.1131   -0.0273   -0.3095 C   0  0  0  0  0  0  0  0  0  0  0  0
   -6.3550   -0.7303    0.0578 C   0  0  0  0  0  0  0  0  0  0  0  0
   -5.9745   -2.3524   -0.1530 C   0  0  1  0  0  0  0  0  0  0  0  0
   -7.4636   -2.7264   -0.2707 O   0  0  0  0  0  0  0  0  0  0  0  0
   -5.8640   -2.2136   -1.8122 C   0  0  0  0  0  0  0  0  0  0  0  0
   -4.2907   -1.6815   -2.0090 C   0  0  2  0  0  0  0  0  0  0  0  0
   -3.8231   -1.9760   -0.5619 O   0  0  0  0  0  0  0  0  0  0  0  0
   -4.7511   -0.0923   -1.7162 C   0  0  0  0  0  0  0  0  0  0  0  0
   -2.2251    1.3142    2.1899 C   0  0  0  0  0  0  0  0  0  0  0  0
   -1.0230    1.0544    3.0367 C   0  0  0  0  0  0  0  0  0  0  0  0
    0.2672    1.6057    2.4388 C   0  0  0  0  0  0  0  0  0  0  0  0
    0.3052    1.0295    1.1237 C   0  0  2  0  0  0  0  0  0  0  0  0
    0.1160   -0.3828    0.8588 C   0  0  0  0  0  0  0  0  0  0  0  0
  2  1  1  1
  2  3  1  0
  3  4  2  0
  5  4  1  6
  5  6  1  0
  5  7  1  0
  7  8  1  0
  7  9  1  0
  7 10  1  0
  2 11  1  0
 11 12  1  6
 12 13  1  0
 14 13  1  6
 14 15  1  0
 15 16  2  0
 16 17  1  0
 17 18  2  0
 18 19  1  0
 19 20  1  0
 20 21  1  6
 20 22  1  0
 22 23  1  0
 23 24  1  1
 23 25  1  0
 15 26  1  0
 26 27  1  0
 27 28  1  0
 28 29  1  0
 29 30  1  1
 29 11  1  0
 29 14  1  0
 25 18  1  0
M  END
>  <supplier_code>  (764) 
DB00910

>  <zinc_id>  (764) 
ZINC000013911941

>  <catalog_short_name>  (764) 
dbfda

$$$$

     RDKit          3D

 16 16  0  0  0  0  0  0  0  0999 V2000
    3.5476    1.1001   -1.2466 C   0  0  0  0  0  0  0  0  0  0  0  0
    3.4805    0.3281    0.0544 C   0  0  0  0  0  0  0  0  0  0  0  0
    2.5428   -1.1569   -0.0892 S   0  0  0  0  0  0  0  0  0  0  0  0
    2.9438   -1.8930   -1.3446 O   0  0  0  0  0  0  0  0  0  0  0  0
    2.8511   -2.0293    1.0804 O   0  0  0  0  0  0  0  0  0  0  0  0
    0.8093   -0.8902   -0.1825 C   0  0  0  0  0  0  0  0  0  0  0  0
    0.2384   -0.1323    0.9828 C   0  0  0  0  0  0  0  0  0  0  0  0
   -0.8676    0.6686    0.4665 N   0  0  0  0  0  0  0  0  0  0  0  0
   -0.8687    2.0182    0.3523 C   0  0  0  0  0  0  0  0  0  0  0  0
   -0.3815    2.9075    1.4500 C   0  0  0  0  0  0  0  0  0  0  0  0
   -1.7497    2.2833   -0.6270 N   0  0  0  0  0  0  0  0  0  0  0  0
   -2.5342    1.2129   -0.8553 C   0  0  0  0  0  0  0  0  0  0  0  0
   -1.9256    0.1531   -0.1920 C   0  0  0  0  0  0  0  0  0  0  0  0
   -2.4183   -1.1840   -0.0402 N   0  0  0  0  0  0  0  0  0  0  0  0
   -2.3045   -1.7086    1.0932 O   0  0  0  0  0  0  0  0  0  0  0  0
   -3.3633   -1.6776   -0.9024 O   0  0  0  0  0  0  0  0  0  0  0  0
  1  2  1  0
  2  3  1  0
  3  4  2  0
  3  5  2  0
  3  6  1  0
  6  7  1  0
  7  8  1  0
  8  9  1  0
  9 10  1  0
  9 11  2  0
 11 12  1  0
 12 13  2  0
 13 14  1  0
 14 15  2  0
 14 16  1  0
 13  8  1  0
M  CHG  2  14   1  16  -1
M  END
>  <supplier_code>  (765) 
DB00911

>  <zinc_id>  (765) 
ZINC000000113446

>  <catalog_short_name>  (765) 
dbfda

$$$$

     RDKit          3D

 33 35  0  0  0  0  0  0  0  0999 V2000
    4.6014    3.8542    1.1010 C   0  0  0  0  0  0  0  0  0  0  0  0
    4.5645    3.6115   -0.3385 C   0  0  0  0  0  0  0  0  0  0  0  0
    4.8942    2.2717   -0.6847 O   0  0  0  0  0  0  0  0  0  0  0  0
    4.2780    1.1887   -0.0962 C   0  0  0  0  0  0  0  0  0  0  0  0
    2.9055    0.9585   -0.1565 C   0  0  0  0  0  0  0  0  0  0  0  0
    2.3434   -0.1449    0.4801 C   0  0  0  0  0  0  0  0  0  0  0  0
    1.4284   -1.0936   -0.2154 C   0  0  0  0  0  0  0  0  0  0  0  0
    0.0748   -0.6101   -0.4203 C   0  0  0  0  0  0  0  0  0  0  0  0
   -0.1652    0.2517   -1.3200 O   0  0  0  0  0  0  0  0  0  0  0  0
   -1.1230   -1.1528    0.1610 N   0  0  0  0  0  0  0  0  0  0  0  0
   -2.0059   -1.8820   -0.9545 C   0  0  1  0  0  0  0  0  0  0  0  0
   -3.1454   -2.3934    0.1474 C   0  0  0  0  0  0  0  0  0  0  0  0
   -2.7987   -3.8348    0.3977 C   0  0  0  0  0  0  0  0  0  0  0  0
   -1.5381   -3.9129    1.2112 C   0  0  0  0  0  0  0  0  0  0  0  0
   -2.5709   -4.6051   -0.8880 C   0  0  0  0  0  0  0  0  0  0  0  0
   -2.7741   -0.5105   -1.3772 C   0  0  0  0  0  0  0  0  0  0  0  0
   -2.9142   -0.4048   -2.7567 C   0  0  0  0  0  0  0  0  0  0  0  0
   -3.5447    0.7313   -3.2490 C   0  0  0  0  0  0  0  0  0  0  0  0
   -4.5540    1.2308   -2.4345 C   0  0  0  0  0  0  0  0  0  0  0  0
   -4.4240    1.0719   -1.0593 C   0  0  0  0  0  0  0  0  0  0  0  0
   -3.6090    0.0747   -0.5279 C   0  0  0  0  0  0  0  0  0  0  0  0
   -3.2273    0.1256    0.8565 N   0  0  0  0  0  0  0  0  0  0  0  0
   -2.6177    1.4286    1.1850 C   0  0  0  0  0  0  0  0  0  0  0  0
   -3.6741    2.4988    1.2047 C   0  0  0  0  0  0  0  0  0  0  0  0
   -4.5323    2.3473    2.4552 C   0  0  0  0  0  0  0  0  0  0  0  0
   -4.3544    0.9038    2.9114 C   0  0  0  0  0  0  0  0  0  0  0  0
   -4.4046   -0.0078    1.7354 C   0  0  0  0  0  0  0  0  0  0  0  0
    3.1340   -0.6365    1.5160 C   0  0  0  0  0  0  0  0  0  0  0  0
    4.5179   -0.4840    1.5235 C   0  0  0  0  0  0  0  0  0  0  0  0
    5.1299    0.2935    0.5455 C   0  0  0  0  0  0  0  0  0  0  0  0
    6.3823   -0.1138   -0.0994 C   0  0  0  0  0  0  0  0  0  0  0  0
    6.6918    0.1854   -1.2699 O   0  0  0  0  0  0  0  0  0  0  0  0
    7.0316   -1.2410    0.4164 O   0  0  0  0  0  0  0  0  0  0  0  0
  1  2  1  0
  2  3  1  0
  3  4  1  0
  4  5  2  0
  5  6  1  0
  6  7  1  0
  7  8  1  0
  8  9  2  0
  8 10  1  0
 11 10  1  1
 11 12  1  0
 12 13  1  0
 13 14  1  0
 13 15  1  0
 11 16  1  0
 16 17  2  0
 17 18  1  0
 18 19  2  0
 19 20  1  0
 20 21  2  0
 21 22  1  0
 22 23  1  0
 23 24  1  0
 24 25  1  0
 25 26  1  0
 26 27  1  0
  6 28  2  0
 28 29  1  0
 29 30  2  0
 30 31  1  0
 31 32  2  0
 31 33  1  0
 30  4  1  0
 21 16  1  0
 27 22  1  0
M  END
>  <supplier_code>  (766) 
DB00912

>  <zinc_id>  (766) 
ZINC000003798537

>  <catalog_short_name>  (766) 
dbfda

$$$$

     RDKit          3D

 11 13  0  0  0  0  0  0  0  0999 V2000
    2.6458   -0.3950   -0.1931 N   0  0  0  0  0  0  0  0  0  0  0  0
    1.2148   -0.2125   -0.0923 C   0  0  0  0  0  0  0  0  0  0  0  0
    0.6338   -0.0425   -1.4831 C   0  0  0  0  0  0  0  0  0  0  0  0
   -0.8562    0.1792   -1.3587 C   0  0  0  0  0  0  0  0  0  0  0  0
   -1.5387   -0.9437   -0.5986 C   0  0  0  0  0  0  0  0  0  0  0  0
   -0.8939   -1.1103    0.7483 C   0  0  0  0  0  0  0  0  0  0  0  0
   -1.1082    0.1416    1.5421 C   0  0  0  0  0  0  0  0  0  0  0  0
   -0.5198    1.3222    0.7872 C   0  0  0  0  0  0  0  0  0  0  0  0
   -1.1181    1.4597   -0.5992 C   0  0  0  0  0  0  0  0  0  0  0  0
    0.9728    1.0369    0.7269 C   0  0  0  0  0  0  0  0  0  0  0  0
    0.5675   -1.4356    0.5206 C   0  0  0  0  0  0  0  0  0  0  0  0
  1  2  1  0
  2  3  1  0
  3  4  1  0
  4  5  1  0
  5  6  1  0
  6  7  1  0
  7  8  1  0
  8  9  1  0
  8 10  1  0
  6 11  1  0
 10  2  1  0
 11  2  1  0
  9  4  1  0
M  END
>  <supplier_code>  (767) 
DB00915

>  <zinc_id>  (767) 
ZINC000000968256

>  <catalog_short_name>  (767) 
dbfda

$$$$

     RDKit          3D

 12 12  0  0  0  0  0  0  0  0999 V2000
   -2.6657   -0.6082    0.3791 C   0  0  0  0  0  0  0  0  0  0  0  0
   -1.2524   -0.9305    0.0148 C   0  0  0  0  0  0  0  0  0  0  0  0
   -0.6611   -2.1278   -0.0620 N   0  0  0  0  0  0  0  0  0  0  0  0
    0.6299   -1.9526    0.2694 C   0  0  0  0  0  0  0  0  0  0  0  0
    0.8948   -0.5879    0.2474 C   0  0  0  0  0  0  0  0  0  0  0  0
    2.2102   -0.1054   -0.0538 N   0  0  0  0  0  0  0  0  0  0  0  0
    2.3927    0.5416   -1.1134 O   0  0  0  0  0  0  0  0  0  0  0  0
    3.1360    0.0126    0.9631 O   0  0  0  0  0  0  0  0  0  0  0  0
   -0.2915    0.0243    0.0439 N   0  0  0  0  0  0  0  0  0  0  0  0
   -0.3806    1.3736   -0.4443 C   0  0  0  0  0  0  0  0  0  0  0  0
   -1.7787    1.8424   -0.6934 C   0  0  0  0  0  0  0  0  0  0  0  0
   -2.2336    2.5179    0.4492 O   0  0  0  0  0  0  0  0  0  0  0  0
  1  2  1  0
  2  3  2  0
  3  4  1  0
  4  5  2  0
  5  6  1  0
  6  7  2  0
  6  8  1  0
  5  9  1  0
  9 10  1  0
 10 11  1  0
 11 12  1  0
  9  2  1  0
M  CHG  2   6   1   8  -1
M  END
>  <supplier_code>  (768) 
DB00916

>  <zinc_id>  (768) 
ZINC000000113442

>  <catalog_short_name>  (768) 
dbfda

$$$$

     RDKit          3D

 25 25  0  0  0  0  0  0  0  0999 V2000
    7.4499    2.4164    1.2332 C   0  0  0  0  0  0  0  0  0  0  0  0
    6.8634    1.7165    0.3957 C   0  0  0  0  0  0  0  0  0  0  0  0
    5.6899    2.3910   -0.2951 C   0  0  0  0  0  0  0  0  0  0  0  0
    4.3800    1.7474    0.0150 C   0  0  0  0  0  0  0  0  0  0  0  0
    4.3849    1.1360    1.3409 C   0  0  0  0  0  0  0  0  0  0  0  0
    3.9597   -0.4902    1.1970 C   0  0  2  0  0  0  0  0  0  0  0  0
    3.9484   -0.4895   -0.3605 O   0  0  0  0  0  0  0  0  0  0  0  0
    2.3455   -0.0980    1.2504 C   0  0  0  0  0  0  0  0  0  0  0  0
    1.5653   -1.1587    1.2736 C   0  0  0  0  0  0  0  0  0  0  0  0
    0.1179   -0.8070    0.7129 C   0  0  1  0  0  0  0  0  0  0  0  0
    0.6280   -1.0830   -0.9055 C   0  0  2  0  0  0  0  0  0  0  0  0
    0.3670    0.3919   -1.2614 O   0  0  0  0  0  0  0  0  0  0  0  0
   -0.9505   -1.4719   -1.3063 C   0  0  0  0  0  0  0  0  0  0  0  0
   -0.6483   -2.7024   -0.6556 C   0  0  0  0  0  0  0  0  0  0  0  0
   -0.3806   -3.8435   -0.9538 O   0  0  0  0  0  0  0  0  0  0  0  0
   -0.4179   -2.4164    0.9180 C   0  0  2  0  0  0  0  0  0  0  0  0
   -2.0143   -2.0187    1.0918 C   0  0  0  0  0  0  0  0  0  0  0  0
   -2.1155   -0.6554    1.5705 C   0  0  0  0  0  0  0  0  0  0  0  0
   -2.9406    0.1670    0.9095 C   0  0  0  0  0  0  0  0  0  0  0  0
   -4.2722   -0.3823    0.5771 C   0  0  0  0  0  0  0  0  0  0  0  0
   -4.6462   -0.1933   -0.8757 C   0  0  0  0  0  0  0  0  0  0  0  0
   -4.7721    1.2537   -1.2391 C   0  0  0  0  0  0  0  0  0  0  0  0
   -5.8148    1.9709   -0.4595 C   0  0  0  0  0  0  0  0  0  0  0  0
   -5.6764    3.2267   -0.3499 O   0  0  0  0  0  0  0  0  0  0  0  0
   -7.0504    1.3931   -0.1418 O   0  0  0  0  0  0  0  0  0  0  0  0
  1  2  1  0
  2  3  1  0
  3  4  1  0
  4  5  1  0
  6  5  1  6
  6  7  1  0
  6  8  1  0
  8  9  2  0
 10  9  1  1
 10 11  1  0
 11 12  1  6
 11 13  1  0
 13 14  1  0
 14 15  2  0
 14 16  1  0
 16 17  1  1
 17 18  1  0
 18 19  2  0
 19 20  1  0
 20 21  1  0
 21 22  1  0
 22 23  1  0
 23 24  2  0
 23 25  1  0
 16 10  1  0
M  END
>  <supplier_code>  (769) 
DB00917

>  <zinc_id>  (769) 
ZINC000003830713

>  <catalog_short_name>  (769) 
dbfda

$$$$

     RDKit          3D

 23 25  0  0  0  0  0  0  0  0999 V2000
    7.0153   -0.3864    1.3400 C   0  0  0  0  0  0  0  0  0  0  0  0
    5.8528   -0.0327    0.5676 N   0  0  0  0  0  0  0  0  0  0  0  0
    5.9132   -0.4808   -0.8022 C   0  0  0  0  0  0  0  0  0  0  0  0
    4.6094   -0.3655    1.2174 C   0  0  0  0  0  0  0  0  0  0  0  0
    3.7609    0.9008    1.2107 C   0  0  0  0  0  0  0  0  0  0  0  0
    3.0048    0.8972   -0.0603 C   0  0  0  0  0  0  0  0  0  0  0  0
    3.2557    1.5103   -1.2617 C   0  0  0  0  0  0  0  0  0  0  0  0
    2.4440    0.9076   -2.1661 N   0  0  0  0  0  0  0  0  0  0  0  0
    1.5999    0.0675   -1.5623 C   0  0  0  0  0  0  0  0  0  0  0  0
    0.5482   -0.7514   -1.9325 C   0  0  0  0  0  0  0  0  0  0  0  0
   -0.5105   -0.9468   -1.0545 C   0  0  0  0  0  0  0  0  0  0  0  0
   -0.4789   -0.4699    0.2488 C   0  0  0  0  0  0  0  0  0  0  0  0
   -1.7135   -0.0652    0.9632 C   0  0  0  0  0  0  0  0  0  0  0  0
   -3.1335   -0.5649    0.0349 S   0  0  0  0  0  0  0  0  0  0  0  0
   -3.4367    0.3592   -1.0958 O   0  0  0  0  0  0  0  0  0  0  0  0
   -2.8322   -1.9204   -0.5407 O   0  0  0  0  0  0  0  0  0  0  0  0
   -4.4900   -0.6534    1.1158 N   0  0  0  0  0  0  0  0  0  0  0  0
   -5.4353   -1.6496    0.6809 C   0  0  0  0  0  0  0  0  0  0  0  0
   -6.8084   -1.0491    0.8617 C   0  0  0  0  0  0  0  0  0  0  0  0
   -6.5384    0.4111    0.5494 C   0  0  0  0  0  0  0  0  0  0  0  0
   -5.1840    0.6079    1.1896 C   0  0  0  0  0  0  0  0  0  0  0  0
    0.7640   -0.0408    0.6942 C   0  0  0  0  0  0  0  0  0  0  0  0
    1.7931    0.2329   -0.1978 C   0  0  0  0  0  0  0  0  0  0  0  0
  1  2  1  0
  2  3  1  0
  2  4  1  0
  4  5  1  0
  5  6  1  0
  6  7  2  0
  7  8  1  0
  8  9  1  0
  9 10  2  0
 10 11  1  0
 11 12  2  0
 12 13  1  0
 13 14  1  0
 14 15  2  0
 14 16  2  0
 14 17  1  0
 17 18  1  0
 18 19  1  0
 19 20  1  0
 20 21  1  0
 12 22  1  0
 22 23  2  0
 23  6  1  0
 23  9  1  0
 21 17  1  0
M  END
>  <supplier_code>  (770) 
DB00918

>  <zinc_id>  (770) 
ZINC000000018087

>  <catalog_short_name>  (770) 
dbfda

$$$$

     RDKit          3D

 22 25  0  0  0  0  0  0  0  0999 V2000
    4.9333   -0.6163   -0.8135 C   0  0  0  0  0  0  0  0  0  0  0  0
    4.1652    0.1668    0.1396 N   0  0  0  0  0  0  0  0  0  0  0  0
    3.2123    0.9925   -0.5494 C   0  0  0  0  0  0  0  0  0  0  0  0
    2.0740    1.4572    0.3231 C   0  0  0  0  0  0  0  0  0  0  0  0
    1.2918    0.2285    0.6706 C   0  0  0  0  0  0  0  0  0  0  0  0
    0.0465    0.1777    0.2000 C   0  0  0  0  0  0  0  0  0  0  0  0
   -0.5653    1.4412   -0.2371 C   0  0  0  0  0  0  0  0  0  0  0  0
    0.1537    2.5998   -0.3451 C   0  0  0  0  0  0  0  0  0  0  0  0
   -0.6120    3.7111   -0.0071 C   0  0  0  0  0  0  0  0  0  0  0  0
   -2.1311    3.2206   -0.6397 S   0  0  0  0  0  0  0  0  0  0  0  0
   -1.7981    1.5517   -0.8737 C   0  0  0  0  0  0  0  0  0  0  0  0
   -2.7529    0.4799   -1.1910 C   0  0  0  0  0  0  0  0  0  0  0  0
   -3.9309    0.9211   -1.3496 O   0  0  0  0  0  0  0  0  0  0  0  0
   -2.4897   -0.9487   -1.4805 C   0  0  0  0  0  0  0  0  0  0  0  0
   -1.6777   -1.5961   -0.4048 C   0  0  0  0  0  0  0  0  0  0  0  0
   -2.3838   -2.6721    0.1194 C   0  0  0  0  0  0  0  0  0  0  0  0
   -1.9099   -3.3010    1.2403 C   0  0  0  0  0  0  0  0  0  0  0  0
   -0.7164   -2.9682    1.8614 C   0  0  0  0  0  0  0  0  0  0  0  0
    0.0014   -1.9407    1.2669 C   0  0  0  0  0  0  0  0  0  0  0  0
   -0.5306   -1.1727    0.2374 C   0  0  0  0  0  0  0  0  0  0  0  0
    2.0970   -1.0274    0.7404 C   0  0  0  0  0  0  0  0  0  0  0  0
    3.5233   -0.7049    1.0923 C   0  0  0  0  0  0  0  0  0  0  0  0
  1  2  1  0
  2  3  1  0
  3  4  1  0
  4  5  1  0
  5  6  2  3
  6  7  1  0
  7  8  1  0
  8  9  2  0
  9 10  1  0
 10 11  1  0
 11 12  1  0
 12 13  2  0
 12 14  1  0
 14 15  1  0
 15 16  2  0
 16 17  1  0
 17 18  2  0
 18 19  1  0
 19 20  2  0
  5 21  1  0
 21 22  1  0
 22  2  1  0
 20  6  1  0
 11  7  2  0
 20 15  1  0
M  END
>  <supplier_code>  (771) 
DB00920

>  <zinc_id>  (771) 
ZINC000000004351

>  <catalog_short_name>  (771) 
dbfda

$$$$

     RDKit          3D

 34 40  0  0  0  0  0  0  0  0999 V2000
    2.7561    1.4647   -1.8285 C   0  0  0  0  0  0  0  0  0  0  0  0
    2.5137    0.9930   -1.6325 O   0  0  0  0  0  0  0  0  0  0  0  0
    1.5490    0.5587   -0.7226 C   0  0  2  0  0  0  0  0  0  0  0  0
    1.4084    1.3219    0.4093 C   0  0  0  0  0  0  0  0  0  0  0  0
    0.2805    0.9868    1.3289 C   0  0  0  0  0  0  0  0  0  0  0  0
   -0.3777   -0.1670    0.5649 C   0  0  1  0  0  0  0  0  0  0  0  0
    0.6889   -1.1764    0.7297 C   0  0  0  0  0  0  0  0  0  0  0  0
    1.7783   -1.0325   -0.4746 C   0  0  2  0  0  0  0  0  0  0  0  0
    3.0745   -0.8574    0.4892 C   0  0  2  0  0  0  0  0  0  0  0  0
    2.7864   -0.9548    1.9047 C   0  0  0  0  0  0  0  0  0  0  0  0
    3.8051    0.2244    0.1385 O   0  0  0  0  0  0  0  0  0  0  0  0
    3.9988   -2.0306    0.1515 C   0  0  0  0  0  0  0  0  0  0  0  0
    3.4984   -3.2280    0.9037 C   0  0  0  0  0  0  0  0  0  0  0  0
    4.0867   -2.2788   -1.3240 C   0  0  0  0  0  0  0  0  0  0  0  0
    5.3687   -1.5939    0.6633 C   0  0  0  0  0  0  0  0  0  0  0  0
   -1.5520   -0.7261    1.5419 C   0  0  1  0  0  0  0  0  0  0  0  0
   -2.6761    0.4404    1.2807 C   0  0  0  0  0  0  0  0  0  0  0  0
   -2.1378    1.6301    0.7178 C   0  0  0  0  0  0  0  0  0  0  0  0
   -2.3767    2.9384    1.1368 C   0  0  0  0  0  0  0  0  0  0  0  0
   -1.7972    4.0208    0.4748 C   0  0  0  0  0  0  0  0  0  0  0  0
   -0.7112    3.7317   -0.3483 C   0  0  0  0  0  0  0  0  0  0  0  0
    0.3425    4.6378   -0.5221 O   0  0  0  0  0  0  0  0  0  0  0  0
   -0.5769    2.4624   -0.9035 C   0  0  0  0  0  0  0  0  0  0  0  0
   -1.5046    1.5558   -0.5273 C   0  0  0  0  0  0  0  0  0  0  0  0
   -0.8846    0.2380   -0.6669 C   0  0  2  0  0  0  0  0  0  0  0  0
   -1.8753   -0.5221   -1.4713 C   0  0  0  0  0  0  0  0  0  0  0  0
   -2.9122   -1.0117   -0.4925 C   0  0  0  0  0  0  0  0  0  0  0  0
   -2.1303   -1.7053    0.4546 N   0  0  0  0  0  0  0  0  0  0  0  0
   -2.9731   -2.5658    1.2275 C   0  0  0  0  0  0  0  0  0  0  0  0
   -3.7832   -3.4734    0.3572 C   0  0  0  0  0  0  0  0  0  0  0  0
   -5.2891   -3.4011    0.7043 C   0  0  0  0  0  0  0  0  0  0  0  0
   -4.8141   -2.9034   -0.5946 C   0  0  0  0  0  0  0  0  0  0  0  0
    0.2908    0.4485   -1.7746 C   0  0  1  0  0  0  0  0  0  0  0  0
    0.1453    1.9747   -1.8959 O   0  0  0  0  0  0  0  0  0  0  0  0
  1  2  1  0
  3  2  1  6
  3  4  1  0
  4  5  1  0
  6  5  1  1
  6  7  1  0
  8  7  1  1
  8  9  1  0
  9 10  1  1
  9 11  1  0
  9 12  1  0
 12 13  1  0
 12 14  1  0
 12 15  1  0
  6 16  1  0
 16 17  1  6
 17 18  1  0
 18 19  2  0
 19 20  1  0
 20 21  2  0
 21 22  1  0
 21 23  1  0
 23 24  2  0
 24 25  1  0
 25 26  1  6
 26 27  1  0
 27 28  1  0
 28 29  1  0
 29 30  1  0
 30 31  1  0
 31 32  1  0
 25 33  1  0
 33 34  1  1
  8  3  1  0
 28 16  1  0
 32 30  1  0
 33  3  1  0
 25  6  1  0
 24 18  1  0
 34 23  1  0
M  END
>  <supplier_code>  (772) 
DB00921

>  <zinc_id>  (772) 
ZINC000001319780

>  <catalog_short_name>  (772) 
dbfda

$$$$

     RDKit          3D

 21 23  0  0  0  0  0  0  0  0999 V2000
    4.8442   -0.7193   -0.2661 C   0  0  0  0  0  0  0  0  0  0  0  0
    4.4111   -0.3168    1.0682 N   0  0  0  0  0  0  0  0  0  0  0  0
    4.0513   -1.4984    1.8441 C   0  0  0  0  0  0  0  0  0  0  0  0
    3.1892    0.4701    0.9115 C   0  0  0  0  0  0  0  0  0  0  0  0
    2.1108   -0.5132    0.5342 C   0  0  0  0  0  0  0  0  0  0  0  0
    1.2775   -0.0500   -0.5927 C   0  0  0  0  0  0  0  0  0  0  0  0
   -0.0272    0.0527   -0.4047 C   0  0  0  0  0  0  0  0  0  0  0  0
   -0.7639   -1.2096   -0.3532 C   0  0  0  0  0  0  0  0  0  0  0  0
   -0.1278   -2.1695   -1.1135 C   0  0  0  0  0  0  0  0  0  0  0  0
   -0.8433   -3.2212   -1.6439 C   0  0  0  0  0  0  0  0  0  0  0  0
   -2.1837   -3.4285   -1.3497 C   0  0  0  0  0  0  0  0  0  0  0  0
   -2.7881   -2.5071   -0.5073 C   0  0  0  0  0  0  0  0  0  0  0  0
   -2.0838   -1.4310    0.0164 C   0  0  0  0  0  0  0  0  0  0  0  0
   -3.0067   -0.4363    0.5219 C   0  0  0  0  0  0  0  0  0  0  0  0
   -2.9897    0.8967    0.5102 C   0  0  0  0  0  0  0  0  0  0  0  0
   -1.8191    1.7457    0.2946 C   0  0  0  0  0  0  0  0  0  0  0  0
   -2.1641    3.0756    0.0895 C   0  0  0  0  0  0  0  0  0  0  0  0
   -1.1503    4.0026   -0.1235 C   0  0  0  0  0  0  0  0  0  0  0  0
    0.1017    3.6224    0.3477 C   0  0  0  0  0  0  0  0  0  0  0  0
    0.4658    2.3122    0.0602 C   0  0  0  0  0  0  0  0  0  0  0  0
   -0.5037    1.3231    0.1562 C   0  0  0  0  0  0  0  0  0  0  0  0
  1  2  1  0
  2  3  1  0
  2  4  1  0
  4  5  1  0
  5  6  1  0
  6  7  2  3
  7  8  1  0
  8  9  2  0
  9 10  1  0
 10 11  2  0
 11 12  1  0
 12 13  2  0
 13 14  1  0
 14 15  2  0
 15 16  1  0
 16 17  2  0
 17 18  1  0
 18 19  2  0
 19 20  1  0
 20 21  2  0
 21  7  1  0
 13  8  1  0
 21 16  1  0
M  END
>  <supplier_code>  (773) 
DB00924

>  <zinc_id>  (773) 
ZINC000000968263

>  <catalog_short_name>  (773) 
dbfda

$$$$

     RDKit          3D

 21 22  0  0  0  0  0  0  0  0999 V2000
    0.4107    2.6659    0.5444 C   0  0  0  0  0  0  0  0  0  0  0  0
    0.3910    1.1112   -0.0701 C   0  0  1  0  0  0  0  0  0  0  0  0
    0.8833    0.4924    1.4012 C   0  0  0  0  0  0  0  0  0  0  0  0
    1.7779   -0.5371    1.0648 O   0  0  0  0  0  0  0  0  0  0  0  0
    2.9829   -0.1992    0.4691 C   0  0  0  0  0  0  0  0  0  0  0  0
    3.5389   -0.9312   -0.5730 C   0  0  0  0  0  0  0  0  0  0  0  0
    4.8953   -1.1322   -0.6265 C   0  0  0  0  0  0  0  0  0  0  0  0
    5.7646   -0.4252    0.1960 C   0  0  0  0  0  0  0  0  0  0  0  0
    5.1881    0.6049    0.9302 C   0  0  0  0  0  0  0  0  0  0  0  0
    3.8249    0.7357    1.0523 C   0  0  0  0  0  0  0  0  0  0  0  0
   -1.1421    0.8366    0.2856 N   0  0  0  0  0  0  0  0  0  0  0  0
   -1.8034    2.0484    0.4711 C   0  0  0  0  0  0  0  0  0  0  0  0
   -2.6136    2.5860   -0.6543 C   0  0  0  0  0  0  0  0  0  0  0  0
   -3.1994    4.2008   -0.1547 Cl  0  0  0  0  0  0  0  0  0  0  0  0
   -1.5390    0.0950   -0.9125 C   0  0  0  0  0  0  0  0  0  0  0  0
   -2.4437   -1.0443   -0.5624 C   0  0  0  0  0  0  0  0  0  0  0  0
   -3.8202   -0.8890   -0.4862 C   0  0  0  0  0  0  0  0  0  0  0  0
   -4.5963   -1.9348   -0.0104 C   0  0  0  0  0  0  0  0  0  0  0  0
   -3.9993   -3.0825    0.4742 C   0  0  0  0  0  0  0  0  0  0  0  0
   -2.6235   -3.1229    0.6431 C   0  0  0  0  0  0  0  0  0  0  0  0
   -1.8770   -2.0786    0.1726 C   0  0  0  0  0  0  0  0  0  0  0  0
  2  1  1  1
  2  3  1  0
  3  4  1  0
  4  5  1  0
  5  6  2  0
  6  7  1  0
  7  8  2  0
  8  9  1  0
  9 10  2  0
  2 11  1  0
 11 12  1  0
 12 13  1  0
 13 14  1  0
 11 15  1  0
 15 16  1  0
 16 17  2  0
 17 18  1  0
 18 19  2  0
 19 20  1  0
 20 21  2  0
 10  5  1  0
 21 16  1  0
M  END
>  <supplier_code>  (774) 
DB00925

>  <zinc_id>  (774) 
ZINC000053045054

>  <catalog_short_name>  (774) 
dbfda

$$$$

     RDKit          3D

 21 22  0  0  0  0  0  0  0  0999 V2000
   -0.0046    0.0508   -1.5226 C   0  0  0  0  0  0  0  0  0  0  0  0
    0.2570    1.3650   -0.5673 C   0  0  2  0  0  0  0  0  0  0  0  0
    0.8225    0.4387    0.6703 C   0  0  0  0  0  0  0  0  0  0  0  0
    2.2190    0.5873    0.6490 O   0  0  0  0  0  0  0  0  0  0  0  0
    3.0962   -0.3409    0.0887 C   0  0  0  0  0  0  0  0  0  0  0  0
    3.0463   -1.6926    0.4071 C   0  0  0  0  0  0  0  0  0  0  0  0
    4.2011   -2.4572    0.5175 C   0  0  0  0  0  0  0  0  0  0  0  0
    5.4316   -1.8876    0.2232 C   0  0  0  0  0  0  0  0  0  0  0  0
    5.4511   -0.6595   -0.4262 C   0  0  0  0  0  0  0  0  0  0  0  0
    4.2758    0.0757   -0.5045 C   0  0  0  0  0  0  0  0  0  0  0  0
   -1.2360    1.3665   -0.0720 N   0  0  0  0  0  0  0  0  0  0  0  0
   -1.4926    2.6673    0.4692 C   0  0  0  0  0  0  0  0  0  0  0  0
   -1.4052    3.6466   -0.6964 C   0  0  0  0  0  0  0  0  0  0  0  0
   -0.8105    5.2247   -0.0993 Cl  0  0  0  0  0  0  0  0  0  0  0  0
   -1.4951    0.2658    0.7330 C   0  0  0  0  0  0  0  0  0  0  0  0
   -2.7035   -0.5133    0.4872 C   0  0  0  0  0  0  0  0  0  0  0  0
   -3.1532   -0.8059   -0.7710 C   0  0  0  0  0  0  0  0  0  0  0  0
   -4.2922   -1.5801   -0.9093 C   0  0  0  0  0  0  0  0  0  0  0  0
   -4.8820   -2.1895    0.1629 C   0  0  0  0  0  0  0  0  0  0  0  0
   -4.2028   -2.2091    1.3514 C   0  0  0  0  0  0  0  0  0  0  0  0
   -3.1227   -1.3527    1.5138 C   0  0  0  0  0  0  0  0  0  0  0  0
  2  1  1  6
  2  3  1  0
  3  4  1  0
  4  5  1  0
  5  6  2  0
  6  7  1  0
  7  8  2  0
  8  9  1  0
  9 10  2  0
  2 11  1  0
 11 12  1  0
 12 13  1  0
 13 14  1  0
 11 15  1  0
 15 16  1  0
 16 17  2  0
 17 18  1  0
 18 19  2  0
 19 20  1  0
 20 21  2  0
 10  5  1  0
 21 16  1  0
M  END
>  <supplier_code>  (775) 
DB00925

>  <zinc_id>  (775) 
ZINC000053045055

>  <catalog_short_name>  (775) 
dbfda

$$$$

     RDKit          3D

 20 20  0  0  0  0  0  0  0  0999 V2000
   -5.0616    1.7466    0.4653 N   0  0  0  0  0  0  0  0  0  0  0  0
   -5.8508    0.7388    0.2473 C   0  0  0  0  0  0  0  0  0  0  0  0
   -7.2111    1.0550   -0.0581 N   0  0  0  0  0  0  0  0  0  0  0  0
   -5.3208   -0.5519   -0.0636 N   0  0  0  0  0  0  0  0  0  0  0  0
   -3.9066   -0.5947   -0.3020 C   0  0  0  0  0  0  0  0  0  0  0  0
   -2.9949   -1.4388    0.2408 N   0  0  0  0  0  0  0  0  0  0  0  0
   -1.7520   -0.9048    0.1658 C   0  0  0  0  0  0  0  0  0  0  0  0
   -0.7391   -1.1750    1.2370 C   0  0  0  0  0  0  0  0  0  0  0  0
    0.8909   -0.7324    0.6105 S   0  0  0  0  0  0  0  0  0  0  0  0
    1.1501   -1.3499   -1.0755 C   0  0  0  0  0  0  0  0  0  0  0  0
    2.0969   -0.4088   -1.8094 C   0  0  0  0  0  0  0  0  0  0  0  0
    3.3183   -0.3050   -0.9674 C   0  0  0  0  0  0  0  0  0  0  0  0
    3.6824   -1.2509   -0.1534 N   0  0  0  0  0  0  0  0  0  0  0  0
    4.1668    0.8416   -1.0824 N   0  0  0  0  0  0  0  0  0  0  0  0
    5.2868    1.1349    0.1824 S   0  0  0  0  0  0  0  0  0  0  0  0
    4.5382    2.1992    1.3267 N   0  0  0  0  0  0  0  0  0  0  0  0
    5.6353   -0.1765    0.8497 O   0  0  0  0  0  0  0  0  0  0  0  0
    6.5525    1.7694   -0.2954 O   0  0  0  0  0  0  0  0  0  0  0  0
   -1.4624   -0.5573   -1.1512 C   0  0  0  0  0  0  0  0  0  0  0  0
   -3.0189   -0.0396   -1.6645 S   0  0  0  0  0  0  0  0  0  0  0  0
  1  2  2  0
  2  3  1  0
  2  4  1  0
  4  5  1  0
  5  6  2  0
  6  7  1  0
  7  8  1  0
  8  9  1  0
  9 10  1  0
 10 11  1  0
 11 12  1  0
 12 13  2  0
 12 14  1  0
 14 15  1  0
 15 16  1  0
 15 17  2  0
 15 18  2  0
  7 19  2  0
 19 20  1  0
 20  5  1  0
M  END
>  <supplier_code>  (776) 
DB00927

>  <zinc_id>  (776) 
ZINC000001530636

>  <catalog_short_name>  (776) 
dbfda

$$$$

     RDKit          3D

 17 18  0  0  0  0  0  0  0  0999 V2000
    4.6082   -1.0018   -0.6578 N   0  0  0  0  0  0  0  0  0  0  0  0
    3.5046   -0.7190   -0.3696 C   0  0  0  0  0  0  0  0  0  0  0  0
    3.1075    0.5705   -0.2463 N   0  0  0  0  0  0  0  0  0  0  0  0
    1.7879    0.8622   -0.1561 C   0  0  0  0  0  0  0  0  0  0  0  0
    0.8589   -0.1281   -0.1476 N   0  0  0  0  0  0  0  0  0  0  0  0
   -0.4366    0.3663    0.6732 C   0  0  2  0  0  0  0  0  0  0  0  0
   -1.3410   -0.6395   -0.0629 O   0  0  0  0  0  0  0  0  0  0  0  0
   -2.3578    0.2019    0.7295 C   0  0  2  0  0  0  0  0  0  0  0  0
   -3.6936   -0.6489    0.2292 C   0  0  0  0  0  0  0  0  0  0  0  0
   -3.3513   -1.5111   -0.7337 O   0  0  0  0  0  0  0  0  0  0  0  0
   -2.4195    1.1956   -0.6887 C   0  0  1  0  0  0  0  0  0  0  0  0
   -3.0101    2.3863    0.0442 O   0  0  0  0  0  0  0  0  0  0  0  0
   -0.7582    1.6165   -0.5027 C   0  0  1  0  0  0  0  0  0  0  0  0
   -0.9425    2.6083    0.6256 O   0  0  0  0  0  0  0  0  0  0  0  0
    1.3033   -1.3338    0.2793 C   0  0  0  0  0  0  0  0  0  0  0  0
    0.5342   -2.1968    0.8001 O   0  0  0  0  0  0  0  0  0  0  0  0
    2.6059   -1.6285    0.0677 N   0  0  0  0  0  0  0  0  0  0  0  0
  1  2  1  0
  2  3  1  0
  3  4  2  0
  4  5  1  0
  6  5  1  6
  6  7  1  0
  7  8  1  0
  8  9  1  6
  9 10  1  0
  8 11  1  0
 11 12  1  1
 11 13  1  0
 13 14  1  1
  5 15  1  0
 15 16  2  0
 15 17  1  0
 17  2  2  0
 13  6  1  0
M  END
>  <supplier_code>  (777) 
DB00928

>  <zinc_id>  (777) 
ZINC000003861768

>  <catalog_short_name>  (777) 
dbfda

$$$$

     RDKit          3D

 27 27  0  0  0  0  0  0  0  0999 V2000
   -7.9273   -0.9547    0.8703 C   0  0  0  0  0  0  0  0  0  0  0  0
   -7.4941    0.0673   -0.1066 C   0  0  0  0  0  0  0  0  0  0  0  0
   -6.0989   -0.3475   -0.5579 C   0  0  0  0  0  0  0  0  0  0  0  0
   -5.3905   -0.7413    0.7349 C   0  0  0  0  0  0  0  0  0  0  0  0
   -4.3154    0.3291    0.8981 C   0  0  2  0  0  0  0  0  0  0  0  0
   -3.3777    0.0024    2.0291 C   0  0  0  0  0  0  0  0  0  0  0  0
   -4.9408    1.5289    1.2002 O   0  0  0  0  0  0  0  0  0  0  0  0
   -3.6081    0.3683   -0.4510 C   0  0  0  0  0  0  0  0  0  0  0  0
   -2.2823   -0.3017   -0.2128 C   0  0  0  0  0  0  0  0  0  0  0  0
   -1.4705   -0.5104   -1.1933 C   0  0  0  0  0  0  0  0  0  0  0  0
    0.1043   -0.6496   -0.9599 C   0  0  1  0  0  0  0  0  0  0  0  0
    0.3941    0.4490   -2.2554 C   0  0  2  0  0  0  0  0  0  0  0  0
    1.8244    0.8034   -1.7785 O   0  0  0  0  0  0  0  0  0  0  0  0
   -0.4202    1.6826   -1.4768 C   0  0  0  0  0  0  0  0  0  0  0  0
    0.5712    1.7611   -0.5052 C   0  0  0  0  0  0  0  0  0  0  0  0
    0.8479    2.6508    0.2548 O   0  0  0  0  0  0  0  0  0  0  0  0
    0.1651    0.4528    0.3367 C   0  0  2  0  0  0  0  0  0  0  0  0
    1.7575    0.0944    0.6492 C   0  0  0  0  0  0  0  0  0  0  0  0
    1.6943   -1.2232    1.4136 C   0  0  0  0  0  0  0  0  0  0  0  0
    2.0534   -2.3883    0.4979 C   0  0  0  0  0  0  0  0  0  0  0  0
    3.1962   -2.0076   -0.4056 C   0  0  0  0  0  0  0  0  0  0  0  0
    4.5038   -2.2584    0.2812 C   0  0  0  0  0  0  0  0  0  0  0  0
    4.8986   -1.0551    1.1291 C   0  0  0  0  0  0  0  0  0  0  0  0
    5.7079   -0.1346    0.2806 C   0  0  0  0  0  0  0  0  0  0  0  0
    6.4813   -0.6431   -0.5831 O   0  0  0  0  0  0  0  0  0  0  0  0
    5.9898    1.1498    0.7322 O   0  0  0  0  0  0  0  0  0  0  0  0
    7.1358    1.8755    0.3562 C   0  0  0  0  0  0  0  0  0  0  0  0
  1  2  1  0
  2  3  1  0
  3  4  1  0
  5  4  1  6
  5  6  1  0
  5  7  1  0
  5  8  1  0
  8  9  1  0
  9 10  2  0
 11 10  1  6
 11 12  1  0
 12 13  1  1
 12 14  1  0
 14 15  1  0
 15 16  2  0
 15 17  1  0
 17 18  1  1
 18 19  1  0
 19 20  1  0
 20 21  1  0
 21 22  1  0
 22 23  1  0
 23 24  1  0
 24 25  2  0
 24 26  1  0
 26 27  1  0
 17 11  1  0
M  END
>  <supplier_code>  (778) 
DB00929

>  <zinc_id>  (778) 
ZINC000003812913

>  <catalog_short_name>  (778) 
dbfda

$$$$

     RDKit          3D

 27 27  0  0  0  0  0  0  0  0999 V2000
   -7.4843   -0.1020    1.6633 C   0  0  0  0  0  0  0  0  0  0  0  0
   -6.8398    0.1342    1.5299 C   0  0  0  0  0  0  0  0  0  0  0  0
   -5.4091    0.4537    1.8922 C   0  0  0  0  0  0  0  0  0  0  0  0
   -4.7352    1.0607    0.6833 C   0  0  0  0  0  0  0  0  0  0  0  0
   -5.4154    0.6206   -0.5812 C   0  0  1  0  0  0  0  0  0  0  0  0
   -5.4928   -0.8929   -0.6145 C   0  0  0  0  0  0  0  0  0  0  0  0
   -6.6436    1.2224   -0.7687 O   0  0  0  0  0  0  0  0  0  0  0  0
   -4.5191    1.0010   -1.7546 C   0  0  0  0  0  0  0  0  0  0  0  0
   -3.3279    0.1024   -1.6098 C   0  0  0  0  0  0  0  0  0  0  0  0
   -2.4374    0.3836   -0.7066 C   0  0  0  0  0  0  0  0  0  0  0  0
   -1.2159   -0.6062   -0.4501 C   0  0  1  0  0  0  0  0  0  0  0  0
   -1.0727   -1.0368   -2.0960 C   0  0  2  0  0  0  0  0  0  0  0  0
    0.1947   -1.8647   -1.8462 O   0  0  0  0  0  0  0  0  0  0  0  0
   -0.3151    0.3562   -2.5455 C   0  0  0  0  0  0  0  0  0  0  0  0
    0.7830    0.1655   -1.6429 C   0  0  0  0  0  0  0  0  0  0  0  0
    1.9252    0.4952   -1.7671 O   0  0  0  0  0  0  0  0  0  0  0  0
   -0.1175    0.6774   -0.4246 C   0  0  2  0  0  0  0  0  0  0  0  0
    0.8375   -0.1147    0.6577 C   0  0  0  0  0  0  0  0  0  0  0  0
    1.7105    0.9114    1.2987 C   0  0  0  0  0  0  0  0  0  0  0  0
    3.1746    0.7527    1.0426 C   0  0  0  0  0  0  0  0  0  0  0  0
    3.7307   -0.5470    1.5962 C   0  0  0  0  0  0  0  0  0  0  0  0
    5.1930   -0.2892    1.9065 C   0  0  0  0  0  0  0  0  0  0  0  0
    5.7173    0.5587    0.7849 C   0  0  0  0  0  0  0  0  0  0  0  0
    7.1310    0.1595    0.5056 C   0  0  0  0  0  0  0  0  0  0  0  0
    7.2954   -1.0226    0.1259 O   0  0  0  0  0  0  0  0  0  0  0  0
    8.0786    0.6768    1.3705 O   0  0  0  0  0  0  0  0  0  0  0  0
    9.2544   -0.0345    1.7505 C   0  0  0  0  0  0  0  0  0  0  0  0
  1  2  1  0
  2  3  1  0
  3  4  1  0
  5  4  1  1
  5  6  1  0
  5  7  1  0
  5  8  1  0
  8  9  1  0
  9 10  2  0
 11 10  1  6
 11 12  1  0
 12 13  1  1
 12 14  1  0
 14 15  1  0
 15 16  2  0
 15 17  1  0
 17 18  1  1
 18 19  1  0
 19 20  1  0
 20 21  1  0
 21 22  1  0
 22 23  1  0
 23 24  1  0
 24 25  2  0
 24 26  1  0
 26 27  1  0
 17 11  1  0
M  END
>  <supplier_code>  (779) 
DB00929

>  <zinc_id>  (779) 
ZINC000003831138

>  <catalog_short_name>  (779) 
dbfda

$$$$

     RDKit          3D

 42 45  0  0  0  0  0  0  0  0999 V2000
   -4.0358    1.6484    3.3755 C   0  0  0  0  0  0  0  0  0  0  0  0
   -4.1329    1.2213    3.1389 C   0  0  0  0  0  0  0  0  0  0  0  0
   -4.7489   -0.0990    2.6908 C   0  0  0  0  0  0  0  0  0  0  0  0
   -3.9659   -0.5212    1.4517 C   0  0  1  0  0  0  0  0  0  0  0  0
   -4.8995   -1.4187    0.6645 C   0  0  0  0  0  0  0  0  0  0  0  0
   -5.1730   -0.8659   -0.7206 C   0  0  0  0  0  0  0  0  0  0  0  0
   -6.6200   -0.4894   -0.7430 C   0  0  0  0  0  0  0  0  0  0  0  0
   -7.1955    0.2557    0.2789 C   0  0  0  0  0  0  0  0  0  0  0  0
   -8.5487    0.1735    0.5742 C   0  0  0  0  0  0  0  0  0  0  0  0
   -9.2924   -0.8108   -0.0637 C   0  0  0  0  0  0  0  0  0  0  0  0
   -8.8302   -1.2079   -1.3035 C   0  0  0  0  0  0  0  0  0  0  0  0
   -7.4793   -1.1640   -1.5718 C   0  0  0  0  0  0  0  0  0  0  0  0
   -3.5928    0.7298    0.7317 C   0  0  0  0  0  0  0  0  0  0  0  0
   -2.1480    0.8544    0.4321 C   0  0  0  0  0  0  0  0  0  0  0  0
   -1.7782    1.9610   -0.3397 O   0  0  0  0  0  0  0  0  0  0  0  0
   -1.2936    0.4152    1.2961 C   0  0  0  0  0  0  0  0  0  0  0  0
    0.2883    0.5518    0.9114 C   0  0  2  0  0  0  0  0  0  0  0  0
    0.1286    2.1613    0.5009 C   0  0  0  0  0  0  0  0  0  0  0  0
    1.4830    2.5105   -0.1075 C   0  0  0  0  0  0  0  0  0  0  0  0
    0.0682    0.0829   -0.6447 C   0  0  0  0  0  0  0  0  0  0  0  0
   -0.6190   -1.1250   -0.7423 C   0  0  0  0  0  0  0  0  0  0  0  0
   -0.6325   -1.6810   -2.0169 C   0  0  0  0  0  0  0  0  0  0  0  0
    0.5203   -1.5577   -2.7619 C   0  0  0  0  0  0  0  0  0  0  0  0
    1.5604   -0.7105   -2.3996 C   0  0  0  0  0  0  0  0  0  0  0  0
    2.9110   -1.0016   -2.7850 N   0  0  0  0  0  0  0  0  0  0  0  0
    3.9176   -1.6500   -1.5274 S   0  0  0  0  0  0  0  0  0  0  0  0
    5.0330   -2.4242   -2.1864 O   0  0  0  0  0  0  0  0  0  0  0  0
    3.1252   -2.5243   -0.6048 O   0  0  0  0  0  0  0  0  0  0  0  0
    4.6050   -0.3179   -0.6016 C   0  0  0  0  0  0  0  0  0  0  0  0
    5.1232   -0.5278    0.6719 C   0  0  0  0  0  0  0  0  0  0  0  0
    6.3461    0.0104    1.0575 C   0  0  0  0  0  0  0  0  0  0  0  0
    7.0472    0.8245    0.1744 C   0  0  0  0  0  0  0  0  0  0  0  0
    8.5275    0.6875   -0.0014 C   0  0  0  0  0  0  0  0  0  0  0  0
    8.8008   -0.4405   -0.7634 F   0  0  0  0  0  0  0  0  0  0  0  0
    9.1531    0.5448    1.2079 F   0  0  0  0  0  0  0  0  0  0  0  0
    8.9558    1.7736   -0.7182 F   0  0  0  0  0  0  0  0  0  0  0  0
    6.2726    1.3493   -0.8543 C   0  0  0  0  0  0  0  0  0  0  0  0
    5.1011    0.7780   -1.2286 N   0  0  0  0  0  0  0  0  0  0  0  0
    1.3068    0.0728   -1.2804 C   0  0  0  0  0  0  0  0  0  0  0  0
   -1.5958   -0.8124    2.0364 C   0  0  0  0  0  0  0  0  0  0  0  0
   -0.7988   -1.2651    2.8864 O   0  0  0  0  0  0  0  0  0  0  0  0
   -2.8940   -1.3059    1.8857 O   0  0  0  0  0  0  0  0  0  0  0  0
  1  2  1  0
  2  3  1  0
  4  3  1  1
  4  5  1  0
  5  6  1  0
  6  7  1  0
  7  8  2  0
  8  9  1  0
  9 10  2  0
 10 11  1  0
 11 12  2  0
  4 13  1  0
 13 14  1  0
 14 15  1  0
 14 16  2  0
 17 16  1  1
 17 18  1  0
 18 19  1  0
 17 20  1  0
 20 21  2  0
 21 22  1  0
 22 23  2  0
 23 24  1  0
 24 25  1  0
 25 26  1  0
 26 27  2  0
 26 28  2  0
 26 29  1  0
 29 30  2  0
 30 31  1  0
 31 32  2  0
 32 33  1  0
 33 34  1  0
 33 35  1  0
 33 36  1  0
 32 37  1  0
 37 38  2  0
 24 39  2  0
 16 40  1  0
 40 41  2  0
 40 42  1  0
 42  4  1  0
 12  7  1  0
 39 20  1  0
 38 29  1  0
M  END
>  <supplier_code>  (780) 
DB00932

>  <zinc_id>  (780) 
ZINC000100016058

>  <catalog_short_name>  (780) 
dbfda

$$$$

     RDKit          3D

 42 45  0  0  0  0  0  0  0  0999 V2000
   -4.4281   -4.1264   -0.7015 C   0  0  0  0  0  0  0  0  0  0  0  0
   -4.4379   -3.2548    0.0740 C   0  0  0  0  0  0  0  0  0  0  0  0
   -4.7984   -1.9450   -0.5631 C   0  0  0  0  0  0  0  0  0  0  0  0
   -4.6196   -0.7894    0.3761 C   0  0  1  0  0  0  0  0  0  0  0  0
   -5.9604   -0.4298    0.9426 C   0  0  0  0  0  0  0  0  0  0  0  0
   -7.0795   -0.5015   -0.0653 C   0  0  0  0  0  0  0  0  0  0  0  0
   -7.6517    0.8815   -0.1527 C   0  0  0  0  0  0  0  0  0  0  0  0
   -8.2119    1.4573    0.9816 C   0  0  0  0  0  0  0  0  0  0  0  0
   -8.2258    2.8195    1.1943 C   0  0  0  0  0  0  0  0  0  0  0  0
   -7.2248    3.5697    0.5904 C   0  0  0  0  0  0  0  0  0  0  0  0
   -6.8120    3.1073   -0.6536 C   0  0  0  0  0  0  0  0  0  0  0  0
   -6.9263    1.7603   -0.9497 C   0  0  0  0  0  0  0  0  0  0  0  0
   -3.7187   -1.1048    1.5479 C   0  0  0  0  0  0  0  0  0  0  0  0
   -2.3368   -1.2297    0.9958 C   0  0  0  0  0  0  0  0  0  0  0  0
   -1.4398   -1.8413    1.6546 O   0  0  0  0  0  0  0  0  0  0  0  0
   -1.7562   -0.2757    0.0583 C   0  0  0  0  0  0  0  0  0  0  0  0
   -0.7039   -0.9213   -1.0223 C   0  0  2  0  0  0  0  0  0  0  0  0
   -0.1394   -2.1512   -0.0384 C   0  0  0  0  0  0  0  0  0  0  0  0
   -0.3880   -3.3970   -0.8366 C   0  0  0  0  0  0  0  0  0  0  0  0
    0.4991    0.0863   -0.5688 C   0  0  0  0  0  0  0  0  0  0  0  0
    0.5389    1.2733   -1.2595 C   0  0  0  0  0  0  0  0  0  0  0  0
    1.0730    2.4030   -0.6498 C   0  0  0  0  0  0  0  0  0  0  0  0
    1.8670    2.1852    0.4695 C   0  0  0  0  0  0  0  0  0  0  0  0
    1.8454    0.9562    1.1172 C   0  0  0  0  0  0  0  0  0  0  0  0
    2.7788    0.6403    2.1247 N   0  0  0  0  0  0  0  0  0  0  0  0
    3.9450   -0.6176    1.9393 S   0  0  0  0  0  0  0  0  0  0  0  0
    3.2397   -1.9198    1.7505 O   0  0  0  0  0  0  0  0  0  0  0  0
    4.8491   -0.6464    3.1344 O   0  0  0  0  0  0  0  0  0  0  0  0
    4.9736   -0.2761    0.5502 C   0  0  0  0  0  0  0  0  0  0  0  0
    5.7480   -1.2697   -0.0364 C   0  0  0  0  0  0  0  0  0  0  0  0
    7.0382   -0.9860   -0.4721 C   0  0  0  0  0  0  0  0  0  0  0  0
    7.5446    0.2913   -0.3176 C   0  0  0  0  0  0  0  0  0  0  0  0
    8.9810    0.4997    0.0085 C   0  0  0  0  0  0  0  0  0  0  0  0
    9.6481    0.9973   -1.0821 F   0  0  0  0  0  0  0  0  0  0  0  0
    9.5937   -0.6852    0.4028 F   0  0  0  0  0  0  0  0  0  0  0  0
    9.1619    1.3880    1.0472 F   0  0  0  0  0  0  0  0  0  0  0  0
    6.6005    1.2959   -0.1538 C   0  0  0  0  0  0  0  0  0  0  0  0
    5.3400    0.9921    0.2408 N   0  0  0  0  0  0  0  0  0  0  0  0
    0.7722    0.1436    0.7659 C   0  0  0  0  0  0  0  0  0  0  0  0
   -2.6949    0.3664   -0.6500 C   0  0  0  0  0  0  0  0  0  0  0  0
   -2.4345    0.9386   -1.8951 O   0  0  0  0  0  0  0  0  0  0  0  0
   -4.0494    0.3157   -0.3028 O   0  0  0  0  0  0  0  0  0  0  0  0
  1  2  1  0
  2  3  1  0
  4  3  1  6
  4  5  1  0
  5  6  1  0
  6  7  1  0
  7  8  2  0
  8  9  1  0
  9 10  2  0
 10 11  1  0
 11 12  2  0
  4 13  1  0
 13 14  1  0
 14 15  2  0
 14 16  1  0
 17 16  1  1
 17 18  1  0
 18 19  1  0
 17 20  1  0
 20 21  2  0
 21 22  1  0
 22 23  2  0
 23 24  1  0
 24 25  1  0
 25 26  1  0
 26 27  2  0
 26 28  2  0
 26 29  1  0
 29 30  2  0
 30 31  1  0
 31 32  2  0
 32 33  1  0
 33 34  1  0
 33 35  1  0
 33 36  1  0
 32 37  1  0
 37 38  2  0
 24 39  2  0
 16 40  2  0
 40 41  1  0
 40 42  1  0
 42  4  1  0
 12  7  1  0
 39 20  1  0
 38 29  1  0
M  END
>  <supplier_code>  (781) 
DB00932

>  <zinc_id>  (781) 
ZINC000100022637

>  <catalog_short_name>  (781) 
dbfda

$$$$

     RDKit          3D

 21 24  0  0  0  0  0  0  0  0999 V2000
    4.5333   -0.7322   -0.1719 C   0  0  0  0  0  0  0  0  0  0  0  0
    3.9921   -2.0747   -0.2029 N   0  0  0  0  0  0  0  0  0  0  0  0
    3.0983   -2.3373    0.8981 C   0  0  0  0  0  0  0  0  0  0  0  0
    1.6881   -2.1185    0.3843 C   0  0  0  0  0  0  0  0  0  0  0  0
    1.1731   -0.8569    1.0541 C   0  0  0  0  0  0  0  0  0  0  0  0
    0.1394   -0.1879    0.2180 C   0  0  0  0  0  0  0  0  0  0  0  0
    0.4018   -0.3154   -1.2780 C   0  0  0  0  0  0  0  0  0  0  0  0
   -0.7031    0.3734   -2.0364 C   0  0  0  0  0  0  0  0  0  0  0  0
   -1.7047    1.0550   -1.1174 C   0  0  0  0  0  0  0  0  0  0  0  0
   -0.8958    1.9555   -0.2336 C   0  0  0  0  0  0  0  0  0  0  0  0
   -0.6828    3.2875   -0.5717 C   0  0  0  0  0  0  0  0  0  0  0  0
    0.5459    3.8956   -0.3387 C   0  0  0  0  0  0  0  0  0  0  0  0
    1.3642    3.2881    0.6028 C   0  0  0  0  0  0  0  0  0  0  0  0
    1.1894    1.9689    0.9932 C   0  0  0  0  0  0  0  0  0  0  0  0
    0.0930    1.2867    0.4825 C   0  0  0  0  0  0  0  0  0  0  0  0
   -2.2290   -0.0419   -0.2395 C   0  0  0  0  0  0  0  0  0  0  0  0
   -3.4197   -0.6983   -0.5205 C   0  0  0  0  0  0  0  0  0  0  0  0
   -3.5355   -2.0647   -0.3176 C   0  0  0  0  0  0  0  0  0  0  0  0
   -2.4767   -2.7982    0.2018 C   0  0  0  0  0  0  0  0  0  0  0  0
   -1.3387   -2.1273    0.6328 C   0  0  0  0  0  0  0  0  0  0  0  0
   -1.2326   -0.7575    0.4189 C   0  0  0  0  0  0  0  0  0  0  0  0
  1  2  1  0
  2  3  1  0
  3  4  1  0
  4  5  1  0
  5  6  1  0
  6  7  1  0
  7  8  1  0
  8  9  1  0
  9 10  1  0
 10 11  2  0
 11 12  1  0
 12 13  2  0
 13 14  1  0
 14 15  2  0
  9 16  1  0
 16 17  2  0
 17 18  1  0
 18 19  2  0
 19 20  1  0
 20 21  2  0
 15  6  1  0
 21 16  1  0
 21  6  1  0
 15 10  1  0
M  END
>  <supplier_code>  (782) 
DB00934

>  <zinc_id>  (782) 
ZINC000001530688

>  <catalog_short_name>  (782) 
dbfda

$$$$

     RDKit          3D

 19 20  0  0  0  0  0  0  0  0999 V2000
    0.4028    2.5429    0.5550 C   0  0  0  0  0  0  0  0  0  0  0  0
   -0.2532    1.3951   -0.1369 C   0  0  0  0  0  0  0  0  0  0  0  0
   -1.6312    1.2426   -0.1841 C   0  0  0  0  0  0  0  0  0  0  0  0
   -2.1072   -0.0497   -0.3638 C   0  0  0  0  0  0  0  0  0  0  0  0
   -3.5552   -0.2978   -0.0808 C   0  0  0  0  0  0  0  0  0  0  0  0
   -4.3994    0.4448   -1.0820 C   0  0  0  0  0  0  0  0  0  0  0  0
   -3.7826    0.2021    1.3410 C   0  0  0  0  0  0  0  0  0  0  0  0
   -3.8582   -1.7711   -0.0797 C   0  0  0  0  0  0  0  0  0  0  0  0
   -1.2400   -1.1081   -0.5982 C   0  0  0  0  0  0  0  0  0  0  0  0
   -1.7531   -2.3264   -0.9950 O   0  0  0  0  0  0  0  0  0  0  0  0
    0.0906   -0.8344   -0.8890 C   0  0  0  0  0  0  0  0  0  0  0  0
    0.9086   -1.8349   -1.6205 C   0  0  0  0  0  0  0  0  0  0  0  0
    0.5339    0.4807   -0.8255 C   0  0  0  0  0  0  0  0  0  0  0  0
    1.9025    0.8837   -1.2036 C   0  0  0  0  0  0  0  0  0  0  0  0
    2.7914    0.6114   -0.0307 C   0  0  0  0  0  0  0  0  0  0  0  0
    3.7399    1.3635    0.4427 N   0  0  0  0  0  0  0  0  0  0  0  0
    4.9057    0.5480    0.7695 C   0  0  0  0  0  0  0  0  0  0  0  0
    4.3610   -0.8663    0.9311 C   0  0  0  0  0  0  0  0  0  0  0  0
    2.9435   -0.6263    0.6737 N   0  0  0  0  0  0  0  0  0  0  0  0
  1  2  1  0
  2  3  2  0
  3  4  1  0
  4  5  1  0
  5  6  1  0
  5  7  1  0
  5  8  1  0
  4  9  2  0
  9 10  1  0
  9 11  1  0
 11 12  1  0
 11 13  2  0
 13 14  1  0
 14 15  1  0
 15 16  2  0
 16 17  1  0
 17 18  1  0
 18 19  1  0
 13  2  1  0
 19 15  1  0
M  END
>  <supplier_code>  (783) 
DB00935

>  <zinc_id>  (783) 
ZINC000000057435

>  <catalog_short_name>  (783) 
dbfda

$$$$

     RDKit          3D

 10 10  0  0  0  0  0  0  0  0999 V2000
   -2.2003   -1.1078    0.8331 O   0  0  0  0  0  0  0  0  0  0  0  0
   -1.6727   -0.4273   -0.0858 C   0  0  0  0  0  0  0  0  0  0  0  0
   -2.3903    0.4141   -0.9122 O   0  0  0  0  0  0  0  0  0  0  0  0
   -0.2226   -0.3205   -0.0668 C   0  0  0  0  0  0  0  0  0  0  0  0
    0.6189   -1.3091   -0.5315 C   0  0  0  0  0  0  0  0  0  0  0  0
    1.9280   -1.2526   -0.0668 C   0  0  0  0  0  0  0  0  0  0  0  0
    2.4744    0.0227    0.0167 C   0  0  0  0  0  0  0  0  0  0  0  0
    1.6297    0.9949    0.5403 C   0  0  0  0  0  0  0  0  0  0  0  0
    0.3265    0.9422    0.0558 C   0  0  0  0  0  0  0  0  0  0  0  0
   -0.4916    2.0435    0.2172 O   0  0  0  0  0  0  0  0  0  0  0  0
  1  2  2  0
  2  3  1  0
  2  4  1  0
  4  5  2  0
  5  6  1  0
  6  7  2  0
  7  8  1  0
  8  9  2  0
  9 10  1  0
  9  4  1  0
M  END
>  <supplier_code>  (784) 
DB00936

>  <zinc_id>  (784) 
ZINC000000001554

>  <catalog_short_name>  (784) 
dbfda

$$$$

     RDKit          3D

 15 15  0  0  0  0  0  0  0  0999 V2000
   -3.0998    2.2232   -0.0319 C   0  0  0  0  0  0  0  0  0  0  0  0
   -2.0296    1.4585    0.6506 C   0  0  0  0  0  0  0  0  0  0  0  0
   -1.8589    0.1270    0.0626 N   0  0  0  0  0  0  0  0  0  0  0  0
   -3.0614   -0.5718    0.3138 C   0  0  0  0  0  0  0  0  0  0  0  0
   -3.4740   -1.2624   -0.9825 C   0  0  0  0  0  0  0  0  0  0  0  0
   -0.7371   -0.4049    1.0655 C   0  0  1  0  0  0  0  0  0  0  0  0
   -1.4260   -1.9125    1.2633 C   0  0  0  0  0  0  0  0  0  0  0  0
    0.2129   -0.9261   -0.1572 C   0  0  0  0  0  0  0  0  0  0  0  0
   -0.3493   -1.5951   -1.0315 O   0  0  0  0  0  0  0  0  0  0  0  0
    1.4387   -0.1754   -0.3391 C   0  0  0  0  0  0  0  0  0  0  0  0
    2.4868   -0.4567    0.5230 C   0  0  0  0  0  0  0  0  0  0  0  0
    3.6240    0.3411    0.5068 C   0  0  0  0  0  0  0  0  0  0  0  0
    3.8879    0.9861   -0.6813 C   0  0  0  0  0  0  0  0  0  0  0  0
    2.8085    1.3999   -1.4460 C   0  0  0  0  0  0  0  0  0  0  0  0
    1.5775    0.7691   -1.3509 C   0  0  0  0  0  0  0  0  0  0  0  0
  1  2  1  0
  2  3  1  0
  3  4  1  0
  4  5  1  0
  6  3  1  6
  6  7  1  0
  6  8  1  0
  8  9  2  0
  8 10  1  0
 10 11  2  0
 11 12  1  0
 12 13  2  0
 13 14  1  0
 14 15  2  0
 15 10  1  0
M  END
>  <supplier_code>  (785) 
DB00937

>  <zinc_id>  (785) 
ZINC000000000215

>  <catalog_short_name>  (785) 
dbfda

$$$$

     RDKit          3D

 15 15  0  0  0  0  0  0  0  0999 V2000
    3.3614    0.8775   -0.4268 C   0  0  0  0  0  0  0  0  0  0  0  0
    3.1079    0.3254   -0.9106 C   0  0  0  0  0  0  0  0  0  0  0  0
    2.2003   -0.6933   -0.3876 N   0  0  0  0  0  0  0  0  0  0  0  0
    2.1665   -0.5849    1.0067 C   0  0  0  0  0  0  0  0  0  0  0  0
    3.4981   -0.3356    1.6102 C   0  0  0  0  0  0  0  0  0  0  0  0
    0.7937   -0.3566   -1.0012 C   0  0  2  0  0  0  0  0  0  0  0  0
    0.9049    1.2305   -0.5792 C   0  0  0  0  0  0  0  0  0  0  0  0
   -0.0422   -0.7078    0.3369 C   0  0  0  0  0  0  0  0  0  0  0  0
    0.0351   -1.9380    0.6096 O   0  0  0  0  0  0  0  0  0  0  0  0
   -1.3678   -0.1168    0.3270 C   0  0  0  0  0  0  0  0  0  0  0  0
   -1.6624    1.1317    0.8121 C   0  0  0  0  0  0  0  0  0  0  0  0
   -2.8890    1.6774    0.4548 C   0  0  0  0  0  0  0  0  0  0  0  0
   -3.9464    0.8802    0.0343 C   0  0  0  0  0  0  0  0  0  0  0  0
   -3.7202   -0.4650   -0.1662 C   0  0  0  0  0  0  0  0  0  0  0  0
   -2.4398   -0.9246   -0.0326 C   0  0  0  0  0  0  0  0  0  0  0  0
  1  2  1  0
  2  3  1  0
  3  4  1  0
  4  5  1  0
  6  3  1  1
  6  7  1  0
  6  8  1  0
  8  9  2  0
  8 10  1  0
 10 11  2  0
 11 12  1  0
 12 13  2  0
 13 14  1  0
 14 15  2  0
 15 10  1  0
M  END
>  <supplier_code>  (786) 
DB00937

>  <zinc_id>  (786) 
ZINC000002847375

>  <catalog_short_name>  (786) 
dbfda

$$$$

     RDKit          3D

 30 31  0  0  0  0  0  0  0  0999 V2000
   -7.2939    2.0139    1.1409 O   0  0  0  0  0  0  0  0  0  0  0  0
   -7.2258    1.8642    0.8189 C   0  0  0  0  0  0  0  0  0  0  0  0
   -6.3536    0.8206    0.2072 C   0  0  0  0  0  0  0  0  0  0  0  0
   -5.7602    0.9783   -1.0346 C   0  0  0  0  0  0  0  0  0  0  0  0
   -5.0586   -0.0871   -1.5892 C   0  0  0  0  0  0  0  0  0  0  0  0
   -3.9772    0.4629   -2.6872 C   0  0  2  0  0  0  0  0  0  0  0  0
   -4.8476   -0.0516   -3.8486 O   0  0  0  0  0  0  0  0  0  0  0  0
   -3.0493   -0.9312   -2.7081 C   0  0  0  0  0  0  0  0  0  0  0  0
   -1.7311   -0.4462   -2.3169 N   0  0  0  0  0  0  0  0  0  0  0  0
   -1.8805    0.5028   -1.2254 C   0  0  0  0  0  0  0  0  0  0  0  0
   -1.1929   -0.0435    0.0203 C   0  0  0  0  0  0  0  0  0  0  0  0
   -0.0253   -0.8799   -0.4620 C   0  0  0  0  0  0  0  0  0  0  0  0
    0.9288    0.1173   -1.1105 C   0  0  0  0  0  0  0  0  0  0  0  0
    2.0910    0.3275   -0.1572 C   0  0  0  0  0  0  0  0  0  0  0  0
    2.5518   -1.0789    0.2093 C   0  0  0  0  0  0  0  0  0  0  0  0
    3.0013   -1.1515    1.5192 O   0  0  0  0  0  0  0  0  0  0  0  0
    2.4623   -0.1114    2.2584 C   0  0  0  0  0  0  0  0  0  0  0  0
    3.4885    0.6554    3.0504 C   0  0  0  0  0  0  0  0  0  0  0  0
    4.7086    0.9741    2.1870 C   0  0  0  0  0  0  0  0  0  0  0  0
    5.3981   -0.3456    1.8494 C   0  0  0  0  0  0  0  0  0  0  0  0
    6.6440    0.0060    1.0947 C   0  0  0  0  0  0  0  0  0  0  0  0
    7.7247   -0.8438    1.3010 C   0  0  0  0  0  0  0  0  0  0  0  0
    8.8151   -0.8775    0.4782 C   0  0  0  0  0  0  0  0  0  0  0  0
    8.8578   -0.1110   -0.6502 C   0  0  0  0  0  0  0  0  0  0  0  0
    7.6985    0.5334   -1.0243 C   0  0  0  0  0  0  0  0  0  0  0  0
    6.5970    0.5639   -0.1778 C   0  0  0  0  0  0  0  0  0  0  0  0
   -4.7775   -1.1570   -0.8577 C   0  0  0  0  0  0  0  0  0  0  0  0
   -5.3082   -1.3097    0.4165 C   0  0  0  0  0  0  0  0  0  0  0  0
   -6.0864   -0.3048    0.9750 C   0  0  0  0  0  0  0  0  0  0  0  0
   -6.3995   -0.2979    2.3231 O   0  0  0  0  0  0  0  0  0  0  0  0
  1  2  1  0
  2  3  1  0
  3  4  2  0
  4  5  1  0
  6  5  1  1
  6  7  1  0
  6  8  1  0
  8  9  1  0
  9 10  1  0
 10 11  1  0
 11 12  1  0
 12 13  1  0
 13 14  1  0
 14 15  1  0
 15 16  1  0
 16 17  1  0
 17 18  1  0
 18 19  1  0
 19 20  1  0
 20 21  1  0
 21 22  2  0
 22 23  1  0
 23 24  2  0
 24 25  1  0
 25 26  2  0
  5 27  2  0
 27 28  1  0
 28 29  2  0
 29 30  1  0
 29  3  1  0
 26 21  1  0
M  END
>  <supplier_code>  (787) 
DB00938

>  <zinc_id>  (787) 
ZINC000003785268

>  <catalog_short_name>  (787) 
dbfda

$$$$

     RDKit          3D

 30 31  0  0  0  0  0  0  0  0999 V2000
    8.1316   -0.5013   -1.3859 O   0  0  0  0  0  0  0  0  0  0  0  0
    7.4818   -1.6777   -0.9917 C   0  0  0  0  0  0  0  0  0  0  0  0
    6.6983   -1.3100    0.2291 C   0  0  0  0  0  0  0  0  0  0  0  0
    5.3836   -0.8684    0.1582 C   0  0  0  0  0  0  0  0  0  0  0  0
    5.0512    0.1580    1.0407 C   0  0  0  0  0  0  0  0  0  0  0  0
    3.4332    0.4985    0.9604 C   0  0  1  0  0  0  0  0  0  0  0  0
    3.6274    1.7720    1.8291 O   0  0  0  0  0  0  0  0  0  0  0  0
    3.6670    1.3792   -0.4606 C   0  0  0  0  0  0  0  0  0  0  0  0
    2.3214    1.6528   -0.9095 N   0  0  0  0  0  0  0  0  0  0  0  0
    1.8219    0.6096   -1.7918 C   0  0  0  0  0  0  0  0  0  0  0  0
    1.4906   -0.5730   -0.8921 C   0  0  0  0  0  0  0  0  0  0  0  0
    0.0594   -0.5363   -0.4271 C   0  0  0  0  0  0  0  0  0  0  0  0
   -0.3404    0.8364    0.0882 C   0  0  0  0  0  0  0  0  0  0  0  0
   -1.6110    0.6229    0.9014 C   0  0  0  0  0  0  0  0  0  0  0  0
   -2.3996   -0.4394    0.1446 C   0  0  0  0  0  0  0  0  0  0  0  0
   -2.4186   -0.0145   -1.1879 O   0  0  0  0  0  0  0  0  0  0  0  0
   -3.6266    0.6172   -1.4328 C   0  0  0  0  0  0  0  0  0  0  0  0
   -4.7483   -0.3705   -1.2712 C   0  0  0  0  0  0  0  0  0  0  0  0
   -5.7390   -0.2275   -2.4094 C   0  0  0  0  0  0  0  0  0  0  0  0
   -7.0271   -0.9268   -2.0002 C   0  0  0  0  0  0  0  0  0  0  0  0
   -7.5614   -0.2576   -0.8001 C   0  0  0  0  0  0  0  0  0  0  0  0
   -8.8737    0.1893   -0.8097 C   0  0  0  0  0  0  0  0  0  0  0  0
   -9.6627    0.1937    0.3257 C   0  0  0  0  0  0  0  0  0  0  0  0
   -9.0281    0.0089    1.5428 C   0  0  0  0  0  0  0  0  0  0  0  0
   -7.6625   -0.1716    1.5946 C   0  0  0  0  0  0  0  0  0  0  0  0
   -6.9760   -0.4634    0.4283 C   0  0  0  0  0  0  0  0  0  0  0  0
    5.4514   -0.0748    2.3546 C   0  0  0  0  0  0  0  0  0  0  0  0
    6.7552   -0.5453    2.4649 C   0  0  0  0  0  0  0  0  0  0  0  0
    7.4503   -1.0427    1.3679 C   0  0  0  0  0  0  0  0  0  0  0  0
    8.8507   -1.0361    1.3397 O   0  0  0  0  0  0  0  0  0  0  0  0
  1  2  1  0
  2  3  1  0
  3  4  2  0
  4  5  1  0
  6  5  1  1
  6  7  1  0
  6  8  1  0
  8  9  1  0
  9 10  1  0
 10 11  1  0
 11 12  1  0
 12 13  1  0
 13 14  1  0
 14 15  1  0
 15 16  1  0
 16 17  1  0
 17 18  1  0
 18 19  1  0
 19 20  1  0
 20 21  1  0
 21 22  2  0
 22 23  1  0
 23 24  2  0
 24 25  1  0
 25 26  2  0
  5 27  2  0
 27 28  1  0
 28 29  2  0
 29 30  1  0
 29  3  1  0
 26 21  1  0
M  END
>  <supplier_code>  (788) 
DB00938

>  <zinc_id>  (788) 
ZINC000003799072

>  <catalog_short_name>  (788) 
dbfda

$$$$

     RDKit          3D

 19 20  0  0  0  0  0  0  0  0999 V2000
    4.1516    1.5307   -1.2696 C   0  0  0  0  0  0  0  0  0  0  0  0
    3.3923    0.4637   -0.5457 C   0  0  0  0  0  0  0  0  0  0  0  0
    3.9511    0.0480    0.6570 C   0  0  0  0  0  0  0  0  0  0  0  0
    3.1664   -0.6692    1.5493 C   0  0  0  0  0  0  0  0  0  0  0  0
    1.8507   -0.9185    1.2036 C   0  0  0  0  0  0  0  0  0  0  0  0
    0.8772   -2.0018    2.1854 Cl  0  0  0  0  0  0  0  0  0  0  0  0
    1.1987   -0.2462    0.1861 C   0  0  0  0  0  0  0  0  0  0  0  0
   -0.1433    0.1441    0.3896 N   0  0  0  0  0  0  0  0  0  0  0  0
   -1.2278   -0.2146   -0.4399 C   0  0  0  0  0  0  0  0  0  0  0  0
   -1.2724   -1.4610   -1.0531 C   0  0  0  0  0  0  0  0  0  0  0  0
   -2.4766   -2.1050   -1.3110 C   0  0  0  0  0  0  0  0  0  0  0  0
   -3.5674   -1.2635   -1.4964 C   0  0  0  0  0  0  0  0  0  0  0  0
   -3.5197    0.0125   -0.9532 C   0  0  0  0  0  0  0  0  0  0  0  0
   -2.4325    0.4316   -0.1969 C   0  0  0  0  0  0  0  0  0  0  0  0
   -2.6171    1.3369    0.9419 C   0  0  0  0  0  0  0  0  0  0  0  0
   -2.6604    0.7777    2.0796 O   0  0  0  0  0  0  0  0  0  0  0  0
   -1.9742    2.5774    0.9160 O   0  0  0  0  0  0  0  0  0  0  0  0
    2.0283    0.3229   -0.7722 C   0  0  0  0  0  0  0  0  0  0  0  0
    1.2751    1.2342   -2.0705 Cl  0  0  0  0  0  0  0  0  0  0  0  0
  1  2  1  0
  2  3  2  0
  3  4  1  0
  4  5  2  0
  5  6  1  0
  5  7  1  0
  7  8  1  0
  8  9  1  0
  9 10  2  0
 10 11  1  0
 11 12  2  0
 12 13  1  0
 13 14  2  0
 14 15  1  0
 15 16  2  0
 15 17  1  0
  7 18  2  0
 18 19  1  0
 18  2  1  0
 14  9  1  0
M  END
>  <supplier_code>  (789) 
DB00939

>  <zinc_id>  (789) 
ZINC000000001655

>  <catalog_short_name>  (789) 
dbfda

$$$$

     RDKit          3D

 13 13  0  0  0  0  0  0  0  0999 V2000
    3.4958   -1.5501   -0.5424 C   0  0  0  0  0  0  0  0  0  0  0  0
    2.4551   -0.6191   -0.0139 C   0  0  0  0  0  0  0  0  0  0  0  0
    2.7850    0.3826    0.6794 O   0  0  0  0  0  0  0  0  0  0  0  0
    1.0912   -0.9068   -0.1204 O   0  0  0  0  0  0  0  0  0  0  0  0
    0.2182    0.1756   -0.1711 C   0  0  0  0  0  0  0  0  0  0  0  0
    0.6651    1.4908   -0.1242 C   0  0  0  0  0  0  0  0  0  0  0  0
   -0.2021    2.5100    0.2491 C   0  0  0  0  0  0  0  0  0  0  0  0
   -1.4952    2.3832   -0.2431 C   0  0  0  0  0  0  0  0  0  0  0  0
   -1.9915    1.0882   -0.3264 C   0  0  0  0  0  0  0  0  0  0  0  0
   -1.1564   -0.0181   -0.2225 C   0  0  0  0  0  0  0  0  0  0  0  0
   -1.7241   -1.3169    0.1395 C   0  0  0  0  0  0  0  0  0  0  0  0
   -2.1560   -2.0661   -0.7877 O   0  0  0  0  0  0  0  0  0  0  0  0
   -1.9851   -1.5534    1.4837 O   0  0  0  0  0  0  0  0  0  0  0  0
  1  2  1  0
  2  3  2  0
  2  4  1  0
  4  5  1  0
  5  6  2  0
  6  7  1  0
  7  8  2  0
  8  9  1  0
  9 10  2  0
 10 11  1  0
 11 12  2  0
 11 13  1  0
 10  5  1  0
M  END
>  <supplier_code>  (790) 
DB00945

>  <zinc_id>  (790) 
ZINC000000000053

>  <catalog_short_name>  (790) 
dbfda

$$$$

     RDKit          2D

 41 44  0  0  0  0  0  0  0  0999 V2000
    9.3011   -3.4901    0.0000 C   0  0  0  0  0  0  0  0  0  0  0  0
    8.0631   -2.6432    0.0000 C   0  0  0  0  0  0  0  0  0  0  0  0
    9.3403   -1.8567    0.0000 C   0  0  0  0  0  0  0  0  0  0  0  0
    9.2979   -0.3573    0.0000 C   0  0  0  0  0  0  0  0  0  0  0  0
    7.9781    0.3556    0.0000 C   0  0  0  0  0  0  0  0  0  0  0  0
    7.9356    1.8550    0.0000 C   0  0  0  0  0  0  0  0  0  0  0  0
    9.2129    2.6415    0.0000 C   0  0  0  0  0  0  0  0  0  0  0  0
    9.1704    4.1409    0.0000 C   0  0  0  0  0  0  0  0  0  0  0  0
    7.8506    4.8538    0.0000 C   0  0  0  0  0  0  0  0  0  0  0  0
    7.8081    6.3532    0.0000 O   0  0  0  0  0  0  0  0  0  0  0  0
    6.5733    4.0673    0.0000 C   0  0  0  0  0  0  0  0  0  0  0  0
    6.6158    2.5679    0.0000 C   0  0  0  0  0  0  0  0  0  0  0  0
    5.3386    1.7814    0.0000 C   0  0  0  0  0  0  0  0  0  0  0  0
    5.3811    0.2820    0.0000 C   0  0  0  0  0  0  0  0  0  0  0  0
    4.1038   -0.5045    0.0000 C   0  0  0  0  0  0  0  0  0  0  0  0
    2.7840    0.2084    0.0000 C   0  0  0  0  0  0  0  0  0  0  0  0
    1.5068   -0.5781    0.0000 C   0  0  0  0  0  0  0  0  0  0  0  0
    0.1870    0.1348    0.0000 C   0  0  0  0  0  0  0  0  0  0  0  0
   -1.0903   -0.6517    0.0000 C   0  0  0  0  0  0  0  0  0  0  0  0
   -2.4100    0.0612    0.0000 C   0  0  0  0  0  0  0  0  0  0  0  0
   -3.6873   -0.7253    0.0000 C   0  0  0  0  0  0  0  0  0  0  0  0
   -5.0071   -0.0124    0.0000 C   0  0  0  0  0  0  0  0  0  0  0  0
   -6.2843   -0.7989    0.0000 C   0  0  0  0  0  0  0  0  0  0  0  0
   -7.6041   -0.0860    0.0000 S   0  0  0  0  0  0  0  0  0  0  0  0
   -7.6466    1.4134    0.0000 O   0  0  0  0  0  0  0  0  0  0  0  0
   -8.8814   -0.8725    0.0000 C   0  0  0  0  0  0  0  0  0  0  0  0
  -10.2011   -0.1596    0.0000 C   0  0  0  0  0  0  0  0  0  0  0  0
  -11.4784   -0.9461    0.0000 C   0  0  0  0  0  0  0  0  0  0  0  0
  -12.7982   -0.2332    0.0000 C   0  0  0  0  0  0  0  0  0  0  0  0
  -13.5111   -1.5529    0.0000 F   0  0  0  0  0  0  0  0  0  0  0  0
  -12.0853    1.0866    0.0000 F   0  0  0  0  0  0  0  0  0  0  0  0
  -14.1179    0.4797    0.0000 C   0  0  0  0  0  0  0  0  0  0  0  0
  -15.4377    1.1926    0.0000 F   0  0  0  0  0  0  0  0  0  0  0  0
  -13.4050    1.7995    0.0000 F   0  0  0  0  0  0  0  0  0  0  0  0
  -14.8308   -0.8400    0.0000 F   0  0  0  0  0  0  0  0  0  0  0  0
    6.7008   -0.4309    0.0000 C   0  0  0  0  0  0  0  0  0  0  0  0
    6.7433   -1.9303    0.0000 C   0  0  0  0  0  0  0  0  0  0  0  0
    5.6575   -2.9651    0.0000 C   0  0  0  0  0  0  0  0  0  0  0  0
    6.3062   -4.3176    0.0000 C   0  0  0  0  0  0  0  0  0  0  0  0
    7.7929   -4.1186    0.0000 C   0  0  0  0  0  0  0  0  0  0  0  0
    8.8278   -5.2045    0.0000 O   0  0  0  0  0  0  0  0  0  0  0  0
  2  1  1  1
  2  3  1  0
  3  4  1  0
  5  4  1  1
  5  6  1  0
  6  7  2  0
  7  8  1  0
  8  9  2  0
  9 10  1  0
  9 11  1  0
 11 12  2  0
 12 13  1  0
 13 14  1  0
 14 15  1  6
 15 16  1  0
 16 17  1  0
 17 18  1  0
 18 19  1  0
 19 20  1  0
 20 21  1  0
 21 22  1  0
 22 23  1  0
 24 23  1  1
 24 25  2  0
 24 26  1  0
 26 27  1  0
 27 28  1  0
 28 29  1  0
 29 30  1  0
 29 31  1  0
 29 32  1  0
 32 33  1  0
 32 34  1  0
 32 35  1  0
 36 14  1  6
 36 37  1  0
 37 38  1  1
 38 39  1  0
 39 40  1  0
 40 41  1  1
 37  2  1  0
 40  2  1  0
 36  5  1  0
 12  6  1  0
M  END
>  <supplier_code>  (791) 
DB00947

>  <zinc_id>  (791) 
ZINC000003926298

>  <catalog_short_name>  (791) 
dbfda

$$$$

     RDKit          2D

 41 44  0  0  0  0  0  0  0  0999 V2000
    9.3011   -3.4901    0.0000 C   0  0  0  0  0  0  0  0  0  0  0  0
    8.0631   -2.6432    0.0000 C   0  0  0  0  0  0  0  0  0  0  0  0
    9.3403   -1.8567    0.0000 C   0  0  0  0  0  0  0  0  0  0  0  0
    9.2979   -0.3573    0.0000 C   0  0  0  0  0  0  0  0  0  0  0  0
    7.9781    0.3556    0.0000 C   0  0  0  0  0  0  0  0  0  0  0  0
    7.9356    1.8550    0.0000 C   0  0  0  0  0  0  0  0  0  0  0  0
    9.2129    2.6415    0.0000 C   0  0  0  0  0  0  0  0  0  0  0  0
    9.1704    4.1409    0.0000 C   0  0  0  0  0  0  0  0  0  0  0  0
    7.8506    4.8538    0.0000 C   0  0  0  0  0  0  0  0  0  0  0  0
    7.8081    6.3532    0.0000 O   0  0  0  0  0  0  0  0  0  0  0  0
    6.5733    4.0673    0.0000 C   0  0  0  0  0  0  0  0  0  0  0  0
    6.6158    2.5679    0.0000 C   0  0  0  0  0  0  0  0  0  0  0  0
    5.3386    1.7814    0.0000 C   0  0  0  0  0  0  0  0  0  0  0  0
    5.3811    0.2820    0.0000 C   0  0  0  0  0  0  0  0  0  0  0  0
    4.1038   -0.5045    0.0000 C   0  0  0  0  0  0  0  0  0  0  0  0
    2.7840    0.2084    0.0000 C   0  0  0  0  0  0  0  0  0  0  0  0
    1.5068   -0.5781    0.0000 C   0  0  0  0  0  0  0  0  0  0  0  0
    0.1870    0.1348    0.0000 C   0  0  0  0  0  0  0  0  0  0  0  0
   -1.0903   -0.6517    0.0000 C   0  0  0  0  0  0  0  0  0  0  0  0
   -2.4100    0.0612    0.0000 C   0  0  0  0  0  0  0  0  0  0  0  0
   -3.6873   -0.7253    0.0000 C   0  0  0  0  0  0  0  0  0  0  0  0
   -5.0071   -0.0124    0.0000 C   0  0  0  0  0  0  0  0  0  0  0  0
   -6.2843   -0.7989    0.0000 C   0  0  0  0  0  0  0  0  0  0  0  0
   -7.6041   -0.0860    0.0000 S   0  0  0  0  0  0  0  0  0  0  0  0
   -7.6466    1.4134    0.0000 O   0  0  0  0  0  0  0  0  0  0  0  0
   -8.8814   -0.8725    0.0000 C   0  0  0  0  0  0  0  0  0  0  0  0
  -10.2011   -0.1596    0.0000 C   0  0  0  0  0  0  0  0  0  0  0  0
  -11.4784   -0.9461    0.0000 C   0  0  0  0  0  0  0  0  0  0  0  0
  -12.7982   -0.2332    0.0000 C   0  0  0  0  0  0  0  0  0  0  0  0
  -13.5111   -1.5529    0.0000 F   0  0  0  0  0  0  0  0  0  0  0  0
  -12.0853    1.0866    0.0000 F   0  0  0  0  0  0  0  0  0  0  0  0
  -14.1179    0.4797    0.0000 C   0  0  0  0  0  0  0  0  0  0  0  0
  -15.4377    1.1926    0.0000 F   0  0  0  0  0  0  0  0  0  0  0  0
  -13.4050    1.7995    0.0000 F   0  0  0  0  0  0  0  0  0  0  0  0
  -14.8308   -0.8400    0.0000 F   0  0  0  0  0  0  0  0  0  0  0  0
    6.7008   -0.4309    0.0000 C   0  0  0  0  0  0  0  0  0  0  0  0
    6.7433   -1.9303    0.0000 C   0  0  0  0  0  0  0  0  0  0  0  0
    5.6575   -2.9651    0.0000 C   0  0  0  0  0  0  0  0  0  0  0  0
    6.3062   -4.3176    0.0000 C   0  0  0  0  0  0  0  0  0  0  0  0
    7.7929   -4.1186    0.0000 C   0  0  0  0  0  0  0  0  0  0  0  0
    8.8278   -5.2045    0.0000 O   0  0  0  0  0  0  0  0  0  0  0  0
  2  1  1  1
  2  3  1  0
  3  4  1  0
  5  4  1  1
  5  6  1  0
  6  7  2  0
  7  8  1  0
  8  9  2  0
  9 10  1  0
  9 11  1  0
 11 12  2  0
 12 13  1  0
 13 14  1  0
 14 15  1  6
 15 16  1  0
 16 17  1  0
 17 18  1  0
 18 19  1  0
 19 20  1  0
 20 21  1  0
 21 22  1  0
 22 23  1  0
 24 23  1  6
 24 25  2  0
 24 26  1  0
 26 27  1  0
 27 28  1  0
 28 29  1  0
 29 30  1  0
 29 31  1  0
 29 32  1  0
 32 33  1  0
 32 34  1  0
 32 35  1  0
 36 14  1  1
 36 37  1  0
 37 38  1  1
 38 39  1  0
 39 40  1  0
 40 41  1  1
 37  2  1  0
 40  2  1  0
 36  5  1  0
 12  6  1  0
M  END
>  <supplier_code>  (792) 
DB00947

>  <zinc_id>  (792) 
ZINC000003995807

>  <catalog_short_name>  (792) 
dbfda

$$$$

     RDKit          3D

 41 44  0  0  0  0  0  0  0  0999 V2000
   -7.4878    0.8536   -0.7671 C   0  0  0  0  0  0  0  0  0  0  0  0
   -6.4347    1.0098   -1.6106 C   0  0  2  0  0  0  0  0  0  0  0  0
   -5.9952    0.0370   -2.5747 C   0  0  0  0  0  0  0  0  0  0  0  0
   -5.8716   -1.1825   -1.6562 C   0  0  0  0  0  0  0  0  0  0  0  0
   -4.3807   -0.9602   -1.0340 C   0  0  2  0  0  0  0  0  0  0  0  0
   -4.4895   -2.1881   -0.0085 C   0  0  0  0  0  0  0  0  0  0  0  0
   -5.6864   -2.6226    0.4479 C   0  0  0  0  0  0  0  0  0  0  0  0
   -5.7072   -3.3769    1.6183 C   0  0  0  0  0  0  0  0  0  0  0  0
   -4.8224   -3.0447    2.6378 C   0  0  0  0  0  0  0  0  0  0  0  0
   -5.2178   -2.9958    3.9780 O   0  0  0  0  0  0  0  0  0  0  0  0
   -3.6217   -2.4652    2.2464 C   0  0  0  0  0  0  0  0  0  0  0  0
   -3.5811   -1.8612    0.9991 C   0  0  0  0  0  0  0  0  0  0  0  0
   -2.6305   -0.8282    0.7107 C   0  0  0  0  0  0  0  0  0  0  0  0
   -3.3520    0.6275    0.6227 C   0  0  1  0  0  0  0  0  0  0  0  0
   -2.7684    0.9199   -0.8715 C   0  0  0  0  0  0  0  0  0  0  0  0
   -1.4611    0.2864   -1.0723 C   0  0  0  0  0  0  0  0  0  0  0  0
   -0.2889    1.2565   -1.0046 C   0  0  0  0  0  0  0  0  0  0  0  0
    0.0879    1.5710    0.3997 C   0  0  0  0  0  0  0  0  0  0  0  0
    0.8771    0.6020    1.1462 C   0  0  0  0  0  0  0  0  0  0  0  0
    1.8789   -0.2317    0.4733 C   0  0  0  0  0  0  0  0  0  0  0  0
    2.1046    0.0181   -0.9797 C   0  0  0  0  0  0  0  0  0  0  0  0
    3.2321    1.0403   -1.0758 C   0  0  0  0  0  0  0  0  0  0  0  0
    4.4948    0.2206   -1.2008 C   0  0  0  0  0  0  0  0  0  0  0  0
    4.7024   -0.8449    0.2817 S   0  0  0  0  0  0  0  0  0  0  0  0
    4.1698   -2.1989   -0.2676 O   0  0  0  0  0  0  0  0  0  0  0  0
    6.5144   -1.1561    0.2656 C   0  0  0  0  0  0  0  0  0  0  0  0
    7.1199   -0.6956    1.5664 C   0  0  0  0  0  0  0  0  0  0  0  0
    8.2199    0.3033    1.4111 C   0  0  0  0  0  0  0  0  0  0  0  0
    8.9496    0.2146    0.0994 C   0  0  0  0  0  0  0  0  0  0  0  0
    9.4936   -1.0281   -0.0558 F   0  0  0  0  0  0  0  0  0  0  0  0
    8.1115    0.4447   -0.9790 F   0  0  0  0  0  0  0  0  0  0  0  0
    9.9835    1.3194    0.0377 C   0  0  0  0  0  0  0  0  0  0  0  0
    9.3306    2.5184   -0.2088 F   0  0  0  0  0  0  0  0  0  0  0  0
   10.7376    1.0590   -1.1001 F   0  0  0  0  0  0  0  0  0  0  0  0
   10.8000    1.3613    1.1317 F   0  0  0  0  0  0  0  0  0  0  0  0
   -4.8906    0.1256    0.1348 C   0  0  1  0  0  0  0  0  0  0  0  0
   -5.0651    1.4656   -0.8634 C   0  0  2  0  0  0  0  0  0  0  0  0
   -5.9722    2.3061    0.1866 C   0  0  0  0  0  0  0  0  0  0  0  0
   -6.8635    3.1230   -0.7444 C   0  0  0  0  0  0  0  0  0  0  0  0
   -6.3911    2.5396   -2.2174 C   0  0  2  0  0  0  0  0  0  0  0  0
   -7.8284    2.4574   -2.7201 O   0  0  0  0  0  0  0  0  0  0  0  0
  2  1  1  1
  2  3  1  0
  3  4  1  0
  5  4  1  6
  5  6  1  0
  6  7  2  0
  7  8  1  0
  8  9  2  0
  9 10  1  0
  9 11  1  0
 11 12  2  0
 12 13  1  0
 13 14  1  0
 14 15  1  6
 15 16  1  0
 16 17  1  0
 17 18  1  0
 18 19  1  0
 19 20  1  0
 20 21  1  0
 21 22  1  0
 22 23  1  0
 24 23  1  6
 24 25  2  0
 24 26  1  0
 26 27  1  0
 27 28  1  0
 28 29  1  0
 29 30  1  0
 29 31  1  0
 29 32  1  0
 32 33  1  0
 32 34  1  0
 32 35  1  0
 36 14  1  1
 36 37  1  0
 37 38  1  1
 38 39  1  0
 39 40  1  0
 40 41  1  6
 37  2  1  0
 40  2  1  0
 36  5  1  0
 12  6  1  0
M  END
>  <supplier_code>  (793) 
DB00947

>  <zinc_id>  (793) 
ZINC000003995809

>  <catalog_short_name>  (793) 
dbfda

$$$$

     RDKit          2D

 41 44  0  0  0  0  0  0  0  0999 V2000
    9.3011   -3.4901    0.0000 C   0  0  0  0  0  0  0  0  0  0  0  0
    8.0631   -2.6432    0.0000 C   0  0  0  0  0  0  0  0  0  0  0  0
    9.3403   -1.8567    0.0000 C   0  0  0  0  0  0  0  0  0  0  0  0
    9.2979   -0.3573    0.0000 C   0  0  0  0  0  0  0  0  0  0  0  0
    7.9781    0.3556    0.0000 C   0  0  0  0  0  0  0  0  0  0  0  0
    7.9356    1.8550    0.0000 C   0  0  0  0  0  0  0  0  0  0  0  0
    9.2129    2.6415    0.0000 C   0  0  0  0  0  0  0  0  0  0  0  0
    9.1704    4.1409    0.0000 C   0  0  0  0  0  0  0  0  0  0  0  0
    7.8506    4.8538    0.0000 C   0  0  0  0  0  0  0  0  0  0  0  0
    7.8081    6.3532    0.0000 O   0  0  0  0  0  0  0  0  0  0  0  0
    6.5733    4.0673    0.0000 C   0  0  0  0  0  0  0  0  0  0  0  0
    6.6158    2.5679    0.0000 C   0  0  0  0  0  0  0  0  0  0  0  0
    5.3386    1.7814    0.0000 C   0  0  0  0  0  0  0  0  0  0  0  0
    5.3811    0.2820    0.0000 C   0  0  0  0  0  0  0  0  0  0  0  0
    4.1038   -0.5045    0.0000 C   0  0  0  0  0  0  0  0  0  0  0  0
    2.7840    0.2084    0.0000 C   0  0  0  0  0  0  0  0  0  0  0  0
    1.5068   -0.5781    0.0000 C   0  0  0  0  0  0  0  0  0  0  0  0
    0.1870    0.1348    0.0000 C   0  0  0  0  0  0  0  0  0  0  0  0
   -1.0903   -0.6517    0.0000 C   0  0  0  0  0  0  0  0  0  0  0  0
   -2.4100    0.0612    0.0000 C   0  0  0  0  0  0  0  0  0  0  0  0
   -3.6873   -0.7253    0.0000 C   0  0  0  0  0  0  0  0  0  0  0  0
   -5.0071   -0.0124    0.0000 C   0  0  0  0  0  0  0  0  0  0  0  0
   -6.2843   -0.7989    0.0000 C   0  0  0  0  0  0  0  0  0  0  0  0
   -7.6041   -0.0860    0.0000 S   0  0  0  0  0  0  0  0  0  0  0  0
   -7.6466    1.4134    0.0000 O   0  0  0  0  0  0  0  0  0  0  0  0
   -8.8814   -0.8725    0.0000 C   0  0  0  0  0  0  0  0  0  0  0  0
  -10.2011   -0.1596    0.0000 C   0  0  0  0  0  0  0  0  0  0  0  0
  -11.4784   -0.9461    0.0000 C   0  0  0  0  0  0  0  0  0  0  0  0
  -12.7982   -0.2332    0.0000 C   0  0  0  0  0  0  0  0  0  0  0  0
  -13.5111   -1.5529    0.0000 F   0  0  0  0  0  0  0  0  0  0  0  0
  -12.0853    1.0866    0.0000 F   0  0  0  0  0  0  0  0  0  0  0  0
  -14.1179    0.4797    0.0000 C   0  0  0  0  0  0  0  0  0  0  0  0
  -15.4377    1.1926    0.0000 F   0  0  0  0  0  0  0  0  0  0  0  0
  -13.4050    1.7995    0.0000 F   0  0  0  0  0  0  0  0  0  0  0  0
  -14.8308   -0.8400    0.0000 F   0  0  0  0  0  0  0  0  0  0  0  0
    6.7008   -0.4309    0.0000 C   0  0  0  0  0  0  0  0  0  0  0  0
    6.7433   -1.9303    0.0000 C   0  0  0  0  0  0  0  0  0  0  0  0
    5.6575   -2.9651    0.0000 C   0  0  0  0  0  0  0  0  0  0  0  0
    6.3062   -4.3176    0.0000 C   0  0  0  0  0  0  0  0  0  0  0  0
    7.7929   -4.1186    0.0000 C   0  0  0  0  0  0  0  0  0  0  0  0
    8.8278   -5.2045    0.0000 O   0  0  0  0  0  0  0  0  0  0  0  0
  2  1  1  1
  2  3  1  0
  3  4  1  0
  5  4  1  1
  5  6  1  0
  6  7  2  0
  7  8  1  0
  8  9  2  0
  9 10  1  0
  9 11  1  0
 11 12  2  0
 12 13  1  0
 13 14  1  0
 14 15  1  6
 15 16  1  0
 16 17  1  0
 17 18  1  0
 18 19  1  0
 19 20  1  0
 20 21  1  0
 21 22  1  0
 22 23  1  0
 24 23  1  1
 24 25  2  0
 24 26  1  0
 26 27  1  0
 27 28  1  0
 28 29  1  0
 29 30  1  0
 29 31  1  0
 29 32  1  0
 32 33  1  0
 32 34  1  0
 32 35  1  0
 36 14  1  1
 36 37  1  0
 37 38  1  1
 38 39  1  0
 39 40  1  0
 40 41  1  1
 37  2  1  0
 40  2  1  0
 36  5  1  0
 12  6  1  0
M  END
>  <supplier_code>  (794) 
DB00947

>  <zinc_id>  (794) 
ZINC000003995811

>  <catalog_short_name>  (794) 
dbfda

$$$$

     RDKit          3D

 17 17  0  0  0  0  0  0  0  0999 V2000
    1.4717    4.3365    0.1748 N   0  0  0  0  0  0  0  0  0  0  0  0
    0.4860    3.3702   -0.2094 C   0  0  0  0  0  0  0  0  0  0  0  0
   -0.1958    3.5541   -1.2616 O   0  0  0  0  0  0  0  0  0  0  0  0
    0.4013    2.1216    0.4059 O   0  0  0  0  0  0  0  0  0  0  0  0
    0.1881    0.9742   -0.4151 C   0  0  0  0  0  0  0  0  0  0  0  0
   -0.1378   -0.1676    0.4969 C   0  0  0  0  0  0  0  0  0  0  0  0
    0.9473   -1.2164    0.4842 C   0  0  0  0  0  0  0  0  0  0  0  0
    2.2480   -0.6477    0.5529 O   0  0  0  0  0  0  0  0  0  0  0  0
    3.3427   -1.3938    0.1089 C   0  0  0  0  0  0  0  0  0  0  0  0
    4.5464   -0.7850   -0.3399 N   0  0  0  0  0  0  0  0  0  0  0  0
    3.1074   -2.5507   -0.3395 O   0  0  0  0  0  0  0  0  0  0  0  0
   -1.3983   -0.8348    0.1101 C   0  0  0  0  0  0  0  0  0  0  0  0
   -2.4321   -0.2100   -0.5567 C   0  0  0  0  0  0  0  0  0  0  0  0
   -3.7453   -0.5944   -0.3277 C   0  0  0  0  0  0  0  0  0  0  0  0
   -4.0709   -1.5320    0.6445 C   0  0  0  0  0  0  0  0  0  0  0  0
   -3.0331   -2.3650    1.0453 C   0  0  0  0  0  0  0  0  0  0  0  0
   -1.7257   -2.0592    0.6834 C   0  0  0  0  0  0  0  0  0  0  0  0
  1  2  1  0
  2  3  2  0
  2  4  1  0
  4  5  1  0
  5  6  1  0
  6  7  1  0
  7  8  1  0
  8  9  1  0
  9 10  1  0
  9 11  2  0
  6 12  1  0
 12 13  2  0
 13 14  1  0
 14 15  2  0
 15 16  1  0
 16 17  2  0
 17 12  1  0
M  END
>  <supplier_code>  (795) 
DB00949

>  <zinc_id>  (795) 
ZINC000001530803

>  <catalog_short_name>  (795) 
dbfda

$$$$

     RDKit          3D

 37 40  0  0  0  0  0  0  0  0999 V2000
    7.3522    1.4820   -0.7457 C   0  0  0  0  0  0  0  0  0  0  0  0
    7.1656    1.4365    0.0582 C   0  0  0  0  0  0  0  0  0  0  0  0
    6.7575    2.8016    0.6068 C   0  0  0  0  0  0  0  0  0  0  0  0
    8.3863    0.9845    0.7976 C   0  0  0  0  0  0  0  0  0  0  0  0
    9.1675    1.8980    1.1927 O   0  0  0  0  0  0  0  0  0  0  0  0
    9.0042   -0.1574    0.2746 O   0  0  0  0  0  0  0  0  0  0  0  0
    6.0227    0.5086    0.3407 C   0  0  0  0  0  0  0  0  0  0  0  0
    4.7537    0.8713   -0.0547 C   0  0  0  0  0  0  0  0  0  0  0  0
    3.9585   -0.0882   -0.6541 C   0  0  0  0  0  0  0  0  0  0  0  0
    3.9807   -1.3816   -0.1632 C   0  0  0  0  0  0  0  0  0  0  0  0
    3.4859   -2.4857   -1.2486 C   0  0  1  0  0  0  0  0  0  0  0  0
    2.8431   -3.3453   -0.1678 O   0  0  0  0  0  0  0  0  0  0  0  0
    2.0673   -1.6920   -1.5581 C   0  0  0  0  0  0  0  0  0  0  0  0
    1.5498   -1.2877   -0.2256 C   0  0  0  0  0  0  0  0  0  0  0  0
    0.2003   -0.7954   -0.1158 C   0  0  0  0  0  0  0  0  0  0  0  0
   -0.7962   -1.8497   -0.1886 N   0  0  0  0  0  0  0  0  0  0  0  0
   -1.5853   -1.5133   -1.3726 C   0  0  0  0  0  0  0  0  0  0  0  0
   -1.9174   -0.0295   -1.3834 C   0  0  0  0  0  0  0  0  0  0  0  0
   -2.6033    0.2902   -0.0825 C   0  0  0  0  0  0  0  0  0  0  0  0
   -3.9418    0.9234   -0.3920 C   0  0  0  0  0  0  0  0  0  0  0  0
   -3.6795    2.0221   -1.2144 O   0  0  0  0  0  0  0  0  0  0  0  0
   -4.5768    1.4404    0.8366 C   0  0  0  0  0  0  0  0  0  0  0  0
   -5.0484    0.5018    1.7432 C   0  0  0  0  0  0  0  0  0  0  0  0
   -5.8608    0.8811    2.8008 C   0  0  0  0  0  0  0  0  0  0  0  0
   -6.5021    2.1047    2.7159 C   0  0  0  0  0  0  0  0  0  0  0  0
   -5.9878    3.0478    1.8628 C   0  0  0  0  0  0  0  0  0  0  0  0
   -4.9372    2.7621    1.0117 C   0  0  0  0  0  0  0  0  0  0  0  0
   -4.8367   -0.0114   -1.1416 C   0  0  0  0  0  0  0  0  0  0  0  0
   -5.1415   -1.2679   -0.6570 C   0  0  0  0  0  0  0  0  0  0  0  0
   -6.3635   -1.8672   -0.8102 C   0  0  0  0  0  0  0  0  0  0  0  0
   -7.2585   -1.3053   -1.6811 C   0  0  0  0  0  0  0  0  0  0  0  0
   -6.9044   -0.1512   -2.3683 C   0  0  0  0  0  0  0  0  0  0  0  0
   -5.7020    0.4920   -2.1046 C   0  0  0  0  0  0  0  0  0  0  0  0
   -2.8400   -0.9225    0.7730 C   0  0  0  0  0  0  0  0  0  0  0  0
   -1.5919   -1.7187    1.0297 C   0  0  0  0  0  0  0  0  0  0  0  0
    5.1752   -1.7479    0.4525 C   0  0  0  0  0  0  0  0  0  0  0  0
    6.2046   -0.8301    0.6338 C   0  0  0  0  0  0  0  0  0  0  0  0
  1  2  1  0
  2  3  1  0
  2  4  1  0
  4  5  2  0
  4  6  1  0
  2  7  1  0
  7  8  2  0
  8  9  1  0
  9 10  2  0
 11 10  1  1
 11 12  1  0
 11 13  1  0
 13 14  1  0
 14 15  1  0
 15 16  1  0
 16 17  1  0
 17 18  1  0
 18 19  1  0
 19 20  1  0
 20 21  1  0
 20 22  1  0
 22 23  2  0
 23 24  1  0
 24 25  2  0
 25 26  1  0
 26 27  2  0
 20 28  1  0
 28 29  2  0
 29 30  1  0
 30 31  2  0
 31 32  1  0
 32 33  2  0
 19 34  1  0
 34 35  1  0
 10 36  1  0
 36 37  2  0
 37  7  1  0
 35 16  1  0
 27 22  1  0
 33 28  1  0
M  END
>  <supplier_code>  (796) 
DB00950

>  <zinc_id>  (796) 
ZINC000003824921

>  <catalog_short_name>  (796) 
dbfda

$$$$

     RDKit          3D

 37 40  0  0  0  0  0  0  0  0999 V2000
    7.6665   -0.2430    1.3219 C   0  0  0  0  0  0  0  0  0  0  0  0
    7.6642   -0.2435    1.3078 C   0  0  0  0  0  0  0  0  0  0  0  0
    8.1413    0.3482    2.5956 C   0  0  0  0  0  0  0  0  0  0  0  0
    8.6081   -0.1189    0.1694 C   0  0  0  0  0  0  0  0  0  0  0  0
    8.1514   -0.0481   -1.0129 O   0  0  0  0  0  0  0  0  0  0  0  0
    9.9149    0.1684    0.4656 O   0  0  0  0  0  0  0  0  0  0  0  0
    6.2895    0.1329    0.9091 C   0  0  0  0  0  0  0  0  0  0  0  0
    6.1598    1.1740    0.0071 C   0  0  0  0  0  0  0  0  0  0  0  0
    4.9513    1.1983   -0.6682 C   0  0  0  0  0  0  0  0  0  0  0  0
    3.7917    1.0607    0.0963 C   0  0  0  0  0  0  0  0  0  0  0  0
    2.5020    0.5565   -0.7564 C   0  0  2  0  0  0  0  0  0  0  0  0
    2.6657    1.6729   -1.7826 O   0  0  0  0  0  0  0  0  0  0  0  0
    1.4800    1.4896    0.1503 C   0  0  0  0  0  0  0  0  0  0  0  0
    1.1173    0.6137    1.3330 C   0  0  0  0  0  0  0  0  0  0  0  0
    0.6464   -0.7134    0.7502 C   0  0  0  0  0  0  0  0  0  0  0  0
   -0.7167   -0.5613    0.2909 N   0  0  0  0  0  0  0  0  0  0  0  0
   -0.7705    0.2239   -0.9346 C   0  0  0  0  0  0  0  0  0  0  0  0
   -2.2271    0.6434   -1.0668 C   0  0  0  0  0  0  0  0  0  0  0  0
   -3.0176   -0.5815   -1.3501 C   0  0  0  0  0  0  0  0  0  0  0  0
   -4.4990   -0.3990   -1.3451 C   0  0  0  0  0  0  0  0  0  0  0  0
   -4.9921   -0.8172   -2.5862 O   0  0  0  0  0  0  0  0  0  0  0  0
   -4.9099    1.0125   -1.0734 C   0  0  0  0  0  0  0  0  0  0  0  0
   -5.3537    1.8428   -2.0748 C   0  0  0  0  0  0  0  0  0  0  0  0
   -6.2108    2.8897   -1.7659 C   0  0  0  0  0  0  0  0  0  0  0  0
   -6.5869    3.1262   -0.4696 C   0  0  0  0  0  0  0  0  0  0  0  0
   -5.7884    2.6017    0.5307 C   0  0  0  0  0  0  0  0  0  0  0  0
   -5.0439    1.4731    0.2269 C   0  0  0  0  0  0  0  0  0  0  0  0
   -5.1117   -1.2466   -0.3042 C   0  0  0  0  0  0  0  0  0  0  0  0
   -6.4369   -1.5741   -0.4481 C   0  0  0  0  0  0  0  0  0  0  0  0
   -7.1128   -2.0936    0.6264 C   0  0  0  0  0  0  0  0  0  0  0  0
   -6.4717   -2.2982    1.8247 C   0  0  0  0  0  0  0  0  0  0  0  0
   -5.1146   -2.0160    1.9153 C   0  0  0  0  0  0  0  0  0  0  0  0
   -4.5793   -1.1859    0.9639 C   0  0  0  0  0  0  0  0  0  0  0  0
   -2.5138   -1.8529   -0.8104 C   0  0  0  0  0  0  0  0  0  0  0  0
   -1.4152   -1.8027    0.1786 C   0  0  0  0  0  0  0  0  0  0  0  0
    3.9409    0.1741    1.1610 C   0  0  0  0  0  0  0  0  0  0  0  0
    5.1815   -0.2179    1.6245 C   0  0  0  0  0  0  0  0  0  0  0  0
  1  2  1  0
  2  3  1  0
  2  4  1  0
  4  5  2  0
  4  6  1  0
  2  7  1  0
  7  8  2  0
  8  9  1  0
  9 10  2  0
 11 10  1  1
 11 12  1  0
 11 13  1  0
 13 14  1  0
 14 15  1  0
 15 16  1  0
 16 17  1  0
 17 18  1  0
 18 19  1  0
 19 20  1  0
 20 21  1  0
 20 22  1  0
 22 23  2  0
 23 24  1  0
 24 25  2  0
 25 26  1  0
 26 27  2  0
 20 28  1  0
 28 29  2  0
 29 30  1  0
 30 31  2  0
 31 32  1  0
 32 33  2  0
 19 34  1  0
 34 35  1  0
 10 36  1  0
 36 37  2  0
 37  7  1  0
 35 16  1  0
 27 22  1  0
 33 28  1  0
M  END
>  <supplier_code>  (797) 
DB00950

>  <zinc_id>  (797) 
ZINC000003872566

>  <catalog_short_name>  (797) 
dbfda

$$$$

     RDKit          3D

 10 10  0  0  0  0  0  0  0  0999 V2000
    3.2280    0.8114   -0.6395 N   0  0  0  0  0  0  0  0  0  0  0  0
    2.1248   -0.0369   -0.8637 N   0  0  0  0  0  0  0  0  0  0  0  0
    1.3240   -0.5395    0.2125 C   0  0  0  0  0  0  0  0  0  0  0  0
    1.8932   -0.5280    1.3391 O   0  0  0  0  0  0  0  0  0  0  0  0
   -0.1336   -0.3556    0.2428 C   0  0  0  0  0  0  0  0  0  0  0  0
   -0.6892    0.7555    0.8499 C   0  0  0  0  0  0  0  0  0  0  0  0
   -1.8426    1.3322    0.3295 C   0  0  0  0  0  0  0  0  0  0  0  0
   -2.5735    0.5330   -0.4850 N   0  0  0  0  0  0  0  0  0  0  0  0
   -2.3350   -0.8013   -0.5121 C   0  0  0  0  0  0  0  0  0  0  0  0
   -0.9961   -1.1707   -0.4734 C   0  0  0  0  0  0  0  0  0  0  0  0
  1  2  1  0
  2  3  1  0
  3  4  2  0
  3  5  1  0
  5  6  2  0
  6  7  1  0
  7  8  2  0
  8  9  1  0
  9 10  2  0
 10  5  1  0
M  END
>  <supplier_code>  (798) 
DB00951

>  <zinc_id>  (798) 
ZINC000000001590

>  <catalog_short_name>  (798) 
dbfda

$$$$

     RDKit          3D

 23 25  0  0  0  0  0  0  0  0999 V2000
   -3.9279    3.3630   -0.1617 C   0  0  0  0  0  0  0  0  0  0  0  0
   -4.7373    2.3064   -0.7240 N   0  0  0  0  0  0  0  0  0  0  0  0
   -4.8115    0.9190    0.3130 S   0  0  0  0  0  0  0  0  0  0  0  0
   -5.4594   -0.1747   -0.5021 O   0  0  0  0  0  0  0  0  0  0  0  0
   -5.6844    1.2527    1.4849 O   0  0  0  0  0  0  0  0  0  0  0  0
   -3.2128    0.3522    0.7898 C   0  0  0  0  0  0  0  0  0  0  0  0
   -3.0770   -1.1458    0.7600 C   0  0  0  0  0  0  0  0  0  0  0  0
   -1.7145   -1.4662    0.2329 C   0  0  0  0  0  0  0  0  0  0  0  0
   -1.4332   -2.7580   -0.1924 C   0  0  0  0  0  0  0  0  0  0  0  0
   -0.3364   -2.9859   -1.0081 C   0  0  0  0  0  0  0  0  0  0  0  0
    0.6053   -1.9904   -1.1112 C   0  0  0  0  0  0  0  0  0  0  0  0
    1.6427   -1.8003   -1.9636 N   0  0  0  0  0  0  0  0  0  0  0  0
    2.3314   -0.7306   -1.5344 C   0  0  0  0  0  0  0  0  0  0  0  0
    1.7653   -0.2946   -0.3440 C   0  0  0  0  0  0  0  0  0  0  0  0
    2.2411    0.8430    0.4694 C   0  0  0  0  0  0  0  0  0  0  0  0
    3.1377    1.7025   -0.3874 C   0  0  0  0  0  0  0  0  0  0  0  0
    4.3831    2.1131    0.3423 C   0  0  0  0  0  0  0  0  0  0  0  0
    5.1345    1.0154    0.8787 N   0  0  0  0  0  0  0  0  0  0  0  0
    6.0777    0.4472   -0.0505 C   0  0  0  0  0  0  0  0  0  0  0  0
    4.3505    0.0406    1.5805 C   0  0  0  0  0  0  0  0  0  0  0  0
    2.9092    0.4114    1.7512 C   0  0  0  0  0  0  0  0  0  0  0  0
    0.5117   -0.8920   -0.2914 C   0  0  0  0  0  0  0  0  0  0  0  0
   -0.6958   -0.5278    0.2788 C   0  0  0  0  0  0  0  0  0  0  0  0
  1  2  1  0
  2  3  1  0
  3  4  2  0
  3  5  2  0
  3  6  1  0
  6  7  1  0
  7  8  1  0
  8  9  2  0
  9 10  1  0
 10 11  2  0
 11 12  1  0
 12 13  1  0
 13 14  2  0
 14 15  1  0
 15 16  1  0
 16 17  1  0
 17 18  1  0
 18 19  1  0
 18 20  1  0
 20 21  1  0
 14 22  1  0
 22 23  2  0
 23  8  1  0
 22 11  1  0
 21 15  1  0
M  END
>  <supplier_code>  (799) 
DB00952

>  <zinc_id>  (799) 
ZINC000000004076

>  <catalog_short_name>  (799) 
dbfda

$$$$

     RDKit          3D

 20 22  0  0  0  0  0  0  0  0999 V2000
    6.5456    0.3014   -0.6365 C   0  0  0  0  0  0  0  0  0  0  0  0
    5.1982    0.4223   -0.1381 N   0  0  0  0  0  0  0  0  0  0  0  0
    4.6689    1.7526   -0.2499 C   0  0  0  0  0  0  0  0  0  0  0  0
    4.3144   -0.6076   -0.6081 C   0  0  0  0  0  0  0  0  0  0  0  0
    2.9395   -0.1253   -0.9619 C   0  0  0  0  0  0  0  0  0  0  0  0
    2.0892   -0.0893    0.2427 C   0  0  0  0  0  0  0  0  0  0  0  0
    2.4184    0.1720    1.5636 C   0  0  0  0  0  0  0  0  0  0  0  0
    1.3050    0.2526    2.2970 N   0  0  0  0  0  0  0  0  0  0  0  0
    0.2639    0.2549    1.4323 C   0  0  0  0  0  0  0  0  0  0  0  0
   -1.0638    0.6318    1.5778 C   0  0  0  0  0  0  0  0  0  0  0  0
   -1.9005    0.3428    0.5108 C   0  0  0  0  0  0  0  0  0  0  0  0
   -1.5354   -0.6553   -0.3837 C   0  0  0  0  0  0  0  0  0  0  0  0
   -2.5929   -1.4414   -1.0876 C   0  0  0  0  0  0  0  0  0  0  0  0
   -3.8675   -0.8027   -0.8664 N   0  0  0  0  0  0  0  0  0  0  0  0
   -4.3496    0.2077   -1.6255 C   0  0  0  0  0  0  0  0  0  0  0  0
   -5.1565    0.9909   -0.8728 N   0  0  0  0  0  0  0  0  0  0  0  0
   -5.3180    0.3558    0.3123 C   0  0  0  0  0  0  0  0  0  0  0  0
   -4.5069   -0.7300    0.2987 N   0  0  0  0  0  0  0  0  0  0  0  0
   -0.1860   -0.8574   -0.6284 C   0  0  0  0  0  0  0  0  0  0  0  0
    0.7340   -0.3758    0.2874 C   0  0  0  0  0  0  0  0  0  0  0  0
  1  2  1  0
  2  3  1  0
  2  4  1  0
  4  5  1  0
  5  6  1  0
  6  7  2  0
  7  8  1  0
  8  9  1  0
  9 10  2  0
 10 11  1  0
 11 12  2  0
 12 13  1  0
 13 14  1  0
 14 15  1  0
 15 16  2  0
 16 17  1  0
 17 18  2  0
 12 19  1  0
 19 20  2  0
 20  6  1  0
 20  9  1  0
 18 14  1  0
M  END
>  <supplier_code>  (800) 
DB00953

>  <zinc_id>  (800) 
ZINC000000005895

>  <catalog_short_name>  (800) 
dbfda

$$$$

     RDKit          3D

 22 26  0  0  0  0  0  0  0  0999 V2000
    4.8454    0.1083    0.3960 C   0  0  0  0  0  0  0  0  0  0  0  0
    3.8306    0.7239    0.6726 O   0  0  0  0  0  0  0  0  0  0  0  0
    2.5838    1.0711    0.3677 C   0  0  0  0  0  0  0  0  0  0  0  0
    2.1701    2.4058    0.3100 C   0  0  0  0  0  0  0  0  0  0  0  0
    0.8060    2.7157    0.3048 C   0  0  0  0  0  0  0  0  0  0  0  0
   -0.1128    1.6726    0.3904 C   0  0  0  0  0  0  0  0  0  0  0  0
    0.4128    0.4984   -0.1447 C   0  0  0  0  0  0  0  0  0  0  0  0
    1.6923    0.0734   -0.0167 C   0  0  0  0  0  0  0  0  0  0  0  0
    1.5646   -1.2821    0.0897 O   0  0  0  0  0  0  0  0  0  0  0  0
    0.4969   -1.6907   -0.9563 C   0  0  1  0  0  0  0  0  0  0  0  0
   -0.2428   -2.6970    0.0853 C   0  0  0  0  0  0  0  0  0  0  0  0
    0.3019   -3.7804   -0.1374 O   0  0  0  0  0  0  0  0  0  0  0  0
   -0.3702   -2.2888    1.4809 C   0  0  0  0  0  0  0  0  0  0  0  0
   -0.8328   -0.8326    1.5317 C   0  0  0  0  0  0  0  0  0  0  0  0
   -1.6805   -0.8478    0.1398 C   0  0  1  0  0  0  0  0  0  0  0  0
   -2.4121    0.6575    0.4573 C   0  0  1  0  0  0  0  0  0  0  0  0
   -1.4509    1.7325   -0.2816 C   0  0  0  0  0  0  0  0  0  0  0  0
   -3.2794    0.4877   -0.8414 N   0  0  0  0  0  0  0  0  0  0  0  0
   -4.1797    1.5923   -0.8941 C   0  0  0  0  0  0  0  0  0  0  0  0
   -2.5547    0.1707   -1.9467 C   0  0  0  0  0  0  0  0  0  0  0  0
   -1.1346   -0.1093   -2.0423 C   0  0  0  0  0  0  0  0  0  0  0  0
   -0.4538   -0.3812   -0.7577 C   0  0  1  0  0  0  0  0  0  0  0  0
  1  2  1  0
  2  3  1  0
  3  4  2  0
  4  5  1  0
  5  6  2  0
  6  7  1  0
  7  8  2  0
  8  9  1  0
 10  9  1  1
 10 11  1  0
 11 12  2  0
 11 13  1  0
 13 14  1  0
 15 14  1  1
 15 16  1  0
 16 17  1  6
 16 18  1  0
 18 19  1  0
 18 20  1  0
 20 21  1  0
 22 21  1  6
  8  3  1  0
 22 10  1  0
 17  6  1  0
 22  7  1  0
 22 15  1  0
M  END
>  <supplier_code>  (801) 
DB00956

>  <zinc_id>  (801) 
ZINC000001280665

>  <catalog_short_name>  (801) 
dbfda

$$$$

     RDKit          3D

 27 30  0  0  0  0  0  0  0  0999 V2000
   -3.8010   -2.8275   -1.6632 C   0  0  0  0  0  0  0  0  0  0  0  0
   -3.3487   -1.8314   -1.2315 C   0  0  0  0  0  0  0  0  0  0  0  0
   -3.0184   -0.6911   -0.3972 C   0  0  2  0  0  0  0  0  0  0  0  0
   -3.9691   -0.5003    0.6560 O   0  0  0  0  0  0  0  0  0  0  0  0
   -5.0286    0.3909    0.5698 C   0  0  0  0  0  0  0  0  0  0  0  0
   -5.5846    1.1091    1.7627 C   0  0  0  0  0  0  0  0  0  0  0  0
   -5.3155    0.7995   -0.5969 O   0  0  0  0  0  0  0  0  0  0  0  0
   -3.1248    0.6167   -1.1892 C   0  0  0  0  0  0  0  0  0  0  0  0
   -2.1128    1.4591   -0.3931 C   0  0  0  0  0  0  0  0  0  0  0  0
   -0.9602    0.4088   -0.8664 C   0  0  1  0  0  0  0  0  0  0  0  0
    0.2034    0.8523    0.2821 C   0  0  2  0  0  0  0  0  0  0  0  0
    0.7379    2.0602   -0.6323 C   0  0  0  0  0  0  0  0  0  0  0  0
    2.1239    1.8769   -1.0443 C   0  0  0  0  0  0  0  0  0  0  0  0
    3.0327    1.1978   -0.1324 C   0  0  0  0  0  0  0  0  0  0  0  0
    4.2648    1.5634    0.1262 C   0  0  0  0  0  0  0  0  0  0  0  0
    5.2880    0.5208    0.2397 C   0  0  0  0  0  0  0  0  0  0  0  0
    6.5325    0.7685    0.3316 N   0  0  0  0  0  0  0  0  0  0  0  0
    7.4098   -0.0283    1.0351 O   0  0  0  0  0  0  0  0  0  0  0  0
    4.8024   -0.7802    0.7960 C   0  0  0  0  0  0  0  0  0  0  0  0
    3.4428   -1.0857    0.1800 C   0  0  0  0  0  0  0  0  0  0  0  0
    2.4287    0.0390    0.7940 C   0  0  2  0  0  0  0  0  0  0  0  0
    1.2326   -0.3154   -0.3527 C   0  0  1  0  0  0  0  0  0  0  0  0
    0.5809   -1.4879    0.5383 C   0  0  0  0  0  0  0  0  0  0  0  0
   -0.7503   -1.8558   -0.1270 C   0  0  0  0  0  0  0  0  0  0  0  0
   -1.6260   -0.7086    0.1076 C   0  0  2  0  0  0  0  0  0  0  0  0
   -1.6595   -0.1634    1.5002 C   0  0  0  0  0  0  0  0  0  0  0  0
   -1.7811   -1.3874    2.4018 C   0  0  0  0  0  0  0  0  0  0  0  0
  1  2  3  0
  3  2  1  6
  3  4  1  0
  4  5  1  0
  5  6  1  0
  5  7  2  0
  3  8  1  0
  8  9  1  0
 10  9  1  1
 10 11  1  0
 11 12  1  6
 12 13  1  0
 13 14  1  0
 14 15  2  0
 15 16  1  0
 16 17  2  0
 17 18  1  0
 16 19  1  0
 19 20  1  0
 21 20  1  6
 21 22  1  0
 22 23  1  1
 23 24  1  0
 24 25  1  0
 25 26  1  1
 26 27  1  0
 25  3  1  0
 25 10  1  0
 22 11  1  0
 21 14  1  0
M  END
>  <supplier_code>  (802) 
DB00957

>  <zinc_id>  (802) 
ZINC000003938695

>  <catalog_short_name>  (802) 
dbfda

$$$$

     RDKit          3D

 27 30  0  0  0  0  0  0  0  0999 V2000
   -3.1226   -2.4693    1.8907 C   0  0  0  0  0  0  0  0  0  0  0  0
   -2.5580   -0.9044    1.8277 C   0  0  1  0  0  0  0  0  0  0  0  0
   -1.0391   -1.4336    1.4359 C   0  0  0  0  0  0  0  0  0  0  0  0
   -0.3032   -0.0519    1.0326 C   0  0  1  0  0  0  0  0  0  0  0  0
    1.1018   -0.9524    0.6502 C   0  0  2  0  0  0  0  0  0  0  0  0
    1.8562   -0.7124    2.0881 C   0  0  0  0  0  0  0  0  0  0  0  0
    3.2653   -0.7523    1.5003 C   0  0  0  0  0  0  0  0  0  0  0  0
    3.1273   -0.4892    0.0010 C   0  0  2  0  0  0  0  0  0  0  0  0
    2.9233   -1.6905   -0.6587 O   0  0  0  0  0  0  0  0  0  0  0  0
    4.2941    0.2209   -0.5376 C   0  0  0  0  0  0  0  0  0  0  0  0
    4.6947   -0.1049   -1.6535 O   0  0  0  0  0  0  0  0  0  0  0  0
    5.1521    1.1626    0.2216 C   0  0  0  0  0  0  0  0  0  0  0  0
    6.2439    0.4924    0.7888 O   0  0  0  0  0  0  0  0  0  0  0  0
    1.8643    0.3604    0.0383 C   0  0  2  0  0  0  0  0  0  0  0  0
    2.1595    1.3325    1.0897 C   0  0  0  0  0  0  0  0  0  0  0  0
    1.3987    0.6653   -1.2516 C   0  0  0  0  0  0  0  0  0  0  0  0
   -0.1661    1.2537   -1.1951 C   0  0  2  0  0  0  0  0  0  0  0  0
    0.0258    1.9533    0.1605 O   0  0  0  0  0  0  0  0  0  0  0  0
   -0.8170   -0.2272   -0.5646 C   0  0  2  0  0  0  0  0  0  0  0  0
   -2.2786    0.4021   -0.3060 C   0  0  1  0  0  0  0  0  0  0  0  0
   -2.2857    1.4932    0.6466 C   0  0  0  0  0  0  0  0  0  0  0  0
   -2.8543    0.7251   -1.6232 C   0  0  0  0  0  0  0  0  0  0  0  0
   -4.1507    1.0374   -1.5890 C   0  0  0  0  0  0  0  0  0  0  0  0
   -4.9859    0.1336   -0.7837 C   0  0  0  0  0  0  0  0  0  0  0  0
   -6.2233    0.1618   -0.9519 O   0  0  0  0  0  0  0  0  0  0  0  0
   -4.3225   -0.8353    0.1028 C   0  0  0  0  0  0  0  0  0  0  0  0
   -2.9999   -0.7712    0.2587 C   0  0  0  0  0  0  0  0  0  0  0  0
  2  1  1  1
  2  3  1  0
  4  3  1  1
  4  5  1  0
  5  6  1  1
  6  7  1  0
  7  8  1  0
  8  9  1  6
  8 10  1  0
 10 11  2  0
 10 12  1  0
 12 13  1  0
  8 14  1  0
 14 15  1  1
 14 16  1  0
 16 17  1  0
 17 18  1  1
 19 17  1  6
 19 20  1  0
 20 21  1  1
 20 22  1  0
 22 23  2  0
 23 24  1  0
 24 25  2  0
 24 26  1  0
 26 27  2  0
 27  2  1  0
 19  4  1  0
 27 20  1  0
 14  5  1  0
M  END
>  <supplier_code>  (803) 
DB00959

>  <zinc_id>  (803) 
ZINC000003875560

>  <catalog_short_name>  (803) 
dbfda

$$$$

     RDKit          3D

 18 19  0  0  0  0  0  0  0  0999 V2000
    5.7828   -1.3867    0.7494 C   0  0  0  0  0  0  0  0  0  0  0  0
    5.3660   -0.4190   -0.2971 C   0  0  0  0  0  0  0  0  0  0  0  0
    5.4941    0.9637    0.3304 C   0  0  0  0  0  0  0  0  0  0  0  0
    3.9772   -0.6742   -0.6714 N   0  0  0  0  0  0  0  0  0  0  0  0
    3.1524    0.2669    0.0842 C   0  0  0  0  0  0  0  0  0  0  0  0
    1.8454    0.4354   -0.9649 C   0  0  2  0  0  0  0  0  0  0  0  0
    1.5829    1.8761   -0.4566 O   0  0  0  0  0  0  0  0  0  0  0  0
    0.7956   -0.2000    0.1891 C   0  0  0  0  0  0  0  0  0  0  0  0
   -0.2685   -0.6496   -0.6474 O   0  0  0  0  0  0  0  0  0  0  0  0
   -1.4540    0.0718   -0.6305 C   0  0  0  0  0  0  0  0  0  0  0  0
   -1.4845    1.4498   -0.5522 C   0  0  0  0  0  0  0  0  0  0  0  0
   -2.5569    2.1358    0.0010 C   0  0  0  0  0  0  0  0  0  0  0  0
   -3.6624    1.3932    0.3423 C   0  0  0  0  0  0  0  0  0  0  0  0
   -3.7555    0.0598    0.0101 C   0  0  0  0  0  0  0  0  0  0  0  0
   -4.7134   -0.8933    0.1114 N   0  0  0  0  0  0  0  0  0  0  0  0
   -4.4175   -1.9466   -0.6509 C   0  0  0  0  0  0  0  0  0  0  0  0
   -3.0511   -1.8586   -0.8805 C   0  0  0  0  0  0  0  0  0  0  0  0
   -2.6326   -0.6246   -0.4183 C   0  0  0  0  0  0  0  0  0  0  0  0
  1  2  1  0
  2  3  1  0
  2  4  1  0
  4  5  1  0
  6  5  1  1
  6  7  1  0
  6  8  1  0
  8  9  1  0
  9 10  1  0
 10 11  2  0
 11 12  1  0
 12 13  2  0
 13 14  1  0
 14 15  1  0
 15 16  1  0
 16 17  2  0
 17 18  1  0
 18 10  1  0
 18 14  2  0
M  END
>  <supplier_code>  (804) 
DB00960

>  <zinc_id>  (804) 
ZINC000000056645

>  <catalog_short_name>  (804) 
dbfda

$$$$

     RDKit          3D

 18 19  0  0  0  0  0  0  0  0999 V2000
    5.2130   -0.7944    0.9041 C   0  0  0  0  0  0  0  0  0  0  0  0
    4.6195    0.0072    0.1723 C   0  0  0  0  0  0  0  0  0  0  0  0
    5.5345    1.0423   -0.4742 C   0  0  0  0  0  0  0  0  0  0  0  0
    4.0212   -0.7643   -0.8837 N   0  0  0  0  0  0  0  0  0  0  0  0
    2.6100   -0.5701   -1.0308 C   0  0  0  0  0  0  0  0  0  0  0  0
    2.1333    0.2560    0.3307 C   0  0  1  0  0  0  0  0  0  0  0  0
    1.7912    1.5026   -0.4893 O   0  0  0  0  0  0  0  0  0  0  0  0
    0.5797   -0.3214    0.1919 C   0  0  0  0  0  0  0  0  0  0  0  0
   -0.1629    0.7183    0.7746 O   0  0  0  0  0  0  0  0  0  0  0  0
   -1.5285    0.7689    0.6042 C   0  0  0  0  0  0  0  0  0  0  0  0
   -2.1901    1.9739    0.4117 C   0  0  0  0  0  0  0  0  0  0  0  0
   -3.5574    1.9608    0.2072 C   0  0  0  0  0  0  0  0  0  0  0  0
   -4.3146    0.8074    0.2271 C   0  0  0  0  0  0  0  0  0  0  0  0
   -3.5981   -0.3829    0.2085 C   0  0  0  0  0  0  0  0  0  0  0  0
   -4.0446   -1.6248   -0.0745 N   0  0  0  0  0  0  0  0  0  0  0  0
   -2.9858   -2.4319   -0.1039 C   0  0  0  0  0  0  0  0  0  0  0  0
   -1.8821   -1.7354    0.3107 C   0  0  0  0  0  0  0  0  0  0  0  0
   -2.2382   -0.4123    0.4818 C   0  0  0  0  0  0  0  0  0  0  0  0
  1  2  1  0
  2  3  1  0
  2  4  1  0
  4  5  1  0
  6  5  1  6
  6  7  1  0
  6  8  1  0
  8  9  1  0
  9 10  1  0
 10 11  2  0
 11 12  1  0
 12 13  2  0
 13 14  1  0
 14 15  1  0
 15 16  1  0
 16 17  2  0
 17 18  1  0
 18 10  1  0
 18 14  2  0
M  END
>  <supplier_code>  (805) 
DB00960

>  <zinc_id>  (805) 
ZINC000000056646

>  <catalog_short_name>  (805) 
dbfda

$$$$

     RDKit          3D

 18 19  0  0  0  0  0  0  0  0999 V2000
    1.8727    1.7199    1.7227 C   0  0  0  0  0  0  0  0  0  0  0  0
    2.1965    0.6741    1.1532 C   0  0  0  0  0  0  0  0  0  0  0  0
    3.1652   -0.2299    1.5743 C   0  0  0  0  0  0  0  0  0  0  0  0
    3.7551   -1.1387    0.7064 C   0  0  0  0  0  0  0  0  0  0  0  0
    3.5272   -1.0535   -0.6459 C   0  0  0  0  0  0  0  0  0  0  0  0
    2.4992   -0.2359   -1.0866 C   0  0  0  0  0  0  0  0  0  0  0  0
    2.3227   -0.0167   -2.5576 C   0  0  0  0  0  0  0  0  0  0  0  0
    1.7493    0.4642   -0.1454 C   0  0  0  0  0  0  0  0  0  0  0  0
    0.5451    1.0129   -0.6327 N   0  0  0  0  0  0  0  0  0  0  0  0
   -0.6636    0.6839   -0.0317 C   0  0  0  0  0  0  0  0  0  0  0  0
   -0.7639    0.7926    1.1766 O   0  0  0  0  0  0  0  0  0  0  0  0
   -1.7180   -0.2172   -0.8503 C   0  0  1  0  0  0  0  0  0  0  0  0
   -1.8498   -1.3333    0.3564 C   0  0  0  0  0  0  0  0  0  0  0  0
   -2.9436   -2.2670   -0.0674 C   0  0  0  0  0  0  0  0  0  0  0  0
   -4.1950   -1.4134   -0.2365 C   0  0  0  0  0  0  0  0  0  0  0  0
   -3.8733   -0.0435    0.3256 C   0  0  0  0  0  0  0  0  0  0  0  0
   -2.9254    0.6311   -0.3375 N   0  0  0  0  0  0  0  0  0  0  0  0
   -2.7004    1.9704   -0.4236 C   0  0  0  0  0  0  0  0  0  0  0  0
  1  2  1  0
  2  3  2  0
  3  4  1  0
  4  5  2  0
  5  6  1  0
  6  7  1  0
  6  8  2  0
  8  9  1  0
  9 10  1  0
 10 11  2  0
 12 10  1  1
 12 13  1  0
 13 14  1  0
 14 15  1  0
 15 16  1  0
 16 17  1  0
 17 18  1  0
  8  2  1  0
 17 12  1  0
M  END
>  <supplier_code>  (806) 
DB00961

>  <zinc_id>  (806) 
ZINC000000000456

>  <catalog_short_name>  (806) 
dbfda

$$$$

     RDKit          3D

 18 19  0  0  0  0  0  0  0  0999 V2000
   -2.1408    1.8331    0.7250 C   0  0  0  0  0  0  0  0  0  0  0  0
   -2.4742    0.9596    0.4583 C   0  0  0  0  0  0  0  0  0  0  0  0
   -3.8047    0.7197    0.1313 C   0  0  0  0  0  0  0  0  0  0  0  0
   -4.3382   -0.5645    0.1023 C   0  0  0  0  0  0  0  0  0  0  0  0
   -3.5152   -1.6552    0.1741 C   0  0  0  0  0  0  0  0  0  0  0  0
   -2.1505   -1.4492    0.2586 C   0  0  0  0  0  0  0  0  0  0  0  0
   -1.3055   -2.6602    0.2018 C   0  0  0  0  0  0  0  0  0  0  0  0
   -1.6744   -0.1768    0.4228 C   0  0  0  0  0  0  0  0  0  0  0  0
   -0.2817    0.0284    0.5705 N   0  0  0  0  0  0  0  0  0  0  0  0
    0.4659    0.5218   -0.5309 C   0  0  0  0  0  0  0  0  0  0  0  0
   -0.0761    1.5072   -1.1285 O   0  0  0  0  0  0  0  0  0  0  0  0
    1.9602    1.0347   -0.1815 C   0  0  2  0  0  0  0  0  0  0  0  0
    2.5530    0.4756   -1.6142 C   0  0  0  0  0  0  0  0  0  0  0  0
    4.0311    0.3417   -1.3936 C   0  0  0  0  0  0  0  0  0  0  0  0
    4.4372    0.7530   -0.0064 C   0  0  0  0  0  0  0  0  0  0  0  0
    3.6970   -0.0189    1.0545 C   0  0  0  0  0  0  0  0  0  0  0  0
    2.3405   -0.2668    0.6192 N   0  0  0  0  0  0  0  0  0  0  0  0
    2.2763   -1.3833   -0.2073 C   0  0  0  0  0  0  0  0  0  0  0  0
  1  2  1  0
  2  3  2  0
  3  4  1  0
  4  5  2  0
  5  6  1  0
  6  7  1  0
  6  8  2  0
  8  9  1  0
  9 10  1  0
 10 11  2  0
 12 10  1  6
 12 13  1  0
 13 14  1  0
 14 15  1  0
 15 16  1  0
 16 17  1  0
 17 18  1  0
  8  2  1  0
 17 12  1  0
M  END
>  <supplier_code>  (807) 
DB00961

>  <zinc_id>  (807) 
ZINC000000154964

>  <catalog_short_name>  (807) 
dbfda

$$$$

     RDKit          3D

 23 25  0  0  0  0  0  0  0  0999 V2000
   -5.5803    0.0670   -1.4729 C   0  0  0  0  0  0  0  0  0  0  0  0
   -4.0654    0.2145   -1.4831 C   0  0  0  0  0  0  0  0  0  0  0  0
   -3.5141   -0.3464   -0.2681 N   0  0  0  0  0  0  0  0  0  0  0  0
   -3.8429   -1.6589    0.1398 C   0  0  0  0  0  0  0  0  0  0  0  0
   -4.9484   -2.4063   -0.4999 C   0  0  0  0  0  0  0  0  0  0  0  0
   -3.3101   -2.1671    1.1511 O   0  0  0  0  0  0  0  0  0  0  0  0
   -2.5241    0.4009    0.4362 C   0  0  0  0  0  0  0  0  0  0  0  0
   -2.9072    1.1574    1.5357 C   0  0  0  0  0  0  0  0  0  0  0  0
   -1.9583    1.9939    2.1112 C   0  0  0  0  0  0  0  0  0  0  0  0
   -0.6527    2.0149    1.6356 C   0  0  0  0  0  0  0  0  0  0  0  0
   -0.2035    1.0574    0.7346 C   0  0  0  0  0  0  0  0  0  0  0  0
    1.0968    0.3935    0.8907 C   0  0  0  0  0  0  0  0  0  0  0  0
    1.2918   -0.5735    1.8665 C   0  0  0  0  0  0  0  0  0  0  0  0
    2.2366   -1.5719    1.7071 C   0  0  0  0  0  0  0  0  0  0  0  0
    2.9504   -1.5302    0.5552 N   0  0  0  0  0  0  0  0  0  0  0  0
    3.0820   -0.3363   -0.0674 C   0  0  0  0  0  0  0  0  0  0  0  0
    4.0852    0.1981   -0.8655 C   0  0  0  0  0  0  0  0  0  0  0  0
    5.4827   -0.1581   -0.8266 C   0  0  0  0  0  0  0  0  0  0  0  0
    6.5693   -0.5143   -0.5920 N   0  0  0  0  0  0  0  0  0  0  0  0
    3.5502    1.3685   -1.3815 C   0  0  0  0  0  0  0  0  0  0  0  0
    2.2431    1.3958   -1.0258 N   0  0  0  0  0  0  0  0  0  0  0  0
    2.1169    0.6004    0.0337 N   0  0  0  0  0  0  0  0  0  0  0  0
   -1.1978    0.4006    0.0195 C   0  0  0  0  0  0  0  0  0  0  0  0
  1  2  1  0
  2  3  1  0
  3  4  1  0
  4  5  1  0
  4  6  2  0
  3  7  1  0
  7  8  2  0
  8  9  1  0
  9 10  2  0
 10 11  1  0
 11 12  1  0
 12 13  2  0
 13 14  1  0
 14 15  2  0
 15 16  1  0
 16 17  2  0
 17 18  1  0
 18 19  3  0
 17 20  1  0
 20 21  2  0
 21 22  1  0
 11 23  2  0
 23  7  1  0
 22 12  1  0
 22 16  1  0
M  END
>  <supplier_code>  (808) 
DB00962

>  <zinc_id>  (808) 
ZINC000000006300

>  <catalog_short_name>  (808) 
dbfda

$$$$

     RDKit          3D

 20 21  0  0  0  0  0  0  0  0999 V2000
   -1.7943   -1.4145    1.4373 N   0  0  0  0  0  0  0  0  0  0  0  0
   -1.6028   -0.6564    0.2370 C   0  0  0  0  0  0  0  0  0  0  0  0
   -2.6545   -0.6798   -0.6701 C   0  0  0  0  0  0  0  0  0  0  0  0
   -4.0262   -0.6240   -0.0840 C   0  0  0  0  0  0  0  0  0  0  0  0
   -4.4250    0.8152   -0.0676 C   0  0  0  0  0  0  0  0  0  0  0  0
   -4.9369    1.2541   -1.1410 O   0  0  0  0  0  0  0  0  0  0  0  0
   -3.8120    1.7162    0.7946 O   0  0  0  0  0  0  0  0  0  0  0  0
   -2.3821   -0.3708   -1.9797 C   0  0  0  0  0  0  0  0  0  0  0  0
   -1.1528    0.2034   -2.2796 C   0  0  0  0  0  0  0  0  0  0  0  0
   -0.1845    0.4151   -1.3063 C   0  0  0  0  0  0  0  0  0  0  0  0
   -0.3120   -0.3277   -0.1544 C   0  0  0  0  0  0  0  0  0  0  0  0
    0.7937   -0.7541    0.6722 C   0  0  0  0  0  0  0  0  0  0  0  0
    0.5935   -1.0874    1.8713 O   0  0  0  0  0  0  0  0  0  0  0  0
    2.1823   -0.7387    0.2285 C   0  0  0  0  0  0  0  0  0  0  0  0
    3.2307   -0.6479    1.1371 C   0  0  0  0  0  0  0  0  0  0  0  0
    4.3441    0.1442    0.8823 C   0  0  0  0  0  0  0  0  0  0  0  0
    4.4937    0.7189   -0.3749 C   0  0  0  0  0  0  0  0  0  0  0  0
    5.3749    2.3987   -0.6177 Br  0  0  0  0  0  0  0  0  0  0  0  0
    3.7251    0.1547   -1.3869 C   0  0  0  0  0  0  0  0  0  0  0  0
    2.5451   -0.5191   -1.0952 C   0  0  0  0  0  0  0  0  0  0  0  0
  1  2  1  0
  2  3  2  0
  3  4  1  0
  4  5  1  0
  5  6  2  0
  5  7  1  0
  3  8  1  0
  8  9  2  0
  9 10  1  0
 10 11  2  0
 11 12  1  0
 12 13  2  0
 12 14  1  0
 14 15  2  0
 15 16  1  0
 16 17  2  0
 17 18  1  0
 17 19  1  0
 19 20  2  0
 11  2  1  0
 20 14  1  0
M  END
>  <supplier_code>  (809) 
DB00963

>  <zinc_id>  (809) 
ZINC000002570817

>  <catalog_short_name>  (809) 
dbfda

$$$$

     RDKit          3D

 15 16  0  0  0  0  0  0  0  0999 V2000
   -3.1046    2.3472   -0.1857 N   0  0  0  0  0  0  0  0  0  0  0  0
   -2.4525    1.0746   -0.1151 C   0  0  0  0  0  0  0  0  0  0  0  0
   -2.0018    0.7027    1.1453 C   0  0  0  0  0  0  0  0  0  0  0  0
   -1.1403   -0.3694    1.2519 C   0  0  0  0  0  0  0  0  0  0  0  0
   -0.7020   -1.0877    2.7919 Cl  0  0  0  0  0  0  0  0  0  0  0  0
   -0.5718   -0.9018    0.1083 C   0  0  0  0  0  0  0  0  0  0  0  0
    0.7596   -1.4271    0.1438 N   0  0  0  0  0  0  0  0  0  0  0  0
    1.7085   -0.5403    0.0638 C   0  0  0  0  0  0  0  0  0  0  0  0
    2.8420   -0.6308   -0.7780 N   0  0  0  0  0  0  0  0  0  0  0  0
    3.8197    0.3519   -0.3212 C   0  0  0  0  0  0  0  0  0  0  0  0
    2.9675    1.4573    0.2377 C   0  0  0  0  0  0  0  0  0  0  0  0
    1.6954    0.8096    0.5373 N   0  0  0  0  0  0  0  0  0  0  0  0
   -1.0404   -0.5465   -1.1508 C   0  0  0  0  0  0  0  0  0  0  0  0
   -0.7925   -1.7032   -2.4559 Cl  0  0  0  0  0  0  0  0  0  0  0  0
   -1.9868    0.4635   -1.2732 C   0  0  0  0  0  0  0  0  0  0  0  0
  1  2  1  0
  2  3  2  0
  3  4  1  0
  4  5  1  0
  4  6  2  0
  6  7  1  0
  7  8  2  3
  8  9  1  0
  9 10  1  0
 10 11  1  0
 11 12  1  0
  6 13  1  0
 13 14  1  0
 13 15  2  0
 15  2  1  0
 12  8  1  0
M  END
>  <supplier_code>  (810) 
DB00964

>  <zinc_id>  (810) 
ZINC000000020231

>  <catalog_short_name>  (810) 
dbfda

$$$$

     RDKit          3D

 39 44  0  0  0  0  0  0  0  0999 V2000
    0.6750   -5.1686    2.1654 C   0  0  0  0  0  0  0  0  0  0  0  0
    1.6176   -5.0925    0.9815 C   0  0  0  0  0  0  0  0  0  0  0  0
    1.7787   -3.6682    0.4760 C   0  0  0  0  0  0  0  0  0  0  0  0
    0.4714   -2.9427    0.5487 C   0  0  0  0  0  0  0  0  0  0  0  0
   -0.1770   -2.6940    1.7125 N   0  0  0  0  0  0  0  0  0  0  0  0
   -1.4437   -2.4043    1.3275 C   0  0  0  0  0  0  0  0  0  0  0  0
   -1.3697   -1.9290    0.0238 C   0  0  0  0  0  0  0  0  0  0  0  0
   -2.3149   -0.9945   -0.3809 C   0  0  0  0  0  0  0  0  0  0  0  0
   -3.5086   -0.9040    0.3188 C   0  0  0  0  0  0  0  0  0  0  0  0
   -4.4195    0.2210    0.0740 C   0  0  0  0  0  0  0  0  0  0  0  0
   -4.7271    1.1003    1.0584 N   0  0  0  0  0  0  0  0  0  0  0  0
   -5.4725    2.0951    0.5794 C   0  0  0  0  0  0  0  0  0  0  0  0
   -6.2430    3.0408    1.2205 C   0  0  0  0  0  0  0  0  0  0  0  0
   -6.7249    4.0785    0.4430 C   0  0  0  0  0  0  0  0  0  0  0  0
   -6.6143    4.0098   -0.9378 C   0  0  0  0  0  0  0  0  0  0  0  0
   -6.2474    2.8045   -1.5234 C   0  0  0  0  0  0  0  0  0  0  0  0
   -5.4972    1.9146   -0.7974 C   0  0  0  0  0  0  0  0  0  0  0  0
   -4.7126    0.8447   -1.0732 N   0  0  0  0  0  0  0  0  0  0  0  0
   -4.5924    0.2291   -2.3703 C   0  0  0  0  0  0  0  0  0  0  0  0
   -3.6909   -1.6951    1.4402 C   0  0  0  0  0  0  0  0  0  0  0  0
   -2.6695   -2.4670    1.9793 C   0  0  0  0  0  0  0  0  0  0  0  0
   -2.6091   -2.7739    3.4409 C   0  0  0  0  0  0  0  0  0  0  0  0
   -0.1874   -2.3498   -0.4766 N   0  0  0  0  0  0  0  0  0  0  0  0
    0.4338   -1.8505   -1.6951 C   0  0  0  0  0  0  0  0  0  0  0  0
    1.6503   -1.0452   -1.4067 C   0  0  0  0  0  0  0  0  0  0  0  0
    2.8570   -1.2323   -2.0218 C   0  0  0  0  0  0  0  0  0  0  0  0
    3.9124   -0.3994   -1.6866 C   0  0  0  0  0  0  0  0  0  0  0  0
    3.8616    0.4692   -0.6046 C   0  0  0  0  0  0  0  0  0  0  0  0
    4.6581    1.6999   -0.6983 C   0  0  0  0  0  0  0  0  0  0  0  0
    4.1689    2.8363   -1.3050 C   0  0  0  0  0  0  0  0  0  0  0  0
    4.6455    4.0766   -0.8987 C   0  0  0  0  0  0  0  0  0  0  0  0
    5.9553    4.1666   -0.4638 C   0  0  0  0  0  0  0  0  0  0  0  0
    6.5823    2.9997   -0.0761 C   0  0  0  0  0  0  0  0  0  0  0  0
    5.8905    1.7944   -0.0834 C   0  0  0  0  0  0  0  0  0  0  0  0
    6.4149    0.7195    0.7376 C   0  0  0  0  0  0  0  0  0  0  0  0
    7.6241    0.3850    0.5850 O   0  0  0  0  0  0  0  0  0  0  0  0
    5.6797    0.0111    1.6632 O   0  0  0  0  0  0  0  0  0  0  0  0
    2.7262    0.4249    0.1630 C   0  0  0  0  0  0  0  0  0  0  0  0
    1.6186   -0.3107   -0.2278 C   0  0  0  0  0  0  0  0  0  0  0  0
  1  2  1  0
  2  3  1  0
  3  4  1  0
  4  5  2  0
  5  6  1  0
  6  7  2  0
  7  8  1  0
  8  9  2  0
  9 10  1  0
 10 11  2  0
 11 12  1  0
 12 13  2  0
 13 14  1  0
 14 15  2  0
 15 16  1  0
 16 17  2  0
 17 18  1  0
 18 19  1  0
  9 20  1  0
 20 21  2  0
 21 22  1  0
  7 23  1  0
 23 24  1  0
 24 25  1  0
 25 26  2  0
 26 27  1  0
 27 28  2  0
 28 29  1  0
 29 30  2  0
 30 31  1  0
 31 32  2  0
 32 33  1  0
 33 34  2  0
 34 35  1  0
 35 36  2  0
 35 37  1  0
 28 38  1  0
 38 39  2  0
 23  4  1  0
 39 25  1  0
 21  6  1  0
 34 29  1  0
 18 10  1  0
 17 12  1  0
M  END
>  <supplier_code>  (811) 
DB00966

>  <zinc_id>  (811) 
ZINC000001530886

>  <catalog_short_name>  (811) 
dbfda

$$$$

     RDKit          3D

 22 25  0  0  0  0  0  0  0  0999 V2000
    4.7635   -2.5365    0.7328 Cl  0  0  0  0  0  0  0  0  0  0  0  0
    3.3032   -1.8444    0.0767 C   0  0  0  0  0  0  0  0  0  0  0  0
    2.1202   -2.5281    0.2894 C   0  0  0  0  0  0  0  0  0  0  0  0
    0.9397   -1.9664   -0.1737 C   0  0  0  0  0  0  0  0  0  0  0  0
    0.9318   -0.6431   -0.5381 C   0  0  0  0  0  0  0  0  0  0  0  0
    2.0948    0.0603   -0.8302 C   0  0  0  0  0  0  0  0  0  0  0  0
    3.2766   -0.6421   -0.6193 C   0  0  0  0  0  0  0  0  0  0  0  0
    2.4108    1.5012   -0.8867 C   0  0  0  0  0  0  0  0  0  0  0  0
    1.3001    2.3513   -1.4279 C   0  0  0  0  0  0  0  0  0  0  0  0
    0.1346    2.4206   -0.4898 C   0  0  0  0  0  0  0  0  0  0  0  0
   -0.0034    3.6634    0.1187 C   0  0  0  0  0  0  0  0  0  0  0  0
   -1.0195    3.7355    1.0646 C   0  0  0  0  0  0  0  0  0  0  0  0
   -2.0741    2.8313    1.0353 C   0  0  0  0  0  0  0  0  0  0  0  0
   -1.8537    1.6009    0.5118 N   0  0  0  0  0  0  0  0  0  0  0  0
   -0.7436    1.3757   -0.2321 C   0  0  0  0  0  0  0  0  0  0  0  0
   -0.3885   -0.0469   -0.3073 C   0  0  0  0  0  0  0  0  0  0  0  0
   -1.4005   -0.8632   -0.0375 C   0  0  0  0  0  0  0  0  0  0  0  0
   -1.5998   -1.2420    1.3716 C   0  0  0  0  0  0  0  0  0  0  0  0
   -2.9700   -1.7877    1.6575 C   0  0  0  0  0  0  0  0  0  0  0  0
   -3.8457   -1.7071    0.4911 N   0  0  0  0  0  0  0  0  0  0  0  0
   -3.1957   -2.3529   -0.6316 C   0  0  0  0  0  0  0  0  0  0  0  0
   -2.1808   -1.3799   -1.1754 C   0  0  0  0  0  0  0  0  0  0  0  0
  1  2  1  0
  2  3  2  0
  3  4  1  0
  4  5  2  0
  5  6  1  0
  6  7  2  0
  6  8  1  0
  8  9  1  0
  9 10  1  0
 10 11  2  0
 11 12  1  0
 12 13  2  0
 13 14  1  0
 14 15  2  0
 15 16  1  0
 16 17  2  3
 17 18  1  0
 18 19  1  0
 19 20  1  0
 20 21  1  0
 21 22  1  0
  7  2  1  0
 15 10  1  0
 22 17  1  0
 16  5  1  0
M  END
>  <supplier_code>  (812) 
DB00967

>  <zinc_id>  (812) 
ZINC000000001261

>  <catalog_short_name>  (812) 
dbfda

$$$$

     RDKit          3D

 15 15  0  0  0  0  0  0  0  0999 V2000
    1.6488   -0.2007    1.7605 C   0  0  0  0  0  0  0  0  0  0  0  0
    1.9765    0.2028    0.3507 C   0  0  2  0  0  0  0  0  0  0  0  0
    1.8594    1.6413    0.1515 N   0  0  0  0  0  0  0  0  0  0  0  0
    1.0570   -0.5672   -0.5854 C   0  0  0  0  0  0  0  0  0  0  0  0
   -0.3502   -0.2413   -0.2818 C   0  0  0  0  0  0  0  0  0  0  0  0
   -0.6728    0.9248    0.3904 C   0  0  0  0  0  0  0  0  0  0  0  0
   -1.9506    1.3114    0.6864 C   0  0  0  0  0  0  0  0  0  0  0  0
   -2.9978    0.5013    0.3237 C   0  0  0  0  0  0  0  0  0  0  0  0
   -4.3180    0.8934    0.5565 O   0  0  0  0  0  0  0  0  0  0  0  0
   -2.6975   -0.7579   -0.1757 C   0  0  0  0  0  0  0  0  0  0  0  0
   -3.7085   -1.7182   -0.1121 O   0  0  0  0  0  0  0  0  0  0  0  0
   -1.4009   -1.1190   -0.5226 C   0  0  0  0  0  0  0  0  0  0  0  0
    3.3962   -0.1456    0.0732 C   0  0  0  0  0  0  0  0  0  0  0  0
    4.3006    0.7368    0.1908 O   0  0  0  0  0  0  0  0  0  0  0  0
    3.8578   -1.4619    0.1855 O   0  0  0  0  0  0  0  0  0  0  0  0
  2  1  1  1
  2  3  1  0
  2  4  1  0
  4  5  1  0
  5  6  2  0
  6  7  1  0
  7  8  2  0
  8  9  1  0
  8 10  1  0
 10 11  1  0
 10 12  2  0
  2 13  1  0
 13 14  2  0
 13 15  1  0
 12  5  1  0
M  END
>  <supplier_code>  (813) 
DB00968

>  <zinc_id>  (813) 
ZINC000000020255

>  <catalog_short_name>  (813) 
dbfda

$$$$

     RDKit          3D

 22 25  0  0  0  0  0  0  0  0999 V2000
    3.6195    2.0869    0.7942 C   0  0  0  0  0  0  0  0  0  0  0  0
    4.2943    0.8180    0.4217 C   0  0  0  0  0  0  0  0  0  0  0  0
    5.5901    0.6638    0.0558 N   0  0  0  0  0  0  0  0  0  0  0  0
    5.7512   -0.6708   -0.0706 C   0  0  0  0  0  0  0  0  0  0  0  0
    4.5570   -1.2977    0.0510 N   0  0  0  0  0  0  0  0  0  0  0  0
    3.5931   -0.3500    0.1488 C   0  0  0  0  0  0  0  0  0  0  0  0
    2.2402   -0.4941   -0.4635 C   0  0  0  0  0  0  0  0  0  0  0  0
    1.1873   -0.4165    0.5461 N   0  0  0  0  0  0  0  0  0  0  0  0
    0.8068   -1.6373    1.2528 C   0  0  0  0  0  0  0  0  0  0  0  0
   -0.4559   -2.1841    0.6375 C   0  0  0  0  0  0  0  0  0  0  0  0
   -1.5907   -1.2246    0.8037 C   0  0  0  0  0  0  0  0  0  0  0  0
   -1.2611    0.1207    0.6903 C   0  0  0  0  0  0  0  0  0  0  0  0
   -2.4760    0.7619    0.4824 C   0  0  0  0  0  0  0  0  0  0  0  0
   -2.7520    2.1106    0.2913 C   0  0  0  0  0  0  0  0  0  0  0  0
   -3.9914    2.4064   -0.2585 C   0  0  0  0  0  0  0  0  0  0  0  0
   -4.8064    1.3989   -0.7584 C   0  0  0  0  0  0  0  0  0  0  0  0
   -4.7079    0.1680   -0.1211 C   0  0  0  0  0  0  0  0  0  0  0  0
   -3.4956   -0.1785    0.4523 C   0  0  0  0  0  0  0  0  0  0  0  0
   -2.9393   -1.3593    0.8198 N   0  0  0  0  0  0  0  0  0  0  0  0
   -3.5614   -2.6413    0.4993 C   0  0  0  0  0  0  0  0  0  0  0  0
    0.1060    0.4926    0.3002 C   0  0  0  0  0  0  0  0  0  0  0  0
    0.2923    1.4264   -0.5371 O   0  0  0  0  0  0  0  0  0  0  0  0
  1  2  1  0
  2  3  1  0
  3  4  2  0
  4  5  1  0
  5  6  1  0
  6  7  1  0
  7  8  1  0
  8  9  1  0
  9 10  1  0
 10 11  1  0
 11 12  2  0
 12 13  1  0
 13 14  2  0
 14 15  1  0
 15 16  2  0
 16 17  1  0
 17 18  2  0
 18 19  1  0
 19 20  1  0
 12 21  1  0
 21 22  2  0
  6  2  2  0
 21  8  1  0
 19 11  1  0
 18 13  1  0
M  END
>  <supplier_code>  (814) 
DB00969

>  <zinc_id>  (814) 
ZINC000013537284

>  <catalog_short_name>  (814) 
dbfda

$$$$

     RDKit          3D

 27 30  0  0  0  0  0  0  0  0999 V2000
    5.9364   -0.2285   -0.9403 C   0  0  0  0  0  0  0  0  0  0  0  0
    5.4535    0.3806   -0.5643 N   0  0  0  0  0  0  0  0  0  0  0  0
    5.0785    1.5874   -1.2361 C   0  0  0  0  0  0  0  0  0  0  0  0
    4.0070    1.4022   -2.2900 C   0  0  0  0  0  0  0  0  0  0  0  0
    2.6744    1.9156   -1.7468 C   0  0  0  0  0  0  0  0  0  0  0  0
    2.7526    1.5328   -0.1380 C   0  0  1  0  0  0  0  0  0  0  0  0
    1.2057    1.2241    0.0065 N   0  0  0  0  0  0  0  0  0  0  0  0
    0.6094    0.6706   -1.0060 N   0  0  0  0  0  0  0  0  0  0  0  0
   -0.5939    0.0855   -0.7673 C   0  0  0  0  0  0  0  0  0  0  0  0
   -1.5277   -0.2437   -1.8567 C   0  0  0  0  0  0  0  0  0  0  0  0
   -2.9383   -0.1948   -1.3651 C   0  0  0  0  0  0  0  0  0  0  0  0
   -3.8037   -1.2688   -1.5305 C   0  0  0  0  0  0  0  0  0  0  0  0
   -5.0744   -1.2880   -1.0119 C   0  0  0  0  0  0  0  0  0  0  0  0
   -5.4646   -0.2183   -0.2175 C   0  0  0  0  0  0  0  0  0  0  0  0
   -7.1393    0.0586    0.1634 Cl  0  0  0  0  0  0  0  0  0  0  0  0
   -4.4507    0.5533    0.3371 C   0  0  0  0  0  0  0  0  0  0  0  0
   -3.2104    0.6353   -0.2847 C   0  0  0  0  0  0  0  0  0  0  0  0
   -0.7343   -0.6426    0.4073 C   0  0  0  0  0  0  0  0  0  0  0  0
   -1.1744   -1.9603    0.4246 C   0  0  0  0  0  0  0  0  0  0  0  0
   -0.8871   -2.8048    1.4912 C   0  0  0  0  0  0  0  0  0  0  0  0
   -0.2785   -2.2656    2.5934 C   0  0  0  0  0  0  0  0  0  0  0  0
   -0.1121   -0.8887    2.6621 C   0  0  0  0  0  0  0  0  0  0  0  0
   -0.1486   -0.0759    1.5326 C   0  0  0  0  0  0  0  0  0  0  0  0
    0.8451    0.8587    1.2641 C   0  0  0  0  0  0  0  0  0  0  0  0
    1.4315    1.3464    2.2783 O   0  0  0  0  0  0  0  0  0  0  0  0
    3.1271   -0.0447   -0.4761 C   0  0  0  0  0  0  0  0  0  0  0  0
    4.4171   -0.1266    0.3326 C   0  0  0  0  0  0  0  0  0  0  0  0
  1  2  1  0
  2  3  1  0
  3  4  1  0
  4  5  1  0
  5  6  1  0
  6  7  1  6
  7  8  1  0
  8  9  2  0
  9 10  1  0
 10 11  1  0
 11 12  2  0
 12 13  1  0
 13 14  2  0
 14 15  1  0
 14 16  1  0
 16 17  2  0
  9 18  1  0
 18 19  2  0
 19 20  1  0
 20 21  2  0
 21 22  1  0
 22 23  2  0
 23 24  1  0
 24 25  2  0
  6 26  1  0
 26 27  1  0
 27  2  1  0
 24  7  1  0
 17 11  1  0
 23 18  1  0
M  END
>  <supplier_code>  (815) 
DB00972

>  <zinc_id>  (815) 
ZINC000000601229

>  <catalog_short_name>  (815) 
dbfda

$$$$

     RDKit          3D

 27 30  0  0  0  0  0  0  0  0999 V2000
    5.0651    3.2899   -0.0230 C   0  0  0  0  0  0  0  0  0  0  0  0
    4.7385    2.5413   -0.2637 N   0  0  0  0  0  0  0  0  0  0  0  0
    5.2411    1.3645    0.3991 C   0  0  0  0  0  0  0  0  0  0  0  0
    5.1080    0.1065   -0.3964 C   0  0  0  0  0  0  0  0  0  0  0  0
    3.6917   -0.2826   -0.7060 C   0  0  0  0  0  0  0  0  0  0  0  0
    2.7667    0.4202    0.4523 C   0  0  2  0  0  0  0  0  0  0  0  0
    1.4632   -0.2823   -0.0798 N   0  0  0  0  0  0  0  0  0  0  0  0
    0.3813    0.3751    0.3275 N   0  0  0  0  0  0  0  0  0  0  0  0
   -0.7958   -0.2492    0.4433 C   0  0  0  0  0  0  0  0  0  0  0  0
   -1.8822    0.3979    1.2204 C   0  0  0  0  0  0  0  0  0  0  0  0
   -3.1076    0.4043    0.3639 C   0  0  0  0  0  0  0  0  0  0  0  0
   -3.0098    0.7621   -0.9719 C   0  0  0  0  0  0  0  0  0  0  0  0
   -4.0336    1.4328   -1.6296 C   0  0  0  0  0  0  0  0  0  0  0  0
   -5.0789    1.9694   -0.8878 C   0  0  0  0  0  0  0  0  0  0  0  0
   -5.7590    3.5451   -1.2539 Cl  0  0  0  0  0  0  0  0  0  0  0  0
   -5.3208    1.3378    0.3224 C   0  0  0  0  0  0  0  0  0  0  0  0
   -4.3629    0.5427    0.9395 C   0  0  0  0  0  0  0  0  0  0  0  0
   -0.8743   -1.5582    0.0000 C   0  0  0  0  0  0  0  0  0  0  0  0
   -2.0794   -2.2327    0.1063 C   0  0  0  0  0  0  0  0  0  0  0  0
   -2.0721   -3.5889   -0.1915 C   0  0  0  0  0  0  0  0  0  0  0  0
   -0.9310   -4.3494    0.0022 C   0  0  0  0  0  0  0  0  0  0  0  0
    0.2716   -3.6819    0.0120 C   0  0  0  0  0  0  0  0  0  0  0  0
    0.2989   -2.2978   -0.0779 C   0  0  0  0  0  0  0  0  0  0  0  0
    1.4993   -1.6120   -0.1489 C   0  0  0  0  0  0  0  0  0  0  0  0
    2.5936   -2.2465   -0.2390 O   0  0  0  0  0  0  0  0  0  0  0  0
    2.4740    1.7585   -0.4465 C   0  0  0  0  0  0  0  0  0  0  0  0
    3.7143    2.1334   -1.1687 C   0  0  0  0  0  0  0  0  0  0  0  0
  1  2  1  0
  2  3  1  0
  3  4  1  0
  4  5  1  0
  5  6  1  0
  6  7  1  6
  7  8  1  0
  8  9  2  0
  9 10  1  0
 10 11  1  0
 11 12  2  0
 12 13  1  0
 13 14  2  0
 14 15  1  0
 14 16  1  0
 16 17  2  0
  9 18  1  0
 18 19  2  0
 19 20  1  0
 20 21  2  0
 21 22  1  0
 22 23  2  0
 23 24  1  0
 24 25  2  0
  6 26  1  0
 26 27  1  0
 27  2  1  0
 24  7  1  0
 17 11  1  0
 23 18  1  0
M  END
>  <supplier_code>  (816) 
DB00972

>  <zinc_id>  (816) 
ZINC000000897240

>  <catalog_short_name>  (816) 
dbfda

$$$$

     RDKit          3D

 30 33  0  0  0  0  0  0  0  0999 V2000
   -0.6055   -0.1650   -2.0186 O   0  0  0  0  0  0  0  0  0  0  0  0
   -0.6412   -0.1678   -0.9961 C   0  0  0  0  0  0  0  0  0  0  0  0
    0.2203    0.7437   -0.0109 C   0  0  2  0  0  0  0  0  0  0  0  0
    1.0159   -0.5226    0.6353 C   0  0  0  0  0  0  0  0  0  0  0  0
    1.6474   -1.1653   -0.5235 C   0  0  0  0  0  0  0  0  0  0  0  0
    2.9915   -1.9810    0.0156 C   0  0  2  0  0  0  0  0  0  0  0  0
    2.4980   -2.0981    1.4657 O   0  0  0  0  0  0  0  0  0  0  0  0
    3.8114   -0.5906    0.3070 C   0  0  0  0  0  0  0  0  0  0  0  0
    4.5903   -0.6207    1.4418 C   0  0  0  0  0  0  0  0  0  0  0  0
    5.8939   -0.1473    1.4868 C   0  0  0  0  0  0  0  0  0  0  0  0
    6.6267   -0.2326    0.3161 C   0  0  0  0  0  0  0  0  0  0  0  0
    7.8990   -0.7216    0.2835 F   0  0  0  0  0  0  0  0  0  0  0  0
    5.8872   -0.0057   -0.8385 C   0  0  0  0  0  0  0  0  0  0  0  0
    4.5094   -0.1902   -0.8302 C   0  0  0  0  0  0  0  0  0  0  0  0
   -1.0950    0.5164    1.0628 C   0  0  1  0  0  0  0  0  0  0  0  0
   -2.0501    1.6809    0.4729 C   0  0  0  0  0  0  0  0  0  0  0  0
   -1.9347    2.1405   -0.7614 C   0  0  0  0  0  0  0  0  0  0  0  0
   -2.3732    3.4315   -1.0567 C   0  0  0  0  0  0  0  0  0  0  0  0
   -2.1388    4.3583   -0.0475 C   0  0  0  0  0  0  0  0  0  0  0  0
   -1.4541    5.5571   -0.2625 O   0  0  0  0  0  0  0  0  0  0  0  0
   -2.5035    3.9242    1.2203 C   0  0  0  0  0  0  0  0  0  0  0  0
   -2.4892    2.5550    1.4649 C   0  0  0  0  0  0  0  0  0  0  0  0
   -1.5380   -0.5438   -0.0041 N   0  0  0  0  0  0  0  0  0  0  0  0
   -2.6456   -1.3662    0.1594 C   0  0  0  0  0  0  0  0  0  0  0  0
   -2.6469   -2.3511    1.1250 C   0  0  0  0  0  0  0  0  0  0  0  0
   -3.7896   -3.1328    1.2605 C   0  0  0  0  0  0  0  0  0  0  0  0
   -4.9162   -2.7498    0.5595 C   0  0  0  0  0  0  0  0  0  0  0  0
   -6.1085   -3.2607    0.9288 F   0  0  0  0  0  0  0  0  0  0  0  0
   -4.8953   -1.8297   -0.4695 C   0  0  0  0  0  0  0  0  0  0  0  0
   -3.7658   -1.0649   -0.5956 C   0  0  0  0  0  0  0  0  0  0  0  0
  1  2  2  0
  2  3  1  0
  3  4  1  1
  4  5  1  0
  6  5  1  6
  6  7  1  0
  6  8  1  0
  8  9  2  0
  9 10  1  0
 10 11  2  0
 11 12  1  0
 11 13  1  0
 13 14  2  0
  3 15  1  0
 15 16  1  6
 16 17  2  0
 17 18  1  0
 18 19  2  0
 19 20  1  0
 19 21  1  0
 21 22  2  0
 15 23  1  0
 23 24  1  0
 24 25  2  0
 25 26  1  0
 26 27  2  0
 27 28  1  0
 27 29  1  0
 29 30  2  0
 23  2  1  0
 30 24  1  0
 14  8  1  0
 22 16  1  0
M  END
>  <supplier_code>  (817) 
DB00973

>  <zinc_id>  (817) 
ZINC000003810860

>  <catalog_short_name>  (817) 
dbfda

$$$$

     RDKit          3D

 20 19  0  0  0  0  0  0  0  0999 V2000
   -2.6554   -3.2337   -0.0860 O   0  0  0  0  0  0  0  0  0  0  0  0
   -2.9634   -2.0637    0.2930 C   0  0  0  0  0  0  0  0  0  0  0  0
   -3.1433   -1.8239    1.6546 O   0  0  0  0  0  0  0  0  0  0  0  0
   -2.5690   -0.9638   -0.6423 C   0  0  0  0  0  0  0  0  0  0  0  0
   -1.9662    0.1112    0.0949 N   0  0  0  0  0  0  0  0  0  0  0  0
   -0.8076   -0.2891    0.8549 C   0  0  0  0  0  0  0  0  0  0  0  0
    0.3708   -0.4274   -0.0701 C   0  0  0  0  0  0  0  0  0  0  0  0
    1.6392   -0.4802    0.6320 N   0  0  0  0  0  0  0  0  0  0  0  0
    2.4856    0.6410    0.3215 C   0  0  0  0  0  0  0  0  0  0  0  0
    2.3986    1.7369    1.3143 C   0  0  0  0  0  0  0  0  0  0  0  0
    2.6378    2.9028    0.8754 O   0  0  0  0  0  0  0  0  0  0  0  0
    2.6511    1.5416    2.6678 O   0  0  0  0  0  0  0  0  0  0  0  0
    2.3098   -1.6941    0.1685 C   0  0  0  0  0  0  0  0  0  0  0  0
    3.2375   -1.4167   -0.9531 C   0  0  0  0  0  0  0  0  0  0  0  0
    4.3093   -0.7579   -0.7967 O   0  0  0  0  0  0  0  0  0  0  0  0
    3.0254   -1.9452   -2.2166 O   0  0  0  0  0  0  0  0  0  0  0  0
   -1.6149    1.1736   -0.8424 C   0  0  0  0  0  0  0  0  0  0  0  0
   -2.8853    1.9184   -1.1023 C   0  0  0  0  0  0  0  0  0  0  0  0
   -3.6720    2.1069   -0.1433 O   0  0  0  0  0  0  0  0  0  0  0  0
   -2.7884    2.9634   -2.0243 O   0  0  0  0  0  0  0  0  0  0  0  0
  1  2  2  0
  2  3  1  0
  2  4  1  0
  4  5  1  0
  5  6  1  0
  6  7  1  0
  7  8  1  0
  8  9  1  0
  9 10  1  0
 10 11  2  0
 10 12  1  0
  8 13  1  0
 13 14  1  0
 14 15  2  0
 14 16  1  0
  5 17  1  0
 17 18  1  0
 18 19  2  0
 18 20  1  0
M  END
>  <supplier_code>  (818) 
DB00974

>  <zinc_id>  (818) 
ZINC000019364242

>  <catalog_short_name>  (818) 
dbfda

$$$$

     RDKit          3D

 36 39  0  0  0  0  0  0  0  0999 V2000
   -4.8384   -0.4261    4.2155 O   0  0  0  0  0  0  0  0  0  0  0  0
   -4.4835   -0.1803    2.8980 C   0  0  0  0  0  0  0  0  0  0  0  0
   -3.5916   -1.2807    2.3368 C   0  0  0  0  0  0  0  0  0  0  0  0
   -3.6349   -1.2534    0.8765 N   0  0  0  0  0  0  0  0  0  0  0  0
   -4.3624   -2.3584    0.2601 C   0  0  0  0  0  0  0  0  0  0  0  0
   -3.3912   -3.4333   -0.2095 C   0  0  0  0  0  0  0  0  0  0  0  0
   -3.3840   -3.4705   -1.5939 O   0  0  0  0  0  0  0  0  0  0  0  0
   -2.4820   -0.6764    0.2486 C   0  0  0  0  0  0  0  0  0  0  0  0
   -1.3696   -1.4143    0.0062 N   0  0  0  0  0  0  0  0  0  0  0  0
   -0.1800   -0.7931    0.1100 C   0  0  0  0  0  0  0  0  0  0  0  0
   -0.1534    0.5968    0.1552 C   0  0  0  0  0  0  0  0  0  0  0  0
    1.0161    1.2270    0.3407 N   0  0  0  0  0  0  0  0  0  0  0  0
    2.1127    0.4575    0.5495 C   0  0  0  0  0  0  0  0  0  0  0  0
    3.2691    0.9585    1.2309 N   0  0  0  0  0  0  0  0  0  0  0  0
    4.3336    1.5384    0.4226 C   0  0  0  0  0  0  0  0  0  0  0  0
    4.1460    3.0305    0.3516 C   0  0  0  0  0  0  0  0  0  0  0  0
    3.8747    3.5996    1.5915 O   0  0  0  0  0  0  0  0  0  0  0  0
    3.3398    1.0680    2.6737 C   0  0  0  0  0  0  0  0  0  0  0  0
    4.6036    0.4336    3.2001 C   0  0  0  0  0  0  0  0  0  0  0  0
    5.1577   -0.4678    2.2779 O   0  0  0  0  0  0  0  0  0  0  0  0
    2.1276   -0.7922    0.0243 N   0  0  0  0  0  0  0  0  0  0  0  0
    0.9888   -1.5184   -0.0959 C   0  0  0  0  0  0  0  0  0  0  0  0
    0.9828   -2.6990   -0.9066 N   0  0  0  0  0  0  0  0  0  0  0  0
    0.3956   -2.7108   -2.2442 C   0  0  0  0  0  0  0  0  0  0  0  0
    1.4353   -2.3663   -3.3035 C   0  0  0  0  0  0  0  0  0  0  0  0
    2.7531   -3.0652   -2.9896 C   0  0  0  0  0  0  0  0  0  0  0  0
    2.5655   -4.2080   -2.0277 C   0  0  0  0  0  0  0  0  0  0  0  0
    2.0060   -3.7220   -0.6954 C   0  0  0  0  0  0  0  0  0  0  0  0
   -1.2977    1.3470   -0.0945 C   0  0  0  0  0  0  0  0  0  0  0  0
   -1.1705    2.5347   -0.8859 N   0  0  0  0  0  0  0  0  0  0  0  0
   -1.4742    2.4404   -2.3059 C   0  0  0  0  0  0  0  0  0  0  0  0
   -2.6288    3.4066   -2.5446 C   0  0  0  0  0  0  0  0  0  0  0  0
   -2.1952    4.8165   -2.2511 C   0  0  0  0  0  0  0  0  0  0  0  0
   -1.0251    4.9054   -1.3167 C   0  0  0  0  0  0  0  0  0  0  0  0
   -0.9862    3.8239   -0.2805 C   0  0  0  0  0  0  0  0  0  0  0  0
   -2.4594    0.6515   -0.0245 N   0  0  0  0  0  0  0  0  0  0  0  0
  1  2  1  0
  2  3  1  0
  3  4  1  0
  4  5  1  0
  5  6  1  0
  6  7  1  0
  4  8  1  0
  8  9  2  0
  9 10  1  0
 10 11  2  0
 11 12  1  0
 12 13  2  0
 13 14  1  0
 14 15  1  0
 15 16  1  0
 16 17  1  0
 14 18  1  0
 18 19  1  0
 19 20  1  0
 13 21  1  0
 21 22  2  0
 22 23  1  0
 23 24  1  0
 24 25  1  0
 25 26  1  0
 26 27  1  0
 27 28  1  0
 11 29  1  0
 29 30  1  0
 30 31  1  0
 31 32  1  0
 32 33  1  0
 33 34  1  0
 34 35  1  0
 29 36  2  0
 36  8  1  0
 22 10  1  0
 28 23  1  0
 35 30  1  0
M  END
>  <supplier_code>  (819) 
DB00975

>  <zinc_id>  (819) 
ZINC000000643046

>  <catalog_short_name>  (819) 
dbfda

$$$$

     RDKit          3D

 58 62  0  0  0  0  0  0  0  0999 V2000
   -0.5637   -2.6516    1.4619 C   0  0  0  0  0  0  0  0  0  0  0  0
   -0.6184   -2.5821    1.0036 C   0  0  0  0  0  0  0  0  0  0  0  0
    0.5175   -2.9014   -0.1470 C   0  0  1  0  0  0  0  0  0  0  0  0
   -0.1543   -2.0866   -1.2517 O   0  0  0  0  0  0  0  0  0  0  0  0
   -0.9596   -2.6922   -2.1501 C   0  0  0  0  0  0  0  0  0  0  0  0
   -1.2169   -2.0738   -3.1949 O   0  0  0  0  0  0  0  0  0  0  0  0
   -2.1895   -3.2530   -1.2831 C   0  0  2  0  0  0  0  0  0  0  0  0
   -2.9311   -3.9074   -2.5955 C   0  0  0  0  0  0  0  0  0  0  0  0
   -3.0200   -1.8741   -1.3407 C   0  0  0  0  0  0  0  0  0  0  0  0
   -3.3894   -1.4292   -2.3537 O   0  0  0  0  0  0  0  0  0  0  0  0
   -3.9942   -2.0075   -0.0884 C   0  0  2  0  0  0  0  0  0  0  0  0
   -5.2355   -2.5893   -0.9560 C   0  0  0  0  0  0  0  0  0  0  0  0
   -4.6045   -0.4096   -0.1734 C   0  0  1  0  0  0  0  0  0  0  0  0
   -5.6029   -0.7792    0.8914 O   0  0  0  0  0  0  0  0  0  0  0  0
   -6.9441   -0.4686    0.2436 C   0  0  2  0  0  0  0  0  0  0  0  0
   -6.4471    0.8265   -0.3969 O   0  0  0  0  0  0  0  0  0  0  0  0
   -7.4930    0.5751   -1.4715 C   0  0  2  0  0  0  0  0  0  0  0  0
   -7.5560    2.1648   -1.9291 C   0  0  0  0  0  0  0  0  0  0  0  0
   -8.7788    0.6336   -0.5012 C   0  0  0  0  0  0  0  0  0  0  0  0
   -8.6464    1.3391    0.9230 C   0  0  2  0  0  0  0  0  0  0  0  0
   -7.7094    2.5644    0.5828 N   0  0  0  0  0  0  0  0  0  0  0  0
   -6.9569    2.8085    1.8213 C   0  0  0  0  0  0  0  0  0  0  0  0
   -8.7188    3.6319    0.6773 C   0  0  0  0  0  0  0  0  0  0  0  0
   -7.3902    0.4253    1.6403 C   0  0  1  0  0  0  0  0  0  0  0  0
   -8.3355   -0.6478    2.0744 O   0  0  0  0  0  0  0  0  0  0  0  0
   -3.5676    0.2624    0.9125 C   0  0  2  0  0  0  0  0  0  0  0  0
   -3.0391   -0.8050    1.7829 C   0  0  0  0  0  0  0  0  0  0  0  0
   -4.3953    1.0224    1.7742 O   0  0  0  0  0  0  0  0  0  0  0  0
   -4.1057    2.3612    1.8410 C   0  0  0  0  0  0  0  0  0  0  0  0
   -2.7614    1.2709    0.3469 C   0  0  0  0  0  0  0  0  0  0  0  0
   -1.3938    0.8369   -0.4084 C   0  0  1  0  0  0  0  0  0  0  0  0
   -1.1938    2.4029   -0.8828 C   0  0  0  0  0  0  0  0  0  0  0  0
   -0.4779    0.8937    0.8796 C   0  0  0  0  0  0  0  0  0  0  0  0
   -0.8001    1.1913    1.9520 O   0  0  0  0  0  0  0  0  0  0  0  0
    1.0913    0.7457    0.7778 C   0  0  2  0  0  0  0  0  0  0  0  0
    1.2007    2.0514   -0.1874 C   0  0  0  0  0  0  0  0  0  0  0  0
    1.1858   -0.3720   -0.5151 C   0  0  1  0  0  0  0  0  0  0  0  0
    2.7269   -0.1151   -0.6722 N   0  0  0  0  0  0  0  0  0  0  0  0
    3.3009    1.0528   -1.3017 C   0  0  0  0  0  0  0  0  0  0  0  0
    4.2921    1.6891   -0.2858 C   0  0  0  0  0  0  0  0  0  0  0  0
    4.9208    2.7669   -1.1700 C   0  0  0  0  0  0  0  0  0  0  0  0
    5.9739    1.9477   -1.9190 C   0  0  0  0  0  0  0  0  0  0  0  0
    6.7184    1.3245   -0.8228 N   0  0  0  0  0  0  0  0  0  0  0  0
    6.9038    1.8386    0.4201 C   0  0  0  0  0  0  0  0  0  0  0  0
    7.6803    0.9496    1.0904 N   0  0  0  0  0  0  0  0  0  0  0  0
    8.3685    0.2147    0.1807 C   0  0  0  0  0  0  0  0  0  0  0  0
    9.8172   -0.0522    0.1513 C   0  0  0  0  0  0  0  0  0  0  0  0
   10.3360   -0.6558   -0.9902 C   0  0  0  0  0  0  0  0  0  0  0  0
   11.6023   -0.3116   -1.4528 C   0  0  0  0  0  0  0  0  0  0  0  0
   12.1234    0.9278   -1.0982 C   0  0  0  0  0  0  0  0  0  0  0  0
   11.7102    1.4249    0.0937 N   0  0  0  0  0  0  0  0  0  0  0  0
   10.7381    0.7776    0.7849 C   0  0  0  0  0  0  0  0  0  0  0  0
    7.4769    0.2013   -0.8891 C   0  0  0  0  0  0  0  0  0  0  0  0
    3.0240   -1.3860   -1.2772 C   0  0  0  0  0  0  0  0  0  0  0  0
    3.9030   -1.6658   -2.1460 O   0  0  0  0  0  0  0  0  0  0  0  0
    2.6438   -2.2290   -0.2279 O   0  0  0  0  0  0  0  0  0  0  0  0
    1.4923   -1.6849    0.3660 C   0  0  2  0  0  0  0  0  0  0  0  0
    1.4432   -1.4928    1.7673 C   0  0  0  0  0  0  0  0  0  0  0  0
  1  2  1  0
  3  2  1  1
  3  4  1  0
  4  5  1  0
  5  6  2  0
  5  7  1  0
  7  8  1  6
  7  9  1  0
  9 10  2  0
  9 11  1  0
 11 12  1  6
 11 13  1  0
 13 14  1  1
 15 14  1  1
 15 16  1  0
 16 17  1  0
 17 18  1  6
 17 19  1  0
 19 20  1  0
 20 21  1  6
 21 22  1  0
 21 23  1  0
 20 24  1  0
 24 25  1  1
 13 26  1  0
 26 27  1  1
 26 28  1  0
 28 29  1  0
 26 30  1  0
 30 31  1  0
 31 32  1  6
 31 33  1  0
 33 34  2  0
 33 35  1  0
 35 36  1  6
 35 37  1  0
 37 38  1  6
 38 39  1  0
 39 40  1  0
 40 41  1  0
 41 42  1  0
 42 43  1  0
 43 44  1  0
 44 45  2  0
 45 46  1  0
 46 47  1  0
 47 48  2  0
 48 49  1  0
 49 50  2  0
 50 51  1  0
 51 52  2  0
 46 53  2  0
 38 54  1  0
 54 55  2  0
 54 56  1  0
 56 57  1  0
 57 58  1  1
 57  3  1  0
 24 15  1  0
 57 37  1  0
 53 43  1  0
 52 47  1  0
M  END
>  <supplier_code>  (820) 
DB00976

>  <zinc_id>  (820) 
ZINC000009574770

>  <catalog_short_name>  (820) 
dbfda

$$$$

     RDKit          3D

 58 62  0  0  0  0  0  0  0  0999 V2000
    0.0548    1.7093    1.4415 C   0  0  0  0  0  0  0  0  0  0  0  0
    0.2775    1.6368    0.4607 C   0  0  0  0  0  0  0  0  0  0  0  0
   -0.1881    0.1493   -0.1136 C   0  0  2  0  0  0  0  0  0  0  0  0
   -1.5635    0.3855    0.5518 O   0  0  0  0  0  0  0  0  0  0  0  0
   -2.2171    1.2598   -0.3258 C   0  0  0  0  0  0  0  0  0  0  0  0
   -3.0488    2.1413   -0.0262 O   0  0  0  0  0  0  0  0  0  0  0  0
   -1.8362    1.0485   -1.8780 C   0  0  2  0  0  0  0  0  0  0  0  0
   -2.7357    2.2885   -2.4901 C   0  0  0  0  0  0  0  0  0  0  0  0
   -2.8223   -0.1547   -2.1286 C   0  0  0  0  0  0  0  0  0  0  0  0
   -2.5290   -0.5494   -3.2663 O   0  0  0  0  0  0  0  0  0  0  0  0
   -4.3357   -0.4431   -1.9359 C   0  0  2  0  0  0  0  0  0  0  0  0
   -4.8793    1.0803   -2.0694 C   0  0  0  0  0  0  0  0  0  0  0  0
   -4.3382   -0.4945   -0.2093 C   0  0  1  0  0  0  0  0  0  0  0  0
   -5.8199   -0.6357   -0.1774 O   0  0  0  0  0  0  0  0  0  0  0  0
   -6.3182   -0.0014    1.1106 C   0  0  2  0  0  0  0  0  0  0  0  0
   -7.4856    0.5296    0.3017 O   0  0  0  0  0  0  0  0  0  0  0  0
   -8.2715    1.4061    1.2272 C   0  0  2  0  0  0  0  0  0  0  0  0
   -9.1714    1.9160   -0.0778 C   0  0  0  0  0  0  0  0  0  0  0  0
   -7.2800    2.6808    0.9520 C   0  0  0  0  0  0  0  0  0  0  0  0
   -6.1384    2.3459    2.0576 C   0  0  2  0  0  0  0  0  0  0  0  0
   -5.3519    3.6395    1.6943 N   0  0  0  0  0  0  0  0  0  0  0  0
   -5.5687    4.0555    0.3575 C   0  0  0  0  0  0  0  0  0  0  0  0
   -3.9245    3.3534    1.8851 C   0  0  0  0  0  0  0  0  0  0  0  0
   -5.3298    1.3936    0.9068 C   0  0  1  0  0  0  0  0  0  0  0  0
   -4.3382    0.8516    1.9049 O   0  0  0  0  0  0  0  0  0  0  0  0
   -4.1381   -2.1159   -0.2292 C   0  0  2  0  0  0  0  0  0  0  0  0
   -5.1149   -2.6661   -1.2731 C   0  0  0  0  0  0  0  0  0  0  0  0
   -4.4263   -2.6056    1.0234 O   0  0  0  0  0  0  0  0  0  0  0  0
   -5.5753   -3.4017    0.9228 C   0  0  0  0  0  0  0  0  0  0  0  0
   -2.8068   -2.4643   -0.7877 C   0  0  0  0  0  0  0  0  0  0  0  0
   -1.8717   -3.0898    0.3932 C   0  0  1  0  0  0  0  0  0  0  0  0
   -2.5550   -4.5626    0.1957 C   0  0  0  0  0  0  0  0  0  0  0  0
   -0.6406   -3.4053   -0.5907 C   0  0  0  0  0  0  0  0  0  0  0  0
   -0.8736   -4.0773   -1.5491 O   0  0  0  0  0  0  0  0  0  0  0  0
    0.2081   -2.0922   -0.9325 C   0  0  2  0  0  0  0  0  0  0  0  0
    1.3291   -2.9373   -1.7577 C   0  0  0  0  0  0  0  0  0  0  0  0
    1.0859   -2.0598    0.5311 C   0  0  1  0  0  0  0  0  0  0  0  0
    2.4227   -1.5238   -0.0833 N   0  0  0  0  0  0  0  0  0  0  0  0
    3.5782   -2.3248   -0.4543 C   0  0  0  0  0  0  0  0  0  0  0  0
    4.8952   -1.7599    0.1054 C   0  0  0  0  0  0  0  0  0  0  0  0
    4.7558   -0.3288    0.3068 C   0  0  0  0  0  0  0  0  0  0  0  0
    5.2208    0.3330    1.5353 C   0  0  0  0  0  0  0  0  0  0  0  0
    6.6823    0.3263    1.4025 N   0  0  0  0  0  0  0  0  0  0  0  0
    7.3275   -0.8518    1.6412 C   0  0  0  0  0  0  0  0  0  0  0  0
    8.5876   -0.6470    1.1761 N   0  0  0  0  0  0  0  0  0  0  0  0
    8.5517    0.2641    0.1707 C   0  0  0  0  0  0  0  0  0  0  0  0
    9.6417    1.0123   -0.4409 C   0  0  0  0  0  0  0  0  0  0  0  0
    9.5326    2.3599   -0.7897 C   0  0  0  0  0  0  0  0  0  0  0  0
   10.6430    3.1222   -0.4182 C   0  0  0  0  0  0  0  0  0  0  0  0
   11.8517    2.4423   -0.5527 C   0  0  0  0  0  0  0  0  0  0  0  0
   11.8897    1.1514   -0.9736 N   0  0  0  0  0  0  0  0  0  0  0  0
   10.7580    0.4014   -1.0027 C   0  0  0  0  0  0  0  0  0  0  0  0
    7.2594    0.7727    0.2553 C   0  0  0  0  0  0  0  0  0  0  0  0
    2.1544   -0.1488   -0.2871 C   0  0  0  0  0  0  0  0  0  0  0  0
    2.5944    0.4955   -1.2926 O   0  0  0  0  0  0  0  0  0  0  0  0
    1.7705    0.1374    1.0310 O   0  0  0  0  0  0  0  0  0  0  0  0
    0.5805   -0.6201    1.0908 C   0  0  1  0  0  0  0  0  0  0  0  0
   -0.1586   -0.7285    2.2996 C   0  0  0  0  0  0  0  0  0  0  0  0
  1  2  1  0
  3  2  1  1
  3  4  1  0
  4  5  1  0
  5  6  2  0
  5  7  1  0
  7  8  1  6
  7  9  1  0
  9 10  2  0
  9 11  1  0
 11 12  1  1
 11 13  1  0
 13 14  1  6
 15 14  1  6
 15 16  1  0
 16 17  1  0
 17 18  1  6
 17 19  1  0
 19 20  1  0
 20 21  1  6
 21 22  1  0
 21 23  1  0
 20 24  1  0
 24 25  1  1
 13 26  1  0
 26 27  1  6
 26 28  1  0
 28 29  1  0
 26 30  1  0
 30 31  1  0
 31 32  1  6
 31 33  1  0
 33 34  2  0
 33 35  1  0
 35 36  1  6
 35 37  1  0
 37 38  1  6
 38 39  1  0
 39 40  1  0
 40 41  1  0
 41 42  1  0
 42 43  1  0
 43 44  1  0
 44 45  2  0
 45 46  1  0
 46 47  1  0
 47 48  2  0
 48 49  1  0
 49 50  2  0
 50 51  1  0
 51 52  2  0
 46 53  2  0
 38 54  1  0
 54 55  2  0
 54 56  1  0
 56 57  1  0
 57 58  1  1
 57  3  1  0
 24 15  1  0
 57 37  1  0
 53 43  1  0
 52 47  1  0
M  END
>  <supplier_code>  (821) 
DB00976

>  <zinc_id>  (821) 
ZINC000095617679

>  <catalog_short_name>  (821) 
dbfda

$$$$

     RDKit          3D

 22 25  0  0  0  0  0  0  0  0999 V2000
   -3.6913    1.1669   -1.9990 C   0  0  0  0  0  0  0  0  0  0  0  0
   -3.6410    0.5640   -1.0688 C   0  0  0  0  0  0  0  0  0  0  0  0
   -3.4169   -0.3324    0.0785 C   0  0  2  0  0  0  0  0  0  0  0  0
   -4.3750   -1.2979    0.1290 O   0  0  0  0  0  0  0  0  0  0  0  0
   -3.3982    0.5868    1.2998 C   0  0  0  0  0  0  0  0  0  0  0  0
   -1.9671    1.1244    1.3712 C   0  0  0  0  0  0  0  0  0  0  0  0
   -1.4492    0.7086   -0.1089 C   0  0  1  0  0  0  0  0  0  0  0  0
    0.1084    0.3496    0.4117 C   0  0  2  0  0  0  0  0  0  0  0  0
    0.6519    1.7770   -0.0733 C   0  0  0  0  0  0  0  0  0  0  0  0
    1.6542    1.6812   -1.1480 C   0  0  0  0  0  0  0  0  0  0  0  0
    2.6133    0.5572   -0.8666 C   0  0  0  0  0  0  0  0  0  0  0  0
    3.8626    0.7846   -0.3166 C   0  0  0  0  0  0  0  0  0  0  0  0
    4.3558   -0.1263    0.6114 C   0  0  0  0  0  0  0  0  0  0  0  0
    5.4678    0.3229    1.3328 O   0  0  0  0  0  0  0  0  0  0  0  0
    3.5678   -1.1700    1.0881 C   0  0  0  0  0  0  0  0  0  0  0  0
    2.2516   -1.2635    0.6346 C   0  0  0  0  0  0  0  0  0  0  0  0
    1.9957   -0.6576   -0.5653 C   0  0  0  0  0  0  0  0  0  0  0  0
    0.4889   -0.4297   -1.0348 C   0  0  1  0  0  0  0  0  0  0  0  0
   -0.0332   -1.8805   -0.5235 C   0  0  0  0  0  0  0  0  0  0  0  0
   -1.5037   -1.6805   -0.9139 C   0  0  0  0  0  0  0  0  0  0  0  0
   -2.0013   -0.7936    0.1480 C   0  0  2  0  0  0  0  0  0  0  0  0
   -1.5411   -1.2059    1.5137 C   0  0  0  0  0  0  0  0  0  0  0  0
  1  2  3  0
  3  2  1  6
  3  4  1  0
  3  5  1  0
  5  6  1  0
  7  6  1  1
  7  8  1  0
  8  9  1  6
  9 10  1  0
 10 11  1  0
 11 12  2  0
 12 13  1  0
 13 14  1  0
 13 15  2  0
 15 16  1  0
 16 17  2  0
 18 17  1  1
 18 19  1  0
 19 20  1  0
 20 21  1  0
 21 22  1  1
 21  3  1  0
 21  7  1  0
 18  8  1  0
 17 11  1  0
M  END
>  <supplier_code>  (822) 
DB00977

>  <zinc_id>  (822) 
ZINC000003812897

>  <catalog_short_name>  (822) 
dbfda

$$$$

     RDKit          3D

 21 22  0  0  0  0  0  0  0  0999 V2000
    4.8298   -0.0403   -0.6642 C   0  0  0  0  0  0  0  0  0  0  0  0
    4.7452   -0.3952   -0.0938 N   0  0  0  0  0  0  0  0  0  0  0  0
    5.3699   -0.1005    1.1906 C   0  0  0  0  0  0  0  0  0  0  0  0
    3.7001   -1.3923    0.0847 C   0  0  0  0  0  0  0  0  0  0  0  0
    2.6284   -1.0589   -0.9487 C   0  0  0  0  0  0  0  0  0  0  0  0
    1.7031   -0.1219   -0.3967 O   0  0  0  0  0  0  0  0  0  0  0  0
    0.3262   -0.3843   -0.3739 C   0  0  0  0  0  0  0  0  0  0  0  0
    0.0223   -1.5557   -0.7646 O   0  0  0  0  0  0  0  0  0  0  0  0
   -0.3335   -0.0636    1.0981 C   0  0  2  0  0  0  0  0  0  0  0  0
   -1.8528   -0.4898    0.6682 C   0  0  0  0  0  0  0  0  0  0  0  0
   -2.2519   -0.2742   -0.5908 C   0  0  0  0  0  0  0  0  0  0  0  0
   -3.4393   -0.8831   -0.9856 C   0  0  0  0  0  0  0  0  0  0  0  0
   -3.6262   -2.1610   -0.5447 C   0  0  0  0  0  0  0  0  0  0  0  0
   -2.9710   -2.6187    0.5919 C   0  0  0  0  0  0  0  0  0  0  0  0
   -2.0913   -1.7451    1.2213 C   0  0  0  0  0  0  0  0  0  0  0  0
   -0.5880    1.5508    0.7883 C   0  0  0  0  0  0  0  0  0  0  0  0
    0.3911    2.2000    1.5493 O   0  0  0  0  0  0  0  0  0  0  0  0
   -0.5751    1.8161   -0.6308 C   0  0  0  0  0  0  0  0  0  0  0  0
   -1.5932    2.9287   -0.7945 C   0  0  0  0  0  0  0  0  0  0  0  0
   -2.4741    2.9115    0.4216 C   0  0  0  0  0  0  0  0  0  0  0  0
   -1.9198    1.8775    1.3746 C   0  0  0  0  0  0  0  0  0  0  0  0
  1  2  1  0
  2  3  1  0
  2  4  1  0
  4  5  1  0
  5  6  1  0
  6  7  1  0
  7  8  2  0
  9  7  1  6
  9 10  1  0
 10 11  2  0
 11 12  1  0
 12 13  2  0
 13 14  1  0
 14 15  2  0
  9 16  1  0
 16 17  1  0
 16 18  1  0
 18 19  1  0
 19 20  1  0
 20 21  1  0
 15 10  1  0
 21 16  1  0
M  END
>  <supplier_code>  (823) 
DB00979

>  <zinc_id>  (823) 
ZINC000000000196

>  <catalog_short_name>  (823) 
dbfda

$$$$

     RDKit          3D

 21 22  0  0  0  0  0  0  0  0999 V2000
    5.3705    1.1903    0.0979 C   0  0  0  0  0  0  0  0  0  0  0  0
    5.1709   -0.0762   -0.4161 N   0  0  0  0  0  0  0  0  0  0  0  0
    5.6808   -1.1136    0.4758 C   0  0  0  0  0  0  0  0  0  0  0  0
    3.8049   -0.3642   -0.7751 C   0  0  0  0  0  0  0  0  0  0  0  0
    2.8373    0.0201    0.3383 C   0  0  0  0  0  0  0  0  0  0  0  0
    1.6205    0.4911   -0.2369 O   0  0  0  0  0  0  0  0  0  0  0  0
    0.4677   -0.1454    0.2380 C   0  0  0  0  0  0  0  0  0  0  0  0
    0.2817   -0.2865    1.4280 O   0  0  0  0  0  0  0  0  0  0  0  0
   -0.7491    0.2293   -0.7561 C   0  0  1  0  0  0  0  0  0  0  0  0
   -1.5586   -1.1484   -0.5271 C   0  0  0  0  0  0  0  0  0  0  0  0
   -2.5802   -1.3710   -1.4424 C   0  0  0  0  0  0  0  0  0  0  0  0
   -3.6503   -2.1517   -1.0199 C   0  0  0  0  0  0  0  0  0  0  0  0
   -3.4734   -2.9932    0.0601 C   0  0  0  0  0  0  0  0  0  0  0  0
   -2.4517   -2.7198    0.9571 C   0  0  0  0  0  0  0  0  0  0  0  0
   -1.4109   -1.8925    0.5574 C   0  0  0  0  0  0  0  0  0  0  0  0
   -1.5750    1.1213    0.3524 C   0  0  0  0  0  0  0  0  0  0  0  0
   -2.4081    0.3750    1.0651 O   0  0  0  0  0  0  0  0  0  0  0  0
   -0.6119    2.0035    1.0366 C   0  0  0  0  0  0  0  0  0  0  0  0
   -0.8602    3.4268    0.6830 C   0  0  0  0  0  0  0  0  0  0  0  0
   -1.5652    3.3420   -0.6344 C   0  0  0  0  0  0  0  0  0  0  0  0
   -2.3398    2.0629   -0.5612 C   0  0  0  0  0  0  0  0  0  0  0  0
  1  2  1  0
  2  3  1  0
  2  4  1  0
  4  5  1  0
  5  6  1  0
  6  7  1  0
  7  8  2  0
  9  7  1  1
  9 10  1  0
 10 11  2  0
 11 12  1  0
 12 13  2  0
 13 14  1  0
 14 15  2  0
  9 16  1  0
 16 17  1  0
 16 18  1  0
 18 19  1  0
 19 20  1  0
 20 21  1  0
 15 10  1  0
 21 16  1  0
M  END
>  <supplier_code>  (824) 
DB00979

>  <zinc_id>  (824) 
ZINC000000155531

>  <catalog_short_name>  (824) 
dbfda

$$$$

     RDKit          3D

 19 21  0  0  0  0  0  0  0  0999 V2000
    5.9328   -0.4626   -0.3974 C   0  0  0  0  0  0  0  0  0  0  0  0
    5.1179    0.0591    0.1827 C   0  0  0  0  0  0  0  0  0  0  0  0
    3.8137   -0.6824    0.1979 C   0  0  0  0  0  0  0  0  0  0  0  0
    3.4158   -1.3096   -0.8242 O   0  0  0  0  0  0  0  0  0  0  0  0
    2.8342   -0.3976    1.1636 N   0  0  0  0  0  0  0  0  0  0  0  0
    1.5378   -0.9980    1.2984 C   0  0  0  0  0  0  0  0  0  0  0  0
    0.5374    0.1459    1.4696 C   0  0  0  0  0  0  0  0  0  0  0  0
    0.4970    0.5905   -0.1089 C   0  0  2  0  0  0  0  0  0  0  0  0
   -0.1167    2.0684    0.2365 C   0  0  0  0  0  0  0  0  0  0  0  0
   -0.5937    2.2776   -1.2072 C   0  0  0  0  0  0  0  0  0  0  0  0
   -1.3743    1.0164   -1.3758 C   0  0  0  0  0  0  0  0  0  0  0  0
   -2.4166    0.5736   -2.1819 C   0  0  0  0  0  0  0  0  0  0  0  0
   -3.3072   -0.3195   -1.5833 C   0  0  0  0  0  0  0  0  0  0  0  0
   -3.1990   -0.6344   -0.2302 C   0  0  0  0  0  0  0  0  0  0  0  0
   -1.9383   -0.5116    0.3505 C   0  0  0  0  0  0  0  0  0  0  0  0
   -0.9765    0.0632   -0.4340 C   0  0  0  0  0  0  0  0  0  0  0  0
   -2.1086   -0.5431    1.8465 C   0  0  0  0  0  0  0  0  0  0  0  0
   -3.5505   -0.1651    1.9910 C   0  0  0  0  0  0  0  0  0  0  0  0
   -4.1052   -0.7709    0.8241 O   0  0  0  0  0  0  0  0  0  0  0  0
  1  2  1  0
  2  3  1  0
  3  4  2  0
  3  5  1  0
  5  6  1  0
  6  7  1  0
  8  7  1  1
  8  9  1  0
  9 10  1  0
 10 11  1  0
 11 12  2  0
 12 13  1  0
 13 14  2  0
 14 15  1  0
 15 16  2  0
 15 17  1  0
 17 18  1  0
 18 19  1  0
 16  8  1  0
 16 11  1  0
 19 14  1  0
M  END
>  <supplier_code>  (825) 
DB00980

>  <zinc_id>  (825) 
ZINC000003960338

>  <catalog_short_name>  (825) 
dbfda

$$$$

     RDKit          3D

 22 22  0  0  0  0  0  0  0  0999 V2000
    0.7814   -2.9200    0.1064 C   0  0  0  0  0  0  0  0  0  0  0  0
    0.2638   -1.5287   -0.0817 C   0  0  0  0  0  0  0  0  0  0  0  0
   -1.1853   -1.3806   -0.2674 C   0  0  0  0  0  0  0  0  0  0  0  0
   -1.7514   -0.2180   -0.5012 C   0  0  0  0  0  0  0  0  0  0  0  0
   -3.1794   -0.0148   -0.2289 C   0  0  0  0  0  0  0  0  0  0  0  0
   -3.7276   -0.6784    0.7880 C   0  0  0  0  0  0  0  0  0  0  0  0
   -2.9030   -1.2792    1.8822 C   0  0  0  0  0  0  0  0  0  0  0  0
   -5.1881   -0.4337    1.0011 C   0  0  0  0  0  0  0  0  0  0  0  0
   -5.3930    1.0468    1.2683 C   0  0  0  0  0  0  0  0  0  0  0  0
   -4.4037    1.9092    0.5361 C   0  0  0  0  0  0  0  0  0  0  0  0
   -3.8471    1.2375   -0.7044 C   0  0  0  0  0  0  0  0  0  0  0  0
   -4.9706    0.9538   -1.6624 C   0  0  0  0  0  0  0  0  0  0  0  0
   -2.8175    2.1890   -1.2893 C   0  0  0  0  0  0  0  0  0  0  0  0
    0.9126   -0.5773    0.5911 C   0  0  0  0  0  0  0  0  0  0  0  0
    2.3731   -0.6996    0.6190 C   0  0  0  0  0  0  0  0  0  0  0  0
    3.1706    0.0161   -0.1529 C   0  0  0  0  0  0  0  0  0  0  0  0
    4.3416   -0.5183   -0.8181 C   0  0  0  0  0  0  0  0  0  0  0  0
    4.2842   -1.6563   -1.7863 C   0  0  0  0  0  0  0  0  0  0  0  0
    5.5305   -0.2079   -0.3128 C   0  0  0  0  0  0  0  0  0  0  0  0
    5.7560    1.1348    0.2296 C   0  0  0  0  0  0  0  0  0  0  0  0
    6.9432    1.4109    0.5797 O   0  0  0  0  0  0  0  0  0  0  0  0
    5.0099    2.2146   -0.2508 O   0  0  0  0  0  0  0  0  0  0  0  0
  1  2  1  0
  2  3  1  0
  3  4  2  0
  4  5  1  0
  5  6  2  0
  6  7  1  0
  6  8  1  0
  8  9  1  0
  9 10  1  0
 10 11  1  0
 11 12  1  0
 11 13  1  0
  2 14  2  0
 14 15  1  0
 15 16  2  0
 16 17  1  0
 17 18  1  0
 17 19  2  0
 19 20  1  0
 20 21  2  0
 20 22  1  0
 11  5  1  0
M  END
>  <supplier_code>  (826) 
DB00982

>  <zinc_id>  (826) 
ZINC000003792789

>  <catalog_short_name>  (826) 
dbfda

$$$$

     RDKit          3D

 25 26  0  0  0  0  0  0  0  0999 V2000
    7.1512    2.3251    0.2320 C   0  0  0  0  0  0  0  0  0  0  0  0
    5.8316    2.3971   -0.1873 O   0  0  0  0  0  0  0  0  0  0  0  0
    5.0821    1.2244   -0.0855 C   0  0  0  0  0  0  0  0  0  0  0  0
    3.7064    1.2636   -0.1574 C   0  0  0  0  0  0  0  0  0  0  0  0
    2.9622    0.0974   -0.0609 C   0  0  0  0  0  0  0  0  0  0  0  0
    3.5570   -1.1436   -0.0105 C   0  0  0  0  0  0  0  0  0  0  0  0
    2.8094   -2.4193   -0.0902 C   0  0  0  0  0  0  0  0  0  0  0  0
    1.3640   -2.1044    0.6840 C   0  0  2  0  0  0  0  0  0  0  0  0
    0.7300   -3.5761    0.2138 C   0  0  0  0  0  0  0  0  0  0  0  0
    0.8113   -1.3493   -0.6081 N   0  0  0  0  0  0  0  0  0  0  0  0
   -0.4221   -1.8515   -0.9601 C   0  0  0  0  0  0  0  0  0  0  0  0
   -1.4387   -1.8173    0.3824 C   0  0  1  0  0  0  0  0  0  0  0  0
   -0.6733   -0.6311    1.0419 O   0  0  0  0  0  0  0  0  0  0  0  0
   -2.5254   -0.8565   -0.4197 C   0  0  0  0  0  0  0  0  0  0  0  0
   -3.7723   -1.4752   -0.5203 C   0  0  0  0  0  0  0  0  0  0  0  0
   -4.9406   -0.8305   -0.1207 C   0  0  0  0  0  0  0  0  0  0  0  0
   -4.9005    0.4717    0.3701 C   0  0  0  0  0  0  0  0  0  0  0  0
   -5.6318    0.8117    1.5176 O   0  0  0  0  0  0  0  0  0  0  0  0
   -3.7590    1.1712   -0.0069 C   0  0  0  0  0  0  0  0  0  0  0  0
   -3.5703    2.4950    0.5067 N   0  0  0  0  0  0  0  0  0  0  0  0
   -4.7222    3.2909    0.7509 C   0  0  0  0  0  0  0  0  0  0  0  0
   -5.6964    3.2302   -0.0332 O   0  0  0  0  0  0  0  0  0  0  0  0
   -2.5722    0.4445   -0.1142 C   0  0  0  0  0  0  0  0  0  0  0  0
    4.9333   -1.1483    0.1861 C   0  0  0  0  0  0  0  0  0  0  0  0
    5.6864   -0.0195   -0.0820 C   0  0  0  0  0  0  0  0  0  0  0  0
  1  2  1  0
  2  3  1  0
  3  4  2  0
  4  5  1  0
  5  6  2  0
  6  7  1  0
  8  7  1  6
  8  9  1  0
  8 10  1  0
 10 11  1  0
 12 11  1  6
 12 13  1  0
 12 14  1  0
 14 15  2  0
 15 16  1  0
 16 17  2  0
 17 18  1  0
 17 19  1  0
 19 20  1  0
 20 21  1  0
 21 22  2  0
 19 23  2  0
  6 24  1  0
 24 25  2  0
 25  3  1  0
 23 14  1  0
M  END
>  <supplier_code>  (827) 
DB00983

>  <zinc_id>  (827) 
ZINC000000000856

>  <catalog_short_name>  (827) 
dbfda

$$$$

     RDKit          3D

 25 26  0  0  0  0  0  0  0  0999 V2000
    7.1603    2.1424   -0.7341 C   0  0  0  0  0  0  0  0  0  0  0  0
    5.9841    1.7321   -0.1229 O   0  0  0  0  0  0  0  0  0  0  0  0
    5.4742    0.4549   -0.3755 C   0  0  0  0  0  0  0  0  0  0  0  0
    4.2302    0.4134   -0.9831 C   0  0  0  0  0  0  0  0  0  0  0  0
    3.4254   -0.6882   -0.7197 C   0  0  0  0  0  0  0  0  0  0  0  0
    3.5188   -1.4201    0.4294 C   0  0  0  0  0  0  0  0  0  0  0  0
    2.5847   -1.7050    1.4809 C   0  0  0  0  0  0  0  0  0  0  0  0
    1.0647   -1.9084    0.8456 C   0  0  2  0  0  0  0  0  0  0  0  0
    1.6174   -2.6354   -0.5556 C   0  0  0  0  0  0  0  0  0  0  0  0
    1.0791   -0.4519    0.1857 N   0  0  0  0  0  0  0  0  0  0  0  0
   -0.0677    0.2295    0.7245 C   0  0  0  0  0  0  0  0  0  0  0  0
   -1.0320    0.2553   -0.6654 C   0  0  2  0  0  0  0  0  0  0  0  0
   -0.8710    1.7973   -0.8061 O   0  0  0  0  0  0  0  0  0  0  0  0
   -2.4405    0.4565    0.1659 C   0  0  0  0  0  0  0  0  0  0  0  0
   -2.5295    0.0191    1.4273 C   0  0  0  0  0  0  0  0  0  0  0  0
   -3.7071    0.4011    2.0732 C   0  0  0  0  0  0  0  0  0  0  0  0
   -4.8152    0.8159    1.3459 C   0  0  0  0  0  0  0  0  0  0  0  0
   -5.8682    1.5357    1.9071 O   0  0  0  0  0  0  0  0  0  0  0  0
   -4.7764    0.5784   -0.0228 C   0  0  0  0  0  0  0  0  0  0  0  0
   -6.0158    0.4180   -0.6891 N   0  0  0  0  0  0  0  0  0  0  0  0
   -6.0252   -0.3858   -1.8749 C   0  0  0  0  0  0  0  0  0  0  0  0
   -5.0998   -0.2591   -2.7077 O   0  0  0  0  0  0  0  0  0  0  0  0
   -3.5543    0.3452   -0.6426 C   0  0  0  0  0  0  0  0  0  0  0  0
    4.8466   -1.5278    0.8384 C   0  0  0  0  0  0  0  0  0  0  0  0
    5.8171   -0.6132    0.4337 C   0  0  0  0  0  0  0  0  0  0  0  0
  1  2  1  0
  2  3  1  0
  3  4  2  0
  4  5  1  0
  5  6  2  0
  6  7  1  0
  8  7  1  1
  8  9  1  0
  8 10  1  0
 10 11  1  0
 12 11  1  1
 12 13  1  0
 12 14  1  0
 14 15  2  0
 15 16  1  0
 16 17  2  0
 17 18  1  0
 17 19  1  0
 19 20  1  0
 20 21  1  0
 21 22  2  0
 19 23  2  0
  6 24  1  0
 24 25  2  0
 25  3  1  0
 23 14  1  0
M  END
>  <supplier_code>  (828) 
DB00983

>  <zinc_id>  (828) 
ZINC000000897256

>  <catalog_short_name>  (828) 
dbfda

$$$$

     RDKit          3D

 25 26  0  0  0  0  0  0  0  0999 V2000
    6.4923    3.2782    0.0057 C   0  0  0  0  0  0  0  0  0  0  0  0
    6.2791    2.4381   -0.5240 O   0  0  0  0  0  0  0  0  0  0  0  0
    5.1887    1.5672   -0.4426 C   0  0  0  0  0  0  0  0  0  0  0  0
    4.5766    1.0824   -1.5917 C   0  0  0  0  0  0  0  0  0  0  0  0
    3.5942    0.1051   -1.4585 C   0  0  0  0  0  0  0  0  0  0  0  0
    3.3949   -0.5502   -0.2808 C   0  0  0  0  0  0  0  0  0  0  0  0
    2.7192   -1.8044   -0.0233 C   0  0  0  0  0  0  0  0  0  0  0  0
    1.4304   -1.9348   -1.0277 C   0  0  1  0  0  0  0  0  0  0  0  0
    1.2956   -3.5446   -0.6899 C   0  0  0  0  0  0  0  0  0  0  0  0
    0.4316   -1.5093    0.1148 N   0  0  0  0  0  0  0  0  0  0  0  0
   -0.6062   -2.4745    0.1908 C   0  0  0  0  0  0  0  0  0  0  0  0
   -1.7236   -2.0505   -0.9583 C   0  0  1  0  0  0  0  0  0  0  0  0
   -2.5968   -3.2559   -0.6102 O   0  0  0  0  0  0  0  0  0  0  0  0
   -2.5177   -1.0942    0.0973 C   0  0  0  0  0  0  0  0  0  0  0  0
   -1.7065   -0.0530    0.5362 C   0  0  0  0  0  0  0  0  0  0  0  0
   -2.1666    1.1900    0.8748 C   0  0  0  0  0  0  0  0  0  0  0  0
   -3.4530    1.5288    0.4749 C   0  0  0  0  0  0  0  0  0  0  0  0
   -3.9045    2.8208    0.6234 O   0  0  0  0  0  0  0  0  0  0  0  0
   -4.2692    0.5119   -0.0021 C   0  0  0  0  0  0  0  0  0  0  0  0
   -5.6845    0.6487    0.1732 N   0  0  0  0  0  0  0  0  0  0  0  0
   -6.3025    1.6076   -0.6786 C   0  0  0  0  0  0  0  0  0  0  0  0
   -6.1044    1.4696   -1.9028 O   0  0  0  0  0  0  0  0  0  0  0  0
   -3.6990   -0.6426   -0.4810 C   0  0  0  0  0  0  0  0  0  0  0  0
    4.3111   -0.2503    0.7267 C   0  0  0  0  0  0  0  0  0  0  0  0
    5.0208    0.9158    0.7692 C   0  0  0  0  0  0  0  0  0  0  0  0
  1  2  1  0
  2  3  1  0
  3  4  2  0
  4  5  1  0
  5  6  2  0
  6  7  1  0
  8  7  1  1
  8  9  1  0
  8 10  1  0
 10 11  1  0
 12 11  1  1
 12 13  1  0
 12 14  1  0
 14 15  2  0
 15 16  1  0
 16 17  2  0
 17 18  1  0
 17 19  1  0
 19 20  1  0
 20 21  1  0
 21 22  2  0
 19 23  2  0
  6 24  1  0
 24 25  2  0
 25  3  1  0
 23 14  1  0
M  END
>  <supplier_code>  (829) 
DB00983

>  <zinc_id>  (829) 
ZINC000000897258

>  <catalog_short_name>  (829) 
dbfda

$$$$

     RDKit          3D

 25 26  0  0  0  0  0  0  0  0999 V2000
    7.2861    2.3662    0.2363 C   0  0  0  0  0  0  0  0  0  0  0  0
    6.9116    1.9749   -0.0836 O   0  0  0  0  0  0  0  0  0  0  0  0
    6.0537    0.9302   -0.4401 C   0  0  0  0  0  0  0  0  0  0  0  0
    4.8891    1.3244   -1.0864 C   0  0  0  0  0  0  0  0  0  0  0  0
    4.0035    0.2998   -1.3833 C   0  0  0  0  0  0  0  0  0  0  0  0
    3.8457   -0.7199   -0.4512 C   0  0  0  0  0  0  0  0  0  0  0  0
    2.7989   -1.7352   -0.6448 C   0  0  0  0  0  0  0  0  0  0  0  0
    1.4569   -1.1300    0.1373 C   0  0  1  0  0  0  0  0  0  0  0  0
    1.3042    0.1027   -0.9756 C   0  0  0  0  0  0  0  0  0  0  0  0
    0.4902   -2.0791   -0.7103 N   0  0  0  0  0  0  0  0  0  0  0  0
   -0.6892   -1.2996   -0.9521 C   0  0  0  0  0  0  0  0  0  0  0  0
   -1.0900   -0.9468    0.6501 C   0  0  2  0  0  0  0  0  0  0  0  0
   -1.9499   -2.2380    0.7681 O   0  0  0  0  0  0  0  0  0  0  0  0
   -2.3668   -0.0128    0.1802 C   0  0  0  0  0  0  0  0  0  0  0  0
   -2.6809    0.9772    1.0748 C   0  0  0  0  0  0  0  0  0  0  0  0
   -4.0324    1.2569    1.2457 C   0  0  0  0  0  0  0  0  0  0  0  0
   -4.9904    0.6165    0.4689 C   0  0  0  0  0  0  0  0  0  0  0  0
   -6.2519    0.3278    0.9882 O   0  0  0  0  0  0  0  0  0  0  0  0
   -4.5045    0.0616   -0.7072 C   0  0  0  0  0  0  0  0  0  0  0  0
   -5.5069   -0.3640   -1.6265 N   0  0  0  0  0  0  0  0  0  0  0  0
   -6.5085    0.5715   -1.9690 C   0  0  0  0  0  0  0  0  0  0  0  0
   -6.4475    1.7500   -1.5567 O   0  0  0  0  0  0  0  0  0  0  0  0
   -3.2418   -0.5346   -0.6779 C   0  0  0  0  0  0  0  0  0  0  0  0
    5.0490   -1.1597    0.0909 C   0  0  0  0  0  0  0  0  0  0  0  0
    6.1720   -0.3400    0.0985 C   0  0  0  0  0  0  0  0  0  0  0  0
  1  2  1  0
  2  3  1  0
  3  4  2  0
  4  5  1  0
  5  6  2  0
  6  7  1  0
  8  7  1  6
  8  9  1  0
  8 10  1  0
 10 11  1  0
 12 11  1  6
 12 13  1  0
 12 14  1  0
 14 15  2  0
 15 16  1  0
 16 17  2  0
 17 18  1  0
 17 19  1  0
 19 20  1  0
 20 21  1  0
 21 22  2  0
 19 23  2  0
  6 24  1  0
 24 25  2  0
 25  3  1  0
 23 14  1  0
M  END
>  <supplier_code>  (830) 
DB00983

>  <zinc_id>  (830) 
ZINC000002599970

>  <catalog_short_name>  (830) 
dbfda

$$$$

     RDKit          3D

 19 20  0  0  0  0  0  0  0  0999 V2000
    2.5057   -3.2293    1.0323 C   0  0  0  0  0  0  0  0  0  0  0  0
    3.1921   -2.4736   -0.0125 N   0  0  0  0  0  0  0  0  0  0  0  0
    4.5979   -2.4122    0.3771 C   0  0  0  0  0  0  0  0  0  0  0  0
    2.7338   -1.0885   -0.0537 C   0  0  0  0  0  0  0  0  0  0  0  0
    1.2414   -0.9870   -0.2102 C   0  0  0  0  0  0  0  0  0  0  0  0
    0.6489   -0.3782    0.8845 O   0  0  0  0  0  0  0  0  0  0  0  0
   -0.4617    0.3792    0.5612 C   0  0  0  0  0  0  0  0  0  0  0  0
   -1.5233   -0.4673   -0.0672 C   0  0  0  0  0  0  0  0  0  0  0  0
   -1.5370   -1.8316    0.1959 C   0  0  0  0  0  0  0  0  0  0  0  0
   -2.7175   -2.5134    0.4675 C   0  0  0  0  0  0  0  0  0  0  0  0
   -3.9194   -1.8792    0.1762 C   0  0  0  0  0  0  0  0  0  0  0  0
   -3.8642   -0.6340   -0.4360 C   0  0  0  0  0  0  0  0  0  0  0  0
   -2.7400    0.1637   -0.2967 C   0  0  0  0  0  0  0  0  0  0  0  0
   -0.1225    1.5536   -0.2757 C   0  0  0  0  0  0  0  0  0  0  0  0
   -1.0174    2.6047   -0.3822 C   0  0  0  0  0  0  0  0  0  0  0  0
   -0.6050    3.9313   -0.3974 C   0  0  0  0  0  0  0  0  0  0  0  0
    0.7388    4.2196   -0.4308 C   0  0  0  0  0  0  0  0  0  0  0  0
    1.6477    3.1785   -0.5754 C   0  0  0  0  0  0  0  0  0  0  0  0
    1.2018    1.8640   -0.5569 C   0  0  0  0  0  0  0  0  0  0  0  0
  1  2  1  0
  2  3  1  0
  2  4  1  0
  4  5  1  0
  5  6  1  0
  6  7  1  0
  7  8  1  0
  8  9  2  0
  9 10  1  0
 10 11  2  0
 11 12  1  0
 12 13  2  0
  7 14  1  0
 14 15  2  0
 15 16  1  0
 16 17  2  0
 17 18  1  0
 18 19  2  0
 13  8  1  0
 19 14  1  0
M  END
>  <supplier_code>  (831) 
DB00985

>  <zinc_id>  (831) 
ZINC000000020244

>  <catalog_short_name>  (831) 
dbfda

$$$$

     RDKit          3D

 23 25  0  0  0  0  0  0  0  0999 V2000
    5.0739   -0.9854   -0.1015 C   0  0  0  0  0  0  0  0  0  0  0  0
    4.6635   -0.4256    0.1271 N   0  0  0  0  0  0  0  0  0  0  0  0
    5.2925    0.3125    1.2183 C   0  0  0  0  0  0  0  0  0  0  0  0
    4.5999    0.3965   -1.0203 C   0  0  0  0  0  0  0  0  0  0  0  0
    3.2216    0.9609   -1.0904 C   0  0  0  0  0  0  0  0  0  0  0  0
    2.4581   -0.4650   -0.7564 C   0  0  2  0  0  0  0  0  0  0  0  0
    1.3633    0.2593    0.0499 O   0  0  0  0  0  0  0  0  0  0  0  0
    0.2037   -0.4610    0.2663 C   0  0  0  0  0  0  0  0  0  0  0  0
    0.1427   -1.7247    0.1658 O   0  0  0  0  0  0  0  0  0  0  0  0
   -1.0606    0.3272    0.4187 C   0  0  2  0  0  0  0  0  0  0  0  0
   -1.0369    1.0851    1.5993 O   0  0  0  0  0  0  0  0  0  0  0  0
   -2.2398   -0.5614    0.4103 C   0  0  0  0  0  0  0  0  0  0  0  0
   -2.3937   -1.4097   -0.6743 C   0  0  0  0  0  0  0  0  0  0  0  0
   -3.4889   -2.2305   -0.6984 C   0  0  0  0  0  0  0  0  0  0  0  0
   -4.2122   -2.4650    0.4597 C   0  0  0  0  0  0  0  0  0  0  0  0
   -3.6841   -1.9655    1.6309 C   0  0  0  0  0  0  0  0  0  0  0  0
   -2.6603   -1.0621    1.6302 C   0  0  0  0  0  0  0  0  0  0  0  0
   -1.1055    1.2921   -0.7249 C   0  0  0  0  0  0  0  0  0  0  0  0
   -2.4202    1.2387   -1.4756 C   0  0  0  0  0  0  0  0  0  0  0  0
   -3.1555    2.4358   -0.9454 C   0  0  0  0  0  0  0  0  0  0  0  0
   -2.0879    3.4677   -0.7148 C   0  0  0  0  0  0  0  0  0  0  0  0
   -0.8286    2.7105   -0.3754 C   0  0  0  0  0  0  0  0  0  0  0  0
    3.3547   -0.7302    0.6010 C   0  0  0  0  0  0  0  0  0  0  0  0
  1  2  1  0
  2  3  1  0
  2  4  1  0
  4  5  1  0
  5  6  1  0
  6  7  1  1
  7  8  1  0
  8  9  2  0
 10  8  1  6
 10 11  1  0
 10 12  1  0
 12 13  2  0
 13 14  1  0
 14 15  2  0
 15 16  1  0
 16 17  2  0
 10 18  1  0
 18 19  1  0
 19 20  1  0
 20 21  1  0
 21 22  1  0
  6 23  1  0
 23  2  1  0
 17 12  1  0
 22 18  1  0
M  CHG  1   2   1
M  END
>  <supplier_code>  (832) 
DB00986

>  <zinc_id>  (832) 
ZINC000000000346

>  <catalog_short_name>  (832) 
dbfda

$$$$

     RDKit          3D

 23 25  0  0  0  0  0  0  0  0999 V2000
    5.6201   -0.0032    0.3865 C   0  0  0  0  0  0  0  0  0  0  0  0
    4.5536    0.3205   -0.2791 N   0  0  0  0  0  0  0  0  0  0  0  0
    4.7389    1.1073   -1.4658 C   0  0  0  0  0  0  0  0  0  0  0  0
    3.6144    1.0332    0.5638 C   0  0  0  0  0  0  0  0  0  0  0  0
    2.4907    1.2840   -0.3329 C   0  0  0  0  0  0  0  0  0  0  0  0
    2.4550   -0.0794   -1.3014 C   0  0  2  0  0  0  0  0  0  0  0  0
    1.3779   -0.7496   -0.3790 O   0  0  0  0  0  0  0  0  0  0  0  0
    0.2368    0.0137   -0.2863 C   0  0  0  0  0  0  0  0  0  0  0  0
    0.3616    1.2609   -0.4844 O   0  0  0  0  0  0  0  0  0  0  0  0
   -1.1086   -0.5122    0.1054 C   0  0  1  0  0  0  0  0  0  0  0  0
   -0.8854   -1.2745    1.2647 O   0  0  0  0  0  0  0  0  0  0  0  0
   -2.0077    0.6042    0.4094 C   0  0  0  0  0  0  0  0  0  0  0  0
   -1.5225    1.6718    1.1590 C   0  0  0  0  0  0  0  0  0  0  0  0
   -2.0975    2.9259    0.9834 C   0  0  0  0  0  0  0  0  0  0  0  0
   -3.2997    3.0388    0.3063 C   0  0  0  0  0  0  0  0  0  0  0  0
   -3.9467    1.8891   -0.1044 C   0  0  0  0  0  0  0  0  0  0  0  0
   -3.3537    0.6657    0.1649 C   0  0  0  0  0  0  0  0  0  0  0  0
   -1.5325   -1.4216   -0.9871 C   0  0  0  0  0  0  0  0  0  0  0  0
   -0.9809   -2.8137   -0.7660 C   0  0  0  0  0  0  0  0  0  0  0  0
   -2.1437   -3.7242   -0.5039 C   0  0  0  0  0  0  0  0  0  0  0  0
   -3.2773   -2.7625   -0.1602 C   0  0  0  0  0  0  0  0  0  0  0  0
   -2.9912   -1.6488   -1.1455 C   0  0  0  0  0  0  0  0  0  0  0  0
    3.6983   -0.8252   -0.4643 C   0  0  0  0  0  0  0  0  0  0  0  0
  1  2  1  0
  2  3  1  0
  2  4  1  0
  4  5  1  0
  5  6  1  0
  6  7  1  1
  7  8  1  0
  8  9  2  0
 10  8  1  6
 10 11  1  0
 10 12  1  0
 12 13  2  0
 13 14  1  0
 14 15  2  0
 15 16  1  0
 16 17  2  0
 10 18  1  0
 18 19  1  0
 19 20  1  0
 20 21  1  0
 21 22  1  0
  6 23  1  0
 23  2  1  0
 17 12  1  0
 22 18  1  0
M  CHG  1   2   1
M  END
>  <supplier_code>  (833) 
DB00986

>  <zinc_id>  (833) 
ZINC000000896958

>  <catalog_short_name>  (833) 
dbfda

$$$$

     RDKit          3D

 23 25  0  0  0  0  0  0  0  0999 V2000
    4.5557    0.3912    0.2748 C   0  0  0  0  0  0  0  0  0  0  0  0
    4.5421    0.4187    0.2746 N   0  0  0  0  0  0  0  0  0  0  0  0
    5.0472   -0.1358   -0.9801 C   0  0  0  0  0  0  0  0  0  0  0  0
    4.0117   -0.5861    1.1802 C   0  0  0  0  0  0  0  0  0  0  0  0
    2.5259   -0.4259    1.1055 C   0  0  0  0  0  0  0  0  0  0  0  0
    2.3860    0.2644   -0.3863 C   0  0  1  0  0  0  0  0  0  0  0  0
    1.2148    1.1653    0.0701 O   0  0  0  0  0  0  0  0  0  0  0  0
    0.1419    0.4312    0.5157 C   0  0  0  0  0  0  0  0  0  0  0  0
    0.4003   -0.3845    1.4555 O   0  0  0  0  0  0  0  0  0  0  0  0
   -1.2592    0.5905    0.0755 C   0  0  2  0  0  0  0  0  0  0  0  0
   -1.9448    1.5748    0.7754 O   0  0  0  0  0  0  0  0  0  0  0  0
   -1.9518   -0.7075    0.3515 C   0  0  0  0  0  0  0  0  0  0  0  0
   -1.5808   -1.8798   -0.2943 C   0  0  0  0  0  0  0  0  0  0  0  0
   -2.0465   -3.1105    0.1495 C   0  0  0  0  0  0  0  0  0  0  0  0
   -2.5431   -3.2340    1.4356 C   0  0  0  0  0  0  0  0  0  0  0  0
   -2.5686   -2.1062    2.2333 C   0  0  0  0  0  0  0  0  0  0  0  0
   -2.5340   -0.8771    1.6014 C   0  0  0  0  0  0  0  0  0  0  0  0
   -1.4131    0.8570   -1.3921 C   0  0  0  0  0  0  0  0  0  0  0  0
   -2.6193    0.1884   -1.9891 C   0  0  0  0  0  0  0  0  0  0  0  0
   -3.4847    1.2605   -2.5867 C   0  0  0  0  0  0  0  0  0  0  0  0
   -2.8903    2.5849   -2.1902 C   0  0  0  0  0  0  0  0  0  0  0  0
   -1.4830    2.3172   -1.7277 C   0  0  0  0  0  0  0  0  0  0  0  0
    3.4935    1.4034    0.0480 C   0  0  0  0  0  0  0  0  0  0  0  0
  1  2  1  0
  2  3  1  0
  2  4  1  0
  4  5  1  0
  5  6  1  0
  6  7  1  1
  7  8  1  0
  8  9  2  0
 10  8  1  1
 10 11  1  0
 10 12  1  0
 12 13  2  0
 13 14  1  0
 14 15  2  0
 15 16  1  0
 16 17  2  0
 10 18  1  0
 18 19  1  0
 19 20  1  0
 20 21  1  0
 21 22  1  0
  6 23  1  0
 23  2  1  0
 17 12  1  0
 22 18  1  0
M  CHG  1   2   1
M  END
>  <supplier_code>  (834) 
DB00986

>  <zinc_id>  (834) 
ZINC000000896968

>  <catalog_short_name>  (834) 
dbfda

$$$$

     RDKit          3D

 23 25  0  0  0  0  0  0  0  0999 V2000
    4.7566    0.2998    1.0876 C   0  0  0  0  0  0  0  0  0  0  0  0
    4.3664   -0.1740    0.1717 N   0  0  0  0  0  0  0  0  0  0  0  0
    5.4392   -0.7778   -0.5871 C   0  0  0  0  0  0  0  0  0  0  0  0
    3.6976    0.7736   -0.6879 C   0  0  0  0  0  0  0  0  0  0  0  0
    2.2960    0.9296   -0.1953 C   0  0  0  0  0  0  0  0  0  0  0  0
    2.3218   -0.0867    1.1267 C   0  0  1  0  0  0  0  0  0  0  0  0
    1.0258   -0.8157    0.6523 O   0  0  0  0  0  0  0  0  0  0  0  0
   -0.0681    0.0486    0.5617 C   0  0  0  0  0  0  0  0  0  0  0  0
    0.0367    1.1724    1.1444 O   0  0  0  0  0  0  0  0  0  0  0  0
   -1.4365   -0.3810    0.2442 C   0  0  1  0  0  0  0  0  0  0  0  0
   -1.9726   -1.1290    1.2973 O   0  0  0  0  0  0  0  0  0  0  0  0
   -2.2747    0.8486    0.0493 C   0  0  0  0  0  0  0  0  0  0  0  0
   -1.7891    1.8804   -0.7465 C   0  0  0  0  0  0  0  0  0  0  0  0
   -2.1137    3.2115   -0.5158 C   0  0  0  0  0  0  0  0  0  0  0  0
   -2.7390    3.5285    0.6814 C   0  0  0  0  0  0  0  0  0  0  0  0
   -3.4433    2.5315    1.3130 C   0  0  0  0  0  0  0  0  0  0  0  0
   -3.2224    1.2102    0.9753 C   0  0  0  0  0  0  0  0  0  0  0  0
   -1.5782   -1.1707   -1.0171 C   0  0  0  0  0  0  0  0  0  0  0  0
   -2.7885   -2.0938   -0.8860 C   0  0  0  0  0  0  0  0  0  0  0  0
   -2.3822   -3.4080   -1.4838 C   0  0  0  0  0  0  0  0  0  0  0  0
   -1.0206   -3.1970   -2.1368 C   0  0  0  0  0  0  0  0  0  0  0  0
   -0.4104   -2.0330   -1.3630 C   0  0  0  0  0  0  0  0  0  0  0  0
    3.2988   -1.1680    0.3145 C   0  0  0  0  0  0  0  0  0  0  0  0
  1  2  1  0
  2  3  1  0
  2  4  1  0
  4  5  1  0
  5  6  1  0
  6  7  1  6
  7  8  1  0
  8  9  2  0
 10  8  1  1
 10 11  1  0
 10 12  1  0
 12 13  2  0
 13 14  1  0
 14 15  2  0
 15 16  1  0
 16 17  2  0
 10 18  1  0
 18 19  1  0
 19 20  1  0
 20 21  1  0
 21 22  1  0
  6 23  1  0
 23  2  1  0
 17 12  1  0
 22 18  1  0
M  CHG  1   2   1
M  END
>  <supplier_code>  (835) 
DB00986

>  <zinc_id>  (835) 
ZINC000000968301

>  <catalog_short_name>  (835) 
dbfda

$$$$

     RDKit          3D

 17 18  0  0  0  0  0  0  0  0999 V2000
    4.3176    1.0012   -1.0715 N   0  0  0  0  0  0  0  0  0  0  0  0
    3.2949    0.3489   -0.3765 C   0  0  0  0  0  0  0  0  0  0  0  0
    2.5330    1.0045    0.5850 C   0  0  0  0  0  0  0  0  0  0  0  0
    1.2229    0.6199    0.6040 C   0  0  0  0  0  0  0  0  0  0  0  0
    0.8592   -0.5863    0.3271 N   0  0  0  0  0  0  0  0  0  0  0  0
   -0.6522   -0.9532    0.0915 C   0  0  2  0  0  0  0  0  0  0  0  0
   -0.9300    0.2298   -0.7872 O   0  0  0  0  0  0  0  0  0  0  0  0
   -2.4060    0.0243   -0.8780 C   0  0  2  0  0  0  0  0  0  0  0  0
   -2.6656    1.6515   -0.9360 C   0  0  0  0  0  0  0  0  0  0  0  0
   -3.9833    1.8726   -0.6937 O   0  0  0  0  0  0  0  0  0  0  0  0
   -2.7847   -0.0478    0.7799 C   0  0  1  0  0  0  0  0  0  0  0  0
   -2.7755   -1.5535    0.7543 O   0  0  0  0  0  0  0  0  0  0  0  0
   -1.2167   -0.0099    1.4074 C   0  0  2  0  0  0  0  0  0  0  0  0
   -0.9960    1.3743    0.8814 O   0  0  0  0  0  0  0  0  0  0  0  0
    1.6998   -1.3894   -0.3722 C   0  0  0  0  0  0  0  0  0  0  0  0
    1.5066   -2.6279   -0.3600 O   0  0  0  0  0  0  0  0  0  0  0  0
    2.9758   -0.9591   -0.5356 N   0  0  0  0  0  0  0  0  0  0  0  0
  1  2  1  0
  2  3  1  0
  3  4  2  0
  4  5  1  0
  6  5  1  1
  6  7  1  0
  7  8  1  0
  8  9  1  1
  9 10  1  0
  8 11  1  0
 11 12  1  6
 11 13  1  0
 13 14  1  6
  5 15  1  0
 15 16  2  0
 15 17  1  0
 17  2  2  0
 13  6  1  0
M  END
>  <supplier_code>  (836) 
DB00987

>  <zinc_id>  (836) 
ZINC000003795098

>  <catalog_short_name>  (836) 
dbfda

$$$$

     RDKit          3D

 11 11  0  0  0  0  0  0  0  0999 V2000
    3.5495   -0.7400    0.7689 N   0  0  0  0  0  0  0  0  0  0  0  0
    2.7308   -0.8063   -0.4316 C   0  0  0  0  0  0  0  0  0  0  0  0
    2.1549    0.5718   -0.7036 C   0  0  0  0  0  0  0  0  0  0  0  0
    0.6744    0.5680   -0.6116 C   0  0  0  0  0  0  0  0  0  0  0  0
   -0.0154    1.6905   -0.1782 C   0  0  0  0  0  0  0  0  0  0  0  0
   -1.2829    1.5795    0.3770 C   0  0  0  0  0  0  0  0  0  0  0  0
   -1.8604    0.3219    0.4827 C   0  0  0  0  0  0  0  0  0  0  0  0
   -2.6819    0.0454    1.5795 O   0  0  0  0  0  0  0  0  0  0  0  0
   -1.2728   -0.7056   -0.2450 C   0  0  0  0  0  0  0  0  0  0  0  0
   -2.0506   -1.8570   -0.3990 O   0  0  0  0  0  0  0  0  0  0  0  0
    0.0545   -0.6682   -0.6390 C   0  0  0  0  0  0  0  0  0  0  0  0
  1  2  1  0
  2  3  1  0
  3  4  1  0
  4  5  2  0
  5  6  1  0
  6  7  2  0
  7  8  1  0
  7  9  1  0
  9 10  1  0
  9 11  2  0
 11  4  1  0
M  END
>  <supplier_code>  (837) 
DB00988

>  <zinc_id>  (837) 
ZINC000000033882

>  <catalog_short_name>  (837) 
dbfda

$$$$

     RDKit          3D

 18 18  0  0  0  0  0  0  0  0999 V2000
    4.5079    0.5196    0.3637 C   0  0  0  0  0  0  0  0  0  0  0  0
    4.8530   -0.0165   -1.0178 C   0  0  0  0  0  0  0  0  0  0  0  0
    3.6373   -0.4637   -1.6956 N   0  0  0  0  0  0  0  0  0  0  0  0
    3.4671   -1.9141   -1.6480 C   0  0  0  0  0  0  0  0  0  0  0  0
    2.4981    0.3630   -1.4261 C   0  0  0  0  0  0  0  0  0  0  0  0
    2.6263    1.6021   -1.1842 O   0  0  0  0  0  0  0  0  0  0  0  0
    1.1874   -0.0567   -1.5255 O   0  0  0  0  0  0  0  0  0  0  0  0
    0.2911    0.2680   -0.4913 C   0  0  0  0  0  0  0  0  0  0  0  0
    0.7109    0.3133    0.8380 C   0  0  0  0  0  0  0  0  0  0  0  0
    0.0045   -0.3908    1.8080 C   0  0  0  0  0  0  0  0  0  0  0  0
   -1.2899   -0.7511    1.4458 C   0  0  0  0  0  0  0  0  0  0  0  0
   -1.8646    0.1025    0.4969 C   0  0  0  0  0  0  0  0  0  0  0  0
   -3.4338   -0.1840    0.2536 C   0  0  2  0  0  0  0  0  0  0  0  0
   -3.5710    0.9432   -0.9407 C   0  0  0  0  0  0  0  0  0  0  0  0
   -3.8794    0.8625    1.3444 N   0  0  0  0  0  0  0  0  0  0  0  0
   -5.3231    0.6533    1.4420 C   0  0  0  0  0  0  0  0  0  0  0  0
   -3.3351    0.4587    2.5982 C   0  0  0  0  0  0  0  0  0  0  0  0
   -1.0866    0.1604   -0.6615 C   0  0  0  0  0  0  0  0  0  0  0  0
  1  2  1  0
  2  3  1  0
  3  4  1  0
  3  5  1  0
  5  6  2  0
  5  7  1  0
  7  8  1  0
  8  9  2  0
  9 10  1  0
 10 11  2  0
 11 12  1  0
 13 12  1  1
 13 14  1  0
 13 15  1  0
 15 16  1  0
 15 17  1  0
 12 18  2  0
 18  8  1  0
M  END
>  <supplier_code>  (838) 
DB00989

>  <zinc_id>  (838) 
ZINC000000004413

>  <catalog_short_name>  (838) 
dbfda

$$$$

     RDKit          3D

 22 25  0  0  0  0  0  0  0  0999 V2000
   -1.9218   -2.2430   -2.0235 C   0  0  0  0  0  0  0  0  0  0  0  0
   -1.3285   -1.5887   -1.0877 C   0  0  0  0  0  0  0  0  0  0  0  0
    0.1229   -1.6954   -0.9739 C   0  0  0  0  0  0  0  0  0  0  0  0
    0.6470   -0.6391    0.1225 C   0  0  1  0  0  0  0  0  0  0  0  0
    2.0630   -0.3704   -0.7900 C   0  0  2  0  0  0  0  0  0  0  0  0
    2.8718   -1.6121   -0.0826 C   0  0  0  0  0  0  0  0  0  0  0  0
    4.2762   -1.0074   -0.0913 C   0  0  0  0  0  0  0  0  0  0  0  0
    4.0717    0.4809   -0.1575 C   0  0  0  0  0  0  0  0  0  0  0  0
    4.8038    1.2143   -0.7815 O   0  0  0  0  0  0  0  0  0  0  0  0
    2.6931    0.6378    0.3373 C   0  0  2  0  0  0  0  0  0  0  0  0
    2.5620   -0.0078    1.6470 C   0  0  0  0  0  0  0  0  0  0  0  0
    1.9969    1.8860    0.0589 C   0  0  0  0  0  0  0  0  0  0  0  0
    0.5537    1.7602    0.4097 C   0  0  0  0  0  0  0  0  0  0  0  0
   -0.1112    0.6851   -0.6412 C   0  0  2  0  0  0  0  0  0  0  0  0
   -1.4706    0.5229    0.2521 C   0  0  1  0  0  0  0  0  0  0  0  0
   -1.1568    0.5281    1.6777 C   0  0  0  0  0  0  0  0  0  0  0  0
   -2.3984    1.5868   -0.2017 C   0  0  0  0  0  0  0  0  0  0  0  0
   -3.5967    1.4864    0.3825 C   0  0  0  0  0  0  0  0  0  0  0  0
   -4.1767    0.1531    0.5959 C   0  0  0  0  0  0  0  0  0  0  0  0
   -5.0830   -0.0645    1.4567 O   0  0  0  0  0  0  0  0  0  0  0  0
   -3.3663   -0.9357    0.0310 C   0  0  0  0  0  0  0  0  0  0  0  0
   -2.0521   -0.7776   -0.1403 C   0  0  0  0  0  0  0  0  0  0  0  0
  1  2  2  0
  2  3  1  0
  4  3  1  6
  4  5  1  0
  5  6  1  1
  6  7  1  0
  7  8  1  0
  8  9  2  0
  8 10  1  0
 10 11  1  1
 10 12  1  0
 12 13  1  0
 14 13  1  1
 14 15  1  0
 15 16  1  1
 15 17  1  0
 17 18  2  0
 18 19  1  0
 19 20  2  0
 19 21  1  0
 21 22  2  0
 22  2  1  0
 14  4  1  0
 22 15  1  0
 10  5  1  0
M  END
>  <supplier_code>  (839) 
DB00990

>  <zinc_id>  (839) 
ZINC000003973334

>  <catalog_short_name>  (839) 
dbfda

$$$$

     RDKit          3D

 22 24  0  0  0  0  0  0  0  0999 V2000
    5.2952   -0.9867    1.3141 O   0  0  0  0  0  0  0  0  0  0  0  0
    5.1420    0.1483    0.7725 C   0  0  0  0  0  0  0  0  0  0  0  0
    6.0900    0.4763   -0.1959 O   0  0  0  0  0  0  0  0  0  0  0  0
    3.7404    0.5979    0.5906 C   0  0  0  0  0  0  0  0  0  0  0  0
    3.0120   -0.4632   -0.1845 C   0  0  0  0  0  0  0  0  0  0  0  0
    1.5481   -0.2143   -0.0015 C   0  0  0  0  0  0  0  0  0  0  0  0
    0.6931   -0.8703    0.8143 N   0  0  0  0  0  0  0  0  0  0  0  0
   -0.5699   -0.5527    0.4354 C   0  0  0  0  0  0  0  0  0  0  0  0
   -1.7498   -1.4289    0.4178 C   0  0  0  0  0  0  0  0  0  0  0  0
   -1.9952   -2.1445    1.5833 C   0  0  0  0  0  0  0  0  0  0  0  0
   -2.6511   -3.3670    1.5565 C   0  0  0  0  0  0  0  0  0  0  0  0
   -2.7131   -4.0793    0.3889 C   0  0  0  0  0  0  0  0  0  0  0  0
   -2.4824   -3.3963   -0.7975 C   0  0  0  0  0  0  0  0  0  0  0  0
   -2.1967   -2.0377   -0.7487 C   0  0  0  0  0  0  0  0  0  0  0  0
   -0.4431    0.4967   -0.4657 C   0  0  0  0  0  0  0  0  0  0  0  0
   -1.4857    1.4938   -0.7454 C   0  0  0  0  0  0  0  0  0  0  0  0
   -2.1641    2.1164    0.2958 C   0  0  0  0  0  0  0  0  0  0  0  0
   -2.4431    3.4746    0.2800 C   0  0  0  0  0  0  0  0  0  0  0  0
   -2.1330    4.2372   -0.8381 C   0  0  0  0  0  0  0  0  0  0  0  0
   -1.9300    3.5204   -2.0102 C   0  0  0  0  0  0  0  0  0  0  0  0
   -1.4174    2.2323   -1.9209 C   0  0  0  0  0  0  0  0  0  0  0  0
    0.8538    0.7468   -0.5410 O   0  0  0  0  0  0  0  0  0  0  0  0
  1  2  2  0
  2  3  1  0
  2  4  1  0
  4  5  1  0
  5  6  1  0
  6  7  2  0
  7  8  1  0
  8  9  1  0
  9 10  2  0
 10 11  1  0
 11 12  2  0
 12 13  1  0
 13 14  2  0
  8 15  2  0
 15 16  1  0
 16 17  2  0
 17 18  1  0
 18 19  2  0
 19 20  1  0
 20 21  2  0
 15 22  1  0
 22  6  1  0
 14  9  1  0
 21 16  1  0
M  END
>  <supplier_code>  (840) 
DB00991

>  <zinc_id>  (840) 
ZINC000049643479

>  <catalog_short_name>  (840) 
dbfda

$$$$

     RDKit          3D

 19 21  0  0  0  0  0  0  0  0999 V2000
   -1.1518   -2.9747   -0.9297 C   0  0  0  0  0  0  0  0  0  0  0  0
   -2.0527   -1.9038   -0.5160 N   0  0  0  0  0  0  0  0  0  0  0  0
   -3.2912   -2.0568    0.0037 C   0  0  0  0  0  0  0  0  0  0  0  0
   -3.6393   -0.8419    0.4526 N   0  0  0  0  0  0  0  0  0  0  0  0
   -2.7428    0.0885    0.0987 C   0  0  0  0  0  0  0  0  0  0  0  0
   -2.9305    1.5075    0.0764 N   0  0  0  0  0  0  0  0  0  0  0  0
   -3.9049    2.0672   -0.4353 O   0  0  0  0  0  0  0  0  0  0  0  0
   -1.8155    2.2931    0.3089 O   0  0  0  0  0  0  0  0  0  0  0  0
   -1.7811   -0.5930   -0.6261 C   0  0  0  0  0  0  0  0  0  0  0  0
   -0.3232    0.1789   -1.2853 S   0  0  0  0  0  0  0  0  0  0  0  0
    1.0208   -0.0074   -0.1077 C   0  0  0  0  0  0  0  0  0  0  0  0
    0.9360   -0.9166    0.8938 N   0  0  0  0  0  0  0  0  0  0  0  0
    2.1010   -1.3429    1.4387 C   0  0  0  0  0  0  0  0  0  0  0  0
    3.3024   -0.9755    0.9301 N   0  0  0  0  0  0  0  0  0  0  0  0
    3.4004    0.0555    0.0563 C   0  0  0  0  0  0  0  0  0  0  0  0
    4.3889    0.8536   -0.3809 N   0  0  0  0  0  0  0  0  0  0  0  0
    3.8104    2.0129   -0.7741 C   0  0  0  0  0  0  0  0  0  0  0  0
    2.4681    1.8523   -0.8627 N   0  0  0  0  0  0  0  0  0  0  0  0
    2.2048    0.7033   -0.2315 C   0  0  0  0  0  0  0  0  0  0  0  0
  1  2  1  0
  2  3  1  0
  3  4  2  0
  4  5  1  0
  5  6  1  0
  6  7  2  0
  6  8  1  0
  5  9  2  0
  9 10  1  0
 10 11  1  0
 11 12  2  0
 12 13  1  0
 13 14  2  0
 14 15  1  0
 15 16  1  0
 16 17  2  0
 17 18  1  0
 18 19  1  0
  9  2  1  0
 19 11  1  0
 19 15  2  0
M  CHG  2   6   1   8  -1
M  END
>  <supplier_code>  (841) 
DB00993

>  <zinc_id>  (841) 
ZINC000004258316

>  <catalog_short_name>  (841) 
dbfda

$$$$

     RDKit          3D

 12 12  0  0  0  0  0  0  0  0999 V2000
    0.9943    2.7656   -0.4712 N   0  0  0  0  0  0  0  0  0  0  0  0
   -0.0012    1.7744   -0.8747 C   0  0  0  0  0  0  0  0  0  0  0  0
    0.2783    0.4509   -0.2136 C   0  0  0  0  0  0  0  0  0  0  0  0
   -0.8753   -0.0069    0.6267 C   0  0  0  0  0  0  0  0  0  0  0  0
   -2.0650   -0.3955   -0.1932 C   0  0  0  0  0  0  0  0  0  0  0  0
   -2.7394   -1.3630    0.2744 O   0  0  0  0  0  0  0  0  0  0  0  0
   -2.8259    0.6741   -0.6756 O   0  0  0  0  0  0  0  0  0  0  0  0
    0.5947   -0.5568   -1.3107 C   0  0  0  0  0  0  0  0  0  0  0  0
    1.8294   -1.3574   -0.9174 C   0  0  0  0  0  0  0  0  0  0  0  0
    1.5733   -1.8816    0.4878 C   0  0  0  0  0  0  0  0  0  0  0  0
    1.7563   -0.6983    1.4285 C   0  0  0  0  0  0  0  0  0  0  0  0
    1.4806    0.5946    0.7084 C   0  0  0  0  0  0  0  0  0  0  0  0
  1  2  1  0
  2  3  1  0
  3  4  1  0
  4  5  1  0
  5  6  2  0
  5  7  1  0
  3  8  1  0
  8  9  1  0
  9 10  1  0
 10 11  1  0
 11 12  1  0
 12  3  1  0
M  END
>  <supplier_code>  (842) 
DB00996

>  <zinc_id>  (842) 
ZINC000000004949

>  <catalog_short_name>  (842) 
dbfda

$$$$

     RDKit          3D

 39 43  0  0  0  0  0  0  0  0999 V2000
    4.7774    0.2493   -4.0306 C   0  0  0  0  0  0  0  0  0  0  0  0
    4.5637    0.9237   -3.3346 O   0  0  0  0  0  0  0  0  0  0  0  0
    4.8771    1.0423   -1.9775 C   0  0  0  0  0  0  0  0  0  0  0  0
    6.1545    1.4184   -1.5711 C   0  0  0  0  0  0  0  0  0  0  0  0
    6.5778    1.2392   -0.2596 C   0  0  0  0  0  0  0  0  0  0  0  0
    5.7932    0.3701    0.4888 C   0  0  0  0  0  0  0  0  0  0  0  0
    4.4823    0.1135    0.1401 C   0  0  0  0  0  0  0  0  0  0  0  0
    4.0038    0.4788   -1.1070 C   0  0  0  0  0  0  0  0  0  0  0  0
    2.5588    0.4944   -1.3709 C   0  0  0  0  0  0  0  0  0  0  0  0
    2.1647    0.8439   -2.4986 O   0  0  0  0  0  0  0  0  0  0  0  0
    1.6147    0.5196   -0.2555 C   0  0  0  0  0  0  0  0  0  0  0  0
    0.2427    0.6778   -0.4537 C   0  0  0  0  0  0  0  0  0  0  0  0
   -0.1793    0.6389   -1.7542 O   0  0  0  0  0  0  0  0  0  0  0  0
   -0.5202    0.1287    0.5166 C   0  0  0  0  0  0  0  0  0  0  0  0
   -0.1295    0.4293    1.8271 C   0  0  0  0  0  0  0  0  0  0  0  0
    1.2358    0.2430    2.0491 C   0  0  0  0  0  0  0  0  0  0  0  0
    1.7368   -0.2295    3.2625 O   0  0  0  0  0  0  0  0  0  0  0  0
    2.1197    0.1348    0.9803 C   0  0  0  0  0  0  0  0  0  0  0  0
    3.5028   -0.3338    1.1406 C   0  0  0  0  0  0  0  0  0  0  0  0
    3.8904   -0.7579    2.2585 O   0  0  0  0  0  0  0  0  0  0  0  0
   -1.0041   -0.2696    2.8330 C   0  0  0  0  0  0  0  0  0  0  0  0
   -1.4062   -1.5041    2.0448 C   0  0  1  0  0  0  0  0  0  0  0  0
   -0.2995   -2.1564    1.5048 O   0  0  0  0  0  0  0  0  0  0  0  0
   -1.9664   -2.4660    3.0481 C   0  0  0  0  0  0  0  0  0  0  0  0
   -2.4953   -3.4525    2.5387 O   0  0  0  0  0  0  0  0  0  0  0  0
   -0.9883   -2.8276    4.1279 C   0  0  0  0  0  0  0  0  0  0  0  0
   -1.6183   -3.1239    5.3325 O   0  0  0  0  0  0  0  0  0  0  0  0
   -2.4128   -1.2963    1.0154 C   0  0  0  0  0  0  0  0  0  0  0  0
   -2.1561    0.2211    0.3191 C   0  0  2  0  0  0  0  0  0  0  0  0
   -2.0628   -0.4030   -1.0881 O   0  0  0  0  0  0  0  0  0  0  0  0
   -3.3772    0.1398   -1.7377 C   0  0  1  0  0  0  0  0  0  0  0  0
   -4.3433   -0.2275   -0.3913 C   0  0  0  0  0  0  0  0  0  0  0  0
   -5.8129    0.1143   -1.0826 C   0  0  2  0  0  0  0  0  0  0  0  0
   -5.4836   -0.2469   -2.5846 N   0  0  0  0  0  0  0  0  0  0  0  0
   -5.6913    1.8471   -1.1300 C   0  0  2  0  0  0  0  0  0  0  0  0
   -6.5291    1.9394   -2.4142 O   0  0  0  0  0  0  0  0  0  0  0  0
   -4.2500    2.2985   -2.0071 C   0  0  2  0  0  0  0  0  0  0  0  0
   -4.3281    1.2242   -3.2687 C   0  0  0  0  0  0  0  0  0  0  0  0
   -3.2419    1.5647   -1.1104 O   0  0  0  0  0  0  0  0  0  0  0  0
  1  2  1  0
  2  3  1  0
  3  4  2  0
  4  5  1  0
  5  6  2  0
  6  7  1  0
  7  8  2  0
  8  9  1  0
  9 10  2  0
  9 11  1  0
 11 12  2  0
 12 13  1  0
 12 14  1  0
 14 15  2  0
 15 16  1  0
 16 17  1  0
 16 18  2  0
 18 19  1  0
 19 20  2  0
 15 21  1  0
 21 22  1  0
 22 23  1  6
 22 24  1  0
 24 25  2  0
 24 26  1  0
 26 27  1  0
 22 28  1  0
 28 29  1  0
 29 30  1  6
 31 30  1  1
 31 32  1  0
 32 33  1  0
 33 34  1  6
 33 35  1  0
 35 36  1  6
 35 37  1  0
 37 38  1  6
 37 39  1  0
  8  3  1  0
 18 11  1  0
 39 31  1  0
 19  7  1  0
 29 14  1  0
M  END
>  <supplier_code>  (843) 
DB00997

>  <zinc_id>  (843) 
ZINC000003918087

>  <catalog_short_name>  (843) 
dbfda

$$$$

     RDKit          3D

 18 20  0  0  0  0  0  0  0  0999 V2000
   -3.5590    2.6101    0.1523 C   0  0  0  0  0  0  0  0  0  0  0  0
   -4.0508    1.7519    0.5240 N   0  0  0  0  0  0  0  0  0  0  0  0
   -3.3365    0.5948   -0.2744 C   0  0  2  0  0  0  0  0  0  0  0  0
   -3.5458   -0.4644    0.9650 C   0  0  0  0  0  0  0  0  0  0  0  0
   -2.9269   -1.7366    0.4112 C   0  0  0  0  0  0  0  0  0  0  0  0
   -1.4740   -1.4506    0.2619 C   0  0  0  0  0  0  0  0  0  0  0  0
   -0.4513   -2.2817    0.5377 N   0  0  0  0  0  0  0  0  0  0  0  0
    0.6736   -1.5670    0.5131 C   0  0  0  0  0  0  0  0  0  0  0  0
    1.9966   -1.9014    0.7465 C   0  0  0  0  0  0  0  0  0  0  0  0
    3.0287   -1.0796    0.3379 C   0  0  0  0  0  0  0  0  0  0  0  0
    2.6946    0.0837   -0.3447 C   0  0  0  0  0  0  0  0  0  0  0  0
    3.7351    1.0980   -0.4052 C   0  0  0  0  0  0  0  0  0  0  0  0
    4.2661    1.7064    0.7493 N   0  0  0  0  0  0  0  0  0  0  0  0
    4.0461    1.5431   -1.5231 O   0  0  0  0  0  0  0  0  0  0  0  0
    1.3883    0.5294   -0.3816 C   0  0  0  0  0  0  0  0  0  0  0  0
    0.3644   -0.3135    0.0160 C   0  0  0  0  0  0  0  0  0  0  0  0
   -0.9959   -0.1657    0.0689 C   0  0  0  0  0  0  0  0  0  0  0  0
   -1.8533    1.0434    0.2748 C   0  0  0  0  0  0  0  0  0  0  0  0
  1  2  1  0
  3  2  1  1
  3  4  1  0
  4  5  1  0
  5  6  1  0
  6  7  1  0
  7  8  1  0
  8  9  2  0
  9 10  1  0
 10 11  2  0
 11 12  1  0
 12 13  1  0
 12 14  2  0
 11 15  1  0
 15 16  2  0
 16 17  1  0
 17 18  1  0
 18  3  1  0
 17  6  2  0
 16  8  1  0
M  END
>  <supplier_code>  (844) 
DB00998

>  <zinc_id>  (844) 
ZINC000000018635

>  <catalog_short_name>  (844) 
dbfda

$$$$

     RDKit          3D

 17 18  0  0  0  0  0  0  0  0999 V2000
    2.7143    0.8333    2.1479 N   0  0  0  0  0  0  0  0  0  0  0  0
    2.9045   -0.2889    0.8368 S   0  0  0  0  0  0  0  0  0  0  0  0
    3.1824   -1.6557    1.3791 O   0  0  0  0  0  0  0  0  0  0  0  0
    4.0146    0.2281   -0.0300 O   0  0  0  0  0  0  0  0  0  0  0  0
    1.3761   -0.2963   -0.0357 C   0  0  0  0  0  0  0  0  0  0  0  0
    0.2190   -0.4638    0.7083 C   0  0  0  0  0  0  0  0  0  0  0  0
   -0.9651   -0.1544    0.0694 C   0  0  0  0  0  0  0  0  0  0  0  0
   -0.9633    0.6393   -1.0725 C   0  0  0  0  0  0  0  0  0  0  0  0
    0.1704    0.6790   -1.8518 C   0  0  0  0  0  0  0  0  0  0  0  0
    1.3618    0.1792   -1.3401 C   0  0  0  0  0  0  0  0  0  0  0  0
    2.7177   -0.2655   -2.3438 Cl  0  0  0  0  0  0  0  0  0  0  0  0
   -2.1348    1.3862   -1.3114 N   0  0  0  0  0  0  0  0  0  0  0  0
   -2.9412    1.8490   -0.1839 C   0  0  0  0  0  0  0  0  0  0  0  0
   -3.5610    0.7591    0.5272 N   0  0  0  0  0  0  0  0  0  0  0  0
   -2.5340   -0.6131    0.6700 S   0  0  0  0  0  0  0  0  0  0  0  0
   -3.0908   -1.6670   -0.2340 O   0  0  0  0  0  0  0  0  0  0  0  0
   -2.4705   -1.1484    2.0645 O   0  0  0  0  0  0  0  0  0  0  0  0
  1  2  1  0
  2  3  2  0
  2  4  2  0
  2  5  1  0
  5  6  2  0
  6  7  1  0
  7  8  2  0
  8  9  1  0
  9 10  2  0
 10 11  1  0
  8 12  1  0
 12 13  1  0
 13 14  1  0
 14 15  1  0
 15 16  2  0
 15 17  2  0
 10  5  1  0
 15  7  1  0
M  END
>  <supplier_code>  (845) 
DB00999

>  <zinc_id>  (845) 
ZINC000000896569

>  <catalog_short_name>  (845) 
dbfda

$$$$

     RDKit          3D

 17 17  0  0  0  0  0  0  0  0999 V2000
    3.8995    0.9302   -0.6894 C   0  0  0  0  0  0  0  0  0  0  0  0
    3.5990    0.0614   -0.0383 C   0  0  0  0  0  0  0  0  0  0  0  0
    4.1699    0.2542    1.3640 C   0  0  0  0  0  0  0  0  0  0  0  0
    4.2828   -1.1917   -0.5748 C   0  0  0  0  0  0  0  0  0  0  0  0
    2.1665   -0.1706    0.1124 N   0  0  0  0  0  0  0  0  0  0  0  0
    1.5286   -0.2173   -1.1512 C   0  0  0  0  0  0  0  0  0  0  0  0
    0.3570    0.9930   -1.1313 C   0  0  2  0  0  0  0  0  0  0  0  0
    1.2147    1.9475   -0.2548 O   0  0  0  0  0  0  0  0  0  0  0  0
   -0.3898    0.3403    0.2006 C   0  0  0  0  0  0  0  0  0  0  0  0
   -0.9943    1.3292    0.9651 C   0  0  0  0  0  0  0  0  0  0  0  0
   -2.3203    1.2742    1.3567 C   0  0  0  0  0  0  0  0  0  0  0  0
   -3.1712    0.3290    0.7937 C   0  0  0  0  0  0  0  0  0  0  0  0
   -4.4789    0.6464    0.4111 O   0  0  0  0  0  0  0  0  0  0  0  0
   -2.5650   -0.7706    0.1966 C   0  0  0  0  0  0  0  0  0  0  0  0
   -3.3986   -1.9900    0.0368 C   0  0  0  0  0  0  0  0  0  0  0  0
   -2.6678   -3.0632   -0.4292 O   0  0  0  0  0  0  0  0  0  0  0  0
   -1.2324   -0.7020   -0.1809 C   0  0  0  0  0  0  0  0  0  0  0  0
  1  2  1  0
  2  3  1  0
  2  4  1  0
  2  5  1  0
  5  6  1  0
  7  6  1  1
  7  8  1  0
  7  9  1  0
  9 10  2  0
 10 11  1  0
 11 12  2  0
 12 13  1  0
 12 14  1  0
 14 15  1  0
 15 16  1  0
 14 17  2  0
 17  9  1  0
M  END
>  <supplier_code>  (846) 
DB01001

>  <zinc_id>  (846) 
ZINC000000007601

>  <catalog_short_name>  (846) 
dbfda

$$$$

     RDKit          3D

 17 17  0  0  0  0  0  0  0  0999 V2000
    3.6110   -0.0481    0.9774 C   0  0  0  0  0  0  0  0  0  0  0  0
    3.5939    0.7186   -0.1160 C   0  0  0  0  0  0  0  0  0  0  0  0
    4.7859    0.2223   -0.9307 C   0  0  0  0  0  0  0  0  0  0  0  0
    3.9803    2.1211    0.3435 C   0  0  0  0  0  0  0  0  0  0  0  0
    2.4222    0.8917   -0.8989 N   0  0  0  0  0  0  0  0  0  0  0  0
    1.6058   -0.2371   -1.1218 C   0  0  0  0  0  0  0  0  0  0  0  0
    1.0684   -0.7380    0.3589 C   0  0  1  0  0  0  0  0  0  0  0  0
    0.7989    0.6890    0.8490 O   0  0  0  0  0  0  0  0  0  0  0  0
   -0.4368   -1.0194   -0.1995 C   0  0  0  0  0  0  0  0  0  0  0  0
   -1.0350   -2.1321    0.3902 C   0  0  0  0  0  0  0  0  0  0  0  0
   -2.3066   -1.9686    0.9354 C   0  0  0  0  0  0  0  0  0  0  0  0
   -3.0648   -0.8294    0.6943 C   0  0  0  0  0  0  0  0  0  0  0  0
   -3.9019   -0.3210    1.6935 O   0  0  0  0  0  0  0  0  0  0  0  0
   -2.5831   -0.0309   -0.3426 C   0  0  0  0  0  0  0  0  0  0  0  0
   -3.2974    1.2808   -0.4656 C   0  0  0  0  0  0  0  0  0  0  0  0
   -4.0410    1.3525   -1.6440 O   0  0  0  0  0  0  0  0  0  0  0  0
   -1.1997    0.0484   -0.5231 C   0  0  0  0  0  0  0  0  0  0  0  0
  1  2  1  0
  2  3  1  0
  2  4  1  0
  2  5  1  0
  5  6  1  0
  7  6  1  6
  7  8  1  0
  7  9  1  0
  9 10  2  0
 10 11  1  0
 11 12  2  0
 12 13  1  0
 12 14  1  0
 14 15  1  0
 15 16  1  0
 14 17  2  0
 17  9  1  0
M  END
>  <supplier_code>  (847) 
DB01001

>  <zinc_id>  (847) 
ZINC000000020230

>  <catalog_short_name>  (847) 
dbfda

$$$$

     RDKit          3D

 34 37  0  0  0  0  0  0  0  0999 V2000
   -4.6679    3.3369    0.3725 O   0  0  0  0  0  0  0  0  0  0  0  0
   -5.4791    2.4323    0.0836 C   0  0  0  0  0  0  0  0  0  0  0  0
   -6.5340    2.7472   -0.7518 O   0  0  0  0  0  0  0  0  0  0  0  0
   -5.2562    1.0459    0.5098 C   0  0  0  0  0  0  0  0  0  0  0  0
   -4.5002    0.7448    1.6303 C   0  0  0  0  0  0  0  0  0  0  0  0
   -3.8171   -0.4638    1.6347 C   0  0  0  0  0  0  0  0  0  0  0  0
   -2.7830   -0.6769    2.2972 O   0  0  0  0  0  0  0  0  0  0  0  0
   -4.0995   -1.3673    0.6186 C   0  0  0  0  0  0  0  0  0  0  0  0
   -3.1121   -2.2557    0.2105 C   0  0  0  0  0  0  0  0  0  0  0  0
   -1.7613   -1.9883    0.4601 O   0  0  0  0  0  0  0  0  0  0  0  0
   -1.1914   -0.9496   -0.3301 C   0  0  0  0  0  0  0  0  0  0  0  0
    0.2044   -1.2377   -0.7704 C   0  0  0  0  0  0  0  0  0  0  0  0
    0.3230   -1.6315   -2.0872 O   0  0  0  0  0  0  0  0  0  0  0  0
    1.0046   -2.0611    0.1909 C   0  0  0  0  0  0  0  0  0  0  0  0
    1.7958   -1.1559    0.9572 O   0  0  0  0  0  0  0  0  0  0  0  0
    2.2405    0.0566    0.4857 C   0  0  0  0  0  0  0  0  0  0  0  0
    1.4025    1.0729    0.0504 C   0  0  0  0  0  0  0  0  0  0  0  0
    1.7782    1.9059   -0.9969 C   0  0  0  0  0  0  0  0  0  0  0  0
    3.0450    1.8057   -1.5383 C   0  0  0  0  0  0  0  0  0  0  0  0
    3.9974    1.0766   -0.8371 C   0  0  0  0  0  0  0  0  0  0  0  0
    5.2756    1.3409   -0.9122 O   0  0  0  0  0  0  0  0  0  0  0  0
    6.1516    0.9488   -0.0045 C   0  0  0  0  0  0  0  0  0  0  0  0
    7.3465    1.7730    0.2112 C   0  0  0  0  0  0  0  0  0  0  0  0
    7.1981    2.7536    0.9986 O   0  0  0  0  0  0  0  0  0  0  0  0
    8.1681    1.9845   -0.8981 O   0  0  0  0  0  0  0  0  0  0  0  0
    5.8535   -0.0590    0.9011 C   0  0  0  0  0  0  0  0  0  0  0  0
    4.5245   -0.4662    0.9166 C   0  0  0  0  0  0  0  0  0  0  0  0
    4.1123   -1.3335    1.7450 O   0  0  0  0  0  0  0  0  0  0  0  0
    3.5779    0.1909    0.1424 C   0  0  0  0  0  0  0  0  0  0  0  0
   -3.4983   -3.2878   -0.6359 C   0  0  0  0  0  0  0  0  0  0  0  0
   -4.6995   -3.1449   -1.3161 C   0  0  0  0  0  0  0  0  0  0  0  0
   -5.5029   -2.0441   -1.1453 C   0  0  0  0  0  0  0  0  0  0  0  0
   -5.2441   -1.1339   -0.1265 C   0  0  0  0  0  0  0  0  0  0  0  0
   -5.8530    0.0408   -0.1074 O   0  0  0  0  0  0  0  0  0  0  0  0
  1  2  2  0
  2  3  1  0
  2  4  1  0
  4  5  2  0
  5  6  1  0
  6  7  2  0
  6  8  1  0
  8  9  2  0
  9 10  1  0
 10 11  1  0
 11 12  1  0
 12 13  1  0
 12 14  1  0
 14 15  1  0
 15 16  1  0
 16 17  2  0
 17 18  1  0
 18 19  2  0
 19 20  1  0
 20 21  1  0
 21 22  1  0
 22 23  1  0
 23 24  2  0
 23 25  1  0
 22 26  2  0
 26 27  1  0
 27 28  2  0
 27 29  1  0
  9 30  1  0
 30 31  2  0
 31 32  1  0
 32 33  2  0
 33 34  1  0
 34  4  1  0
 33  8  1  0
 29 16  1  0
 29 20  2  0
M  END
>  <supplier_code>  (848) 
DB01003

>  <zinc_id>  (848) 
ZINC000001530788

>  <catalog_short_name>  (848) 
dbfda

$$$$

     RDKit          3D

 18 19  0  0  0  0  0  0  0  0999 V2000
   -4.0914    2.0920   -0.2532 N   0  0  0  0  0  0  0  0  0  0  0  0
   -3.2761    0.9139   -0.2483 C   0  0  0  0  0  0  0  0  0  0  0  0
   -1.9424    1.0868   -0.2226 N   0  0  0  0  0  0  0  0  0  0  0  0
   -1.0789    0.1026    0.1256 C   0  0  0  0  0  0  0  0  0  0  0  0
   -1.6176   -1.1561    0.2678 C   0  0  0  0  0  0  0  0  0  0  0  0
   -0.7692   -1.8397    1.0622 N   0  0  0  0  0  0  0  0  0  0  0  0
    0.2982   -1.0464    1.2991 C   0  0  0  0  0  0  0  0  0  0  0  0
    0.1086    0.1676    0.7754 N   0  0  0  0  0  0  0  0  0  0  0  0
    1.1573    1.0882    0.3762 C   0  0  0  0  0  0  0  0  0  0  0  0
    2.0998    0.4372   -0.3985 O   0  0  0  0  0  0  0  0  0  0  0  0
    3.3682    0.4134    0.2012 C   0  0  0  0  0  0  0  0  0  0  0  0
    4.1389   -0.6895   -0.5170 C   0  0  0  0  0  0  0  0  0  0  0  0
    4.2053   -1.8459    0.2369 O   0  0  0  0  0  0  0  0  0  0  0  0
    4.1019    1.7036   -0.1464 C   0  0  0  0  0  0  0  0  0  0  0  0
    3.3695    2.8083    0.2556 O   0  0  0  0  0  0  0  0  0  0  0  0
   -2.9750   -1.3735    0.0675 C   0  0  0  0  0  0  0  0  0  0  0  0
   -3.2839   -2.5422   -0.3162 O   0  0  0  0  0  0  0  0  0  0  0  0
   -3.8132   -0.3204   -0.0909 N   0  0  0  0  0  0  0  0  0  0  0  0
  1  2  1  0
  2  3  2  0
  3  4  1  0
  4  5  2  0
  5  6  1  0
  6  7  2  0
  7  8  1  0
  8  9  1  0
  9 10  1  0
 10 11  1  0
 11 12  1  0
 12 13  1  0
 11 14  1  0
 14 15  1  0
  5 16  1  0
 16 17  2  0
 16 18  1  0
 18  2  1  0
  8  4  1  0
M  END
>  <supplier_code>  (849) 
DB01004

>  <zinc_id>  (849) 
ZINC000000001505

>  <catalog_short_name>  (849) 
dbfda

$$$$

     RDKit          3D

  5  4  0  0  0  0  0  0  0  0999 V2000
   -1.5492   -0.5674    0.6920 N   0  0  0  0  0  0  0  0  0  0  0  0
   -0.5121    0.0006   -0.1158 C   0  0  0  0  0  0  0  0  0  0  0  0
   -0.5471    1.1572   -0.5892 O   0  0  0  0  0  0  0  0  0  0  0  0
    0.7792   -0.5547    0.1212 N   0  0  0  0  0  0  0  0  0  0  0  0
    1.8293   -0.0357   -0.5442 O   0  0  0  0  0  0  0  0  0  0  0  0
  1  2  1  0
  2  3  2  0
  2  4  1  0
  4  5  1  0
M  END
>  <supplier_code>  (850) 
DB01005

>  <zinc_id>  (850) 
ZINC000008034120

>  <catalog_short_name>  (850) 
dbfda

$$$$

     RDKit          3D

 22 24  0  0  0  0  0  0  0  0999 V2000
    5.0882    3.6682   -0.6929 N   0  0  0  0  0  0  0  0  0  0  0  0
    4.1888    2.9541   -0.4825 C   0  0  0  0  0  0  0  0  0  0  0  0
    3.0494    2.1310   -0.1763 C   0  0  0  0  0  0  0  0  0  0  0  0
    2.8001    1.6725    1.1087 C   0  0  0  0  0  0  0  0  0  0  0  0
    1.6463    0.9703    1.3379 C   0  0  0  0  0  0  0  0  0  0  0  0
    0.7788    0.5781    0.3244 C   0  0  0  0  0  0  0  0  0  0  0  0
   -0.0087   -0.6366    0.5739 C   0  0  0  0  0  0  0  0  0  0  0  0
   -1.3411   -0.6462   -0.0315 C   0  0  0  0  0  0  0  0  0  0  0  0
   -2.3892   -1.1070    0.7570 C   0  0  0  0  0  0  0  0  0  0  0  0
   -3.6815   -0.7360    0.4041 C   0  0  0  0  0  0  0  0  0  0  0  0
   -3.9222   -0.0038   -0.7442 C   0  0  0  0  0  0  0  0  0  0  0  0
   -5.0638    0.8735   -0.8781 C   0  0  0  0  0  0  0  0  0  0  0  0
   -5.7014    1.8452   -0.7584 N   0  0  0  0  0  0  0  0  0  0  0  0
   -2.9073   -0.0350   -1.6936 C   0  0  0  0  0  0  0  0  0  0  0  0
   -1.6103   -0.4106   -1.3630 C   0  0  0  0  0  0  0  0  0  0  0  0
    0.7190   -1.8606    0.3682 N   0  0  0  0  0  0  0  0  0  0  0  0
    0.0864   -3.0592    0.4100 C   0  0  0  0  0  0  0  0  0  0  0  0
    1.0601   -3.9816    0.2601 N   0  0  0  0  0  0  0  0  0  0  0  0
    2.2359   -3.3219    0.1676 C   0  0  0  0  0  0  0  0  0  0  0  0
    1.9424   -2.0333   -0.1229 N   0  0  0  0  0  0  0  0  0  0  0  0
    1.0026    1.1136   -0.9311 C   0  0  0  0  0  0  0  0  0  0  0  0
    2.0274    2.0252   -1.1125 C   0  0  0  0  0  0  0  0  0  0  0  0
  1  2  3  0
  2  3  1  0
  3  4  2  0
  4  5  1  0
  5  6  2  0
  6  7  1  0
  7  8  1  0
  8  9  2  0
  9 10  1  0
 10 11  2  0
 11 12  1  0
 12 13  3  0
 11 14  1  0
 14 15  2  0
  7 16  1  0
 16 17  1  0
 17 18  2  0
 18 19  1  0
 19 20  2  0
  6 21  1  0
 21 22  2  0
 22  3  1  0
 15  8  1  0
 20 16  1  0
M  END
>  <supplier_code>  (851) 
DB01006

>  <zinc_id>  (851) 
ZINC000003778874

>  <catalog_short_name>  (851) 
dbfda

$$$$

     RDKit          3D

 23 25  0  0  0  0  0  0  0  0999 V2000
    2.7696    0.4174    2.8469 Cl  0  0  0  0  0  0  0  0  0  0  0  0
    3.4409    0.3999    1.2468 C   0  0  0  0  0  0  0  0  0  0  0  0
    5.0057    0.7295    0.6287 S   0  0  0  0  0  0  0  0  0  0  0  0
    4.6720    0.5008   -1.0402 C   0  0  0  0  0  0  0  0  0  0  0  0
    3.4539   -0.1265   -0.9711 C   0  0  0  0  0  0  0  0  0  0  0  0
    2.6925    0.2878    0.0812 C   0  0  0  0  0  0  0  0  0  0  0  0
    1.2153    0.5257    0.0387 C   0  0  0  0  0  0  0  0  0  0  0  0
    0.6549   -0.1245    1.1065 O   0  0  0  0  0  0  0  0  0  0  0  0
   -0.7862   -0.4431    0.7256 C   0  0  2  0  0  0  0  0  0  0  0  0
   -0.3287   -1.0708   -0.7367 C   0  0  0  0  0  0  0  0  0  0  0  0
   -0.7718   -2.4456   -0.4765 N   0  0  0  0  0  0  0  0  0  0  0  0
   -1.9999   -2.8253   -0.0426 C   0  0  0  0  0  0  0  0  0  0  0  0
   -2.0105   -4.1940    0.1995 C   0  0  0  0  0  0  0  0  0  0  0  0
   -0.6971   -4.4966    0.3457 N   0  0  0  0  0  0  0  0  0  0  0  0
    0.0272   -3.4970   -0.2147 C   0  0  0  0  0  0  0  0  0  0  0  0
   -1.0690    1.0741    0.2093 C   0  0  0  0  0  0  0  0  0  0  0  0
   -2.0048    1.5366    1.1422 C   0  0  0  0  0  0  0  0  0  0  0  0
   -3.0635    2.3629    0.7903 C   0  0  0  0  0  0  0  0  0  0  0  0
   -2.9846    2.9862   -0.4491 C   0  0  0  0  0  0  0  0  0  0  0  0
   -3.5675    4.6392   -0.6268 Cl  0  0  0  0  0  0  0  0  0  0  0  0
   -2.1547    2.4017   -1.3975 C   0  0  0  0  0  0  0  0  0  0  0  0
   -1.4939    1.2223   -1.0761 C   0  0  0  0  0  0  0  0  0  0  0  0
   -0.9996    0.1392   -2.3302 Cl  0  0  0  0  0  0  0  0  0  0  0  0
  1  2  1  0
  2  3  1  0
  3  4  1  0
  4  5  2  0
  5  6  1  0
  6  7  1  0
  7  8  1  0
  9  8  1  1
  9 10  1  0
 10 11  1  0
 11 12  1  0
 12 13  2  0
 13 14  1  0
 14 15  2  0
  9 16  1  0
 16 17  2  0
 17 18  1  0
 18 19  2  0
 19 20  1  0
 19 21  1  0
 21 22  2  0
 22 23  1  0
  6  2  2  0
 15 11  1  0
 22 16  1  0
M  END
>  <supplier_code>  (852) 
DB01007

>  <zinc_id>  (852) 
ZINC000000608101

>  <catalog_short_name>  (852) 
dbfda

$$$$

     RDKit          3D

 23 25  0  0  0  0  0  0  0  0999 V2000
    4.0352   -0.3218   -1.8694 Cl  0  0  0  0  0  0  0  0  0  0  0  0
    3.7090    0.1796   -0.2292 C   0  0  0  0  0  0  0  0  0  0  0  0
    4.5040    1.3395    0.7554 S   0  0  0  0  0  0  0  0  0  0  0  0
    3.8523    0.8784    2.2743 C   0  0  0  0  0  0  0  0  0  0  0  0
    3.3331   -0.3680    1.9429 C   0  0  0  0  0  0  0  0  0  0  0  0
    2.7784   -0.3315    0.6690 C   0  0  0  0  0  0  0  0  0  0  0  0
    1.7217   -1.3137    0.2687 C   0  0  0  0  0  0  0  0  0  0  0  0
    0.4501   -0.7904    0.3839 O   0  0  0  0  0  0  0  0  0  0  0  0
    0.0855   -0.6231   -1.1120 C   0  0  1  0  0  0  0  0  0  0  0  0
   -0.9182   -1.9671   -1.1209 C   0  0  0  0  0  0  0  0  0  0  0  0
   -1.6145   -1.9057    0.1601 N   0  0  0  0  0  0  0  0  0  0  0  0
   -1.1345   -2.6954    1.1553 C   0  0  0  0  0  0  0  0  0  0  0  0
   -2.1828   -3.2701    1.8542 C   0  0  0  0  0  0  0  0  0  0  0  0
   -3.2403   -2.5111    1.4791 N   0  0  0  0  0  0  0  0  0  0  0  0
   -2.9537   -2.0524    0.2613 C   0  0  0  0  0  0  0  0  0  0  0  0
   -1.1837    0.3905   -0.8531 C   0  0  0  0  0  0  0  0  0  0  0  0
   -1.4086    0.8216    0.4007 C   0  0  0  0  0  0  0  0  0  0  0  0
   -2.2761    1.8957    0.5362 C   0  0  0  0  0  0  0  0  0  0  0  0
   -2.1434    2.9409   -0.3488 C   0  0  0  0  0  0  0  0  0  0  0  0
   -2.3253    4.6031    0.2055 Cl  0  0  0  0  0  0  0  0  0  0  0  0
   -1.5477    2.6587   -1.5568 C   0  0  0  0  0  0  0  0  0  0  0  0
   -1.0099    1.4015   -1.8006 C   0  0  0  0  0  0  0  0  0  0  0  0
   -0.5307    1.0410   -3.4558 Cl  0  0  0  0  0  0  0  0  0  0  0  0
  1  2  1  0
  2  3  1  0
  3  4  1  0
  4  5  2  0
  5  6  1  0
  6  7  1  0
  7  8  1  0
  9  8  1  1
  9 10  1  0
 10 11  1  0
 11 12  1  0
 12 13  2  0
 13 14  1  0
 14 15  2  0
  9 16  1  0
 16 17  2  0
 17 18  1  0
 18 19  2  0
 19 20  1  0
 19 21  1  0
 21 22  2  0
 22 23  1  0
  6  2  2  0
 15 11  1  0
 22 16  1  0
M  END
>  <supplier_code>  (853) 
DB01007

>  <zinc_id>  (853) 
ZINC000000897385

>  <catalog_short_name>  (853) 
dbfda

$$$$

     RDKit          3D

 14 13  0  0  0  0  0  0  0  0999 V2000
   -4.1257    0.5695    1.3127 C   0  0  0  0  0  0  0  0  0  0  0  0
   -3.8355    0.1330   -0.3820 S   0  0  0  0  0  0  0  0  0  0  0  0
   -4.6966    0.9344   -1.3134 O   0  0  0  0  0  0  0  0  0  0  0  0
   -4.0301   -1.3524   -0.5750 O   0  0  0  0  0  0  0  0  0  0  0  0
   -2.2293    0.4779   -0.7742 O   0  0  0  0  0  0  0  0  0  0  0  0
   -1.4422   -0.4175   -0.0340 C   0  0  0  0  0  0  0  0  0  0  0  0
   -0.5911    0.4181    0.8879 C   0  0  0  0  0  0  0  0  0  0  0  0
    0.8673    0.1285    0.7171 C   0  0  0  0  0  0  0  0  0  0  0  0
    1.2723   -0.1532   -0.7013 C   0  0  0  0  0  0  0  0  0  0  0  0
    2.4535   -0.9108   -0.7006 O   0  0  0  0  0  0  0  0  0  0  0  0
    3.7204   -0.1086    0.0323 S   0  0  0  0  0  0  0  0  0  0  0  0
    4.8885   -1.2645    0.7347 C   0  0  0  0  0  0  0  0  0  0  0  0
    3.2888    0.7896    1.1419 O   0  0  0  0  0  0  0  0  0  0  0  0
    4.4599    0.7559   -0.9592 O   0  0  0  0  0  0  0  0  0  0  0  0
  1  2  1  0
  2  3  2  0
  2  4  2  0
  2  5  1  0
  5  6  1  0
  6  7  1  0
  7  8  1  0
  8  9  1  0
  9 10  1  0
 10 11  1  0
 11 12  1  0
 11 13  2  0
 11 14  2  0
M  END
>  <supplier_code>  (854) 
DB01008

>  <zinc_id>  (854) 
ZINC000001530572

>  <catalog_short_name>  (854) 
dbfda

$$$$

     RDKit          3D

 19 20  0  0  0  0  0  0  0  0999 V2000
   -4.4370    0.1209   -0.3539 C   0  0  0  0  0  0  0  0  0  0  0  0
   -2.9192    0.7597   -0.6258 C   0  0  1  0  0  0  0  0  0  0  0  0
   -2.9683    1.6472    0.7455 C   0  0  0  0  0  0  0  0  0  0  0  0
   -3.3518    1.0637    1.7602 O   0  0  0  0  0  0  0  0  0  0  0  0
   -3.0552    2.9966    0.4824 O   0  0  0  0  0  0  0  0  0  0  0  0
   -2.1778   -0.4975    0.1215 C   0  0  0  0  0  0  0  0  0  0  0  0
   -2.5333   -1.7248   -0.4264 C   0  0  0  0  0  0  0  0  0  0  0  0
   -1.6647   -2.7881   -0.5267 C   0  0  0  0  0  0  0  0  0  0  0  0
   -0.3263   -2.4994   -0.5950 C   0  0  0  0  0  0  0  0  0  0  0  0
    0.1192   -1.2401   -0.2119 C   0  0  0  0  0  0  0  0  0  0  0  0
    1.5433   -1.1357    0.0690 C   0  0  0  0  0  0  0  0  0  0  0  0
    2.1849   -2.0849    0.6141 O   0  0  0  0  0  0  0  0  0  0  0  0
    2.3318    0.0464   -0.2802 C   0  0  0  0  0  0  0  0  0  0  0  0
    2.9074    0.2017   -1.5193 C   0  0  0  0  0  0  0  0  0  0  0  0
    3.8811    1.1602   -1.7721 C   0  0  0  0  0  0  0  0  0  0  0  0
    4.6133    1.5670   -0.6622 C   0  0  0  0  0  0  0  0  0  0  0  0
    3.8800    1.7492    0.4952 C   0  0  0  0  0  0  0  0  0  0  0  0
    2.7769    0.9289    0.6979 C   0  0  0  0  0  0  0  0  0  0  0  0
   -0.8043   -0.2712    0.1494 C   0  0  0  0  0  0  0  0  0  0  0  0
  2  1  1  1
  2  3  1  0
  3  4  2  0
  3  5  1  0
  2  6  1  0
  6  7  2  0
  7  8  1  0
  8  9  2  0
  9 10  1  0
 10 11  1  0
 11 12  2  0
 11 13  1  0
 13 14  2  0
 14 15  1  0
 15 16  2  0
 16 17  1  0
 17 18  2  0
 10 19  2  0
 19  6  1  0
 18 13  1  0
M  END
>  <supplier_code>  (855) 
DB01009

>  <zinc_id>  (855) 
ZINC000000002272

>  <catalog_short_name>  (855) 
dbfda

$$$$

     RDKit          3D

 19 20  0  0  0  0  0  0  0  0999 V2000
   -4.1792    1.6002   -0.0505 C   0  0  0  0  0  0  0  0  0  0  0  0
   -3.2352    0.6819   -1.0757 C   0  0  2  0  0  0  0  0  0  0  0  0
   -4.1869   -0.6246   -0.8251 C   0  0  0  0  0  0  0  0  0  0  0  0
   -3.6058   -1.7071   -1.0453 O   0  0  0  0  0  0  0  0  0  0  0  0
   -5.5076   -0.4034   -1.2271 O   0  0  0  0  0  0  0  0  0  0  0  0
   -2.1966    0.2159    0.1045 C   0  0  0  0  0  0  0  0  0  0  0  0
   -1.8345    1.2153    0.9693 C   0  0  0  0  0  0  0  0  0  0  0  0
   -0.5688    1.3705    1.5031 C   0  0  0  0  0  0  0  0  0  0  0  0
    0.4680    0.8720    0.7270 C   0  0  0  0  0  0  0  0  0  0  0  0
    0.2006   -0.1824   -0.1401 C   0  0  0  0  0  0  0  0  0  0  0  0
    1.3097   -1.1234   -0.3646 C   0  0  0  0  0  0  0  0  0  0  0  0
    1.1834   -2.2725    0.1611 O   0  0  0  0  0  0  0  0  0  0  0  0
    2.6781   -0.5877   -0.3020 C   0  0  0  0  0  0  0  0  0  0  0  0
    3.6070   -0.7883   -1.2852 C   0  0  0  0  0  0  0  0  0  0  0  0
    4.7422    0.0104   -1.3540 C   0  0  0  0  0  0  0  0  0  0  0  0
    5.0684    0.8449   -0.3145 C   0  0  0  0  0  0  0  0  0  0  0  0
    4.0648    1.1632    0.5924 C   0  0  0  0  0  0  0  0  0  0  0  0
    3.1008    0.1829    0.7764 C   0  0  0  0  0  0  0  0  0  0  0  0
   -1.1085   -0.4678   -0.4435 C   0  0  0  0  0  0  0  0  0  0  0  0
  2  1  1  1
  2  3  1  0
  3  4  2  0
  3  5  1  0
  2  6  1  0
  6  7  2  0
  7  8  1  0
  8  9  2  0
  9 10  1  0
 10 11  1  0
 11 12  2  0
 11 13  1  0
 13 14  2  0
 14 15  1  0
 15 16  2  0
 16 17  1  0
 17 18  2  0
 10 19  2  0
 19  6  1  0
 18 13  1  0
M  END
>  <supplier_code>  (856) 
DB01009

>  <zinc_id>  (856) 
ZINC000000005560

>  <catalog_short_name>  (856) 
dbfda

$$$$

     RDKit          3D

 12 12  0  0  0  0  0  0  0  0999 V2000
    2.6488    0.9893   -1.3288 C   0  0  0  0  0  0  0  0  0  0  0  0
    2.0395    1.0154    0.0645 C   0  0  0  0  0  0  0  0  0  0  0  0
    1.4857   -0.2747    0.4204 N   0  0  0  0  0  0  0  0  0  0  0  0
    1.4837   -0.4220    1.8735 C   0  0  0  0  0  0  0  0  0  0  0  0
    2.3381   -1.3291   -0.1194 C   0  0  0  0  0  0  0  0  0  0  0  0
    0.1637   -0.3814   -0.1188 C   0  0  0  0  0  0  0  0  0  0  0  0
   -0.5932   -1.4860    0.2056 C   0  0  0  0  0  0  0  0  0  0  0  0
   -1.9775   -1.4315    0.3243 C   0  0  0  0  0  0  0  0  0  0  0  0
   -2.5829   -0.1815    0.3428 C   0  0  0  0  0  0  0  0  0  0  0  0
   -1.9151    0.8024   -0.3773 C   0  0  0  0  0  0  0  0  0  0  0  0
   -2.5478    1.9777   -0.7096 O   0  0  0  0  0  0  0  0  0  0  0  0
   -0.5432    0.7215   -0.5772 C   0  0  0  0  0  0  0  0  0  0  0  0
  1  2  1  0
  2  3  1  0
  3  4  1  0
  3  5  1  0
  3  6  1  0
  6  7  2  0
  7  8  1  0
  8  9  2  0
  9 10  1  0
 10 11  1  0
 10 12  2  0
 12  6  1  0
M  CHG  1   3   1
M  END
>  <supplier_code>  (857) 
DB01010

>  <zinc_id>  (857) 
ZINC000000001341

>  <catalog_short_name>  (857) 
dbfda

$$$$

     RDKit          3D

 17 18  0  0  0  0  0  0  0  0999 V2000
    0.3963   -0.3606    1.9871 C   0  0  0  0  0  0  0  0  0  0  0  0
    0.7121   -1.0610    0.6702 C   0  0  0  0  0  0  0  0  0  0  0  0
    1.1931   -2.4550    1.0596 C   0  0  0  0  0  0  0  0  0  0  0  0
   -0.4964   -1.1549   -0.2010 C   0  0  0  0  0  0  0  0  0  0  0  0
   -0.5775   -2.2241   -0.8792 O   0  0  0  0  0  0  0  0  0  0  0  0
   -1.5764   -0.1880   -0.1819 C   0  0  0  0  0  0  0  0  0  0  0  0
   -2.5708   -0.3426   -1.1383 C   0  0  0  0  0  0  0  0  0  0  0  0
   -3.8198    0.2383   -0.9890 C   0  0  0  0  0  0  0  0  0  0  0  0
   -3.9976    1.1190    0.0583 C   0  0  0  0  0  0  0  0  0  0  0  0
   -2.9440    1.4256    0.8374 N   0  0  0  0  0  0  0  0  0  0  0  0
   -1.9406    0.5270    0.9523 C   0  0  0  0  0  0  0  0  0  0  0  0
    1.8287   -0.3534   -0.0080 C   0  0  0  0  0  0  0  0  0  0  0  0
    2.8949    0.0424    0.7801 C   0  0  0  0  0  0  0  0  0  0  0  0
    3.7207    1.0623    0.3259 C   0  0  0  0  0  0  0  0  0  0  0  0
    3.1800    1.9655   -0.5797 C   0  0  0  0  0  0  0  0  0  0  0  0
    2.2969    1.4724   -1.4710 N   0  0  0  0  0  0  0  0  0  0  0  0
    1.7004    0.2873   -1.2229 C   0  0  0  0  0  0  0  0  0  0  0  0
  1  2  1  0
  2  3  1  0
  2  4  1  0
  4  5  2  0
  4  6  1  0
  6  7  2  0
  7  8  1  0
  8  9  2  0
  9 10  1  0
 10 11  2  0
  2 12  1  0
 12 13  2  0
 13 14  1  0
 14 15  2  0
 15 16  1  0
 16 17  2  0
 11  6  1  0
 17 12  1  0
M  END
>  <supplier_code>  (858) 
DB01011

>  <zinc_id>  (858) 
ZINC000000001728

>  <catalog_short_name>  (858) 
dbfda

$$$$

     RDKit          3D

 26 28  0  0  0  0  0  0  0  0999 V2000
   -1.1805   -2.2243   -1.0286 C   0  0  0  0  0  0  0  0  0  0  0  0
   -1.4601   -0.8364   -0.1293 C   0  0  1  0  0  0  0  0  0  0  0  0
   -1.3627    0.0785   -1.4472 N   0  0  0  0  0  0  0  0  0  0  0  0
    0.0545    0.3172   -1.5997 C   0  0  0  0  0  0  0  0  0  0  0  0
    0.6697    1.0017   -0.4050 C   0  0  0  0  0  0  0  0  0  0  0  0
    1.0640   -0.0717    0.6029 C   0  0  0  0  0  0  0  0  0  0  0  0
    2.4322   -0.5044    0.2048 C   0  0  0  0  0  0  0  0  0  0  0  0
    2.6867   -1.4658   -0.7346 C   0  0  0  0  0  0  0  0  0  0  0  0
    3.9864   -1.9558   -0.7772 C   0  0  0  0  0  0  0  0  0  0  0  0
    5.0102   -1.2031   -0.2166 C   0  0  0  0  0  0  0  0  0  0  0  0
    4.7516    0.0468    0.2867 C   0  0  0  0  0  0  0  0  0  0  0  0
    5.8102    1.0020    0.7015 C   0  0  0  0  0  0  0  0  0  0  0  0
    5.3030    1.7899    1.7279 F   0  0  0  0  0  0  0  0  0  0  0  0
    6.1485    1.7839   -0.3823 F   0  0  0  0  0  0  0  0  0  0  0  0
    6.8894    0.3178    1.2161 F   0  0  0  0  0  0  0  0  0  0  0  0
    3.4454    0.4166    0.4418 C   0  0  0  0  0  0  0  0  0  0  0  0
   -3.0883   -1.0003   -0.3124 C   0  0  0  0  0  0  0  0  0  0  0  0
   -3.5478   -2.1051    0.4005 C   0  0  0  0  0  0  0  0  0  0  0  0
   -4.8863   -2.2147    0.7589 C   0  0  0  0  0  0  0  0  0  0  0  0
   -5.6784   -1.1110    0.4883 C   0  0  0  0  0  0  0  0  0  0  0  0
   -5.1299    0.1015    0.0945 C   0  0  0  0  0  0  0  0  0  0  0  0
   -5.8808    1.2357   -0.1123 C   0  0  0  0  0  0  0  0  0  0  0  0
   -5.2329    2.4493   -0.2824 C   0  0  0  0  0  0  0  0  0  0  0  0
   -3.8801    2.5654   -0.0446 C   0  0  0  0  0  0  0  0  0  0  0  0
   -3.1630    1.4049    0.0519 C   0  0  0  0  0  0  0  0  0  0  0  0
   -3.7609    0.1815   -0.1215 C   0  0  0  0  0  0  0  0  0  0  0  0
  2  1  1  6
  2  3  1  0
  3  4  1  0
  4  5  1  0
  5  6  1  0
  6  7  1  0
  7  8  2  0
  8  9  1  0
  9 10  2  0
 10 11  1  0
 11 12  1  0
 12 13  1  0
 12 14  1  0
 12 15  1  0
 11 16  2  0
  2 17  1  0
 17 18  2  0
 18 19  1  0
 19 20  2  0
 20 21  1  0
 21 22  2  0
 22 23  1  0
 23 24  2  0
 24 25  1  0
 25 26  2  0
 16  7  1  0
 26 17  1  0
 26 21  1  0
M  END
>  <supplier_code>  (859) 
DB01012

>  <zinc_id>  (859) 
ZINC000001550499

>  <catalog_short_name>  (859) 
dbfda

$$$$

     RDKit          3D

 32 35  0  0  0  0  0  0  0  0999 V2000
   -5.6527   -1.8863    0.0544 C   0  0  0  0  0  0  0  0  0  0  0  0
   -5.1242   -1.8950   -0.2171 C   0  0  0  0  0  0  0  0  0  0  0  0
   -3.7233   -1.3686   -0.3193 C   0  0  0  0  0  0  0  0  0  0  0  0
   -2.8305   -2.2656   -0.2042 O   0  0  0  0  0  0  0  0  0  0  0  0
   -3.2755   -0.2916    0.4608 O   0  0  0  0  0  0  0  0  0  0  0  0
   -2.3062    0.5365   -0.0632 C   0  0  2  0  0  0  0  0  0  0  0  0
   -2.7887    1.8489    0.5001 C   0  0  0  0  0  0  0  0  0  0  0  0
   -2.2347    2.0945    1.5815 O   0  0  0  0  0  0  0  0  0  0  0  0
   -4.2329    2.2376    0.4234 C   0  0  0  0  0  0  0  0  0  0  0  0
   -4.4834    3.7134    1.3808 Cl  0  0  0  0  0  0  0  0  0  0  0  0
   -2.5788    0.5477   -1.6668 C   0  0  1  0  0  0  0  0  0  0  0  0
   -2.6716    2.1718   -1.8363 C   0  0  0  0  0  0  0  0  0  0  0  0
   -1.0124    0.5222   -2.1235 C   0  0  0  0  0  0  0  0  0  0  0  0
   -0.4814   -0.5910   -1.0897 C   0  0  1  0  0  0  0  0  0  0  0  0
    1.0902    0.0237   -0.9872 C   0  0  2  0  0  0  0  0  0  0  0  0
    1.6050   -0.6161   -2.3811 C   0  0  0  0  0  0  0  0  0  0  0  0
    3.1088   -0.7205   -2.1361 C   0  0  0  0  0  0  0  0  0  0  0  0
    3.5183   -0.1294   -0.8261 C   0  0  0  0  0  0  0  0  0  0  0  0
    4.6022    0.6395   -0.6996 C   0  0  0  0  0  0  0  0  0  0  0  0
    5.2459    0.5630    0.6239 C   0  0  0  0  0  0  0  0  0  0  0  0
    5.9712    1.4502    1.0922 O   0  0  0  0  0  0  0  0  0  0  0  0
    5.0421   -0.7682    1.2270 C   0  0  0  0  0  0  0  0  0  0  0  0
    3.9412   -1.4870    0.9515 C   0  0  0  0  0  0  0  0  0  0  0  0
    2.8309   -0.6396    0.4199 C   0  0  1  0  0  0  0  0  0  0  0  0
    2.7489    0.4993    1.4260 C   0  0  0  0  0  0  0  0  0  0  0  0
    1.6440   -1.1855   -0.0770 C   0  0  2  0  0  0  0  0  0  0  0  0
    1.6822   -2.3398   -0.7476 F   0  0  0  0  0  0  0  0  0  0  0  0
    0.4524   -1.5143    0.9838 C   0  0  1  0  0  0  0  0  0  0  0  0
    1.3528   -1.4121    2.2020 O   0  0  0  0  0  0  0  0  0  0  0  0
   -0.0970    0.0296    1.1809 C   0  0  0  0  0  0  0  0  0  0  0  0
   -0.9191    0.4126    0.0995 C   0  0  2  0  0  0  0  0  0  0  0  0
   -0.4236    1.8199   -0.2814 C   0  0  0  0  0  0  0  0  0  0  0  0
  1  2  1  0
  2  3  1  0
  3  4  2  0
  3  5  1  0
  6  5  1  1
  6  7  1  0
  7  8  2  0
  7  9  1  0
  9 10  1  0
  6 11  1  0
 11 12  1  1
 11 13  1  0
 14 13  1  6
 14 15  1  0
 15 16  1  6
 16 17  1  0
 17 18  1  0
 18 19  2  0
 19 20  1  0
 20 21  2  0
 20 22  1  0
 22 23  2  0
 23 24  1  0
 24 25  1  1
 24 26  1  0
 26 27  1  6
 26 28  1  0
 28 29  1  1
 28 30  1  0
 30 31  1  0
 31 32  1  6
 31  6  1  0
 31 14  1  0
 26 15  1  0
 24 18  1  0
M  END
>  <supplier_code>  (860) 
DB01013

>  <zinc_id>  (860) 
ZINC000003977767

>  <catalog_short_name>  (860) 
dbfda

$$$$

     RDKit          3D

 26 27  0  0  0  0  0  0  0  0999 V2000
    7.1099    3.0187    0.3678 O   0  0  0  0  0  0  0  0  0  0  0  0
    6.8323    1.8003    0.1895 C   0  0  0  0  0  0  0  0  0  0  0  0
    7.8237    0.8347    0.3794 O   0  0  0  0  0  0  0  0  0  0  0  0
    5.5006    1.3622   -0.3116 C   0  0  0  0  0  0  0  0  0  0  0  0
    5.7474    0.2880   -1.3587 C   0  0  0  0  0  0  0  0  0  0  0  0
    4.4721   -0.3858   -1.5861 N   0  0  0  0  0  0  0  0  0  0  0  0
    4.0768   -1.5036   -0.7817 C   0  0  0  0  0  0  0  0  0  0  0  0
    4.7728   -1.6722    0.2651 O   0  0  0  0  0  0  0  0  0  0  0  0
    2.6308   -1.6776   -0.5947 C   0  0  0  0  0  0  0  0  0  0  0  0
    1.9102   -2.6815   -1.1733 C   0  0  0  0  0  0  0  0  0  0  0  0
    0.5216   -2.6380   -1.1808 C   0  0  0  0  0  0  0  0  0  0  0  0
   -0.1485   -1.6967   -0.4073 C   0  0  0  0  0  0  0  0  0  0  0  0
   -1.5666   -1.5639   -0.4432 N   0  0  0  0  0  0  0  0  0  0  0  0
   -2.3142   -1.5897    0.5663 N   0  0  0  0  0  0  0  0  0  0  0  0
   -3.3452   -0.6237    0.8160 C   0  0  0  0  0  0  0  0  0  0  0  0
   -2.9789    0.5320    1.4958 C   0  0  0  0  0  0  0  0  0  0  0  0
   -3.4105    1.7909    1.0961 C   0  0  0  0  0  0  0  0  0  0  0  0
   -4.4935    1.8592    0.2325 C   0  0  0  0  0  0  0  0  0  0  0  0
   -5.0234    3.0804   -0.1587 O   0  0  0  0  0  0  0  0  0  0  0  0
   -5.1575    0.6929   -0.1232 C   0  0  0  0  0  0  0  0  0  0  0  0
   -6.5934    0.6982   -0.4263 C   0  0  0  0  0  0  0  0  0  0  0  0
   -7.4019   -0.0011    0.2539 O   0  0  0  0  0  0  0  0  0  0  0  0
   -7.1094    1.8913   -0.9301 O   0  0  0  0  0  0  0  0  0  0  0  0
   -4.4220   -0.4797   -0.0516 C   0  0  0  0  0  0  0  0  0  0  0  0
    0.6121   -0.5857   -0.0633 C   0  0  0  0  0  0  0  0  0  0  0  0
    1.9547   -0.7493    0.1668 C   0  0  0  0  0  0  0  0  0  0  0  0
  1  2  2  0
  2  3  1  0
  2  4  1  0
  4  5  1  0
  5  6  1  0
  6  7  1  0
  7  8  2  0
  7  9  1  0
  9 10  2  0
 10 11  1  0
 11 12  2  0
 12 13  1  0
 13 14  2  0
 14 15  1  0
 15 16  2  0
 16 17  1  0
 17 18  2  0
 18 19  1  0
 18 20  1  0
 20 21  1  0
 21 22  2  0
 21 23  1  0
 20 24  2  0
 12 25  1  0
 25 26  2  0
 26  9  1  0
 24 15  1  0
M  END
>  <supplier_code>  (861) 
DB01014

>  <zinc_id>  (861) 
ZINC000003952881

>  <catalog_short_name>  (861) 
dbfda

$$$$

     RDKit          3D

 17 18  0  0  0  0  0  0  0  0999 V2000
    5.0123    1.8404   -0.2097 C   0  0  0  0  0  0  0  0  0  0  0  0
    4.0498    0.7275   -0.3331 C   0  0  0  0  0  0  0  0  0  0  0  0
    3.0402    0.5406   -1.2633 C   0  0  0  0  0  0  0  0  0  0  0  0
    2.3091   -0.5463   -0.7994 C   0  0  0  0  0  0  0  0  0  0  0  0
    0.9083   -0.7674   -1.0030 N   0  0  0  0  0  0  0  0  0  0  0  0
   -0.1589   -1.1338    0.3157 S   0  0  0  0  0  0  0  0  0  0  0  0
    0.5038   -0.6016    1.5659 O   0  0  0  0  0  0  0  0  0  0  0  0
   -0.3442   -2.6142    0.4407 O   0  0  0  0  0  0  0  0  0  0  0  0
   -1.6729   -0.3052    0.1150 C   0  0  0  0  0  0  0  0  0  0  0  0
   -2.3079    0.3336    1.1742 C   0  0  0  0  0  0  0  0  0  0  0  0
   -3.4167    1.1205    0.9620 C   0  0  0  0  0  0  0  0  0  0  0  0
   -4.0183    1.0989   -0.2905 C   0  0  0  0  0  0  0  0  0  0  0  0
   -4.7339    2.2403   -0.7744 N   0  0  0  0  0  0  0  0  0  0  0  0
   -3.6753    0.0386   -1.1191 C   0  0  0  0  0  0  0  0  0  0  0  0
   -2.4933   -0.6543   -0.9436 C   0  0  0  0  0  0  0  0  0  0  0  0
    2.9732   -1.0318    0.2778 N   0  0  0  0  0  0  0  0  0  0  0  0
    4.0247   -0.2856    0.5114 O   0  0  0  0  0  0  0  0  0  0  0  0
  1  2  1  0
  2  3  2  0
  3  4  1  0
  4  5  1  0
  5  6  1  0
  6  7  2  0
  6  8  2  0
  6  9  1  0
  9 10  2  0
 10 11  1  0
 11 12  2  0
 12 13  1  0
 12 14  1  0
 14 15  2  0
  4 16  2  0
 16 17  1  0
 17  2  1  0
 15  9  1  0
M  END
>  <supplier_code>  (862) 
DB01015

>  <zinc_id>  (862) 
ZINC000000089763

>  <catalog_short_name>  (862) 
dbfda

$$$$

     RDKit          3D

 33 35  0  0  0  0  0  0  0  0999 V2000
   -7.3361    3.4046   -0.9455 C   0  0  0  0  0  0  0  0  0  0  0  0
   -6.4653    2.8072    0.0059 O   0  0  0  0  0  0  0  0  0  0  0  0
   -6.4165    1.4172    0.1484 C   0  0  0  0  0  0  0  0  0  0  0  0
   -7.5076    0.7135    0.6422 C   0  0  0  0  0  0  0  0  0  0  0  0
   -7.4942   -0.6745    0.6781 C   0  0  0  0  0  0  0  0  0  0  0  0
   -6.4714   -1.3007    0.0180 C   0  0  0  0  0  0  0  0  0  0  0  0
   -6.5130   -3.0336   -0.2378 Cl  0  0  0  0  0  0  0  0  0  0  0  0
   -5.3512   -0.6046   -0.4050 C   0  0  0  0  0  0  0  0  0  0  0  0
   -5.2517    0.7519   -0.2121 C   0  0  0  0  0  0  0  0  0  0  0  0
   -3.9679    1.4171    0.0250 C   0  0  0  0  0  0  0  0  0  0  0  0
   -3.7799    2.5981   -0.3278 O   0  0  0  0  0  0  0  0  0  0  0  0
   -2.8240    0.6757    0.4395 N   0  0  0  0  0  0  0  0  0  0  0  0
   -1.7677    1.3149    1.2156 C   0  0  0  0  0  0  0  0  0  0  0  0
   -1.2099    0.2390    2.1289 C   0  0  0  0  0  0  0  0  0  0  0  0
   -0.5130   -0.8032    1.3130 C   0  0  0  0  0  0  0  0  0  0  0  0
   -0.8048   -0.9868   -0.0329 C   0  0  0  0  0  0  0  0  0  0  0  0
    0.1590   -1.4750   -0.8968 C   0  0  0  0  0  0  0  0  0  0  0  0
    1.4652   -1.6889   -0.4804 C   0  0  0  0  0  0  0  0  0  0  0  0
    2.8200   -1.4369   -1.5596 S   0  0  0  0  0  0  0  0  0  0  0  0
    2.4791   -0.5221   -2.6928 O   0  0  0  0  0  0  0  0  0  0  0  0
    3.2180   -2.7542   -2.1484 O   0  0  0  0  0  0  0  0  0  0  0  0
    4.1689   -0.7314   -0.7241 N   0  0  0  0  0  0  0  0  0  0  0  0
    4.8372   -1.5075    0.0446 C   0  0  0  0  0  0  0  0  0  0  0  0
    4.6088   -2.8755    0.1592 O   0  0  0  0  0  0  0  0  0  0  0  0
    5.9853   -0.9906    0.6770 N   0  0  0  0  0  0  0  0  0  0  0  0
    6.5887    0.2807    0.4099 C   0  0  0  0  0  0  0  0  0  0  0  0
    6.5353    0.6968   -1.0319 C   0  0  0  0  0  0  0  0  0  0  0  0
    7.0863    2.1162   -1.0981 C   0  0  0  0  0  0  0  0  0  0  0  0
    8.0403    2.4011    0.0305 C   0  0  0  0  0  0  0  0  0  0  0  0
    7.2277    2.4700    1.3174 C   0  0  0  0  0  0  0  0  0  0  0  0
    6.1784    1.3663    1.3631 C   0  0  0  0  0  0  0  0  0  0  0  0
    1.6350   -1.8529    0.8892 C   0  0  0  0  0  0  0  0  0  0  0  0
    0.6412   -1.4318    1.7641 C   0  0  0  0  0  0  0  0  0  0  0  0
  1  2  1  0
  2  3  1  0
  3  4  2  0
  4  5  1  0
  5  6  2  0
  6  7  1  0
  6  8  1  0
  8  9  2  0
  9 10  1  0
 10 11  2  0
 10 12  1  0
 12 13  1  0
 13 14  1  0
 14 15  1  0
 15 16  2  0
 16 17  1  0
 17 18  2  0
 18 19  1  0
 19 20  2  0
 19 21  2  0
 19 22  1  0
 22 23  2  0
 23 24  1  0
 23 25  1  0
 25 26  1  0
 26 27  1  0
 27 28  1  0
 28 29  1  0
 29 30  1  0
 30 31  1  0
 18 32  1  0
 32 33  2  0
  9  3  1  0
 33 15  1  0
 31 26  1  0
M  END
>  <supplier_code>  (863) 
DB01016

>  <zinc_id>  (863) 
ZINC000000537805

>  <catalog_short_name>  (863) 
dbfda

$$$$

     RDKit          3D

 33 36  0  0  0  0  0  0  0  0999 V2000
    4.2137    3.2296    0.3737 C   0  0  0  0  0  0  0  0  0  0  0  0
    4.4951    2.2634   -0.6759 N   0  0  0  0  0  0  0  0  0  0  0  0
    4.3582    2.6534   -2.0555 C   0  0  0  0  0  0  0  0  0  0  0  0
    4.4549    0.8971   -0.3003 C   0  0  0  0  0  0  0  0  0  0  0  0
    5.3188    0.5098    0.7170 C   0  0  0  0  0  0  0  0  0  0  0  0
    5.3328   -0.7907    1.2007 C   0  0  0  0  0  0  0  0  0  0  0  0
    4.3252   -1.6403    0.7715 C   0  0  0  0  0  0  0  0  0  0  0  0
    4.1116   -2.7637    1.5725 O   0  0  0  0  0  0  0  0  0  0  0  0
    3.3357   -1.1640   -0.0806 C   0  0  0  0  0  0  0  0  0  0  0  0
    3.3726    0.0926   -0.6339 C   0  0  0  0  0  0  0  0  0  0  0  0
    2.1620    0.6598   -1.3155 C   0  0  0  0  0  0  0  0  0  0  0  0
    1.0713    0.4609   -0.0756 C   0  0  1  0  0  0  0  0  0  0  0  0
   -0.2330    0.8565   -1.0329 C   0  0  0  0  0  0  0  0  0  0  0  0
   -1.2278    0.8370    0.2755 C   0  0  1  0  0  0  0  0  0  0  0  0
   -2.5810    1.3521   -0.6897 C   0  0  2  0  0  0  0  0  0  0  0  0
   -2.4556    2.8259   -0.1115 N   0  0  0  0  0  0  0  0  0  0  0  0
   -2.4148    2.7149    1.3001 C   0  0  0  0  0  0  0  0  0  0  0  0
   -3.5319    3.5762   -0.6692 C   0  0  0  0  0  0  0  0  0  0  0  0
   -3.6670    0.8967    0.4451 C   0  0  0  0  0  0  0  0  0  0  0  0
   -4.7539    1.7510    0.5784 O   0  0  0  0  0  0  0  0  0  0  0  0
   -3.9654   -0.3568    0.0842 C   0  0  0  0  0  0  0  0  0  0  0  0
   -5.2961   -0.9189    0.0754 C   0  0  0  0  0  0  0  0  0  0  0  0
   -6.0270   -0.8187    1.3044 N   0  0  0  0  0  0  0  0  0  0  0  0
   -5.6023   -1.8488   -0.6971 O   0  0  0  0  0  0  0  0  0  0  0  0
   -2.7729   -1.0442   -0.4376 C   0  0  0  0  0  0  0  0  0  0  0  0
   -2.9335   -2.0499   -1.1503 O   0  0  0  0  0  0  0  0  0  0  0  0
   -1.5184   -0.7578    0.1894 C   0  0  2  0  0  0  0  0  0  0  0  0
   -1.6596   -1.0110    1.5713 O   0  0  0  0  0  0  0  0  0  0  0  0
   -0.3494   -1.4923   -0.2159 C   0  0  0  0  0  0  0  0  0  0  0  0
   -0.4563   -2.8688    0.0385 O   0  0  0  0  0  0  0  0  0  0  0  0
    0.8752   -1.1155   -0.4390 C   0  0  0  0  0  0  0  0  0  0  0  0
    2.0713   -1.8956   -0.1970 C   0  0  0  0  0  0  0  0  0  0  0  0
    1.9476   -3.0398    0.2797 O   0  0  0  0  0  0  0  0  0  0  0  0
  1  2  1  0
  2  3  1  0
  2  4  1  0
  4  5  2  0
  5  6  1  0
  6  7  2  0
  7  8  1  0
  7  9  1  0
  9 10  2  0
 10 11  1  0
 12 11  1  6
 12 13  1  0
 14 13  1  6
 14 15  1  0
 15 16  1  1
 16 17  1  0
 16 18  1  0
 15 19  1  0
 19 20  1  0
 19 21  2  0
 21 22  1  0
 22 23  1  0
 22 24  2  0
 21 25  1  0
 25 26  2  0
 25 27  1  0
 27 28  1  1
 27 29  1  0
 29 30  1  0
 29 31  2  0
 31 32  1  0
 32 33  2  0
 10  4  1  0
 31 12  1  0
 32  9  1  0
 27 14  1  0
M  END
>  <supplier_code>  (864) 
DB01017

>  <zinc_id>  (864) 
ZINC000014879992

>  <catalog_short_name>  (864) 
dbfda

$$$$

     RDKit          3D

 15 15  0  0  0  0  0  0  0  0999 V2000
    3.6534    0.5828    1.4704 N   0  0  0  0  0  0  0  0  0  0  0  0
    3.0216    0.2340    0.2391 C   0  0  0  0  0  0  0  0  0  0  0  0
    3.4900   -0.9705   -0.3823 N   0  0  0  0  0  0  0  0  0  0  0  0
    1.8684    0.7414    0.0100 N   0  0  0  0  0  0  0  0  0  0  0  0
    1.1163    0.5059   -1.1682 C   0  0  0  0  0  0  0  0  0  0  0  0
    1.6826    0.2955   -2.2821 O   0  0  0  0  0  0  0  0  0  0  0  0
   -0.3280    0.8731   -1.1714 C   0  0  0  0  0  0  0  0  0  0  0  0
   -1.0585    0.2484   -0.0368 C   0  0  0  0  0  0  0  0  0  0  0  0
   -0.9283   -1.1228    0.1394 C   0  0  0  0  0  0  0  0  0  0  0  0
   -0.0708   -2.1258   -1.0300 Cl  0  0  0  0  0  0  0  0  0  0  0  0
   -1.6480   -1.7093    1.1732 C   0  0  0  0  0  0  0  0  0  0  0  0
   -2.7028   -1.0035    1.7383 C   0  0  0  0  0  0  0  0  0  0  0  0
   -3.1770    0.1510    1.1275 C   0  0  0  0  0  0  0  0  0  0  0  0
   -2.2365    0.8509    0.3821 C   0  0  0  0  0  0  0  0  0  0  0  0
   -2.6824    2.4488   -0.2091 Cl  0  0  0  0  0  0  0  0  0  0  0  0
  1  2  1  0
  2  3  1  0
  2  4  2  3
  4  5  1  0
  5  6  2  0
  5  7  1  0
  7  8  1  0
  8  9  2  0
  9 10  1  0
  9 11  1  0
 11 12  2  0
 12 13  1  0
 13 14  2  0
 14 15  1  0
 14  8  1  0
M  END
>  <supplier_code>  (865) 
DB01018

>  <zinc_id>  (865) 
ZINC000003872738

>  <catalog_short_name>  (865) 
dbfda

$$$$

     RDKit          3D

 11 10  0  0  0  0  0  0  0  0999 V2000
   -0.0936   -1.1878    2.0328 C   0  0  0  0  0  0  0  0  0  0  0  0
    0.0428   -0.7220    0.4563 C   0  0  1  0  0  0  0  0  0  0  0  0
   -0.8034    0.6691    0.7274 C   0  0  0  0  0  0  0  0  0  0  0  0
   -1.8347    0.5195   -0.2979 N   0  0  0  0  0  0  0  0  0  0  0  0
   -2.5395    1.7435   -0.5595 C   0  0  0  0  0  0  0  0  0  0  0  0
   -2.7483   -0.4754    0.2623 C   0  0  0  0  0  0  0  0  0  0  0  0
   -1.2641   -0.0725   -1.4974 C   0  0  0  0  0  0  0  0  0  0  0  0
    1.3859   -0.0140    0.7277 O   0  0  0  0  0  0  0  0  0  0  0  0
    2.2979   -0.1598   -0.3151 C   0  0  0  0  0  0  0  0  0  0  0  0
    3.2383    0.8965   -0.4935 N   0  0  0  0  0  0  0  0  0  0  0  0
    2.3187   -1.1973   -1.0431 O   0  0  0  0  0  0  0  0  0  0  0  0
  2  1  1  1
  2  3  1  0
  3  4  1  0
  4  5  1  0
  4  6  1  0
  4  7  1  0
  2  8  1  0
  8  9  1  0
  9 10  1  0
  9 11  2  0
M  CHG  1   4   1
M  END
>  <supplier_code>  (866) 
DB01019

>  <zinc_id>  (866) 
ZINC000000000083

>  <catalog_short_name>  (866) 
dbfda

$$$$

     RDKit          3D

 11 10  0  0  0  0  0  0  0  0999 V2000
   -0.1791    2.3572   -0.0137 C   0  0  0  0  0  0  0  0  0  0  0  0
    0.0816    0.9158   -0.8282 C   0  0  2  0  0  0  0  0  0  0  0  0
   -0.3673    0.0403    0.5294 C   0  0  0  0  0  0  0  0  0  0  0  0
   -1.6746   -0.4844    0.1386 N   0  0  0  0  0  0  0  0  0  0  0  0
   -2.7410    0.4223    0.5163 C   0  0  0  0  0  0  0  0  0  0  0  0
   -1.9608   -1.7492    0.7975 C   0  0  0  0  0  0  0  0  0  0  0  0
   -1.7631   -0.6585   -1.3020 C   0  0  0  0  0  0  0  0  0  0  0  0
    1.6028    0.9393   -0.4432 O   0  0  0  0  0  0  0  0  0  0  0  0
    2.0790   -0.3333   -0.1044 C   0  0  0  0  0  0  0  0  0  0  0  0
    3.4189   -0.7553   -0.2602 N   0  0  0  0  0  0  0  0  0  0  0  0
    1.5036   -0.6942    0.9698 O   0  0  0  0  0  0  0  0  0  0  0  0
  2  1  1  1
  2  3  1  0
  3  4  1  0
  4  5  1  0
  4  6  1  0
  4  7  1  0
  2  8  1  0
  8  9  1  0
  9 10  1  0
  9 11  2  0
M  CHG  1   4   1
M  END
>  <supplier_code>  (867) 
DB01019

>  <zinc_id>  (867) 
ZINC000003830314

>  <catalog_short_name>  (867) 
dbfda

$$$$

     RDKit          3D

 13 14  0  0  0  0  0  0  0  0999 V2000
    2.8688   -0.7493   -0.5746 O   0  0  0  0  0  0  0  0  0  0  0  0
    2.8220   -0.5495   -0.0999 N   0  0  0  0  0  0  0  0  0  0  0  0
    3.7040    0.0938    0.7365 O   0  0  0  0  0  0  0  0  0  0  0  0
    1.5183   -0.7238    0.3600 O   0  0  0  0  0  0  0  0  0  0  0  0
    0.8574    0.6424    0.1628 C   0  0  2  0  0  0  0  0  0  0  0  0
   -0.2069    0.4056    1.3799 C   0  0  0  0  0  0  0  0  0  0  0  0
   -0.7993    1.5181    0.9264 O   0  0  0  0  0  0  0  0  0  0  0  0
   -1.5069    1.1552   -0.3319 C   0  0  2  0  0  0  0  0  0  0  0  0
   -2.3944   -0.0618    0.4753 C   0  0  1  0  0  0  0  0  0  0  0  0
   -3.6735    0.4227   -0.1677 O   0  0  0  0  0  0  0  0  0  0  0  0
   -2.0772   -1.1360   -0.7217 C   0  0  0  0  0  0  0  0  0  0  0  0
   -0.7815   -1.1074   -0.1686 O   0  0  0  0  0  0  0  0  0  0  0  0
   -0.3308    0.0899   -0.9407 C   0  0  2  0  0  0  0  0  0  0  0  0
  1  2  2  0
  2  3  1  0
  2  4  1  0
  5  4  1  1
  5  6  1  0
  6  7  1  0
  8  7  1  1
  8  9  1  0
  9 10  1  6
  9 11  1  0
 11 12  1  0
 13 12  1  1
 13  5  1  0
 13  8  1  0
M  CHG  2   2   1   3  -1
M  END
>  <supplier_code>  (868) 
DB01020

>  <zinc_id>  (868) 
ZINC000001849548

>  <catalog_short_name>  (868) 
dbfda

$$$$

     RDKit          3D

 33 34  0  0  0  0  0  0  0  0999 V2000
   -2.0666   -1.4497    1.2772 C   0  0  0  0  0  0  0  0  0  0  0  0
   -1.1158   -0.9279    0.2422 C   0  0  0  0  0  0  0  0  0  0  0  0
   -1.7561   -0.3087   -0.7302 C   0  0  0  0  0  0  0  0  0  0  0  0
   -2.7802    0.6977   -0.5629 C   0  0  0  0  0  0  0  0  0  0  0  0
   -3.9298    0.3994    0.2902 C   0  0  0  0  0  0  0  0  0  0  0  0
   -4.4077    1.4310    0.9940 C   0  0  0  0  0  0  0  0  0  0  0  0
   -3.4645    2.4728    1.4934 C   0  0  0  0  0  0  0  0  0  0  0  0
   -5.8117    1.6300    1.2805 C   0  0  0  0  0  0  0  0  0  0  0  0
   -6.2831    2.7223    1.7230 O   0  0  0  0  0  0  0  0  0  0  0  0
   -6.7654    0.5811    0.9837 C   0  0  0  0  0  0  0  0  0  0  0  0
   -8.0292    0.5104    1.5550 C   0  0  0  0  0  0  0  0  0  0  0  0
   -8.6027   -0.7363    1.7762 C   0  0  0  0  0  0  0  0  0  0  0  0
   -8.2338   -1.7367    0.9057 C   0  0  0  0  0  0  0  0  0  0  0  0
   -7.1494   -1.5530    0.0605 C   0  0  0  0  0  0  0  0  0  0  0  0
   -6.3262   -0.4474    0.1650 C   0  0  0  0  0  0  0  0  0  0  0  0
   -4.9047   -0.5999   -0.1701 C   0  0  0  0  0  0  0  0  0  0  0  0
   -4.6771   -1.3324   -1.1806 O   0  0  0  0  0  0  0  0  0  0  0  0
    0.2407   -0.6517    0.7425 C   0  0  0  0  0  0  0  0  0  0  0  0
    1.2131   -0.2202   -0.3064 C   0  0  0  0  0  0  0  0  0  0  0  0
    2.2168   -1.3009   -0.5149 C   0  0  0  0  0  0  0  0  0  0  0  0
    3.5746   -0.8820    0.2835 C   0  0  2  0  0  0  0  0  0  0  0  0
    2.7751   -0.5507    1.6660 C   0  0  0  0  0  0  0  0  0  0  0  0
    3.5184    0.6697   -0.2210 C   0  0  0  0  0  0  0  0  0  0  0  0
    4.1241    0.7038   -1.5946 C   0  0  0  0  0  0  0  0  0  0  0  0
    4.3812   -0.6469   -2.1482 C   0  0  0  0  0  0  0  0  0  0  0  0
    5.9781   -0.8007   -2.4415 C   0  0  2  0  0  0  0  0  0  0  0  0
    6.0048   -2.2990   -1.7923 C   0  0  0  0  0  0  0  0  0  0  0  0
    6.4112   -0.0570   -1.0590 C   0  0  0  0  0  0  0  0  0  0  0  0
    7.3695   -0.8978   -0.3191 C   0  0  0  0  0  0  0  0  0  0  0  0
    8.5165   -0.1149    0.3088 C   0  0  0  0  0  0  0  0  0  0  0  0
    9.6761   -0.4272   -0.6348 C   0  0  0  0  0  0  0  0  0  0  0  0
    9.3066    0.1411   -1.9668 C   0  0  0  0  0  0  0  0  0  0  0  0
   10.9974   -0.0012   -0.1053 C   0  0  0  0  0  0  0  0  0  0  0  0
  1  2  1  0
  2  3  2  0
  3  4  1  0
  4  5  1  0
  5  6  2  0
  6  7  1  0
  6  8  1  0
  8  9  2  0
  8 10  1  0
 10 11  2  0
 11 12  1  0
 12 13  2  0
 13 14  1  0
 14 15  2  0
 15 16  1  0
 16 17  2  0
  2 18  1  0
 18 19  1  0
 19 20  1  0
 21 20  1  6
 21 22  1  0
 21 23  1  0
 23 24  1  0
 24 25  1  0
 26 25  1  1
 26 27  1  0
 26 28  1  0
 28 29  1  0
 29 30  1  0
 30 31  1  0
 31 32  1  0
 31 33  1  0
 16  5  1  0
 15 10  1  0
M  END
>  <supplier_code>  (869) 
DB01022

>  <zinc_id>  (869) 
ZINC000003831332

>  <catalog_short_name>  (869) 
dbfda

$$$$

     RDKit          3D

 25 26  0  0  0  0  0  0  0  0999 V2000
    4.2421   -3.1117   -0.3775 C   0  0  0  0  0  0  0  0  0  0  0  0
    3.7742   -2.6943   -1.0850 C   0  0  0  0  0  0  0  0  0  0  0  0
    2.9177   -1.5656   -0.9842 O   0  0  0  0  0  0  0  0  0  0  0  0
    1.6768   -1.6219   -0.3423 C   0  0  0  0  0  0  0  0  0  0  0  0
    1.4361   -2.7321    0.2248 O   0  0  0  0  0  0  0  0  0  0  0  0
    1.1303   -0.3652    0.2043 C   0  0  0  0  0  0  0  0  0  0  0  0
    0.9074   -0.3451    1.4746 C   0  0  0  0  0  0  0  0  0  0  0  0
    1.8495   -1.1386    2.3294 C   0  0  0  0  0  0  0  0  0  0  0  0
    0.3912    0.8409    2.0134 N   0  0  0  0  0  0  0  0  0  0  0  0
   -0.0184    1.8798    1.1782 C   0  0  0  0  0  0  0  0  0  0  0  0
   -0.2729    3.2549    1.7164 C   0  0  0  0  0  0  0  0  0  0  0  0
    0.0738    1.7656   -0.0802 C   0  0  0  0  0  0  0  0  0  0  0  0
    0.2470    2.8202   -1.0619 C   0  0  0  0  0  0  0  0  0  0  0  0
   -0.0198    2.6793   -2.2769 O   0  0  0  0  0  0  0  0  0  0  0  0
    0.6395    4.0738   -0.6472 O   0  0  0  0  0  0  0  0  0  0  0  0
    1.4907    4.8801   -1.4597 C   0  0  0  0  0  0  0  0  0  0  0  0
    0.0024    0.2946   -0.7761 C   0  0  2  0  0  0  0  0  0  0  0  0
   -1.2756   -0.2580    0.0868 C   0  0  0  0  0  0  0  0  0  0  0  0
   -2.2747    0.6894    0.3139 C   0  0  0  0  0  0  0  0  0  0  0  0
   -3.3277    0.1878    1.0758 C   0  0  0  0  0  0  0  0  0  0  0  0
   -3.8141   -1.0440    0.6539 C   0  0  0  0  0  0  0  0  0  0  0  0
   -3.0662   -1.8154   -0.2280 C   0  0  0  0  0  0  0  0  0  0  0  0
   -3.7107   -3.3087   -0.8974 Cl  0  0  0  0  0  0  0  0  0  0  0  0
   -1.7789   -1.3929   -0.5506 C   0  0  0  0  0  0  0  0  0  0  0  0
   -1.2195   -1.9727   -2.1184 Cl  0  0  0  0  0  0  0  0  0  0  0  0
  1  2  1  0
  2  3  1  0
  3  4  1  0
  4  5  2  0
  4  6  1  0
  6  7  2  0
  7  8  1  0
  7  9  1  0
  9 10  1  0
 10 11  1  0
 10 12  2  0
 12 13  1  0
 13 14  2  0
 13 15  1  0
 15 16  1  0
 12 17  1  0
 17 18  1  1
 18 19  2  0
 19 20  1  0
 20 21  2  0
 21 22  1  0
 22 23  1  0
 22 24  2  0
 24 25  1  0
 17  6  1  0
 24 18  1  0
M  END
>  <supplier_code>  (870) 
DB01023

>  <zinc_id>  (870) 
ZINC000096942201

>  <catalog_short_name>  (870) 
dbfda

$$$$

     RDKit          3D

 25 26  0  0  0  0  0  0  0  0999 V2000
   -4.8766   -1.9627   -0.5080 C   0  0  0  0  0  0  0  0  0  0  0  0
   -3.9319   -2.5414   -1.3917 C   0  0  0  0  0  0  0  0  0  0  0  0
   -2.8081   -1.6745   -1.5377 O   0  0  0  0  0  0  0  0  0  0  0  0
   -1.5733   -1.9476   -0.9368 C   0  0  0  0  0  0  0  0  0  0  0  0
   -1.3668   -3.1806   -0.7203 O   0  0  0  0  0  0  0  0  0  0  0  0
   -0.9394   -1.0265    0.0031 C   0  0  0  0  0  0  0  0  0  0  0  0
   -1.0588   -1.0039    1.2756 C   0  0  0  0  0  0  0  0  0  0  0  0
   -1.6508   -2.2279    1.9125 C   0  0  0  0  0  0  0  0  0  0  0  0
   -1.3756    0.2797    1.8023 N   0  0  0  0  0  0  0  0  0  0  0  0
   -1.4662    1.3086    0.7987 C   0  0  0  0  0  0  0  0  0  0  0  0
   -2.2486    2.5622    1.0531 C   0  0  0  0  0  0  0  0  0  0  0  0
   -0.2818    1.3387    0.2386 C   0  0  0  0  0  0  0  0  0  0  0  0
    0.1567    2.6106   -0.3666 C   0  0  0  0  0  0  0  0  0  0  0  0
    1.2439    3.0591    0.1157 O   0  0  0  0  0  0  0  0  0  0  0  0
   -0.7694    3.6289   -0.6282 O   0  0  0  0  0  0  0  0  0  0  0  0
   -0.4374    5.0110   -0.5075 C   0  0  0  0  0  0  0  0  0  0  0  0
    0.0957    0.0381   -0.6948 C   0  0  1  0  0  0  0  0  0  0  0  0
    1.3865   -0.3326    0.2549 C   0  0  0  0  0  0  0  0  0  0  0  0
    1.4584   -1.6339    0.6932 C   0  0  0  0  0  0  0  0  0  0  0  0
    2.5385   -1.9172    1.5204 C   0  0  0  0  0  0  0  0  0  0  0  0
    3.7224   -1.2447    1.2429 C   0  0  0  0  0  0  0  0  0  0  0  0
    3.7387   -0.2691    0.2528 C   0  0  0  0  0  0  0  0  0  0  0  0
    5.2534    0.4675   -0.2477 Cl  0  0  0  0  0  0  0  0  0  0  0  0
    2.5531    0.0955   -0.3757 C   0  0  0  0  0  0  0  0  0  0  0  0
    2.6372    0.5628   -2.0720 Cl  0  0  0  0  0  0  0  0  0  0  0  0
  1  2  1  0
  2  3  1  0
  3  4  1  0
  4  5  2  0
  4  6  1  0
  6  7  2  0
  7  8  1  0
  7  9  1  0
  9 10  1  0
 10 11  1  0
 10 12  2  0
 12 13  1  0
 13 14  2  0
 13 15  1  0
 15 16  1  0
 12 17  1  0
 17 18  1  1
 18 19  2  0
 19 20  1  0
 20 21  2  0
 21 22  1  0
 22 23  1  0
 22 24  2  0
 24 25  1  0
 17  6  1  0
 24 18  1  0
M  END
>  <supplier_code>  (871) 
DB01023

>  <zinc_id>  (871) 
ZINC000096942202

>  <catalog_short_name>  (871) 
dbfda

$$$$

     RDKit          3D

 23 24  0  0  0  0  0  0  0  0999 V2000
   -0.5013   -4.0083    0.8438 C   0  0  0  0  0  0  0  0  0  0  0  0
   -0.3596   -2.8586    0.0449 O   0  0  0  0  0  0  0  0  0  0  0  0
   -0.9712   -1.6381    0.3490 C   0  0  0  0  0  0  0  0  0  0  0  0
   -2.3066   -1.7029    0.7188 C   0  0  0  0  0  0  0  0  0  0  0  0
   -2.9976   -3.0214    0.8750 C   0  0  0  0  0  0  0  0  0  0  0  0
   -3.1363   -0.6252    0.4380 C   0  0  0  0  0  0  0  0  0  0  0  0
   -2.5301    0.6098    0.2733 C   0  0  0  0  0  0  0  0  0  0  0  0
   -1.1546    0.6936    0.0924 C   0  0  0  0  0  0  0  0  0  0  0  0
   -0.5713    1.9095   -0.2725 O   0  0  0  0  0  0  0  0  0  0  0  0
   -0.3548   -0.4394    0.0053 C   0  0  0  0  0  0  0  0  0  0  0  0
    0.7598   -0.5455   -0.9575 C   0  0  0  0  0  0  0  0  0  0  0  0
    1.9399    0.2713   -0.6141 C   0  0  0  0  0  0  0  0  0  0  0  0
    2.9706   -0.1657    0.1088 C   0  0  0  0  0  0  0  0  0  0  0  0
    2.5781   -1.0989    1.2150 C   0  0  0  0  0  0  0  0  0  0  0  0
    4.3591   -0.2823   -0.3947 C   0  0  0  0  0  0  0  0  0  0  0  0
    5.2073    0.9196   -0.1281 C   0  0  0  0  0  0  0  0  0  0  0  0
    4.4766    2.0242    0.5460 C   0  0  0  0  0  0  0  0  0  0  0  0
    4.0598    2.9413   -0.2256 O   0  0  0  0  0  0  0  0  0  0  0  0
    5.0390    2.4786    1.7437 O   0  0  0  0  0  0  0  0  0  0  0  0
   -3.6480    1.5280    0.0163 C   0  0  0  0  0  0  0  0  0  0  0  0
   -3.4897    2.7022   -0.3999 O   0  0  0  0  0  0  0  0  0  0  0  0
   -4.7501    0.7635   -0.3796 O   0  0  0  0  0  0  0  0  0  0  0  0
   -4.6192   -0.4554    0.3316 C   0  0  0  0  0  0  0  0  0  0  0  0
  1  2  1  0
  2  3  1  0
  3  4  2  0
  4  5  1  0
  4  6  1  0
  6  7  2  0
  7  8  1  0
  8  9  1  0
  8 10  2  0
 10 11  1  0
 11 12  1  0
 12 13  2  0
 13 14  1  0
 13 15  1  0
 15 16  1  0
 16 17  1  0
 17 18  2  0
 17 19  1  0
  7 20  1  0
 20 21  2  0
 20 22  1  0
 22 23  1  0
 10  3  1  0
 23  6  1  0
M  END
>  <supplier_code>  (872) 
DB01024

>  <zinc_id>  (872) 
ZINC000000001758

>  <catalog_short_name>  (872) 
dbfda

$$$$

     RDKit          3D

 36 40  0  0  0  0  0  0  0  0999 V2000
    8.8264   -0.3676    1.4976 C   0  0  0  0  0  0  0  0  0  0  0  0
    7.7603    0.1614    0.6735 C   0  0  0  0  0  0  0  0  0  0  0  0
    6.7185    0.5312    1.2810 O   0  0  0  0  0  0  0  0  0  0  0  0
    7.5309   -0.4869   -0.5833 N   0  0  0  0  0  0  0  0  0  0  0  0
    7.6336    0.3201   -1.7811 C   0  0  0  0  0  0  0  0  0  0  0  0
    6.2658    0.5332   -2.4117 C   0  0  0  0  0  0  0  0  0  0  0  0
    5.2884   -0.3455   -1.8259 N   0  0  0  0  0  0  0  0  0  0  0  0
    3.9099   -0.0130   -1.6731 C   0  0  0  0  0  0  0  0  0  0  0  0
    3.2955   -0.5594   -0.5528 C   0  0  0  0  0  0  0  0  0  0  0  0
    1.9654   -0.2924   -0.3395 C   0  0  0  0  0  0  0  0  0  0  0  0
    1.1420    0.2888   -1.2941 C   0  0  0  0  0  0  0  0  0  0  0  0
    0.0489    1.0797   -0.9426 O   0  0  0  0  0  0  0  0  0  0  0  0
    0.0846    1.7508    0.2724 C   0  0  0  0  0  0  0  0  0  0  0  0
   -1.4767    1.6574    0.8834 C   0  0  1  0  0  0  0  0  0  0  0  0
   -2.1412    2.1204   -0.5899 C   0  0  0  0  0  0  0  0  0  0  0  0
   -3.2768    1.3625   -0.4073 O   0  0  0  0  0  0  0  0  0  0  0  0
   -2.9734    0.2486    0.3244 C   0  0  2  0  0  0  0  0  0  0  0  0
   -3.5247   -0.9575   -0.4166 C   0  0  0  0  0  0  0  0  0  0  0  0
   -4.6075   -0.5434   -1.3064 N   0  0  0  0  0  0  0  0  0  0  0  0
   -4.5567    0.2980   -2.3633 C   0  0  0  0  0  0  0  0  0  0  0  0
   -5.8260    0.8602   -2.4538 C   0  0  0  0  0  0  0  0  0  0  0  0
   -6.6677    0.0257   -1.8390 N   0  0  0  0  0  0  0  0  0  0  0  0
   -5.9164   -0.8427   -1.1321 C   0  0  0  0  0  0  0  0  0  0  0  0
   -3.6953    0.3123    1.6290 C   0  0  0  0  0  0  0  0  0  0  0  0
   -4.9402    0.9260    1.6549 C   0  0  0  0  0  0  0  0  0  0  0  0
   -5.8563    0.5395    2.6243 C   0  0  0  0  0  0  0  0  0  0  0  0
   -5.3905   -0.1590    3.7070 C   0  0  0  0  0  0  0  0  0  0  0  0
   -6.4631   -0.7970    4.9353 Cl  0  0  0  0  0  0  0  0  0  0  0  0
   -4.0316   -0.3728    3.8429 C   0  0  0  0  0  0  0  0  0  0  0  0
   -3.1743   -0.2662    2.7715 C   0  0  0  0  0  0  0  0  0  0  0  0
   -1.6576   -1.1351    2.6910 Cl  0  0  0  0  0  0  0  0  0  0  0  0
   -1.6111    0.1643    0.4978 O   0  0  0  0  0  0  0  0  0  0  0  0
    1.7153    0.4519   -2.5497 C   0  0  0  0  0  0  0  0  0  0  0  0
    3.0700    0.2162   -2.7518 C   0  0  0  0  0  0  0  0  0  0  0  0
    5.6960   -1.7070   -1.5227 C   0  0  0  0  0  0  0  0  0  0  0  0
    6.8358   -1.7470   -0.5493 C   0  0  0  0  0  0  0  0  0  0  0  0
  1  2  1  0
  2  3  2  0
  2  4  1  0
  4  5  1  0
  5  6  1  0
  6  7  1  0
  7  8  1  0
  8  9  2  0
  9 10  1  0
 10 11  2  0
 11 12  1  0
 12 13  1  0
 14 13  1  6
 14 15  1  0
 15 16  1  0
 16 17  1  0
 17 18  1  6
 18 19  1  0
 19 20  1  0
 20 21  2  0
 21 22  1  0
 22 23  2  0
 17 24  1  0
 24 25  2  0
 25 26  1  0
 26 27  2  0
 27 28  1  0
 27 29  1  0
 29 30  2  0
 30 31  1  0
 17 32  1  0
 11 33  1  0
 33 34  2  0
  7 35  1  0
 35 36  1  0
 36  4  1  0
 34  8  1  0
 32 14  1  0
 23 19  1  0
 30 24  1  0
M  END
>  <supplier_code>  (873) 
DB01026

>  <zinc_id>  (873) 
ZINC000000643138

>  <catalog_short_name>  (873) 
dbfda

$$$$

     RDKit          3D

 36 40  0  0  0  0  0  0  0  0999 V2000
    8.8503    0.0438    1.3585 C   0  0  0  0  0  0  0  0  0  0  0  0
    7.5620   -0.2343    1.1522 C   0  0  0  0  0  0  0  0  0  0  0  0
    6.6795    0.1441    1.9745 O   0  0  0  0  0  0  0  0  0  0  0  0
    7.1147   -0.4976   -0.1826 N   0  0  0  0  0  0  0  0  0  0  0  0
    6.4132   -1.7166   -0.4874 C   0  0  0  0  0  0  0  0  0  0  0  0
    5.7403   -1.5607   -1.8362 C   0  0  0  0  0  0  0  0  0  0  0  0
    5.1503   -0.2265   -1.8650 N   0  0  0  0  0  0  0  0  0  0  0  0
    3.9369   -0.0680   -1.1192 C   0  0  0  0  0  0  0  0  0  0  0  0
    3.4019    1.1928   -0.8858 C   0  0  0  0  0  0  0  0  0  0  0  0
    2.0322    1.4054   -0.9930 C   0  0  0  0  0  0  0  0  0  0  0  0
    1.1471    0.3547   -1.2103 C   0  0  0  0  0  0  0  0  0  0  0  0
    0.0554    0.5782   -2.0040 O   0  0  0  0  0  0  0  0  0  0  0  0
   -1.2646    0.7935   -1.6247 C   0  0  0  0  0  0  0  0  0  0  0  0
   -1.1582    1.9041   -0.3643 C   0  0  2  0  0  0  0  0  0  0  0  0
   -0.6916    0.7302    0.7435 C   0  0  0  0  0  0  0  0  0  0  0  0
   -1.5831   -0.2287    0.3563 O   0  0  0  0  0  0  0  0  0  0  0  0
   -2.7564    0.4819    0.4167 C   0  0  2  0  0  0  0  0  0  0  0  0
   -3.2416    0.2490    1.8299 C   0  0  0  0  0  0  0  0  0  0  0  0
   -4.0480    1.3063    2.3590 N   0  0  0  0  0  0  0  0  0  0  0  0
   -4.0724    2.6215    2.1202 C   0  0  0  0  0  0  0  0  0  0  0  0
   -4.8527    3.2575    3.0770 C   0  0  0  0  0  0  0  0  0  0  0  0
   -5.2059    2.2857    3.9267 N   0  0  0  0  0  0  0  0  0  0  0  0
   -4.5477    1.1729    3.6146 C   0  0  0  0  0  0  0  0  0  0  0  0
   -3.6917   -0.2346   -0.5112 C   0  0  0  0  0  0  0  0  0  0  0  0
   -4.5726    0.4641   -1.3294 C   0  0  0  0  0  0  0  0  0  0  0  0
   -5.8162   -0.0645   -1.6551 C   0  0  0  0  0  0  0  0  0  0  0  0
   -6.2646   -1.2362   -1.0559 C   0  0  0  0  0  0  0  0  0  0  0  0
   -7.9068   -1.3812   -0.4326 Cl  0  0  0  0  0  0  0  0  0  0  0  0
   -5.2430   -2.0836   -0.6426 C   0  0  0  0  0  0  0  0  0  0  0  0
   -3.9862   -1.5802   -0.3242 C   0  0  0  0  0  0  0  0  0  0  0  0
   -2.7803   -2.5014    0.5343 Cl  0  0  0  0  0  0  0  0  0  0  0  0
   -2.6461    1.7338    0.0019 O   0  0  0  0  0  0  0  0  0  0  0  0
    1.7049   -0.8994   -0.9888 C   0  0  0  0  0  0  0  0  0  0  0  0
    3.0591   -1.1205   -0.9314 C   0  0  0  0  0  0  0  0  0  0  0  0
    6.0770    0.8997   -1.8049 C   0  0  0  0  0  0  0  0  0  0  0  0
    7.4052    0.4739   -1.2167 C   0  0  0  0  0  0  0  0  0  0  0  0
  1  2  1  0
  2  3  2  0
  2  4  1  0
  4  5  1  0
  5  6  1  0
  6  7  1  0
  7  8  1  0
  8  9  2  0
  9 10  1  0
 10 11  2  0
 11 12  1  0
 12 13  1  0
 14 13  1  6
 14 15  1  0
 15 16  1  0
 16 17  1  0
 17 18  1  1
 18 19  1  0
 19 20  1  0
 20 21  2  0
 21 22  1  0
 22 23  2  0
 17 24  1  0
 24 25  2  0
 25 26  1  0
 26 27  2  0
 27 28  1  0
 27 29  1  0
 29 30  2  0
 30 31  1  0
 17 32  1  0
 11 33  1  0
 33 34  2  0
  7 35  1  0
 35 36  1  0
 36  4  1  0
 34  8  1  0
 32 14  1  0
 23 19  1  0
 30 24  1  0
M  END
>  <supplier_code>  (874) 
DB01026

>  <zinc_id>  (874) 
ZINC000000643143

>  <catalog_short_name>  (874) 
dbfda

$$$$

     RDKit          3D

 36 40  0  0  0  0  0  0  0  0999 V2000
    8.7846    0.8292   -0.7961 C   0  0  0  0  0  0  0  0  0  0  0  0
    7.8614    1.1223   -0.3359 C   0  0  0  0  0  0  0  0  0  0  0  0
    7.6361    2.3220    0.0058 O   0  0  0  0  0  0  0  0  0  0  0  0
    6.7498    0.2341   -0.1664 N   0  0  0  0  0  0  0  0  0  0  0  0
    6.6709   -0.4342    1.1139 C   0  0  0  0  0  0  0  0  0  0  0  0
    6.4707   -1.9370    0.9503 C   0  0  0  0  0  0  0  0  0  0  0  0
    5.4189   -2.0598   -0.0601 N   0  0  0  0  0  0  0  0  0  0  0  0
    4.1536   -1.4924    0.3058 C   0  0  0  0  0  0  0  0  0  0  0  0
    3.7840   -1.3659    1.6313 C   0  0  0  0  0  0  0  0  0  0  0  0
    2.5365   -0.9272    1.9855 C   0  0  0  0  0  0  0  0  0  0  0  0
    1.8257   -0.1068    1.1152 C   0  0  0  0  0  0  0  0  0  0  0  0
    0.4963    0.1002    1.4940 O   0  0  0  0  0  0  0  0  0  0  0  0
   -0.3150    1.1552    1.0545 C   0  0  0  0  0  0  0  0  0  0  0  0
   -1.6719    0.2561    0.6358 C   0  0  2  0  0  0  0  0  0  0  0  0
   -1.0414   -0.0390   -0.8917 C   0  0  0  0  0  0  0  0  0  0  0  0
   -2.0362    0.4859   -1.6626 O   0  0  0  0  0  0  0  0  0  0  0  0
   -3.1164    0.8011   -0.8158 C   0  0  1  0  0  0  0  0  0  0  0  0
   -4.0542    1.5533   -1.6683 C   0  0  0  0  0  0  0  0  0  0  0  0
   -5.0907    2.2916   -1.0123 N   0  0  0  0  0  0  0  0  0  0  0  0
   -4.9705    3.6230   -0.7715 C   0  0  0  0  0  0  0  0  0  0  0  0
   -6.2287    4.0346   -0.3492 C   0  0  0  0  0  0  0  0  0  0  0  0
   -7.1131    3.0966   -0.7576 N   0  0  0  0  0  0  0  0  0  0  0  0
   -6.3821    2.1957   -1.4243 C   0  0  0  0  0  0  0  0  0  0  0  0
   -3.6227   -0.4984   -0.3056 C   0  0  0  0  0  0  0  0  0  0  0  0
   -3.1947   -1.7108   -0.8352 C   0  0  0  0  0  0  0  0  0  0  0  0
   -3.5368   -2.9301   -0.2889 C   0  0  0  0  0  0  0  0  0  0  0  0
   -4.7596   -2.9854    0.3636 C   0  0  0  0  0  0  0  0  0  0  0  0
   -5.6525   -4.5003    0.4026 Cl  0  0  0  0  0  0  0  0  0  0  0  0
   -5.3082   -1.7952    0.8261 C   0  0  0  0  0  0  0  0  0  0  0  0
   -4.6563   -0.5855    0.6197 C   0  0  0  0  0  0  0  0  0  0  0  0
   -4.7446    0.7219    1.7973 Cl  0  0  0  0  0  0  0  0  0  0  0  0
   -2.4136    1.5199    0.1338 O   0  0  0  0  0  0  0  0  0  0  0  0
    2.2066   -0.1589   -0.2191 C   0  0  0  0  0  0  0  0  0  0  0  0
    3.3202   -0.8858   -0.6165 C   0  0  0  0  0  0  0  0  0  0  0  0
    5.8885   -1.7166   -1.4029 C   0  0  0  0  0  0  0  0  0  0  0  0
    6.1054   -0.2136   -1.3708 C   0  0  0  0  0  0  0  0  0  0  0  0
  1  2  1  0
  2  3  2  0
  2  4  1  0
  4  5  1  0
  5  6  1  0
  6  7  1  0
  7  8  1  0
  8  9  2  0
  9 10  1  0
 10 11  2  0
 11 12  1  0
 12 13  1  0
 14 13  1  1
 14 15  1  0
 15 16  1  0
 16 17  1  0
 17 18  1  6
 18 19  1  0
 19 20  1  0
 20 21  2  0
 21 22  1  0
 22 23  2  0
 17 24  1  0
 24 25  2  0
 25 26  1  0
 26 27  2  0
 27 28  1  0
 27 29  1  0
 29 30  2  0
 30 31  1  0
 17 32  1  0
 11 33  1  0
 33 34  2  0
  7 35  1  0
 35 36  1  0
 36  4  1  0
 34  8  1  0
 32 14  1  0
 23 19  1  0
 30 24  1  0
M  END
>  <supplier_code>  (875) 
DB01026

>  <zinc_id>  (875) 
ZINC000000643153

>  <catalog_short_name>  (875) 
dbfda

$$$$

     RDKit          3D

 36 40  0  0  0  0  0  0  0  0999 V2000
    8.8897   -1.1095    1.0778 C   0  0  0  0  0  0  0  0  0  0  0  0
    7.9776   -1.2873    0.4682 C   0  0  0  0  0  0  0  0  0  0  0  0
    7.8410   -2.3429   -0.2244 O   0  0  0  0  0  0  0  0  0  0  0  0
    6.8915   -0.3515    0.4006 N   0  0  0  0  0  0  0  0  0  0  0  0
    5.7339   -0.5734   -0.4648 C   0  0  0  0  0  0  0  0  0  0  0  0
    5.5485    0.7146   -1.2490 C   0  0  0  0  0  0  0  0  0  0  0  0
    5.1551    1.7079   -0.2519 N   0  0  0  0  0  0  0  0  0  0  0  0
    3.7507    1.7365    0.0346 C   0  0  0  0  0  0  0  0  0  0  0  0
    3.2658    0.6552    0.7523 C   0  0  0  0  0  0  0  0  0  0  0  0
    1.9094    0.4874    0.7972 C   0  0  0  0  0  0  0  0  0  0  0  0
    1.0115    1.2062    0.0261 C   0  0  0  0  0  0  0  0  0  0  0  0
   -0.2740    1.5229    0.4747 O   0  0  0  0  0  0  0  0  0  0  0  0
   -1.4383    1.2633   -0.2798 C   0  0  0  0  0  0  0  0  0  0  0  0
   -1.2240   -0.3168   -0.7001 C   0  0  1  0  0  0  0  0  0  0  0  0
   -1.1318   -0.8032    0.8707 C   0  0  0  0  0  0  0  0  0  0  0  0
   -2.2390   -0.1782    1.3759 O   0  0  0  0  0  0  0  0  0  0  0  0
   -3.1880   -0.5361    0.4537 C   0  0  1  0  0  0  0  0  0  0  0  0
   -3.8541   -1.7966    0.9486 C   0  0  0  0  0  0  0  0  0  0  0  0
   -3.5140   -2.9742    0.2161 N   0  0  0  0  0  0  0  0  0  0  0  0
   -4.0118   -4.1914    0.5466 C   0  0  0  0  0  0  0  0  0  0  0  0
   -3.9152   -4.9787   -0.5954 C   0  0  0  0  0  0  0  0  0  0  0  0
   -3.0499   -4.3486   -1.4267 N   0  0  0  0  0  0  0  0  0  0  0  0
   -2.6604   -3.2391   -0.7706 C   0  0  0  0  0  0  0  0  0  0  0  0
   -4.2529    0.5182    0.5228 C   0  0  0  0  0  0  0  0  0  0  0  0
   -4.2065    1.5658    1.4343 C   0  0  0  0  0  0  0  0  0  0  0  0
   -4.8097    2.7615    1.0620 C   0  0  0  0  0  0  0  0  0  0  0  0
   -5.5727    2.8250   -0.0922 C   0  0  0  0  0  0  0  0  0  0  0  0
   -6.2867    4.2995   -0.6845 Cl  0  0  0  0  0  0  0  0  0  0  0  0
   -6.0735    1.6325   -0.5963 C   0  0  0  0  0  0  0  0  0  0  0  0
   -5.3668    0.4799   -0.2925 C   0  0  0  0  0  0  0  0  0  0  0  0
   -5.9209   -1.0852   -0.8445 Cl  0  0  0  0  0  0  0  0  0  0  0  0
   -2.7111   -0.5731   -0.7899 O   0  0  0  0  0  0  0  0  0  0  0  0
    1.5745    2.0875   -0.8868 C   0  0  0  0  0  0  0  0  0  0  0  0
    2.9401    2.3417   -0.8984 C   0  0  0  0  0  0  0  0  0  0  0  0
    6.0130    1.8987    0.9080 C   0  0  0  0  0  0  0  0  0  0  0  0
    7.1990    0.9816    0.9142 C   0  0  0  0  0  0  0  0  0  0  0  0
  1  2  1  0
  2  3  2  0
  2  4  1  0
  4  5  1  0
  5  6  1  0
  6  7  1  0
  7  8  1  0
  8  9  2  0
  9 10  1  0
 10 11  2  0
 11 12  1  0
 12 13  1  0
 14 13  1  1
 14 15  1  0
 15 16  1  0
 16 17  1  0
 17 18  1  1
 18 19  1  0
 19 20  1  0
 20 21  2  0
 21 22  1  0
 22 23  2  0
 17 24  1  0
 24 25  2  0
 25 26  1  0
 26 27  2  0
 27 28  1  0
 27 29  1  0
 29 30  2  0
 30 31  1  0
 17 32  1  0
 11 33  1  0
 33 34  2  0
  7 35  1  0
 35 36  1  0
 36  4  1  0
 34  8  1  0
 32 14  1  0
 23 19  1  0
 30 24  1  0
M  END
>  <supplier_code>  (876) 
DB01026

>  <zinc_id>  (876) 
ZINC000003872994

>  <catalog_short_name>  (876) 
dbfda

$$$$

     RDKit          3D

 32 36  0  0  0  0  0  0  0  0999 V2000
    1.8949   -3.4918   -0.2718 C   0  0  0  0  0  0  0  0  0  0  0  0
    3.2931   -3.9738   -0.5459 C   0  0  0  0  0  0  0  0  0  0  0  0
    4.2022   -2.7527   -0.4864 C   0  0  0  0  0  0  0  0  0  0  0  0
    3.7330   -1.8358   -1.6101 C   0  0  0  0  0  0  0  0  0  0  0  0
    3.7624   -0.4354   -1.0874 C   0  0  0  0  0  0  0  0  0  0  0  0
    4.8323    0.1157   -0.6581 N   0  0  0  0  0  0  0  0  0  0  0  0
    4.5742    1.3138    0.0925 C   0  0  0  0  0  0  0  0  0  0  0  0
    5.2628    2.5291   -0.4592 C   0  0  0  0  0  0  0  0  0  0  0  0
    6.6807    2.3491    0.0414 C   0  0  0  0  0  0  0  0  0  0  0  0
    6.5872    1.4886    1.2813 C   0  0  0  0  0  0  0  0  0  0  0  0
    5.1188    1.1878    1.4887 C   0  0  0  0  0  0  0  0  0  0  0  0
    3.1005    1.4001    0.0437 C   0  0  0  0  0  0  0  0  0  0  0  0
    2.3848    2.3312    0.4608 O   0  0  0  0  0  0  0  0  0  0  0  0
    2.6172    0.3924   -0.8522 N   0  0  0  0  0  0  0  0  0  0  0  0
    1.5440    0.4842   -1.8284 C   0  0  0  0  0  0  0  0  0  0  0  0
    0.2672   -0.0489   -1.3425 C   0  0  0  0  0  0  0  0  0  0  0  0
   -0.8591    0.2162   -2.1108 C   0  0  0  0  0  0  0  0  0  0  0  0
   -2.1120    0.1520   -1.5145 C   0  0  0  0  0  0  0  0  0  0  0  0
   -2.2908   -0.3573   -0.2335 C   0  0  0  0  0  0  0  0  0  0  0  0
   -3.3000    0.1922    0.6819 C   0  0  0  0  0  0  0  0  0  0  0  0
   -2.9877    0.5675    1.9831 C   0  0  0  0  0  0  0  0  0  0  0  0
   -3.7329    1.5028    2.6468 C   0  0  0  0  0  0  0  0  0  0  0  0
   -4.6899    2.2037    1.9243 C   0  0  0  0  0  0  0  0  0  0  0  0
   -5.2301    1.5196    0.8419 C   0  0  0  0  0  0  0  0  0  0  0  0
   -4.5255    0.5372    0.1796 C   0  0  0  0  0  0  0  0  0  0  0  0
   -5.1300   -0.3240   -0.8425 C   0  0  0  0  0  0  0  0  0  0  0  0
   -6.4544   -0.2762   -1.1305 N   0  0  0  0  0  0  0  0  0  0  0  0
   -6.8922   -1.5030   -1.4160 N   0  0  0  0  0  0  0  0  0  0  0  0
   -5.8007   -2.1398   -1.8381 N   0  0  0  0  0  0  0  0  0  0  0  0
   -4.7936   -1.5996   -1.1528 N   0  0  0  0  0  0  0  0  0  0  0  0
   -1.1455   -0.8653    0.3634 C   0  0  0  0  0  0  0  0  0  0  0  0
    0.0893   -0.8795   -0.2734 C   0  0  0  0  0  0  0  0  0  0  0  0
  1  2  1  0
  2  3  1  0
  3  4  1  0
  4  5  1  0
  5  6  2  0
  6  7  1  0
  7  8  1  0
  8  9  1  0
  9 10  1  0
 10 11  1  0
  7 12  1  0
 12 13  2  0
 12 14  1  0
 14 15  1  0
 15 16  1  0
 16 17  2  0
 17 18  1  0
 18 19  2  0
 19 20  1  0
 20 21  2  0
 21 22  1  0
 22 23  2  0
 23 24  1  0
 24 25  2  0
 25 26  1  0
 26 27  1  0
 27 28  2  0
 28 29  1  0
 29 30  1  0
 19 31  1  0
 31 32  2  0
 14  5  1  0
 32 16  1  0
 11  7  1  0
 25 20  1  0
 30 26  2  0
M  END
>  <supplier_code>  (877) 
DB01029

>  <zinc_id>  (877) 
ZINC000003872931

>  <catalog_short_name>  (877) 
dbfda

$$$$

     RDKit          3D

 31 35  0  0  0  0  0  0  0  0999 V2000
    4.1796    2.2452   -1.1608 C   0  0  0  0  0  0  0  0  0  0  0  0
    5.1130    1.3080   -0.7108 C   0  0  0  0  0  0  0  0  0  0  0  0
    4.6756   -0.1412   -0.8870 C   0  0  1  0  0  0  0  0  0  0  0  0
    4.6702   -0.4117   -2.2613 O   0  0  0  0  0  0  0  0  0  0  0  0
    5.6523   -0.9766   -0.1529 C   0  0  0  0  0  0  0  0  0  0  0  0
    6.7383   -0.5093    0.3061 O   0  0  0  0  0  0  0  0  0  0  0  0
    5.2590   -2.2854    0.1431 O   0  0  0  0  0  0  0  0  0  0  0  0
    3.9242   -2.5944    0.5227 C   0  0  0  0  0  0  0  0  0  0  0  0
    3.1789   -1.3120    0.6891 C   0  0  0  0  0  0  0  0  0  0  0  0
    3.3121   -0.3661   -0.3198 C   0  0  0  0  0  0  0  0  0  0  0  0
    2.2531    0.4601   -0.6725 C   0  0  0  0  0  0  0  0  0  0  0  0
    1.1487    0.4527    0.1641 C   0  0  0  0  0  0  0  0  0  0  0  0
    1.1886   -0.2238    1.3377 N   0  0  0  0  0  0  0  0  0  0  0  0
    2.1139   -1.1853    1.5710 C   0  0  0  0  0  0  0  0  0  0  0  0
    1.8566   -2.1313    2.3752 O   0  0  0  0  0  0  0  0  0  0  0  0
    0.1147    0.3040    2.1480 C   0  0  0  0  0  0  0  0  0  0  0  0
   -0.9091    0.6545    1.1156 C   0  0  0  0  0  0  0  0  0  0  0  0
   -2.2574    0.3192    1.1223 C   0  0  0  0  0  0  0  0  0  0  0  0
   -2.9755    0.5827   -0.0322 C   0  0  0  0  0  0  0  0  0  0  0  0
   -2.3015    1.0378   -1.1534 C   0  0  0  0  0  0  0  0  0  0  0  0
   -3.0504    1.1643   -2.3139 C   0  0  0  0  0  0  0  0  0  0  0  0
   -4.4279    1.2860   -2.2124 C   0  0  0  0  0  0  0  0  0  0  0  0
   -5.1065    1.0388   -1.0264 C   0  0  0  0  0  0  0  0  0  0  0  0
   -6.2881    1.7576   -0.8247 O   0  0  0  0  0  0  0  0  0  0  0  0
   -4.3617    0.5349    0.0291 C   0  0  0  0  0  0  0  0  0  0  0  0
   -4.9993    0.4420    1.3770 C   0  0  0  0  0  0  0  0  0  0  0  0
   -5.6855   -0.8086    1.5740 N   0  0  0  0  0  0  0  0  0  0  0  0
   -4.8651   -1.9629    1.3048 C   0  0  0  0  0  0  0  0  0  0  0  0
   -6.9694   -0.8604    0.9202 C   0  0  0  0  0  0  0  0  0  0  0  0
   -0.9625    1.2349   -1.1348 N   0  0  0  0  0  0  0  0  0  0  0  0
   -0.2188    0.9465   -0.0408 C   0  0  0  0  0  0  0  0  0  0  0  0
  1  2  1  0
  3  2  1  6
  3  4  1  0
  3  5  1  0
  5  6  2  0
  5  7  1  0
  7  8  1  0
  8  9  1  0
  9 10  2  0
 10 11  1  0
 11 12  2  0
 12 13  1  0
 13 14  1  0
 14 15  2  0
 13 16  1  0
 16 17  1  0
 17 18  2  0
 18 19  1  0
 19 20  2  0
 20 21  1  0
 21 22  2  0
 22 23  1  0
 23 24  1  0
 23 25  2  0
 25 26  1  0
 26 27  1  0
 27 28  1  0
 27 29  1  0
 20 30  1  0
 30 31  2  0
 10  3  1  0
 31 12  1  0
 14  9  1  0
 31 17  1  0
 25 19  1  0
M  END
>  <supplier_code>  (878) 
DB01030

>  <zinc_id>  (878) 
ZINC000001611274

>  <catalog_short_name>  (878) 
dbfda

$$$$

     RDKit          3D

 19 19  0  0  0  0  0  0  0  0999 V2000
   -2.1655    3.2821    0.5687 C   0  0  0  0  0  0  0  0  0  0  0  0
   -2.7460    1.9925    0.0531 C   0  0  0  0  0  0  0  0  0  0  0  0
   -2.3565    0.8382    0.9446 C   0  0  0  0  0  0  0  0  0  0  0  0
   -2.3859   -0.4074    0.2106 N   0  0  0  0  0  0  0  0  0  0  0  0
   -3.6689   -0.4460   -0.4849 C   0  0  0  0  0  0  0  0  0  0  0  0
   -4.3531   -1.7170    0.0051 C   0  0  0  0  0  0  0  0  0  0  0  0
   -3.8931   -2.8263   -0.9327 C   0  0  0  0  0  0  0  0  0  0  0  0
   -1.0573   -0.5675   -0.8532 S   0  0  0  0  0  0  0  0  0  0  0  0
   -0.8255   -2.0361   -1.1187 O   0  0  0  0  0  0  0  0  0  0  0  0
   -1.3918    0.0543   -2.1901 O   0  0  0  0  0  0  0  0  0  0  0  0
    0.3842    0.2130   -0.2693 C   0  0  0  0  0  0  0  0  0  0  0  0
    1.4754    0.2307   -1.1289 C   0  0  0  0  0  0  0  0  0  0  0  0
    2.7752    0.2677   -0.6927 C   0  0  0  0  0  0  0  0  0  0  0  0
    3.0214    0.2725    0.6639 C   0  0  0  0  0  0  0  0  0  0  0  0
    4.3922    0.0449    1.1300 C   0  0  0  0  0  0  0  0  0  0  0  0
    5.2092    1.0149    1.1090 O   0  0  0  0  0  0  0  0  0  0  0  0
    4.9427   -1.1900    0.7702 O   0  0  0  0  0  0  0  0  0  0  0  0
    1.9754    0.5646    1.5053 C   0  0  0  0  0  0  0  0  0  0  0  0
    0.6680    0.4150    1.0581 C   0  0  0  0  0  0  0  0  0  0  0  0
  1  2  1  0
  2  3  1  0
  3  4  1  0
  4  5  1  0
  5  6  1  0
  6  7  1  0
  4  8  1  0
  8  9  2  0
  8 10  2  0
  8 11  1  0
 11 12  2  0
 12 13  1  0
 13 14  2  0
 14 15  1  0
 15 16  2  0
 15 17  1  0
 14 18  1  0
 18 19  2  0
 19 11  1  0
M  END
>  <supplier_code>  (879) 
DB01032

>  <zinc_id>  (879) 
ZINC000000001982

>  <catalog_short_name>  (879) 
dbfda

$$$$

     RDKit          3D

 10 11  0  0  0  0  0  0  0  0999 V2000
   -1.6838    2.1965    0.3276 S   0  0  0  0  0  0  0  0  0  0  0  0
   -1.1558    0.7197   -0.1600 C   0  0  0  0  0  0  0  0  0  0  0  0
   -1.9853   -0.3516   -0.1824 N   0  0  0  0  0  0  0  0  0  0  0  0
   -1.5098   -1.5597    0.2063 C   0  0  0  0  0  0  0  0  0  0  0  0
   -0.2228   -1.7985   -0.1424 N   0  0  0  0  0  0  0  0  0  0  0  0
    0.6613   -0.8058    0.1176 C   0  0  0  0  0  0  0  0  0  0  0  0
    2.0137   -0.7309    0.1426 N   0  0  0  0  0  0  0  0  0  0  0  0
    2.3678    0.5731    0.1495 C   0  0  0  0  0  0  0  0  0  0  0  0
    1.3011    1.2759   -0.3056 N   0  0  0  0  0  0  0  0  0  0  0  0
    0.2136    0.4814   -0.1533 C   0  0  0  0  0  0  0  0  0  0  0  0
  1  2  2  0
  2  3  1  0
  3  4  1  0
  4  5  2  0
  5  6  1  0
  6  7  1  0
  7  8  2  0
  8  9  1  0
  9 10  1  0
 10  2  1  0
 10  6  2  0
M  END
>  <supplier_code>  (880) 
DB01033

>  <zinc_id>  (880) 
ZINC000004658290

>  <catalog_short_name>  (880) 
dbfda

$$$$

     RDKit          3D

 17 17  0  0  0  0  0  0  0  0999 V2000
    3.5861    1.2819   -1.5307 C   0  0  0  0  0  0  0  0  0  0  0  0
    4.4733    0.6015   -0.5137 C   0  0  0  0  0  0  0  0  0  0  0  0
    3.7166   -0.4008    0.2336 N   0  0  0  0  0  0  0  0  0  0  0  0
    3.9784   -0.1564    1.6501 C   0  0  0  0  0  0  0  0  0  0  0  0
    3.0174    0.9023    2.1756 C   0  0  0  0  0  0  0  0  0  0  0  0
    2.3100   -0.0965    0.0188 C   0  0  0  0  0  0  0  0  0  0  0  0
    1.5099   -1.3278   -0.3313 C   0  0  0  0  0  0  0  0  0  0  0  0
    0.2103   -1.1633    0.3042 N   0  0  0  0  0  0  0  0  0  0  0  0
   -0.9698   -1.6625   -0.3361 C   0  0  0  0  0  0  0  0  0  0  0  0
   -0.8690   -2.8027   -0.8362 O   0  0  0  0  0  0  0  0  0  0  0  0
   -2.2342   -0.9256   -0.2482 C   0  0  0  0  0  0  0  0  0  0  0  0
   -2.7985   -0.2966   -1.3520 C   0  0  0  0  0  0  0  0  0  0  0  0
   -3.2821    1.0049   -1.2823 C   0  0  0  0  0  0  0  0  0  0  0  0
   -3.4078    1.6279   -0.0484 C   0  0  0  0  0  0  0  0  0  0  0  0
   -3.2469    3.0431    0.0676 N   0  0  0  0  0  0  0  0  0  0  0  0
   -3.3404    0.7887    1.0522 C   0  0  0  0  0  0  0  0  0  0  0  0
   -2.6534   -0.4182    0.9769 C   0  0  0  0  0  0  0  0  0  0  0  0
  1  2  1  0
  2  3  1  0
  3  4  1  0
  4  5  1  0
  3  6  1  0
  6  7  1  0
  7  8  1  0
  8  9  1  0
  9 10  2  0
  9 11  1  0
 11 12  2  0
 12 13  1  0
 13 14  2  0
 14 15  1  0
 14 16  1  0
 16 17  2  0
 17 11  1  0
M  END
>  <supplier_code>  (881) 
DB01035

>  <zinc_id>  (881) 
ZINC000001530756

>  <catalog_short_name>  (881) 
dbfda

$$$$

     RDKit          3D

 24 25  0  0  0  0  0  0  0  0999 V2000
   -4.1807   -2.2398    1.5826 C   0  0  0  0  0  0  0  0  0  0  0  0
   -3.0873   -2.2610    0.8001 C   0  0  0  0  0  0  0  0  0  0  0  0
   -2.3491   -3.4190    0.5878 C   0  0  0  0  0  0  0  0  0  0  0  0
   -1.2132   -3.3721   -0.2115 C   0  0  0  0  0  0  0  0  0  0  0  0
   -0.6670   -2.1493   -0.5829 C   0  0  0  0  0  0  0  0  0  0  0  0
    0.0661   -2.0755   -1.7658 O   0  0  0  0  0  0  0  0  0  0  0  0
   -1.1603   -1.0252    0.0725 C   0  0  0  0  0  0  0  0  0  0  0  0
   -0.7518    0.3440   -0.7235 C   0  0  2  0  0  0  0  0  0  0  0  0
    0.7461    0.3603    0.0116 C   0  0  0  0  0  0  0  0  0  0  0  0
    1.7181    0.4724   -1.1315 C   0  0  0  0  0  0  0  0  0  0  0  0
    2.9630   -0.1729   -0.8201 N   0  0  0  0  0  0  0  0  0  0  0  0
    4.0261    0.6981   -1.3159 C   0  0  0  0  0  0  0  0  0  0  0  0
    3.7799    2.1090   -0.8118 C   0  0  0  0  0  0  0  0  0  0  0  0
    3.9222    0.7769   -2.8351 C   0  0  0  0  0  0  0  0  0  0  0  0
    3.1532   -0.4434    0.5785 C   0  0  0  0  0  0  0  0  0  0  0  0
    4.3979    0.2600    1.1044 C   0  0  0  0  0  0  0  0  0  0  0  0
    3.3724   -1.9328    0.8004 C   0  0  0  0  0  0  0  0  0  0  0  0
   -1.3967    1.3077    0.4352 C   0  0  0  0  0  0  0  0  0  0  0  0
   -0.6768    2.4902    0.6047 C   0  0  0  0  0  0  0  0  0  0  0  0
   -1.3204    3.6091    1.1197 C   0  0  0  0  0  0  0  0  0  0  0  0
   -2.7037    3.6064    1.2525 C   0  0  0  0  0  0  0  0  0  0  0  0
   -3.4312    2.5644    0.6923 C   0  0  0  0  0  0  0  0  0  0  0  0
   -2.7060    1.5793    0.0319 C   0  0  0  0  0  0  0  0  0  0  0  0
   -2.5007   -1.0868    0.4145 C   0  0  0  0  0  0  0  0  0  0  0  0
  1  2  1  0
  2  3  2  0
  3  4  1  0
  4  5  2  0
  5  6  1  0
  5  7  1  0
  8  7  1  1
  8  9  1  0
  9 10  1  0
 10 11  1  0
 11 12  1  0
 12 13  1  0
 12 14  1  0
 11 15  1  0
 15 16  1  0
 15 17  1  0
  8 18  1  0
 18 19  2  0
 19 20  1  0
 20 21  2  0
 21 22  1  0
 22 23  2  0
  7 24  2  0
 24  2  1  0
 23 18  1  0
M  END
>  <supplier_code>  (882) 
DB01036

>  <zinc_id>  (882) 
ZINC000000968336

>  <catalog_short_name>  (882) 
dbfda

$$$$

     RDKit          3D

 14 14  0  0  0  0  0  0  0  0999 V2000
    4.4686    1.4706    0.2910 C   0  0  0  0  0  0  0  0  0  0  0  0
    3.7581    0.6777    0.3989 C   0  0  0  0  0  0  0  0  0  0  0  0
    2.8672   -0.4247    0.8028 C   0  0  0  0  0  0  0  0  0  0  0  0
    1.8677   -0.6776   -0.1991 N   0  0  0  0  0  0  0  0  0  0  0  0
    1.7271    0.3561   -1.1702 C   0  0  0  0  0  0  0  0  0  0  0  0
    0.5725   -0.6903    0.6872 C   0  0  2  0  0  0  0  0  0  0  0  0
    0.9049   -2.2054    1.2225 C   0  0  0  0  0  0  0  0  0  0  0  0
   -0.3571   -1.2483   -0.5440 C   0  0  0  0  0  0  0  0  0  0  0  0
   -1.4905   -0.2746   -0.4328 C   0  0  0  0  0  0  0  0  0  0  0  0
   -2.1293   -0.0511    0.7812 C   0  0  0  0  0  0  0  0  0  0  0  0
   -3.0732    0.9676    0.7879 C   0  0  0  0  0  0  0  0  0  0  0  0
   -3.5672    1.4497   -0.4134 C   0  0  0  0  0  0  0  0  0  0  0  0
   -3.2854    0.7803   -1.5860 C   0  0  0  0  0  0  0  0  0  0  0  0
   -2.2634   -0.1301   -1.5715 C   0  0  0  0  0  0  0  0  0  0  0  0
  1  2  3  0
  2  3  1  0
  3  4  1  0
  4  5  1  0
  6  4  1  6
  6  7  1  0
  6  8  1  0
  8  9  1  0
  9 10  2  0
 10 11  1  0
 11 12  2  0
 12 13  1  0
 13 14  2  0
 14  9  1  0
M  END
>  <supplier_code>  (883) 
DB01037

>  <zinc_id>  (883) 
ZINC000019632633

>  <catalog_short_name>  (883) 
dbfda

$$$$

     RDKit          3D

 14 14  0  0  0  0  0  0  0  0999 V2000
   -3.4140   -2.3577   -0.9170 C   0  0  0  0  0  0  0  0  0  0  0  0
   -2.9231   -1.5907   -0.1320 C   0  0  0  0  0  0  0  0  0  0  0  0
   -2.1804   -0.6521    0.7280 C   0  0  0  0  0  0  0  0  0  0  0  0
   -2.1818    0.6302    0.0825 N   0  0  0  0  0  0  0  0  0  0  0  0
   -2.2162    1.7557    0.9435 C   0  0  0  0  0  0  0  0  0  0  0  0
   -0.7914    0.7031   -0.7069 C   0  0  1  0  0  0  0  0  0  0  0  0
   -1.0133    2.3237   -1.0569 C   0  0  0  0  0  0  0  0  0  0  0  0
    0.0610    1.0705    0.6838 C   0  0  0  0  0  0  0  0  0  0  0  0
    1.4118    0.5242    0.4452 C   0  0  0  0  0  0  0  0  0  0  0  0
    1.8867   -0.4520    1.2988 C   0  0  0  0  0  0  0  0  0  0  0  0
    2.8115   -1.3704    0.8584 C   0  0  0  0  0  0  0  0  0  0  0  0
    3.3690   -1.2341   -0.3844 C   0  0  0  0  0  0  0  0  0  0  0  0
    3.1159   -0.0918   -1.0972 C   0  0  0  0  0  0  0  0  0  0  0  0
    2.0643    0.7414   -0.7459 C   0  0  0  0  0  0  0  0  0  0  0  0
  1  2  3  0
  2  3  1  0
  3  4  1  0
  4  5  1  0
  6  4  1  1
  6  7  1  0
  6  8  1  0
  8  9  1  0
  9 10  2  0
 10 11  1  0
 11 12  2  0
 12 13  1  0
 13 14  2  0
 14  9  1  0
M  END
>  <supplier_code>  (884) 
DB01037

>  <zinc_id>  (884) 
ZINC000022056030

>  <catalog_short_name>  (884) 
dbfda

$$$$

     RDKit          3D

 25 26  0  0  0  0  0  0  0  0999 V2000
    7.3248   -0.7249    0.8188 C   0  0  0  0  0  0  0  0  0  0  0  0
    6.2894    0.1886    0.2115 C   0  0  0  0  0  0  0  0  0  0  0  0
    6.5859    1.6453    0.4475 C   0  0  0  0  0  0  0  0  0  0  0  0
    4.9710   -0.1670    0.6027 O   0  0  0  0  0  0  0  0  0  0  0  0
    3.9751    0.7753    0.8398 C   0  0  0  0  0  0  0  0  0  0  0  0
    4.3466    1.9056    1.2236 O   0  0  0  0  0  0  0  0  0  0  0  0
    2.5881    0.6430    0.3481 C   0  0  0  0  0  0  0  0  0  0  0  0
    2.3444    1.6954   -0.7264 C   0  0  0  0  0  0  0  0  0  0  0  0
    1.5660    0.8085    1.4590 C   0  0  0  0  0  0  0  0  0  0  0  0
    2.4290   -0.6359   -0.2256 O   0  0  0  0  0  0  0  0  0  0  0  0
    1.1947   -1.0967   -0.6941 C   0  0  0  0  0  0  0  0  0  0  0  0
    0.2401   -0.2157   -1.1890 C   0  0  0  0  0  0  0  0  0  0  0  0
   -1.1190   -0.4471   -1.0094 C   0  0  0  0  0  0  0  0  0  0  0  0
   -1.5307   -1.4623   -0.1535 C   0  0  0  0  0  0  0  0  0  0  0  0
   -2.6263   -1.2721    0.8056 C   0  0  0  0  0  0  0  0  0  0  0  0
   -2.2983   -1.1111    2.0201 O   0  0  0  0  0  0  0  0  0  0  0  0
   -3.7905   -0.4824    0.3830 C   0  0  0  0  0  0  0  0  0  0  0  0
   -5.0407   -0.7931    0.9021 C   0  0  0  0  0  0  0  0  0  0  0  0
   -6.1073    0.0444    0.6147 C   0  0  0  0  0  0  0  0  0  0  0  0
   -5.9233    1.2053   -0.1232 C   0  0  0  0  0  0  0  0  0  0  0  0
   -7.0765    2.5044    0.0035 Cl  0  0  0  0  0  0  0  0  0  0  0  0
   -4.7619    1.3159   -0.8597 C   0  0  0  0  0  0  0  0  0  0  0  0
   -3.6639    0.5506   -0.5139 C   0  0  0  0  0  0  0  0  0  0  0  0
   -0.6280   -2.5139   -0.0364 C   0  0  0  0  0  0  0  0  0  0  0  0
    0.7117   -2.3599   -0.3738 C   0  0  0  0  0  0  0  0  0  0  0  0
  1  2  1  0
  2  3  1  0
  2  4  1  0
  4  5  1  0
  5  6  2  0
  5  7  1  0
  7  8  1  0
  7  9  1  0
  7 10  1  0
 10 11  1  0
 11 12  2  0
 12 13  1  0
 13 14  2  0
 14 15  1  0
 15 16  2  0
 15 17  1  0
 17 18  2  0
 18 19  1  0
 19 20  2  0
 20 21  1  0
 20 22  1  0
 22 23  2  0
 14 24  1  0
 24 25  2  0
 25 11  1  0
 23 17  1  0
M  END
>  <supplier_code>  (885) 
DB01039

>  <zinc_id>  (885) 
ZINC000000584092

>  <catalog_short_name>  (885) 
dbfda

$$$$

     RDKit          3D

 19 21  0  0  0  0  0  0  0  0999 V2000
    0.0741   -1.3467   -1.3376 O   0  0  0  0  0  0  0  0  0  0  0  0
    0.6199   -0.6806   -0.5679 C   0  0  0  0  0  0  0  0  0  0  0  0
    2.0652   -0.5312   -0.3002 C   0  0  0  0  0  0  0  0  0  0  0  0
    3.1584   -1.0851   -0.9428 C   0  0  0  0  0  0  0  0  0  0  0  0
    4.4116   -0.5512   -0.6635 C   0  0  0  0  0  0  0  0  0  0  0  0
    4.5010    0.7720   -0.2473 C   0  0  0  0  0  0  0  0  0  0  0  0
    3.3623    1.4357    0.1945 C   0  0  0  0  0  0  0  0  0  0  0  0
    2.2662    0.6189    0.4584 C   0  0  0  0  0  0  0  0  0  0  0  0
    0.9395    0.8950    1.0293 C   0  0  0  0  0  0  0  0  0  0  0  0
    0.7614    1.7364    1.9583 O   0  0  0  0  0  0  0  0  0  0  0  0
    0.0053   -0.0631    0.5129 N   0  0  0  0  0  0  0  0  0  0  0  0
   -1.5156    0.2828    0.6764 C   0  0  1  0  0  0  0  0  0  0  0  0
   -1.6532    0.9042   -0.8386 C   0  0  0  0  0  0  0  0  0  0  0  0
   -3.0967    0.9646   -1.1669 C   0  0  0  0  0  0  0  0  0  0  0  0
   -3.9839    0.1835   -0.2819 C   0  0  0  0  0  0  0  0  0  0  0  0
   -4.8743    0.8442    0.3195 O   0  0  0  0  0  0  0  0  0  0  0  0
   -3.4586   -1.0650    0.1837 N   0  0  0  0  0  0  0  0  0  0  0  0
   -2.0199   -1.1724    0.1819 C   0  0  0  0  0  0  0  0  0  0  0  0
   -1.5628   -2.1423    0.8316 O   0  0  0  0  0  0  0  0  0  0  0  0
  1  2  2  0
  2  3  1  0
  3  4  2  0
  4  5  1  0
  5  6  2  0
  6  7  1  0
  7  8  2  0
  8  9  1  0
  9 10  2  0
  9 11  1  0
 12 11  1  6
 12 13  1  0
 13 14  1  0
 14 15  1  0
 15 16  2  0
 15 17  1  0
 17 18  1  0
 18 19  2  0
 11  2  1  0
 18 12  1  0
  8  3  1  0
M  END
>  <supplier_code>  (886) 
DB01041

>  <zinc_id>  (886) 
ZINC000001530947

>  <catalog_short_name>  (886) 
dbfda

$$$$

     RDKit          3D

 19 21  0  0  0  0  0  0  0  0999 V2000
    0.6843   -1.7496   -0.2045 O   0  0  0  0  0  0  0  0  0  0  0  0
    0.8502   -0.9654   -0.2959 C   0  0  0  0  0  0  0  0  0  0  0  0
    2.1852   -0.3601   -0.3460 C   0  0  0  0  0  0  0  0  0  0  0  0
    3.4436   -0.9349   -0.3425 C   0  0  0  0  0  0  0  0  0  0  0  0
    4.5991   -0.1856   -0.1810 C   0  0  0  0  0  0  0  0  0  0  0  0
    4.5085    1.1122    0.2464 C   0  0  0  0  0  0  0  0  0  0  0  0
    3.2755    1.7132    0.2878 C   0  0  0  0  0  0  0  0  0  0  0  0
    2.1321    0.9768   -0.0082 C   0  0  0  0  0  0  0  0  0  0  0  0
    0.7225    1.3239    0.2309 C   0  0  0  0  0  0  0  0  0  0  0  0
    0.3081    2.4993    0.1451 O   0  0  0  0  0  0  0  0  0  0  0  0
    0.0123    0.0767    0.1990 N   0  0  0  0  0  0  0  0  0  0  0  0
   -1.4872    0.2404   -0.2564 C   0  0  2  0  0  0  0  0  0  0  0  0
   -1.9821    0.3882    1.3137 C   0  0  0  0  0  0  0  0  0  0  0  0
   -3.4580    0.6402    1.2679 C   0  0  0  0  0  0  0  0  0  0  0  0
   -4.0716   -0.2921    0.2736 C   0  0  0  0  0  0  0  0  0  0  0  0
   -5.1011    0.1669   -0.3132 O   0  0  0  0  0  0  0  0  0  0  0  0
   -3.3015   -1.3778   -0.2151 N   0  0  0  0  0  0  0  0  0  0  0  0
   -1.8594   -1.3382   -0.2886 C   0  0  0  0  0  0  0  0  0  0  0  0
   -1.4604   -1.9344   -1.3428 O   0  0  0  0  0  0  0  0  0  0  0  0
  1  2  2  0
  2  3  1  0
  3  4  2  0
  4  5  1  0
  5  6  2  0
  6  7  1  0
  7  8  2  0
  8  9  1  0
  9 10  2  0
  9 11  1  0
 12 11  1  1
 12 13  1  0
 13 14  1  0
 14 15  1  0
 15 16  2  0
 15 17  1  0
 17 18  1  0
 18 19  2  0
 11  2  1  0
 18 12  1  0
  8  3  1  0
M  END
>  <supplier_code>  (887) 
DB01041

>  <zinc_id>  (887) 
ZINC000001530948

>  <catalog_short_name>  (887) 
dbfda

$$$$

     RDKit          3D

 19 19  0  0  0  0  0  0  0  0999 V2000
    2.8620   -1.6783    0.1579 N   0  0  0  0  0  0  0  0  0  0  0  0
    3.5149   -0.5429   -0.7708 C   0  0  1  0  0  0  0  0  0  0  0  0
    2.4433    0.6233   -0.2328 C   0  0  0  0  0  0  0  0  0  0  0  0
    1.1309   -0.0200   -0.2060 C   0  0  0  0  0  0  0  0  0  0  0  0
    0.3835   -0.4107   -1.2845 C   0  0  0  0  0  0  0  0  0  0  0  0
   -1.0011   -0.5180   -1.1904 C   0  0  0  0  0  0  0  0  0  0  0  0
   -1.6415   -0.1886   -0.0152 C   0  0  0  0  0  0  0  0  0  0  0  0
   -2.9469    0.3703    0.0154 N   0  0  0  0  0  0  0  0  0  0  0  0
   -4.1168   -0.4838    0.1576 C   0  0  0  0  0  0  0  0  0  0  0  0
   -3.6951   -1.8955    0.5404 C   0  0  0  0  0  0  0  0  0  0  0  0
   -3.7484   -2.9687   -0.8894 Cl  0  0  0  0  0  0  0  0  0  0  0  0
   -3.1779    1.6400   -0.6742 C   0  0  0  0  0  0  0  0  0  0  0  0
   -2.0355    2.5883   -0.3609 C   0  0  0  0  0  0  0  0  0  0  0  0
   -2.6884    4.0796    0.3946 Cl  0  0  0  0  0  0  0  0  0  0  0  0
   -0.8698   -0.1032    1.1347 C   0  0  0  0  0  0  0  0  0  0  0  0
    0.5143   -0.1042    1.0348 C   0  0  0  0  0  0  0  0  0  0  0  0
    4.5872   -0.1437    0.4095 C   0  0  0  0  0  0  0  0  0  0  0  0
    5.1204    0.9650    0.2019 O   0  0  0  0  0  0  0  0  0  0  0  0
    5.3647   -1.2090    0.8204 O   0  0  0  0  0  0  0  0  0  0  0  0
  2  1  1  1
  2  3  1  0
  3  4  1  0
  4  5  2  0
  5  6  1  0
  6  7  2  0
  7  8  1  0
  8  9  1  0
  9 10  1  0
 10 11  1  0
  8 12  1  0
 12 13  1  0
 13 14  1  0
  7 15  1  0
 15 16  2  0
  2 17  1  0
 17 18  2  0
 17 19  1  0
 16  4  1  0
M  END
>  <supplier_code>  (888) 
DB01042

>  <zinc_id>  (888) 
ZINC000000001673

>  <catalog_short_name>  (888) 
dbfda

$$$$

     RDKit          3D

 13 15  0  0  0  0  0  0  0  0999 V2000
    2.6940    0.5345   -0.8463 C   0  0  0  0  0  0  0  0  0  0  0  0
    1.3846    0.2313   -0.3771 C   0  0  2  0  0  0  0  0  0  0  0  0
    1.5344   -0.1535    1.0867 C   0  0  0  0  0  0  0  0  0  0  0  0
    0.1804   -0.4741    1.6732 C   0  0  0  0  0  0  0  0  0  0  0  0
   -0.4315   -1.6134    0.8844 C   0  0  0  0  0  0  0  0  0  0  0  0
   -0.6102   -1.1674   -0.5418 C   0  0  0  0  0  0  0  0  0  0  0  0
   -1.2455   -2.2274   -1.2915 N   0  0  0  0  0  0  0  0  0  0  0  0
    0.7525   -0.9209   -1.1402 C   0  0  0  0  0  0  0  0  0  0  0  0
   -1.4790    0.0569   -0.6658 C   0  0  0  0  0  0  0  0  0  0  0  0
   -0.8383    1.1715    0.1116 C   0  0  1  0  0  0  0  0  0  0  0  0
   -1.7514    2.3620    0.0567 C   0  0  0  0  0  0  0  0  0  0  0  0
   -0.7032    0.7387    1.5461 C   0  0  0  0  0  0  0  0  0  0  0  0
    0.5131    1.4617   -0.4960 C   0  0  0  0  0  0  0  0  0  0  0  0
  2  1  1  6
  2  3  1  0
  3  4  1  0
  4  5  1  0
  5  6  1  0
  6  7  1  0
  6  8  1  0
  6  9  1  0
  9 10  1  0
 10 11  1  1
 10 12  1  0
 10 13  1  0
  8  2  1  0
 13  2  1  0
 12  4  1  0
M  END
>  <supplier_code>  (889) 
DB01043

>  <zinc_id>  (889) 
ZINC000003812933

>  <catalog_short_name>  (889) 
dbfda

$$$$

     RDKit          2D

 13 15  0  0  0  0  0  0  0  0999 V2000
   -0.7069    2.3008    0.0000 C   0  0  0  0  0  0  0  0  0  0  0  0
    0.1230    1.0513    0.0000 C   0  0  0  0  0  0  0  0  0  0  0  0
   -0.5442   -0.2922    0.0000 C   0  0  0  0  0  0  0  0  0  0  0  0
    0.2856   -1.5417    0.0000 C   0  0  0  0  0  0  0  0  0  0  0  0
    1.7827   -1.4478    0.0000 C   0  0  0  0  0  0  0  0  0  0  0  0
    2.4499   -0.1044    0.0000 C   0  0  0  0  0  0  0  0  0  0  0  0
    3.9469   -0.0105    0.0000 N   0  0  0  0  0  0  0  0  0  0  0  0
    1.6200    1.1452    0.0000 C   0  0  0  0  0  0  0  0  0  0  0  0
   -0.7918    0.4438    0.0000 C   0  0  0  0  0  0  0  0  0  0  0  0
   -2.0413   -0.3861    0.0000 C   0  0  0  0  0  0  0  0  0  0  0  0
   -3.5384   -0.4800    0.0000 C   0  0  0  0  0  0  0  0  0  0  0  0
   -1.2114   -1.6356    0.0000 C   0  0  0  0  0  0  0  0  0  0  0  0
   -1.3741    0.9573    0.0000 C   0  0  0  0  0  0  0  0  0  0  0  0
  2  1  1  6
  2  3  1  0
  3  4  1  0
  4  5  1  0
  5  6  1  0
  6  7  1  0
  6  8  1  0
  6  9  1  0
  9 10  1  0
 10 11  1  6
 10 12  1  0
 10 13  1  0
  8  2  1  0
 13  2  1  0
 12  4  1  0
M  END
>  <supplier_code>  (890) 
DB01043

>  <zinc_id>  (890) 
ZINC000100003200

>  <catalog_short_name>  (890) 
dbfda

$$$$

     RDKit          2D

 13 15  0  0  0  0  0  0  0  0999 V2000
   -0.7069    2.3008    0.0000 C   0  0  0  0  0  0  0  0  0  0  0  0
    0.1230    1.0513    0.0000 C   0  0  0  0  0  0  0  0  0  0  0  0
   -0.5442   -0.2922    0.0000 C   0  0  0  0  0  0  0  0  0  0  0  0
    0.2856   -1.5417    0.0000 C   0  0  0  0  0  0  0  0  0  0  0  0
    1.7827   -1.4478    0.0000 C   0  0  0  0  0  0  0  0  0  0  0  0
    2.4499   -0.1044    0.0000 C   0  0  0  0  0  0  0  0  0  0  0  0
    3.9469   -0.0105    0.0000 N   0  0  0  0  0  0  0  0  0  0  0  0
    1.6200    1.1452    0.0000 C   0  0  0  0  0  0  0  0  0  0  0  0
   -0.7918    0.4438    0.0000 C   0  0  0  0  0  0  0  0  0  0  0  0
   -2.0413   -0.3861    0.0000 C   0  0  0  0  0  0  0  0  0  0  0  0
   -3.5384   -0.4800    0.0000 C   0  0  0  0  0  0  0  0  0  0  0  0
   -1.2114   -1.6356    0.0000 C   0  0  0  0  0  0  0  0  0  0  0  0
   -1.3741    0.9573    0.0000 C   0  0  0  0  0  0  0  0  0  0  0  0
  2  1  1  1
  2  3  1  0
  3  4  1  0
  4  5  1  0
  5  6  1  0
  6  7  1  0
  6  8  1  0
  6  9  1  0
  9 10  1  0
 10 11  1  1
 10 12  1  0
 10 13  1  0
  8  2  1  0
 13  2  1  0
 12  4  1  0
M  END
>  <supplier_code>  (891) 
DB01043

>  <zinc_id>  (891) 
ZINC000100003201

>  <catalog_short_name>  (891) 
dbfda

$$$$

     RDKit          3D

 27 30  0  0  0  0  0  0  0  0999 V2000
    1.0306   -1.0078   -2.8624 C   0  0  0  0  0  0  0  0  0  0  0  0
    0.6594   -1.5092   -1.7394 O   0  0  0  0  0  0  0  0  0  0  0  0
    0.5051   -0.7305   -0.5918 C   0  0  0  0  0  0  0  0  0  0  0  0
    1.4324    0.2928   -0.4068 C   0  0  0  0  0  0  0  0  0  0  0  0
    2.7988    0.1203   -0.7274 N   0  0  0  0  0  0  0  0  0  0  0  0
    3.3794   -1.1729   -0.3643 C   0  0  0  0  0  0  0  0  0  0  0  0
    3.7409   -1.1906    1.1170 C   0  0  0  0  0  0  0  0  0  0  0  0
    3.7843    0.2096    1.5320 N   0  0  0  0  0  0  0  0  0  0  0  0
    4.8479    0.7541    0.5076 C   0  0  2  0  0  0  0  0  0  0  0  0
    4.9012    2.2181    1.2517 C   0  0  0  0  0  0  0  0  0  0  0  0
    3.7021    1.2533   -0.5561 C   0  0  0  0  0  0  0  0  0  0  0  0
    1.0641    1.3865    0.3706 C   0  0  0  0  0  0  0  0  0  0  0  0
    1.5591    2.5808    0.0139 F   0  0  0  0  0  0  0  0  0  0  0  0
    0.0536    1.1790    1.2975 C   0  0  0  0  0  0  0  0  0  0  0  0
   -0.9534    0.2541    1.0291 C   0  0  0  0  0  0  0  0  0  0  0  0
   -2.2860    0.5007    1.3448 C   0  0  0  0  0  0  0  0  0  0  0  0
   -2.5061    1.2054    2.3437 O   0  0  0  0  0  0  0  0  0  0  0  0
   -3.3162    0.2999    0.4298 C   0  0  0  0  0  0  0  0  0  0  0  0
   -4.3537    1.3260    0.2266 C   0  0  0  0  0  0  0  0  0  0  0  0
   -4.9319    1.6974    1.2943 O   0  0  0  0  0  0  0  0  0  0  0  0
   -4.0108    2.3817   -0.6292 O   0  0  0  0  0  0  0  0  0  0  0  0
   -3.0285   -0.6498   -0.5455 C   0  0  0  0  0  0  0  0  0  0  0  0
   -1.8020   -1.2275   -0.6559 N   0  0  0  0  0  0  0  0  0  0  0  0
   -1.6288   -2.3631   -1.4001 C   0  0  0  0  0  0  0  0  0  0  0  0
   -1.3879   -3.6872   -1.5769 C   0  0  0  0  0  0  0  0  0  0  0  0
   -2.4971   -3.4696   -0.6928 C   0  0  0  0  0  0  0  0  0  0  0  0
   -0.7568   -0.6516   -0.0100 C   0  0  0  0  0  0  0  0  0  0  0  0
  1  2  1  0
  2  3  1  0
  3  4  2  0
  4  5  1  0
  5  6  1  0
  6  7  1  0
  7  8  1  0
  8  9  1  0
  9 10  1  1
  9 11  1  0
  4 12  1  0
 12 13  1  0
 12 14  2  0
 14 15  1  0
 15 16  1  0
 16 17  2  0
 16 18  1  0
 18 19  1  0
 19 20  2  0
 19 21  1  0
 18 22  2  0
 22 23  1  0
 23 24  1  0
 24 25  1  0
 25 26  1  0
 23 27  1  0
 27  3  1  0
 11  5  1  0
 27 15  2  0
 26 24  1  0
M  END
>  <supplier_code>  (892) 
DB01044

>  <zinc_id>  (892) 
ZINC000003607120

>  <catalog_short_name>  (892) 
dbfda

$$$$

     RDKit          3D

 27 30  0  0  0  0  0  0  0  0999 V2000
    0.8177    2.1699   -0.8714 C   0  0  0  0  0  0  0  0  0  0  0  0
    0.7207    1.9480   -0.2378 O   0  0  0  0  0  0  0  0  0  0  0  0
    0.4694    0.6464    0.2157 C   0  0  0  0  0  0  0  0  0  0  0  0
    1.4988   -0.2812    0.1672 C   0  0  0  0  0  0  0  0  0  0  0  0
    2.7923    0.1419    0.5646 N   0  0  0  0  0  0  0  0  0  0  0  0
    3.3791    1.4183    0.1575 C   0  0  0  0  0  0  0  0  0  0  0  0
    4.8478    1.3000    0.3277 C   0  0  0  0  0  0  0  0  0  0  0  0
    5.4977    0.3358   -0.4796 N   0  0  0  0  0  0  0  0  0  0  0  0
    4.4103   -0.7113   -0.9255 C   0  0  1  0  0  0  0  0  0  0  0  0
    5.4617   -1.9602   -0.7560 C   0  0  0  0  0  0  0  0  0  0  0  0
    3.8302   -0.8952    0.6023 C   0  0  0  0  0  0  0  0  0  0  0  0
    1.1853   -1.6063   -0.0939 C   0  0  0  0  0  0  0  0  0  0  0  0
    2.0384   -2.5789    0.3262 F   0  0  0  0  0  0  0  0  0  0  0  0
   -0.1147   -1.9891   -0.3813 C   0  0  0  0  0  0  0  0  0  0  0  0
   -1.1464   -1.0900   -0.1620 C   0  0  0  0  0  0  0  0  0  0  0  0
   -2.4509   -1.4738   -0.3244 C   0  0  0  0  0  0  0  0  0  0  0  0
   -2.7154   -2.5510   -0.8961 O   0  0  0  0  0  0  0  0  0  0  0  0
   -3.4183   -0.6086    0.1677 C   0  0  0  0  0  0  0  0  0  0  0  0
   -4.7979   -0.9220   -0.2270 C   0  0  0  0  0  0  0  0  0  0  0  0
   -5.2585   -0.2963   -1.2275 O   0  0  0  0  0  0  0  0  0  0  0  0
   -5.1760   -2.2532   -0.1103 O   0  0  0  0  0  0  0  0  0  0  0  0
   -3.0692    0.6547    0.6239 C   0  0  0  0  0  0  0  0  0  0  0  0
   -1.8153    1.1270    0.4502 N   0  0  0  0  0  0  0  0  0  0  0  0
   -1.4175    2.4607    0.8729 C   0  0  0  0  0  0  0  0  0  0  0  0
   -2.2982    3.5905    0.2644 C   0  0  0  0  0  0  0  0  0  0  0  0
   -2.4243    3.2022    1.6743 C   0  0  0  0  0  0  0  0  0  0  0  0
   -0.8465    0.2218    0.1910 C   0  0  0  0  0  0  0  0  0  0  0  0
  1  2  1  0
  2  3  1  0
  3  4  2  0
  4  5  1  0
  5  6  1  0
  6  7  1  0
  7  8  1  0
  8  9  1  0
  9 10  1  1
  9 11  1  0
  4 12  1  0
 12 13  1  0
 12 14  2  0
 14 15  1  0
 15 16  1  0
 16 17  2  0
 16 18  1  0
 18 19  1  0
 19 20  2  0
 19 21  1  0
 18 22  2  0
 22 23  1  0
 23 24  1  0
 24 25  1  0
 25 26  1  0
 23 27  1  0
 27  3  1  0
 11  5  1  0
 27 15  2  0
 26 24  1  0
M  END
>  <supplier_code>  (893) 
DB01044

>  <zinc_id>  (893) 
ZINC000038197764

>  <catalog_short_name>  (893) 
dbfda

$$$$

     RDKit          3D

 59 63  0  0  0  0  0  0  0  0999 V2000
   -5.2857   -3.2589   -0.8459 C   0  0  0  0  0  0  0  0  0  0  0  0
   -5.4946   -2.8207   -0.7079 O   0  0  0  0  0  0  0  0  0  0  0  0
   -4.6500   -2.0152    0.2550 C   0  0  1  0  0  0  0  0  0  0  0  0
   -3.2764   -2.5417   -0.4100 C   0  0  0  0  0  0  0  0  0  0  0  0
   -2.9693   -3.7846   -0.1871 C   0  0  0  0  0  0  0  0  0  0  0  0
   -1.6583   -4.1828   -0.2594 O   0  0  0  0  0  0  0  0  0  0  0  0
   -0.7768   -4.1541    0.8201 C   0  0  1  0  0  0  0  0  0  0  0  0
   -1.3747   -4.9244    1.9614 C   0  0  0  0  0  0  0  0  0  0  0  0
    0.4712   -4.7033    0.5952 O   0  0  0  0  0  0  0  0  0  0  0  0
    1.4374   -3.7497    0.4449 C   0  0  0  0  0  0  0  0  0  0  0  0
    0.9917   -2.4818    0.8263 C   0  0  0  0  0  0  0  0  0  0  0  0
    1.5417   -1.3343    0.2618 C   0  0  0  0  0  0  0  0  0  0  0  0
    1.8123   -0.1320    0.9085 C   0  0  0  0  0  0  0  0  0  0  0  0
    0.9966    0.6339    1.7572 O   0  0  0  0  0  0  0  0  0  0  0  0
    2.8480    0.6956    0.4272 C   0  0  0  0  0  0  0  0  0  0  0  0
    3.9172    1.1072    1.3699 C   0  0  0  0  0  0  0  0  0  0  0  0
    4.8548    0.3599    1.7883 N   0  0  0  0  0  0  0  0  0  0  0  0
    6.2144    0.4744    1.4944 N   0  0  0  0  0  0  0  0  0  0  0  0
    6.9356    1.7332    1.6308 C   0  0  0  0  0  0  0  0  0  0  0  0
    7.6655    1.9407    0.3090 C   0  0  0  0  0  0  0  0  0  0  0  0
    8.7443    0.9823    0.2879 N   0  0  0  0  0  0  0  0  0  0  0  0
    9.6490    1.1677    1.3960 C   0  0  0  0  0  0  0  0  0  0  0  0
    8.2359   -0.3596    0.3521 C   0  0  0  0  0  0  0  0  0  0  0  0
    6.7572   -0.4567    0.5086 C   0  0  0  0  0  0  0  0  0  0  0  0
    2.9580    0.7345   -0.9786 C   0  0  0  0  0  0  0  0  0  0  0  0
    2.8950   -0.5450   -1.5545 C   0  0  0  0  0  0  0  0  0  0  0  0
    3.6018   -0.9562   -2.6959 O   0  0  0  0  0  0  0  0  0  0  0  0
    2.4146   -1.6342   -0.8104 C   0  0  0  0  0  0  0  0  0  0  0  0
    3.1308   -2.8371   -0.8516 C   0  0  0  0  0  0  0  0  0  0  0  0
    4.4690   -2.8977   -1.2618 O   0  0  0  0  0  0  0  0  0  0  0  0
    2.6986   -3.9316   -0.1149 C   0  0  0  0  0  0  0  0  0  0  0  0
    3.5783   -5.0145    0.3508 C   0  0  0  0  0  0  0  0  0  0  0  0
    2.3483    1.8355   -1.7047 N   0  0  0  0  0  0  0  0  0  0  0  0
    2.4637    3.2100   -1.5144 C   0  0  0  0  0  0  0  0  0  0  0  0
    3.5060    3.8113   -1.9579 O   0  0  0  0  0  0  0  0  0  0  0  0
    1.5161    4.0839   -0.7765 C   0  0  0  0  0  0  0  0  0  0  0  0
    1.7755    4.3013    0.7038 C   0  0  0  0  0  0  0  0  0  0  0  0
    0.5665    4.7840   -1.3810 C   0  0  0  0  0  0  0  0  0  0  0  0
   -0.8033    4.9244   -1.3784 C   0  0  0  0  0  0  0  0  0  0  0  0
   -1.7947    4.4807   -2.0402 C   0  0  0  0  0  0  0  0  0  0  0  0
   -3.1918    4.1190   -1.3735 C   0  0  2  0  0  0  0  0  0  0  0  0
   -3.1954    5.4880   -0.4888 C   0  0  0  0  0  0  0  0  0  0  0  0
   -2.6298    3.2007   -0.0479 C   0  0  2  0  0  0  0  0  0  0  0  0
   -1.4278    2.6338   -0.7543 O   0  0  0  0  0  0  0  0  0  0  0  0
   -3.3769    1.7569   -0.5006 C   0  0  1  0  0  0  0  0  0  0  0  0
   -2.4447    1.0362    0.6209 C   0  0  0  0  0  0  0  0  0  0  0  0
   -4.7008    1.7503    0.5319 C   0  0  1  0  0  0  0  0  0  0  0  0
   -4.9470    3.2332    0.4575 O   0  0  0  0  0  0  0  0  0  0  0  0
   -5.9391    1.5266   -0.6124 C   0  0  1  0  0  0  0  0  0  0  0  0
   -5.0879    1.4228   -1.9672 C   0  0  0  0  0  0  0  0  0  0  0  0
   -6.1679   -0.1442   -0.4180 C   0  0  2  0  0  0  0  0  0  0  0  0
   -6.0585   -0.0994    1.0980 O   0  0  0  0  0  0  0  0  0  0  0  0
   -7.1978   -0.4926    1.7979 C   0  0  0  0  0  0  0  0  0  0  0  0
   -7.9353    0.3476    2.7598 C   0  0  0  0  0  0  0  0  0  0  0  0
   -7.7115   -1.5680    1.4399 O   0  0  0  0  0  0  0  0  0  0  0  0
   -4.5635   -0.5826   -0.6674 C   0  0  2  0  0  0  0  0  0  0  0  0
   -4.7794   -1.2013   -2.1333 C   0  0  0  0  0  0  0  0  0  0  0  0
   -0.3966   -2.7466    1.1804 C   0  0  0  0  0  0  0  0  0  0  0  0
   -1.1594   -2.2249    2.0588 O   0  0  0  0  0  0  0  0  0  0  0  0
  1  2  1  0
  3  2  1  6
  3  4  1  0
  4  5  2  0
  5  6  1  0
  6  7  1  0
  7  8  1  1
  7  9  1  0
  9 10  1  0
 10 11  2  0
 11 12  1  0
 12 13  2  0
 13 14  1  0
 13 15  1  0
 15 16  1  0
 16 17  2  0
 17 18  1  0
 18 19  1  0
 19 20  1  0
 20 21  1  0
 21 22  1  0
 21 23  1  0
 23 24  1  0
 15 25  2  0
 25 26  1  0
 26 27  1  0
 26 28  2  0
 28 29  1  0
 29 30  1  0
 29 31  2  0
 31 32  1  0
 25 33  1  0
 33 34  1  0
 34 35  2  0
 34 36  1  0
 36 37  1  0
 36 38  2  0
 38 39  1  0
 39 40  2  0
 40 41  1  0
 41 42  1  1
 41 43  1  0
 43 44  1  6
 43 45  1  0
 45 46  1  1
 45 47  1  0
 47 48  1  6
 47 49  1  0
 49 50  1  6
 49 51  1  0
 51 52  1  1
 52 53  1  0
 53 54  1  0
 53 55  2  0
 51 56  1  0
 56 57  1  6
 11 58  1  0
 58 59  2  0
 56  3  1  0
 58  7  1  0
 31 10  1  0
 28 12  1  0
 24 18  1  0
M  END
>  <supplier_code>  (894) 
DB01045

>  <zinc_id>  (894) 
ZINC000169621223

>  <catalog_short_name>  (894) 
dbfda

$$$$

     RDKit          3D

 27 28  0  0  0  0  0  0  0  0999 V2000
   -5.3678    3.8774   -0.0855 C   0  0  0  0  0  0  0  0  0  0  0  0
   -6.0282    2.6372   -0.5937 C   0  0  0  0  0  0  0  0  0  0  0  0
   -5.3950    1.4136   -0.0102 C   0  0  0  0  0  0  0  0  0  0  0  0
   -5.0493    0.3554   -1.0225 C   0  0  0  0  0  0  0  0  0  0  0  0
   -3.5768   -0.0327   -0.9686 C   0  0  0  0  0  0  0  0  0  0  0  0
   -3.3392   -0.8008   -2.0713 F   0  0  0  0  0  0  0  0  0  0  0  0
   -2.9157    1.1867   -1.1033 F   0  0  0  0  0  0  0  0  0  0  0  0
   -3.2137   -0.7208    0.3335 C   0  0  1  0  0  0  0  0  0  0  0  0
   -4.3811   -0.6591    1.1238 O   0  0  0  0  0  0  0  0  0  0  0  0
   -2.9155   -2.1541    0.2451 C   0  0  0  0  0  0  0  0  0  0  0  0
   -1.5299   -2.5855   -0.1081 C   0  0  0  0  0  0  0  0  0  0  0  0
   -0.8082   -1.1582   -0.2478 C   0  0  1  0  0  0  0  0  0  0  0  0
   -1.1529   -0.8080    1.4006 C   0  0  1  0  0  0  0  0  0  0  0  0
   -0.0685    0.4499    1.3783 C   0  0  0  0  0  0  0  0  0  0  0  0
    1.0472   -0.1094    0.5963 C   0  0  0  0  0  0  0  0  0  0  0  0
    1.6070    0.6007   -0.1966 O   0  0  0  0  0  0  0  0  0  0  0  0
    0.7022   -1.6652    0.3476 C   0  0  2  0  0  0  0  0  0  0  0  0
    1.3412   -1.7629   -1.1692 C   0  0  0  0  0  0  0  0  0  0  0  0
    2.8016   -1.4709   -1.0395 C   0  0  0  0  0  0  0  0  0  0  0  0
    3.4087   -1.8270    0.2795 C   0  0  0  0  0  0  0  0  0  0  0  0
    4.8852   -1.4614    0.2108 C   0  0  0  0  0  0  0  0  0  0  0  0
    5.1904   -0.1459    0.8622 C   0  0  0  0  0  0  0  0  0  0  0  0
    5.5603    0.9565   -0.0743 C   0  0  0  0  0  0  0  0  0  0  0  0
    6.7927    1.6808    0.2628 C   0  0  0  0  0  0  0  0  0  0  0  0
    7.8659    1.0295    0.4626 O   0  0  0  0  0  0  0  0  0  0  0  0
    6.8509    3.0761    0.3159 O   0  0  0  0  0  0  0  0  0  0  0  0
   -2.3113    0.0983    0.9746 O   0  0  0  0  0  0  0  0  0  0  0  0
  1  2  1  0
  2  3  1  0
  3  4  1  0
  4  5  1  0
  5  6  1  0
  5  7  1  0
  8  5  1  6
  8  9  1  0
  8 10  1  0
 10 11  1  0
 12 11  1  1
 12 13  1  0
 13 14  1  6
 14 15  1  0
 15 16  2  0
 15 17  1  0
 17 18  1  6
 18 19  1  0
 19 20  1  0
 20 21  1  0
 21 22  1  0
 22 23  1  0
 23 24  1  0
 24 25  2  0
 24 26  1  0
 13 27  1  0
 27  8  1  0
 17 12  1  0
M  END
>  <supplier_code>  (895) 
DB01046

>  <zinc_id>  (895) 
ZINC000004217732

>  <catalog_short_name>  (895) 
dbfda

$$$$

     RDKit          3D

 27 28  0  0  0  0  0  0  0  0999 V2000
   -6.1189    0.2714    2.3733 C   0  0  0  0  0  0  0  0  0  0  0  0
   -6.4583    0.0497    2.0520 C   0  0  0  0  0  0  0  0  0  0  0  0
   -6.3861   -0.3050    0.5639 C   0  0  0  0  0  0  0  0  0  0  0  0
   -5.0181    0.1102    0.1448 C   0  0  0  0  0  0  0  0  0  0  0  0
   -3.9809   -1.0111    0.1619 C   0  0  0  0  0  0  0  0  0  0  0  0
   -4.4864   -2.0084   -0.5996 F   0  0  0  0  0  0  0  0  0  0  0  0
   -3.9736   -1.3403    1.4628 F   0  0  0  0  0  0  0  0  0  0  0  0
   -2.7678   -0.4005   -0.4373 C   0  0  1  0  0  0  0  0  0  0  0  0
   -3.2112    0.6249   -1.3235 O   0  0  0  0  0  0  0  0  0  0  0  0
   -2.0014    0.2929    0.5748 C   0  0  0  0  0  0  0  0  0  0  0  0
   -0.4738    0.3517    0.5437 C   0  0  0  0  0  0  0  0  0  0  0  0
   -0.2466   -1.0452   -0.2313 C   0  0  1  0  0  0  0  0  0  0  0  0
   -1.0140   -0.1358   -1.4527 C   0  0  1  0  0  0  0  0  0  0  0  0
   -0.0456   -0.6780   -2.6470 C   0  0  0  0  0  0  0  0  0  0  0  0
    0.9193    0.2506   -1.9114 C   0  0  0  0  0  0  0  0  0  0  0  0
    1.5797    1.1459   -2.3128 O   0  0  0  0  0  0  0  0  0  0  0  0
    1.3192   -0.8725   -0.8463 C   0  0  1  0  0  0  0  0  0  0  0  0
    1.8395   -0.0496    0.4271 C   0  0  0  0  0  0  0  0  0  0  0  0
    2.1844    1.2145    0.6402 C   0  0  0  0  0  0  0  0  0  0  0  0
    3.1233    1.1675    1.8667 C   0  0  0  0  0  0  0  0  0  0  0  0
    4.5114    0.8336    1.5764 C   0  0  0  0  0  0  0  0  0  0  0  0
    4.8409   -0.5036    1.0215 C   0  0  0  0  0  0  0  0  0  0  0  0
    5.6741   -0.4469   -0.2225 C   0  0  0  0  0  0  0  0  0  0  0  0
    6.9969    0.1801   -0.0287 C   0  0  0  0  0  0  0  0  0  0  0  0
    7.4013    0.5285    1.0989 O   0  0  0  0  0  0  0  0  0  0  0  0
    7.9038    0.1729   -1.0647 O   0  0  0  0  0  0  0  0  0  0  0  0
   -2.1112   -1.1748   -1.4302 O   0  0  0  0  0  0  0  0  0  0  0  0
  1  2  1  0
  2  3  1  0
  3  4  1  0
  4  5  1  0
  5  6  1  0
  5  7  1  0
  8  5  1  1
  8  9  1  0
  8 10  1  0
 10 11  1  0
 12 11  1  1
 12 13  1  0
 13 14  1  6
 14 15  1  0
 15 16  2  0
 15 17  1  0
 17 18  1  1
 18 19  1  0
 19 20  1  0
 20 21  1  0
 21 22  1  0
 22 23  1  0
 23 24  1  0
 24 25  2  0
 24 26  1  0
 13 27  1  0
 27  8  1  0
 17 12  1  0
M  END
>  <supplier_code>  (896) 
DB01046

>  <zinc_id>  (896) 
ZINC000004654889

>  <catalog_short_name>  (896) 
dbfda

$$$$

     RDKit          3D

 35 39  0  0  0  0  0  0  0  0999 V2000
   -4.7133    4.7131    1.0890 C   0  0  0  0  0  0  0  0  0  0  0  0
   -4.6783    3.2557    1.1197 C   0  0  0  0  0  0  0  0  0  0  0  0
   -5.2520    2.5306    1.9640 O   0  0  0  0  0  0  0  0  0  0  0  0
   -3.9049    2.5327    0.2072 O   0  0  0  0  0  0  0  0  0  0  0  0
   -4.1964    1.2221   -0.1788 C   0  0  0  0  0  0  0  0  0  0  0  0
   -3.4697    0.1903    0.5830 C   0  0  0  0  0  0  0  0  0  0  0  0
   -4.0396   -0.2927    1.5534 O   0  0  0  0  0  0  0  0  0  0  0  0
   -2.3876   -0.7016    0.0424 C   0  0  1  0  0  0  0  0  0  0  0  0
   -2.7312   -2.0157    0.1108 O   0  0  0  0  0  0  0  0  0  0  0  0
   -2.6284   -2.5876   -1.1369 C   0  0  0  0  0  0  0  0  0  0  0  0
   -4.0527   -2.6283   -1.6735 C   0  0  0  0  0  0  0  0  0  0  0  0
   -1.9364   -3.9063   -1.1662 C   0  0  0  0  0  0  0  0  0  0  0  0
   -1.9416   -1.7099   -1.9676 O   0  0  0  0  0  0  0  0  0  0  0  0
   -2.5637   -0.3892   -1.5601 C   0  0  2  0  0  0  0  0  0  0  0  0
   -1.1432    0.4367   -1.7361 C   0  0  0  0  0  0  0  0  0  0  0  0
   -0.2719   -0.6418   -0.9160 C   0  0  1  0  0  0  0  0  0  0  0  0
    0.9076    0.4658   -0.4248 C   0  0  2  0  0  0  0  0  0  0  0  0
    1.6045    0.5684   -1.8859 C   0  0  0  0  0  0  0  0  0  0  0  0
    2.7091    1.6302   -1.2529 C   0  0  2  0  0  0  0  0  0  0  0  0
    3.4261    1.7550   -2.5754 F   0  0  0  0  0  0  0  0  0  0  0  0
    3.6621    0.4099   -0.7543 C   0  0  0  0  0  0  0  0  0  0  0  0
    4.8529    1.0027   -0.6048 C   0  0  0  0  0  0  0  0  0  0  0  0
    5.8139    0.2778    0.2359 C   0  0  0  0  0  0  0  0  0  0  0  0
    6.9452    0.7609    0.3946 O   0  0  0  0  0  0  0  0  0  0  0  0
    5.3686   -1.0399    0.6261 C   0  0  0  0  0  0  0  0  0  0  0  0
    4.0976   -1.4260    0.5488 C   0  0  0  0  0  0  0  0  0  0  0  0
    3.1198   -0.2865    0.4789 C   0  0  1  0  0  0  0  0  0  0  0  0
    3.3257    0.6613    1.5989 C   0  0  0  0  0  0  0  0  0  0  0  0
    1.8452   -0.7197    0.0707 C   0  0  2  0  0  0  0  0  0  0  0  0
    2.0138   -1.6328   -0.9639 F   0  0  0  0  0  0  0  0  0  0  0  0
    0.9633   -1.6535    1.0632 C   0  0  1  0  0  0  0  0  0  0  0  0
    1.7713   -1.2424    2.2884 O   0  0  0  0  0  0  0  0  0  0  0  0
   -0.2393   -0.5944    1.4504 C   0  0  0  0  0  0  0  0  0  0  0  0
   -1.0990   -0.2397    0.4080 C   0  0  2  0  0  0  0  0  0  0  0  0
   -1.1776    1.2947    0.4486 C   0  0  0  0  0  0  0  0  0  0  0  0
  1  2  1  0
  2  3  2  0
  2  4  1  0
  4  5  1  0
  5  6  1  0
  6  7  2  0
  8  6  1  1
  8  9  1  0
  9 10  1  0
 10 11  1  0
 10 12  1  0
 10 13  1  0
 14 13  1  6
 14 15  1  0
 16 15  1  6
 16 17  1  0
 17 18  1  6
 18 19  1  0
 19 20  1  6
 19 21  1  0
 21 22  2  0
 22 23  1  0
 23 24  2  0
 23 25  1  0
 25 26  2  0
 26 27  1  0
 27 28  1  1
 27 29  1  0
 29 30  1  6
 29 31  1  0
 31 32  1  1
 31 33  1  0
 33 34  1  0
 34 35  1  6
 14  8  1  0
 34 16  1  0
 34  8  1  0
 29 17  1  0
 27 21  1  0
M  END
>  <supplier_code>  (897) 
DB01047

>  <zinc_id>  (897) 
ZINC000003977978

>  <catalog_short_name>  (897) 
dbfda

$$$$

     RDKit          3D

 21 24  0  0  0  0  0  0  0  0999 V2000
    1.7987   -3.5772   -0.2227 N   0  0  0  0  0  0  0  0  0  0  0  0
    1.6495   -2.6259   -0.1857 C   0  0  0  0  0  0  0  0  0  0  0  0
    0.4348   -2.0331   -0.1951 N   0  0  0  0  0  0  0  0  0  0  0  0
    0.2222   -0.7187   -0.1746 C   0  0  0  0  0  0  0  0  0  0  0  0
    1.3361    0.1085   -0.0779 C   0  0  0  0  0  0  0  0  0  0  0  0
    0.9321    1.3588   -0.2671 N   0  0  0  0  0  0  0  0  0  0  0  0
   -0.3168    1.2683   -0.7421 C   0  0  0  0  0  0  0  0  0  0  0  0
   -0.8531    0.1013   -0.2856 N   0  0  0  0  0  0  0  0  0  0  0  0
   -2.1759   -0.4493   -0.9508 C   0  0  1  0  0  0  0  0  0  0  0  0
   -2.7026   -1.0356    0.4553 C   0  0  0  0  0  0  0  0  0  0  0  0
   -3.8640   -0.5788    0.6919 C   0  0  0  0  0  0  0  0  0  0  0  0
   -4.4009    0.1583   -0.6234 C   0  0  1  0  0  0  0  0  0  0  0  0
   -5.0987    1.3644    0.2363 C   0  0  0  0  0  0  0  0  0  0  0  0
   -6.3688    0.9199    0.5565 O   0  0  0  0  0  0  0  0  0  0  0  0
   -2.9870    0.9666   -0.7298 C   0  0  0  0  0  0  0  0  0  0  0  0
    2.5973   -0.4530   -0.0280 C   0  0  0  0  0  0  0  0  0  0  0  0
    3.6744    0.4144    0.2917 N   0  0  0  0  0  0  0  0  0  0  0  0
    3.9320    1.5992   -0.4921 C   0  0  0  0  0  0  0  0  0  0  0  0
    4.1794    2.8314    0.4228 C   0  0  0  0  0  0  0  0  0  0  0  0
    5.2994    2.1679   -0.3407 C   0  0  0  0  0  0  0  0  0  0  0  0
    2.7120   -1.7875   -0.1094 N   0  0  0  0  0  0  0  0  0  0  0  0
  1  2  1  0
  2  3  2  0
  3  4  1  0
  4  5  2  0
  5  6  1  0
  6  7  2  0
  7  8  1  0
  9  8  1  1
  9 10  1  0
 10 11  2  0
 11 12  1  0
 12 13  1  1
 13 14  1  0
 12 15  1  0
  5 16  1  0
 16 17  1  0
 17 18  1  0
 18 19  1  0
 19 20  1  0
 16 21  2  0
 21  2  1  0
  8  4  1  0
 15  9  1  0
 20 18  1  0
M  END
>  <supplier_code>  (898) 
DB01048

>  <zinc_id>  (898) 
ZINC000002015928

>  <catalog_short_name>  (898) 
dbfda

$$$$

     RDKit          3D

 15 15  0  0  0  0  0  0  0  0999 V2000
   -4.6827    0.7857    0.2018 C   0  0  0  0  0  0  0  0  0  0  0  0
   -4.0133   -0.1040    0.2821 C   0  0  0  0  0  0  0  0  0  0  0  0
   -4.7209   -1.1486    1.1353 C   0  0  0  0  0  0  0  0  0  0  0  0
   -2.7332    0.2311    1.0220 C   0  0  0  0  0  0  0  0  0  0  0  0
   -1.5346    0.1265    0.1354 C   0  0  0  0  0  0  0  0  0  0  0  0
   -0.9547   -1.1080   -0.1189 C   0  0  0  0  0  0  0  0  0  0  0  0
    0.4141   -1.2947   -0.0947 C   0  0  0  0  0  0  0  0  0  0  0  0
    1.2735   -0.2166    0.0335 C   0  0  0  0  0  0  0  0  0  0  0  0
    2.5928   -0.4131   -0.9053 C   0  0  2  0  0  0  0  0  0  0  0  0
    3.0372   -1.7888   -0.0876 C   0  0  0  0  0  0  0  0  0  0  0  0
    3.4957    0.5209    0.0793 C   0  0  0  0  0  0  0  0  0  0  0  0
    4.7288    0.3162   -0.1335 O   0  0  0  0  0  0  0  0  0  0  0  0
    3.0858    1.8542   -0.0128 O   0  0  0  0  0  0  0  0  0  0  0  0
    0.6818    1.0292   -0.1471 C   0  0  0  0  0  0  0  0  0  0  0  0
   -0.6704    1.2101    0.1184 C   0  0  0  0  0  0  0  0  0  0  0  0
  1  2  1  0
  2  3  1  0
  2  4  1  0
  4  5  1  0
  5  6  2  0
  6  7  1  0
  7  8  2  0
  9  8  1  1
  9 10  1  0
  9 11  1  0
 11 12  2  0
 11 13  1  0
  8 14  1  0
 14 15  2  0
 15  5  1  0
M  END
>  <supplier_code>  (899) 
DB01050

>  <zinc_id>  (899) 
ZINC000000002647

>  <catalog_short_name>  (899) 
dbfda

$$$$

     RDKit          3D

 15 15  0  0  0  0  0  0  0  0999 V2000
   -3.0809    1.1413    1.1458 C   0  0  0  0  0  0  0  0  0  0  0  0
   -3.4204    0.6495   -0.0998 C   0  0  0  0  0  0  0  0  0  0  0  0
   -3.0935    1.6183   -1.2227 C   0  0  0  0  0  0  0  0  0  0  0  0
   -2.9106   -0.7320   -0.4105 C   0  0  0  0  0  0  0  0  0  0  0  0
   -1.4999   -0.9175   -0.0134 C   0  0  0  0  0  0  0  0  0  0  0  0
   -1.1177   -0.6695    1.2782 C   0  0  0  0  0  0  0  0  0  0  0  0
    0.2081   -0.3364    1.5328 C   0  0  0  0  0  0  0  0  0  0  0  0
    1.1296   -0.7743    0.6090 C   0  0  0  0  0  0  0  0  0  0  0  0
    2.6286   -0.1654    0.8380 C   0  0  1  0  0  0  0  0  0  0  0  0
    3.3486   -1.1272   -0.3261 C   0  0  0  0  0  0  0  0  0  0  0  0
    2.3847    1.0723   -0.2027 C   0  0  0  0  0  0  0  0  0  0  0  0
    1.9653    0.7879   -1.3178 O   0  0  0  0  0  0  0  0  0  0  0  0
    3.2100    2.1225    0.1348 O   0  0  0  0  0  0  0  0  0  0  0  0
    0.7976   -1.2901   -0.5731 C   0  0  0  0  0  0  0  0  0  0  0  0
   -0.5495   -1.3794   -0.9037 C   0  0  0  0  0  0  0  0  0  0  0  0
  1  2  1  0
  2  3  1  0
  2  4  1  0
  4  5  1  0
  5  6  2  0
  6  7  1  0
  7  8  2  0
  9  8  1  6
  9 10  1  0
  9 11  1  0
 11 12  2  0
 11 13  1  0
  8 14  1  0
 14 15  2  0
 15  5  1  0
M  END
>  <supplier_code>  (900) 
DB01050

>  <zinc_id>  (900) 
ZINC000000113398

>  <catalog_short_name>  (900) 
dbfda

$$$$

     RDKit          3D

 23 25  0  0  0  0  0  0  0  0999 V2000
   -4.5809    0.3846    1.5361 C   0  0  0  0  0  0  0  0  0  0  0  0
   -3.5224    0.5641    0.8832 C   0  0  0  0  0  0  0  0  0  0  0  0
   -3.1998    2.0562    0.8515 C   0  0  0  0  0  0  0  0  0  0  0  0
   -2.0353   -0.3351    1.0599 S   0  0  0  0  0  0  0  0  0  0  0  0
   -1.8424   -0.8996   -0.7593 C   0  0  2  0  0  0  0  0  0  0  0  0
   -0.3640   -0.2004   -1.2190 C   0  0  2  0  0  0  0  0  0  0  0  0
    0.3060   -0.2556    0.2425 N   0  0  0  0  0  0  0  0  0  0  0  0
    1.7347   -0.2424    0.1951 C   0  0  0  0  0  0  0  0  0  0  0  0
    2.3248   -0.0495   -0.9065 O   0  0  0  0  0  0  0  0  0  0  0  0
    2.4715   -0.1727    1.4786 C   0  0  0  0  0  0  0  0  0  0  0  0
    3.9315   -0.0816    1.1517 C   0  0  0  0  0  0  0  0  0  0  0  0
    4.3026    1.0929    0.5054 C   0  0  0  0  0  0  0  0  0  0  0  0
    5.5149    1.1425   -0.1442 C   0  0  0  0  0  0  0  0  0  0  0  0
    6.1445   -0.0230   -0.5050 C   0  0  0  0  0  0  0  0  0  0  0  0
    5.5192   -1.2385   -0.2833 C   0  0  0  0  0  0  0  0  0  0  0  0
    4.4843   -1.2418    0.6319 C   0  0  0  0  0  0  0  0  0  0  0  0
   -1.1591    1.1930   -0.9370 C   0  0  0  0  0  0  0  0  0  0  0  0
   -0.7252    2.2427   -1.4298 O   0  0  0  0  0  0  0  0  0  0  0  0
   -2.3693    0.4501   -1.2082 N   0  0  0  0  0  0  0  0  0  0  0  0
   -3.8991    0.3575   -0.7423 C   0  0  1  0  0  0  0  0  0  0  0  0
   -3.9694   -1.2904   -0.6547 C   0  0  0  0  0  0  0  0  0  0  0  0
   -4.5404   -1.6561   -1.7342 O   0  0  0  0  0  0  0  0  0  0  0  0
   -4.5268   -1.7970    0.4842 O   0  0  0  0  0  0  0  0  0  0  0  0
  1  2  1  0
  2  3  1  0
  2  4  1  0
  5  4  1  1
  5  6  1  0
  6  7  1  1
  7  8  1  0
  8  9  2  0
  8 10  1  0
 10 11  1  0
 11 12  2  0
 12 13  1  0
 13 14  2  0
 14 15  1  0
 15 16  2  0
  6 17  1  0
 17 18  2  0
 17 19  1  0
 19 20  1  0
 20 21  1  1
 21 22  2  0
 21 23  1  0
 20  2  1  0
 19  5  1  0
 16 11  1  0
M  END
>  <supplier_code>  (901) 
DB01053

>  <zinc_id>  (901) 
ZINC000003871701

>  <catalog_short_name>  (901) 
dbfda

$$$$

     RDKit          3D

 23 26  0  0  0  0  0  0  0  0999 V2000
    1.4993    0.5971    1.6471 O   0  0  0  0  0  0  0  0  0  0  0  0
    1.6479    0.7824    0.8939 C   0  0  0  0  0  0  0  0  0  0  0  0
    2.7119    0.0174    0.1711 C   0  0  0  0  0  0  0  0  0  0  0  0
    3.7151    0.9668   -0.4399 C   0  0  0  0  0  0  0  0  0  0  0  0
    4.8151    0.1992   -1.1134 C   0  0  0  0  0  0  0  0  0  0  0  0
    5.4793   -0.7566   -0.1296 C   0  0  0  0  0  0  0  0  0  0  0  0
    4.4338   -1.7285    0.3569 C   0  0  0  0  0  0  0  0  0  0  0  0
    3.3223   -1.0082    1.0686 C   0  0  0  0  0  0  0  0  0  0  0  0
    0.7023    1.6063    0.1967 N   0  0  0  0  0  0  0  0  0  0  0  0
    0.8202    1.5694   -1.2641 C   0  0  0  0  0  0  0  0  0  0  0  0
   -0.1159    0.4540   -1.6206 C   0  0  0  0  0  0  0  0  0  0  0  0
   -0.3032    0.2805   -2.8462 O   0  0  0  0  0  0  0  0  0  0  0  0
   -0.5017   -0.4766   -0.6961 N   0  0  0  0  0  0  0  0  0  0  0  0
   -1.0965   -1.7245   -1.1818 C   0  0  0  0  0  0  0  0  0  0  0  0
   -2.3156   -1.1643   -1.9091 C   0  0  0  0  0  0  0  0  0  0  0  0
   -2.9564   -0.2582   -0.9032 C   0  0  0  0  0  0  0  0  0  0  0  0
   -4.3379   -0.1473   -1.0736 C   0  0  0  0  0  0  0  0  0  0  0  0
   -5.2127   -0.2762    0.0019 C   0  0  0  0  0  0  0  0  0  0  0  0
   -4.7116   -0.3815    1.2952 C   0  0  0  0  0  0  0  0  0  0  0  0
   -3.3626   -0.0661    1.4253 C   0  0  0  0  0  0  0  0  0  0  0  0
   -2.5362    0.0744    0.3123 C   0  0  0  0  0  0  0  0  0  0  0  0
   -0.9897   -0.0926    0.7540 C   0  0  2  0  0  0  0  0  0  0  0  0
   -0.7072    1.5331    0.5936 C   0  0  0  0  0  0  0  0  0  0  0  0
  1  2  2  0
  2  3  1  0
  3  4  1  0
  4  5  1  0
  5  6  1  0
  6  7  1  0
  7  8  1  0
  2  9  1  0
  9 10  1  0
 10 11  1  0
 11 12  2  0
 11 13  1  0
 13 14  1  0
 14 15  1  0
 15 16  1  0
 16 17  2  0
 17 18  1  0
 18 19  2  0
 19 20  1  0
 20 21  2  0
 22 21  1  6
 22 23  1  0
  8  3  1  0
 23  9  1  0
 22 13  1  0
 21 16  1  0
M  END
>  <supplier_code>  (902) 
DB01058

>  <zinc_id>  (902) 
ZINC000000000655

>  <catalog_short_name>  (902) 
dbfda

$$$$

     RDKit          3D

 23 26  0  0  0  0  0  0  0  0999 V2000
    2.6998   -1.0884   -0.9786 O   0  0  0  0  0  0  0  0  0  0  0  0
    2.2286   -0.7499   -0.1219 C   0  0  0  0  0  0  0  0  0  0  0  0
    3.1106   -0.1786    0.9453 C   0  0  0  0  0  0  0  0  0  0  0  0
    3.6735    1.1503    0.4871 C   0  0  0  0  0  0  0  0  0  0  0  0
    4.6311    0.9449   -0.6732 C   0  0  0  0  0  0  0  0  0  0  0  0
    5.6482   -0.1083   -0.3511 C   0  0  0  0  0  0  0  0  0  0  0  0
    5.0208   -1.4056    0.0734 C   0  0  0  0  0  0  0  0  0  0  0  0
    4.2075   -1.1524    1.3355 C   0  0  0  0  0  0  0  0  0  0  0  0
    0.9264   -0.2119   -0.2116 N   0  0  0  0  0  0  0  0  0  0  0  0
    0.8413    1.2336   -0.4022 C   0  0  0  0  0  0  0  0  0  0  0  0
   -0.4027    1.6219    0.3188 C   0  0  0  0  0  0  0  0  0  0  0  0
   -0.4946    2.8629    0.5573 O   0  0  0  0  0  0  0  0  0  0  0  0
   -1.5751    0.8311    0.3579 N   0  0  0  0  0  0  0  0  0  0  0  0
   -2.6104    1.3223    1.2708 C   0  0  0  0  0  0  0  0  0  0  0  0
   -3.4968    0.2143    1.7921 C   0  0  0  0  0  0  0  0  0  0  0  0
   -3.7079   -0.7257    0.6387 C   0  0  0  0  0  0  0  0  0  0  0  0
   -4.9367   -0.7826   -0.0117 C   0  0  0  0  0  0  0  0  0  0  0  0
   -5.0339   -0.9381   -1.3770 C   0  0  0  0  0  0  0  0  0  0  0  0
   -3.8689   -0.9948   -2.1325 C   0  0  0  0  0  0  0  0  0  0  0  0
   -2.6586   -0.8258   -1.4690 C   0  0  0  0  0  0  0  0  0  0  0  0
   -2.6370   -1.1644   -0.1449 C   0  0  0  0  0  0  0  0  0  0  0  0
   -1.3036   -0.7113    0.6943 C   0  0  1  0  0  0  0  0  0  0  0  0
   -0.2615   -0.9252   -0.5974 C   0  0  0  0  0  0  0  0  0  0  0  0
  1  2  2  0
  2  3  1  0
  3  4  1  0
  4  5  1  0
  5  6  1  0
  6  7  1  0
  7  8  1  0
  2  9  1  0
  9 10  1  0
 10 11  1  0
 11 12  2  0
 11 13  1  0
 13 14  1  0
 14 15  1  0
 15 16  1  0
 16 17  2  0
 17 18  1  0
 18 19  2  0
 19 20  1  0
 20 21  2  0
 22 21  1  6
 22 23  1  0
  8  3  1  0
 23  9  1  0
 22 13  1  0
 21 16  1  0
M  END
>  <supplier_code>  (903) 
DB01058

>  <zinc_id>  (903) 
ZINC000000403566

>  <catalog_short_name>  (903) 
dbfda

$$$$

     RDKit          3D

 25 27  0  0  0  0  0  0  0  0999 V2000
    3.0796   -0.5858    2.4191 C   0  0  0  0  0  0  0  0  0  0  0  0
    3.1234    0.4289    1.4965 C   0  0  0  0  0  0  0  0  0  0  0  0
    3.8873    1.5512    2.0779 C   0  0  0  0  0  0  0  0  0  0  0  0
    1.5901    0.6796    0.7461 S   0  0  0  0  0  0  0  0  0  0  0  0
    1.9733   -0.1709   -0.9230 C   0  0  2  0  0  0  0  0  0  0  0  0
    0.9414   -1.5150   -0.9487 C   0  0  2  0  0  0  0  0  0  0  0  0
   -0.0288   -1.0834    0.2557 N   0  0  0  0  0  0  0  0  0  0  0  0
   -1.2760   -0.7247   -0.2788 C   0  0  0  0  0  0  0  0  0  0  0  0
   -1.4618   -0.0051   -1.2515 O   0  0  0  0  0  0  0  0  0  0  0  0
   -2.5476   -1.6543    0.1901 C   0  0  2  0  0  0  0  0  0  0  0  0
   -2.9187   -2.0383   -1.3327 N   0  0  0  0  0  0  0  0  0  0  0  0
   -3.5457   -0.3621    0.2531 C   0  0  0  0  0  0  0  0  0  0  0  0
   -3.3317    0.5143    1.2725 C   0  0  0  0  0  0  0  0  0  0  0  0
   -3.9243    1.7722    1.1360 C   0  0  0  0  0  0  0  0  0  0  0  0
   -4.5191    2.1088   -0.0777 C   0  0  0  0  0  0  0  0  0  0  0  0
   -4.3047    3.3208   -0.7293 O   0  0  0  0  0  0  0  0  0  0  0  0
   -5.1001    1.0227   -0.7270 C   0  0  0  0  0  0  0  0  0  0  0  0
   -4.5883   -0.2633   -0.5514 C   0  0  0  0  0  0  0  0  0  0  0  0
    2.0431   -2.1797    0.0434 C   0  0  0  0  0  0  0  0  0  0  0  0
    2.1645   -3.4193    0.0474 O   0  0  0  0  0  0  0  0  0  0  0  0
    2.9343   -1.1433   -0.2692 N   0  0  0  0  0  0  0  0  0  0  0  0
    4.0794   -0.1725    0.2575 C   0  0  1  0  0  0  0  0  0  0  0  0
    3.7620    1.0477   -0.7979 C   0  0  0  0  0  0  0  0  0  0  0  0
    3.5820    2.1582   -0.3292 O   0  0  0  0  0  0  0  0  0  0  0  0
    4.3865    0.7133   -1.9788 O   0  0  0  0  0  0  0  0  0  0  0  0
  1  2  1  0
  2  3  1  0
  2  4  1  0
  5  4  1  1
  5  6  1  0
  6  7  1  1
  7  8  1  0
  8  9  2  0
 10  8  1  6
 10 11  1  0
 10 12  1  0
 12 13  2  0
 13 14  1  0
 14 15  2  0
 15 16  1  0
 15 17  1  0
 17 18  2  0
  6 19  1  0
 19 20  2  0
 19 21  1  0
 21 22  1  0
 22 23  1  6
 23 24  2  0
 23 25  1  0
 22  2  1  0
 21  5  1  0
 18 12  1  0
M  END
>  <supplier_code>  (904) 
DB01060

>  <zinc_id>  (904) 
ZINC000003830215

>  <catalog_short_name>  (904) 
dbfda

$$$$

     RDKit          3D

 26 27  0  0  0  0  0  0  0  0999 V2000
    5.4168   -1.9254   -0.1422 C   0  0  0  0  0  0  0  0  0  0  0  0
    5.5326   -1.2761   -0.3087 C   0  0  0  0  0  0  0  0  0  0  0  0
    5.6790    0.0690    0.1960 N   0  0  0  0  0  0  0  0  0  0  0  0
    6.9150    0.5995   -0.3685 C   0  0  0  0  0  0  0  0  0  0  0  0
    6.9836    2.0917   -0.1155 C   0  0  0  0  0  0  0  0  0  0  0  0
    4.5663    0.9288   -0.1900 C   0  0  0  0  0  0  0  0  0  0  0  0
    3.2882    0.1962   -0.1450 C   0  0  0  0  0  0  0  0  0  0  0  0
    2.3686   -0.5752    0.0541 C   0  0  0  0  0  0  0  0  0  0  0  0
    1.4729   -1.6844   -0.3188 C   0  0  0  0  0  0  0  0  0  0  0  0
    0.1701   -1.3276    0.0591 O   0  0  0  0  0  0  0  0  0  0  0  0
   -0.4336   -0.1188   -0.2187 C   0  0  0  0  0  0  0  0  0  0  0  0
    0.2951    0.8095   -0.6322 O   0  0  0  0  0  0  0  0  0  0  0  0
   -1.7596    0.1351    0.4094 C   0  0  1  0  0  0  0  0  0  0  0  0
   -1.5828    0.4376    1.7660 O   0  0  0  0  0  0  0  0  0  0  0  0
   -2.4262    1.3282   -0.1971 C   0  0  0  0  0  0  0  0  0  0  0  0
   -1.7320    2.3454   -0.8046 C   0  0  0  0  0  0  0  0  0  0  0  0
   -2.4504    3.4911   -1.1022 C   0  0  0  0  0  0  0  0  0  0  0  0
   -3.6942    3.7230   -0.5283 C   0  0  0  0  0  0  0  0  0  0  0  0
   -4.4479    2.6296   -0.1346 C   0  0  0  0  0  0  0  0  0  0  0  0
   -3.7924    1.4371    0.0257 C   0  0  0  0  0  0  0  0  0  0  0  0
   -2.7081   -1.0114    0.2656 C   0  0  0  0  0  0  0  0  0  0  0  0
   -2.1814   -2.1568   -0.5462 C   0  0  0  0  0  0  0  0  0  0  0  0
   -3.3833   -3.0182   -0.9196 C   0  0  0  0  0  0  0  0  0  0  0  0
   -4.1212   -3.4513    0.3355 C   0  0  0  0  0  0  0  0  0  0  0  0
   -4.5971   -2.2510    1.1450 C   0  0  0  0  0  0  0  0  0  0  0  0
   -3.3778   -1.4257    1.5413 C   0  0  0  0  0  0  0  0  0  0  0  0
  1  2  1  0
  2  3  1  0
  3  4  1  0
  4  5  1  0
  3  6  1  0
  6  7  1  0
  7  8  3  0
  8  9  1  0
  9 10  1  0
 10 11  1  0
 11 12  2  0
 13 11  1  6
 13 14  1  0
 13 15  1  0
 15 16  2  0
 16 17  1  0
 17 18  2  0
 18 19  1  0
 19 20  2  0
 13 21  1  0
 21 22  1  0
 22 23  1  0
 23 24  1  0
 24 25  1  0
 25 26  1  0
 20 15  1  0
 26 21  1  0
M  END
>  <supplier_code>  (905) 
DB01062

>  <zinc_id>  (905) 
ZINC000001530751

>  <catalog_short_name>  (905) 
dbfda

$$$$

     RDKit          3D

 26 27  0  0  0  0  0  0  0  0999 V2000
    6.2171   -2.4628   -0.6642 C   0  0  0  0  0  0  0  0  0  0  0  0
    6.7109   -1.5903   -0.3345 C   0  0  0  0  0  0  0  0  0  0  0  0
    5.8159   -0.4848   -0.1073 N   0  0  0  0  0  0  0  0  0  0  0  0
    6.4781    0.7815    0.0415 C   0  0  0  0  0  0  0  0  0  0  0  0
    5.4880    1.7274    0.7120 C   0  0  0  0  0  0  0  0  0  0  0  0
    4.8672   -0.7477    0.9681 C   0  0  0  0  0  0  0  0  0  0  0  0
    3.5134   -0.4985    0.4400 C   0  0  0  0  0  0  0  0  0  0  0  0
    2.4528   -0.4288   -0.1502 C   0  0  0  0  0  0  0  0  0  0  0  0
    1.5704   -0.4007   -1.3302 C   0  0  0  0  0  0  0  0  0  0  0  0
    0.4515    0.3945   -0.9454 O   0  0  0  0  0  0  0  0  0  0  0  0
   -0.5824   -0.2720   -0.2901 C   0  0  0  0  0  0  0  0  0  0  0  0
   -0.2334   -0.9455    0.7262 O   0  0  0  0  0  0  0  0  0  0  0  0
   -2.0195    0.0531   -0.5137 C   0  0  2  0  0  0  0  0  0  0  0  0
   -2.3663   -0.0258   -1.8654 O   0  0  0  0  0  0  0  0  0  0  0  0
   -2.3122    1.4322   -0.0718 C   0  0  0  0  0  0  0  0  0  0  0  0
   -3.0482    1.7459    1.0443 C   0  0  0  0  0  0  0  0  0  0  0  0
   -3.4346    3.0565    1.2003 C   0  0  0  0  0  0  0  0  0  0  0  0
   -2.7862    4.0672    0.5020 C   0  0  0  0  0  0  0  0  0  0  0  0
   -1.7889    3.7766   -0.4199 C   0  0  0  0  0  0  0  0  0  0  0  0
   -1.5867    2.4409   -0.6930 C   0  0  0  0  0  0  0  0  0  0  0  0
   -2.8266   -0.9846    0.2135 C   0  0  0  0  0  0  0  0  0  0  0  0
   -2.6074   -2.3040   -0.5177 C   0  0  0  0  0  0  0  0  0  0  0  0
   -3.5852   -3.2933    0.1013 C   0  0  0  0  0  0  0  0  0  0  0  0
   -4.9554   -2.9419   -0.4095 C   0  0  0  0  0  0  0  0  0  0  0  0
   -5.1465   -1.4603   -0.6154 C   0  0  0  0  0  0  0  0  0  0  0  0
   -4.2858   -0.6346    0.3094 C   0  0  0  0  0  0  0  0  0  0  0  0
  1  2  1  0
  2  3  1  0
  3  4  1  0
  4  5  1  0
  3  6  1  0
  6  7  1  0
  7  8  3  0
  8  9  1  0
  9 10  1  0
 10 11  1  0
 11 12  2  0
 13 11  1  6
 13 14  1  0
 13 15  1  0
 15 16  2  0
 16 17  1  0
 17 18  2  0
 18 19  1  0
 19 20  2  0
 13 21  1  0
 21 22  1  0
 22 23  1  0
 23 24  1  0
 24 25  1  0
 25 26  1  0
 20 15  1  0
 26 21  1  0
M  END
>  <supplier_code>  (906) 
DB01062

>  <zinc_id>  (906) 
ZINC000001530752

>  <catalog_short_name>  (906) 
dbfda

$$$$

     RDKit          3D

 15 15  0  0  0  0  0  0  0  0999 V2000
    4.8327    1.5210    0.2795 C   0  0  0  0  0  0  0  0  0  0  0  0
    3.8232    0.4264    0.4946 C   0  0  0  0  0  0  0  0  0  0  0  0
    4.4774   -0.9144    0.1725 C   0  0  0  0  0  0  0  0  0  0  0  0
    2.7703    0.6219   -0.4407 N   0  0  0  0  0  0  0  0  0  0  0  0
    1.4914    0.9560    0.0664 C   0  0  0  0  0  0  0  0  0  0  0  0
    0.9013   -0.4581    0.7692 C   0  0  2  0  0  0  0  0  0  0  0  0
    1.3994   -1.3377   -0.4112 O   0  0  0  0  0  0  0  0  0  0  0  0
   -0.5699   -0.2291    0.0450 C   0  0  0  0  0  0  0  0  0  0  0  0
   -1.1888   -1.4329   -0.2591 C   0  0  0  0  0  0  0  0  0  0  0  0
   -2.5248   -1.4426   -0.5648 C   0  0  0  0  0  0  0  0  0  0  0  0
   -3.2790   -0.3328   -0.2273 C   0  0  0  0  0  0  0  0  0  0  0  0
   -4.4928   -0.1117   -0.8479 O   0  0  0  0  0  0  0  0  0  0  0  0
   -2.7333    0.5426    0.6987 C   0  0  0  0  0  0  0  0  0  0  0  0
   -3.5568    1.5424    1.1656 O   0  0  0  0  0  0  0  0  0  0  0  0
   -1.3504    0.6490    0.7940 C   0  0  0  0  0  0  0  0  0  0  0  0
  1  2  1  0
  2  3  1  0
  2  4  1  0
  4  5  1  0
  6  5  1  6
  6  7  1  0
  6  8  1  0
  8  9  2  0
  9 10  1  0
 10 11  2  0
 11 12  1  0
 11 13  1  0
 13 14  1  0
 13 15  2  0
 15  8  1  0
M  END
>  <supplier_code>  (907) 
DB01064

>  <zinc_id>  (907) 
ZINC000000056652

>  <catalog_short_name>  (907) 
dbfda

$$$$

     RDKit          3D

 15 15  0  0  0  0  0  0  0  0999 V2000
    4.2546    1.4399   -0.0098 C   0  0  0  0  0  0  0  0  0  0  0  0
    3.7937    0.3829   -0.2187 C   0  0  0  0  0  0  0  0  0  0  0  0
    4.4788   -0.8849    0.1879 C   0  0  0  0  0  0  0  0  0  0  0  0
    2.8153    0.1305   -1.2372 N   0  0  0  0  0  0  0  0  0  0  0  0
    1.7209   -0.6897   -0.7898 C   0  0  0  0  0  0  0  0  0  0  0  0
    1.0031    0.2258    0.4333 C   0  0  1  0  0  0  0  0  0  0  0  0
    0.9301    1.4719   -0.4969 O   0  0  0  0  0  0  0  0  0  0  0  0
   -0.4895   -0.3496    0.0016 C   0  0  0  0  0  0  0  0  0  0  0  0
   -0.9044   -1.1429    1.0733 C   0  0  0  0  0  0  0  0  0  0  0  0
   -2.2597   -1.2575    1.3480 C   0  0  0  0  0  0  0  0  0  0  0  0
   -3.1504   -0.7824    0.3932 C   0  0  0  0  0  0  0  0  0  0  0  0
   -4.4828   -0.7183    0.7963 O   0  0  0  0  0  0  0  0  0  0  0  0
   -2.7277    0.3222   -0.3278 C   0  0  0  0  0  0  0  0  0  0  0  0
   -3.6011    1.2930   -0.8062 O   0  0  0  0  0  0  0  0  0  0  0  0
   -1.3810    0.5591   -0.4336 C   0  0  0  0  0  0  0  0  0  0  0  0
  1  2  1  0
  2  3  1  0
  2  4  1  0
  4  5  1  0
  6  5  1  6
  6  7  1  0
  6  8  1  0
  8  9  2  0
  9 10  1  0
 10 11  2  0
 11 12  1  0
 11 13  1  0
 13 14  1  0
 13 15  2  0
 15  8  1  0
M  END
>  <supplier_code>  (908) 
DB01064

>  <zinc_id>  (908) 
ZINC000000056653

>  <catalog_short_name>  (908) 
dbfda

$$$$

     RDKit          3D

 33 36  0  0  0  0  0  0  0  0999 V2000
   -5.0136    3.6237    0.0904 C   0  0  0  0  0  0  0  0  0  0  0  0
   -4.7300    2.9792   -0.1896 O   0  0  0  0  0  0  0  0  0  0  0  0
   -5.1155    1.6925   -0.5259 N   0  0  0  0  0  0  0  0  0  0  0  0
   -4.3120    0.6876   -0.3365 C   0  0  0  0  0  0  0  0  0  0  0  0
   -2.9648    0.9859    0.1691 C   0  0  0  0  0  0  0  0  0  0  0  0
   -2.6267    2.1488    0.5210 O   0  0  0  0  0  0  0  0  0  0  0  0
   -1.8930    0.0646    0.1145 N   0  0  0  0  0  0  0  0  0  0  0  0
   -1.1578   -0.0766    1.5114 C   0  0  2  0  0  0  0  0  0  0  0  0
   -0.3404    1.2949    1.2972 C   0  0  0  0  0  0  0  0  0  0  0  0
   -0.2783    2.1522    2.2279 O   0  0  0  0  0  0  0  0  0  0  0  0
    0.6248    0.6111    0.5311 N   0  0  0  0  0  0  0  0  0  0  0  0
    1.8979    0.6745   -0.0974 C   0  0  0  0  0  0  0  0  0  0  0  0
    2.5957    1.9711   -0.0716 C   0  0  0  0  0  0  0  0  0  0  0  0
    1.8595    2.9998   -0.1855 O   0  0  0  0  0  0  0  0  0  0  0  0
    3.7080    2.1775    0.7532 O   0  0  0  0  0  0  0  0  0  0  0  0
    2.3204   -0.2615   -0.9526 C   0  0  0  0  0  0  0  0  0  0  0  0
    3.4158   -0.0006   -1.9051 C   0  0  0  0  0  0  0  0  0  0  0  0
    4.2894   -1.0154   -1.8427 C   0  0  0  0  0  0  0  0  0  0  0  0
    5.1501   -0.7795   -0.6714 C   0  0  0  0  0  0  0  0  0  0  0  0
    6.5818    0.1314   -0.9498 S   0  0  0  0  0  0  0  0  0  0  0  0
    7.4473   -0.3791    0.4414 C   0  0  0  0  0  0  0  0  0  0  0  0
    6.6653   -1.3024    0.9390 N   0  0  0  0  0  0  0  0  0  0  0  0
    5.5622   -1.6082    0.3201 C   0  0  0  0  0  0  0  0  0  0  0  0
    4.6134   -2.6297    0.8775 C   0  0  0  0  0  0  0  0  0  0  0  0
    1.3200   -1.1280   -1.6628 C   0  0  0  0  0  0  0  0  0  0  0  0
   -0.1598   -1.4593   -0.7506 S   0  0  0  0  0  0  0  0  0  0  0  0
    0.2713   -0.7938    0.9799 C   0  0  2  0  0  0  0  0  0  0  0  0
   -4.8986   -0.6575   -0.2127 C   0  0  0  0  0  0  0  0  0  0  0  0
   -6.2490   -0.9344   -0.0061 C   0  0  0  0  0  0  0  0  0  0  0  0
   -6.1186   -2.5773    0.4830 S   0  0  0  0  0  0  0  0  0  0  0  0
   -4.4977   -2.8449   -0.0150 C   0  0  0  0  0  0  0  0  0  0  0  0
   -3.6641   -4.0085    0.0644 N   0  0  0  0  0  0  0  0  0  0  0  0
   -4.3029   -1.7382   -0.7751 N   0  0  0  0  0  0  0  0  0  0  0  0
  1  2  1  0
  2  3  1  0
  3  4  2  0
  4  5  1  0
  5  6  2  0
  5  7  1  0
  8  7  1  6
  8  9  1  0
  9 10  2  0
  9 11  1  0
 11 12  1  0
 12 13  1  0
 13 14  2  0
 13 15  1  0
 12 16  2  0
 16 17  1  0
 17 18  2  0
 18 19  1  0
 19 20  1  0
 20 21  1  0
 21 22  2  0
 22 23  1  0
 23 24  1  0
 16 25  1  0
 25 26  1  0
 27 26  1  6
  4 28  1  0
 28 29  2  0
 29 30  1  0
 30 31  1  0
 31 32  1  0
 31 33  2  0
 27  8  1  0
 33 28  1  0
 27 11  1  0
 23 19  2  0
M  END
>  <supplier_code>  (909) 
DB01066

>  <zinc_id>  (909) 
ZINC000004215234

>  <catalog_short_name>  (909) 
dbfda

$$$$

     RDKit          3D

 31 33  0  0  0  0  0  0  0  0999 V2000
    5.5169   -2.6504   -0.1011 C   0  0  0  0  0  0  0  0  0  0  0  0
    6.2538   -1.3477   -0.1394 C   0  0  0  0  0  0  0  0  0  0  0  0
    6.4716   -0.6154    1.0216 C   0  0  0  0  0  0  0  0  0  0  0  0
    6.2249    0.7179    1.0560 N   0  0  0  0  0  0  0  0  0  0  0  0
    5.9864    1.4080   -0.0864 C   0  0  0  0  0  0  0  0  0  0  0  0
    5.0069    2.5045   -0.0900 C   0  0  0  0  0  0  0  0  0  0  0  0
    4.8566    3.1146   -1.1907 O   0  0  0  0  0  0  0  0  0  0  0  0
    3.9259    2.5788    0.8211 N   0  0  0  0  0  0  0  0  0  0  0  0
    2.5337    2.7086    0.3982 C   0  0  0  0  0  0  0  0  0  0  0  0
    1.7317    1.7662    1.2623 C   0  0  0  0  0  0  0  0  0  0  0  0
    1.1739    0.6186    0.4800 C   0  0  0  0  0  0  0  0  0  0  0  0
    1.4729   -0.6966    0.8164 C   0  0  0  0  0  0  0  0  0  0  0  0
    0.4936   -1.6830    0.8050 C   0  0  0  0  0  0  0  0  0  0  0  0
   -0.8080   -1.3875    0.4170 C   0  0  0  0  0  0  0  0  0  0  0  0
   -2.1978   -2.1352    1.1959 S   0  0  0  0  0  0  0  0  0  0  0  0
   -2.1784   -3.6219    1.0581 O   0  0  0  0  0  0  0  0  0  0  0  0
   -2.1814   -1.8370    2.6778 O   0  0  0  0  0  0  0  0  0  0  0  0
   -3.6149   -1.4174    0.5494 N   0  0  0  0  0  0  0  0  0  0  0  0
   -4.4968   -2.0611   -0.1320 C   0  0  0  0  0  0  0  0  0  0  0  0
   -4.5781   -3.4361    0.1092 O   0  0  0  0  0  0  0  0  0  0  0  0
   -5.5661   -1.3136   -0.6903 N   0  0  0  0  0  0  0  0  0  0  0  0
   -5.6618    0.1386   -0.5736 C   0  0  0  0  0  0  0  0  0  0  0  0
   -6.6306    0.6489   -1.6256 C   0  0  0  0  0  0  0  0  0  0  0  0
   -6.5007    2.1557   -1.7874 C   0  0  0  0  0  0  0  0  0  0  0  0
   -6.0344    2.6946   -0.4400 C   0  0  0  0  0  0  0  0  0  0  0  0
   -6.7522    1.9533    0.6591 C   0  0  0  0  0  0  0  0  0  0  0  0
   -6.2159    0.5330    0.7902 C   0  0  0  0  0  0  0  0  0  0  0  0
   -0.9465   -0.2169   -0.3201 C   0  0  0  0  0  0  0  0  0  0  0  0
    0.0178    0.7833   -0.2737 C   0  0  0  0  0  0  0  0  0  0  0  0
    6.3195    0.7249   -1.2510 C   0  0  0  0  0  0  0  0  0  0  0  0
    6.3773   -0.6294   -1.2825 N   0  0  0  0  0  0  0  0  0  0  0  0
  1  2  1  0
  2  3  2  0
  3  4  1  0
  4  5  2  0
  5  6  1  0
  6  7  2  0
  6  8  1  0
  8  9  1  0
  9 10  1  0
 10 11  1  0
 11 12  2  0
 12 13  1  0
 13 14  2  0
 14 15  1  0
 15 16  2  0
 15 17  2  0
 15 18  1  0
 18 19  2  0
 19 20  1  0
 19 21  1  0
 21 22  1  0
 22 23  1  0
 23 24  1  0
 24 25  1  0
 25 26  1  0
 26 27  1  0
 14 28  1  0
 28 29  2  0
  5 30  1  0
 30 31  2  0
 31  2  1  0
 29 11  1  0
 27 22  1  0
M  END
>  <supplier_code>  (910) 
DB01067

>  <zinc_id>  (910) 
ZINC000000537795

>  <catalog_short_name>  (910) 
dbfda

$$$$

     RDKit          3D

 22 24  0  0  0  0  0  0  0  0999 V2000
    0.1929    4.5637   -0.0158 O   0  0  0  0  0  0  0  0  0  0  0  0
    0.2926    3.3761    0.4163 C   0  0  0  0  0  0  0  0  0  0  0  0
   -0.8301    2.9360    1.2991 C   0  0  0  0  0  0  0  0  0  0  0  0
   -1.2940    1.6121    0.9902 N   0  0  0  0  0  0  0  0  0  0  0  0
   -0.7647    0.5689    0.4708 C   0  0  0  0  0  0  0  0  0  0  0  0
   -1.6624   -0.3641   -0.2238 C   0  0  0  0  0  0  0  0  0  0  0  0
   -2.1667    0.0512   -1.4497 C   0  0  0  0  0  0  0  0  0  0  0  0
   -3.4442   -0.3081   -1.8520 C   0  0  0  0  0  0  0  0  0  0  0  0
   -3.9874   -1.4420   -1.2649 C   0  0  0  0  0  0  0  0  0  0  0  0
   -3.6430   -1.6772    0.0564 C   0  0  0  0  0  0  0  0  0  0  0  0
   -2.4435   -1.1859    0.5452 C   0  0  0  0  0  0  0  0  0  0  0  0
   -2.0137   -1.5370    2.2035 Cl  0  0  0  0  0  0  0  0  0  0  0  0
    0.6763    0.2962    0.3983 C   0  0  0  0  0  0  0  0  0  0  0  0
    0.9168   -0.9757   -0.1107 C   0  0  0  0  0  0  0  0  0  0  0  0
    2.2481   -1.2995   -0.3446 C   0  0  0  0  0  0  0  0  0  0  0  0
    2.5411   -2.6528   -0.7118 N   0  0  0  0  0  0  0  0  0  0  0  0
    2.9512   -2.8614   -1.8806 O   0  0  0  0  0  0  0  0  0  0  0  0
    2.9970   -3.4524    0.3220 O   0  0  0  0  0  0  0  0  0  0  0  0
    3.2475   -0.4935    0.1842 C   0  0  0  0  0  0  0  0  0  0  0  0
    2.9849    0.8683    0.2285 C   0  0  0  0  0  0  0  0  0  0  0  0
    1.6572    1.2739    0.2631 C   0  0  0  0  0  0  0  0  0  0  0  0
    1.5443    2.7033    0.2286 N   0  0  0  0  0  0  0  0  0  0  0  0
  1  2  2  0
  2  3  1  0
  3  4  1  0
  4  5  2  0
  5  6  1  0
  6  7  2  0
  7  8  1  0
  8  9  2  0
  9 10  1  0
 10 11  2  0
 11 12  1  0
  5 13  1  0
 13 14  2  0
 14 15  1  0
 15 16  1  0
 16 17  2  0
 16 18  1  0
 15 19  2  0
 19 20  1  0
 20 21  2  0
 21 22  1  0
 22  2  1  0
 11  6  1  0
 21 13  1  0
M  CHG  2  16   1  18  -1
M  END
>  <supplier_code>  (911) 
DB01068

>  <zinc_id>  (911) 
ZINC000003813003

>  <catalog_short_name>  (911) 
dbfda

$$$$

     RDKit          3D

 20 22  0  0  0  0  0  0  0  0999 V2000
    1.6556    0.0956    1.7511 C   0  0  0  0  0  0  0  0  0  0  0  0
    2.1696   -1.0702    0.6705 C   0  0  1  0  0  0  0  0  0  0  0  0
    1.3728   -0.3396   -0.6011 C   0  0  0  0  0  0  0  0  0  0  0  0
    0.0512   -0.0577   -0.1004 N   0  0  0  0  0  0  0  0  0  0  0  0
   -0.3707    1.3041   -0.1887 C   0  0  0  0  0  0  0  0  0  0  0  0
    0.5371    2.2952   -0.5503 C   0  0  0  0  0  0  0  0  0  0  0  0
    0.2356    3.6429   -0.3862 C   0  0  0  0  0  0  0  0  0  0  0  0
   -1.1149    3.9446   -0.5119 C   0  0  0  0  0  0  0  0  0  0  0  0
   -2.0550    2.9814   -0.1782 C   0  0  0  0  0  0  0  0  0  0  0  0
   -1.5699    1.7705    0.2936 C   0  0  0  0  0  0  0  0  0  0  0  0
   -2.8552    0.5673    0.6441 S   0  0  0  0  0  0  0  0  0  0  0  0
   -2.1994   -0.9879    0.0388 C   0  0  0  0  0  0  0  0  0  0  0  0
   -2.9910   -2.0932    0.1428 C   0  0  0  0  0  0  0  0  0  0  0  0
   -2.4645   -3.3570    0.2316 C   0  0  0  0  0  0  0  0  0  0  0  0
   -1.1016   -3.5359    0.3419 C   0  0  0  0  0  0  0  0  0  0  0  0
   -0.3122   -2.4166    0.1481 C   0  0  0  0  0  0  0  0  0  0  0  0
   -0.8390   -1.1329    0.1279 C   0  0  0  0  0  0  0  0  0  0  0  0
    3.5005   -0.2353    0.3595 N   0  0  0  0  0  0  0  0  0  0  0  0
    4.3952   -0.6243    1.4424 C   0  0  0  0  0  0  0  0  0  0  0  0
    3.9556   -0.7510   -0.9146 C   0  0  0  0  0  0  0  0  0  0  0  0
  2  1  1  1
  2  3  1  0
  3  4  1  0
  4  5  1  0
  5  6  2  0
  6  7  1  0
  7  8  2  0
  8  9  1  0
  9 10  2  0
 10 11  1  0
 11 12  1  0
 12 13  2  0
 13 14  1  0
 14 15  2  0
 15 16  1  0
 16 17  2  0
  2 18  1  0
 18 19  1  0
 18 20  1  0
 17  4  1  0
 10  5  1  0
 17 12  1  0
M  END
>  <supplier_code>  (912) 
DB01069

>  <zinc_id>  (912) 
ZINC000000020250

>  <catalog_short_name>  (912) 
dbfda

$$$$

     RDKit          3D

 20 22  0  0  0  0  0  0  0  0999 V2000
    3.2898   -0.8505   -1.4675 C   0  0  0  0  0  0  0  0  0  0  0  0
    2.3004   -0.8275   -0.1574 C   0  0  2  0  0  0  0  0  0  0  0  0
    1.5303    0.5285   -0.6664 C   0  0  0  0  0  0  0  0  0  0  0  0
    0.1095    0.2428   -0.5560 N   0  0  0  0  0  0  0  0  0  0  0  0
   -0.7519    1.3246   -0.2096 C   0  0  0  0  0  0  0  0  0  0  0  0
   -0.2612    2.5026    0.3402 C   0  0  0  0  0  0  0  0  0  0  0  0
   -1.1006    3.4394    0.8898 C   0  0  0  0  0  0  0  0  0  0  0  0
   -2.4566    3.1795    0.9940 C   0  0  0  0  0  0  0  0  0  0  0  0
   -2.9441    2.2150    0.1206 C   0  0  0  0  0  0  0  0  0  0  0  0
   -2.0892    1.3712   -0.5788 C   0  0  0  0  0  0  0  0  0  0  0  0
   -2.8298   -0.1732   -1.1224 S   0  0  0  0  0  0  0  0  0  0  0  0
   -1.6971   -1.4415   -0.5410 C   0  0  0  0  0  0  0  0  0  0  0  0
   -2.1449   -2.4445    0.3099 C   0  0  0  0  0  0  0  0  0  0  0  0
   -1.2235   -3.4442    0.5968 C   0  0  0  0  0  0  0  0  0  0  0  0
    0.0607   -3.3857    0.0683 C   0  0  0  0  0  0  0  0  0  0  0  0
    0.5168   -2.1501   -0.2985 C   0  0  0  0  0  0  0  0  0  0  0  0
   -0.3509   -1.0997   -0.5604 C   0  0  0  0  0  0  0  0  0  0  0  0
    3.3644   -0.0505    0.6911 N   0  0  0  0  0  0  0  0  0  0  0  0
    2.9973   -0.1027    2.0471 C   0  0  0  0  0  0  0  0  0  0  0  0
    3.6806    1.1665    0.1003 C   0  0  0  0  0  0  0  0  0  0  0  0
  2  1  1  6
  2  3  1  0
  3  4  1  0
  4  5  1  0
  5  6  2  0
  6  7  1  0
  7  8  2  0
  8  9  1  0
  9 10  2  0
 10 11  1  0
 11 12  1  0
 12 13  2  0
 13 14  1  0
 14 15  2  0
 15 16  1  0
 16 17  2  0
  2 18  1  0
 18 19  1  0
 18 20  1  0
 17  4  1  0
 10  5  1  0
 17 12  1  0
M  END
>  <supplier_code>  (913) 
DB01069

>  <zinc_id>  (913) 
ZINC000000056647

>  <catalog_short_name>  (913) 
dbfda

$$$$

     RDKit          3D

 51 53  0  0  0  0  0  0  0  0999 V2000
    9.4627   -2.1510   -1.6917 C   0  0  0  0  0  0  0  0  0  0  0  0
    8.2723   -1.6668   -1.5442 O   0  0  0  0  0  0  0  0  0  0  0  0
    7.2920   -2.2358   -0.7255 C   0  0  0  0  0  0  0  0  0  0  0  0
    7.4285   -3.4489   -0.4535 O   0  0  0  0  0  0  0  0  0  0  0  0
    5.9776   -1.7165   -0.8169 N   0  0  0  0  0  0  0  0  0  0  0  0
    5.0358   -2.1583    0.3995 C   0  0  2  0  0  0  0  0  0  0  0  0
    3.8576   -1.1073   -0.0229 C   0  0  0  0  0  0  0  0  0  0  0  0
    3.5090   -1.1935   -1.2314 O   0  0  0  0  0  0  0  0  0  0  0  0
    2.6165   -1.3274    0.6758 N   0  0  0  0  0  0  0  0  0  0  0  0
    1.8478    0.0417    0.7924 C   0  0  1  0  0  0  0  0  0  0  0  0
    1.9473    0.4239   -0.8040 C   0  0  0  0  0  0  0  0  0  0  0  0
    2.6685    1.7409   -0.7878 C   0  0  0  0  0  0  0  0  0  0  0  0
    3.1433    2.3167    0.3857 C   0  0  0  0  0  0  0  0  0  0  0  0
    4.3006    3.0876    0.4196 C   0  0  0  0  0  0  0  0  0  0  0  0
    5.2036    2.9340   -0.6271 C   0  0  0  0  0  0  0  0  0  0  0  0
    4.6207    2.6197   -1.8502 C   0  0  0  0  0  0  0  0  0  0  0  0
    3.2727    2.2737   -1.9205 C   0  0  0  0  0  0  0  0  0  0  0  0
    0.2974   -0.7262    0.5808 C   0  0  1  0  0  0  0  0  0  0  0  0
    0.4944   -1.5914    1.8238 O   0  0  0  0  0  0  0  0  0  0  0  0
   -0.4706    0.4415    1.4744 C   0  0  0  0  0  0  0  0  0  0  0  0
   -1.7143    0.7021    0.7580 N   0  0  0  0  0  0  0  0  0  0  0  0
   -1.8774   -0.1655   -0.3781 C   0  0  0  0  0  0  0  0  0  0  0  0
   -3.0766   -1.0211   -0.3198 C   0  0  0  0  0  0  0  0  0  0  0  0
   -3.6343   -1.4585   -1.5156 C   0  0  0  0  0  0  0  0  0  0  0  0
   -4.2428   -2.7070   -1.5646 C   0  0  0  0  0  0  0  0  0  0  0  0
   -4.7332   -3.2354   -0.3763 C   0  0  0  0  0  0  0  0  0  0  0  0
   -5.0090   -4.6780   -0.3435 C   0  0  0  0  0  0  0  0  0  0  0  0
   -3.9419   -5.4962   -0.6970 C   0  0  0  0  0  0  0  0  0  0  0  0
   -4.1019   -6.8502   -0.5259 C   0  0  0  0  0  0  0  0  0  0  0  0
   -5.1508   -7.2836    0.2439 C   0  0  0  0  0  0  0  0  0  0  0  0
   -6.0132   -6.3886    0.8275 C   0  0  0  0  0  0  0  0  0  0  0  0
   -5.9401   -5.0887    0.5285 N   0  0  0  0  0  0  0  0  0  0  0  0
   -4.5633   -2.4862    0.7814 C   0  0  0  0  0  0  0  0  0  0  0  0
   -3.4647   -1.6369    0.8630 C   0  0  0  0  0  0  0  0  0  0  0  0
   -1.8318    2.0314    0.3606 N   0  0  0  0  0  0  0  0  0  0  0  0
   -3.0785    2.7485    0.2787 C   0  0  0  0  0  0  0  0  0  0  0  0
   -4.0301    1.8941    0.2371 O   0  0  0  0  0  0  0  0  0  0  0  0
   -3.2072    3.4764   -1.1967 C   0  0  1  0  0  0  0  0  0  0  0  0
   -4.6189    4.1525   -0.8804 N   0  0  0  0  0  0  0  0  0  0  0  0
   -4.8948    4.5928    0.3820 C   0  0  0  0  0  0  0  0  0  0  0  0
   -4.1635    4.4063    1.3552 O   0  0  0  0  0  0  0  0  0  0  0  0
   -6.0354    5.3600    0.5800 O   0  0  0  0  0  0  0  0  0  0  0  0
   -6.4203    5.7112    1.8984 C   0  0  0  0  0  0  0  0  0  0  0  0
   -2.3038    4.8218   -0.8200 C   0  0  0  0  0  0  0  0  0  0  0  0
   -1.3999    4.7812   -2.0657 C   0  0  0  0  0  0  0  0  0  0  0  0
   -3.0869    6.0212   -1.0095 C   0  0  0  0  0  0  0  0  0  0  0  0
   -1.4196    4.5871    0.2713 C   0  0  0  0  0  0  0  0  0  0  0  0
    5.7095   -1.0422    1.4392 C   0  0  0  0  0  0  0  0  0  0  0  0
    6.9132   -1.6918    2.0144 C   0  0  0  0  0  0  0  0  0  0  0  0
    4.6283   -0.8079    2.4613 C   0  0  0  0  0  0  0  0  0  0  0  0
    5.9253    0.1946    0.6594 C   0  0  0  0  0  0  0  0  0  0  0  0
  1  2  1  0
  2  3  1  0
  3  4  2  0
  3  5  1  0
  6  5  1  6
  6  7  1  0
  7  8  2  0
  7  9  1  0
 10  9  1  6
 10 11  1  0
 11 12  1  0
 12 13  2  0
 13 14  1  0
 14 15  2  0
 15 16  1  0
 16 17  2  0
 10 18  1  0
 18 19  1  1
 18 20  1  0
 20 21  1  0
 21 22  1  0
 22 23  1  0
 23 24  2  0
 24 25  1  0
 25 26  2  0
 26 27  1  0
 27 28  2  0
 28 29  1  0
 29 30  2  0
 30 31  1  0
 31 32  2  0
 26 33  1  0
 33 34  2  0
 21 35  1  0
 35 36  1  0
 36 37  2  0
 38 36  1  1
 38 39  1  0
 39 40  1  0
 40 41  2  0
 40 42  1  0
 42 43  1  0
 38 44  1  0
 44 45  1  0
 44 46  1  0
 44 47  1  0
  6 48  1  0
 48 49  1  0
 48 50  1  0
 48 51  1  0
 17 12  1  0
 34 23  1  0
 32 27  1  0
M  END
>  <supplier_code>  (914) 
DB01072

>  <zinc_id>  (914) 
ZINC000003941496

>  <catalog_short_name>  (914) 
dbfda

$$$$

     RDKit          3D

 24 26  0  0  0  0  0  0  0  0999 V2000
    4.3727    2.0619    1.7391 N   0  0  0  0  0  0  0  0  0  0  0  0
    3.8178    0.9495    1.6382 C   0  0  0  0  0  0  0  0  0  0  0  0
    3.5469    0.0584    2.6306 N   0  0  0  0  0  0  0  0  0  0  0  0
    2.6399   -0.9452    2.4781 C   0  0  0  0  0  0  0  0  0  0  0  0
    2.9530   -2.1993    2.9396 F   0  0  0  0  0  0  0  0  0  0  0  0
    1.6840   -0.7345    1.5284 N   0  0  0  0  0  0  0  0  0  0  0  0
    2.0178   -0.0268    0.4385 C   0  0  0  0  0  0  0  0  0  0  0  0
    3.2558    0.6124    0.4047 C   0  0  0  0  0  0  0  0  0  0  0  0
    3.4999    0.8537   -0.8707 N   0  0  0  0  0  0  0  0  0  0  0  0
    2.6024    0.1346   -1.5948 C   0  0  0  0  0  0  0  0  0  0  0  0
    1.5694   -0.2955   -0.8110 N   0  0  0  0  0  0  0  0  0  0  0  0
    0.2539    0.5262   -1.1103 C   0  0  2  0  0  0  0  0  0  0  0  0
   -0.8068   -0.3986   -0.5444 O   0  0  0  0  0  0  0  0  0  0  0  0
   -1.6790    0.7096   -1.0975 C   0  0  2  0  0  0  0  0  0  0  0  0
   -3.0815   -0.1338   -1.1629 C   0  0  0  0  0  0  0  0  0  0  0  0
   -3.4482   -0.6073   -0.0267 O   0  0  0  0  0  0  0  0  0  0  0  0
   -4.8489   -0.2273    0.7224 P   0  0  0  0  0  0  0  0  0  0  0  0
   -6.0657    0.0033   -0.0999 O   0  0  0  0  0  0  0  0  0  0  0  0
   -4.4953    1.1243    1.6834 O   0  0  0  0  0  0  0  0  0  0  0  0
   -5.0856   -1.6323    1.6610 O   0  0  0  0  0  0  0  0  0  0  0  0
   -1.4923    0.3204   -2.7528 C   0  0  1  0  0  0  0  0  0  0  0  0
   -0.9516    1.7010   -3.0163 O   0  0  0  0  0  0  0  0  0  0  0  0
    0.0915   -0.2536   -2.6327 C   0  0  2  0  0  0  0  0  0  0  0  0
   -0.3502   -1.6013   -2.1439 O   0  0  0  0  0  0  0  0  0  0  0  0
  1  2  1  0
  2  3  2  0
  3  4  1  0
  4  5  1  0
  4  6  2  0
  6  7  1  0
  7  8  2  0
  8  9  1  0
  9 10  2  0
 10 11  1  0
 12 11  1  1
 12 13  1  0
 13 14  1  0
 14 15  1  1
 15 16  1  0
 16 17  1  0
 17 18  2  0
 17 19  1  0
 17 20  1  0
 14 21  1  0
 21 22  1  6
 21 23  1  0
 23 24  1  1
  8  2  1  0
 23 12  1  0
 11  7  1  0
M  END
>  <supplier_code>  (915) 
DB01073

>  <zinc_id>  (915) 
ZINC000003927870

>  <catalog_short_name>  (915) 
dbfda

$$$$

     RDKit          3D

 20 22  0  0  0  0  0  0  0  0999 V2000
   -4.4524   -0.1115   -0.2400 N   0  0  0  0  0  0  0  0  0  0  0  0
   -3.1973    0.3693   -0.1819 C   0  0  0  0  0  0  0  0  0  0  0  0
   -3.0461    1.6945   -0.0922 N   0  0  0  0  0  0  0  0  0  0  0  0
   -1.8286    2.1834    0.1381 C   0  0  0  0  0  0  0  0  0  0  0  0
   -1.7312    3.5025    0.4739 F   0  0  0  0  0  0  0  0  0  0  0  0
   -0.8053    1.3664    0.3218 N   0  0  0  0  0  0  0  0  0  0  0  0
   -0.7789    0.0588   -0.0691 C   0  0  0  0  0  0  0  0  0  0  0  0
   -2.0780   -0.4267   -0.1329 C   0  0  0  0  0  0  0  0  0  0  0  0
   -1.9584   -1.7679   -0.2346 N   0  0  0  0  0  0  0  0  0  0  0  0
   -0.8034   -2.0066    0.3788 C   0  0  0  0  0  0  0  0  0  0  0  0
    0.0727   -0.9690    0.2355 N   0  0  0  0  0  0  0  0  0  0  0  0
    1.0209   -0.6757    1.5125 C   0  0  2  0  0  0  0  0  0  0  0  0
    1.6041    0.5555    0.8490 O   0  0  0  0  0  0  0  0  0  0  0  0
    2.9841    0.1777    0.4351 C   0  0  2  0  0  0  0  0  0  0  0  0
    2.9612    1.1657   -0.8985 C   0  0  0  0  0  0  0  0  0  0  0  0
    2.4119    2.3459   -0.5348 O   0  0  0  0  0  0  0  0  0  0  0  0
    2.3008   -1.1023   -0.5174 C   0  0  1  0  0  0  0  0  0  0  0  0
    3.6900   -1.6486   -0.7749 O   0  0  0  0  0  0  0  0  0  0  0  0
    2.2722   -1.7852    1.0463 C   0  0  2  0  0  0  0  0  0  0  0  0
    1.3616   -2.9261    0.6736 O   0  0  0  0  0  0  0  0  0  0  0  0
  1  2  1  0
  2  3  2  0
  3  4  1  0
  4  5  1  0
  4  6  2  0
  6  7  1  0
  7  8  2  0
  8  9  1  0
  9 10  2  0
 10 11  1  0
 12 11  1  6
 12 13  1  0
 13 14  1  0
 14 15  1  6
 15 16  1  0
 14 17  1  0
 17 18  1  6
 17 19  1  0
 19 20  1  6
  8  2  1  0
 19 12  1  0
 11  7  1  0
M  END
>  <supplier_code>  (916) 
DB01073

>  <zinc_id>  (916) 
ZINC000004216238

>  <catalog_short_name>  (916) 
dbfda

$$$$

     RDKit          3D

 19 20  0  0  0  0  0  0  0  0999 V2000
    5.0480    0.1190   -1.1486 C   0  0  0  0  0  0  0  0  0  0  0  0
    4.0620   -0.1072   -0.1153 N   0  0  0  0  0  0  0  0  0  0  0  0
    4.4919   -1.1342    0.8066 C   0  0  0  0  0  0  0  0  0  0  0  0
    2.8036   -0.4372   -0.7400 C   0  0  0  0  0  0  0  0  0  0  0  0
    1.7168    0.4488   -0.1927 C   0  0  0  0  0  0  0  0  0  0  0  0
    0.5971   -0.3283    0.0459 O   0  0  0  0  0  0  0  0  0  0  0  0
   -0.4508   -0.0693   -0.8237 C   0  0  0  0  0  0  0  0  0  0  0  0
   -1.4808   -1.1253   -0.6072 C   0  0  0  0  0  0  0  0  0  0  0  0
   -1.3027   -2.3779   -1.1844 C   0  0  0  0  0  0  0  0  0  0  0  0
   -1.6065   -3.5289   -0.4646 C   0  0  0  0  0  0  0  0  0  0  0  0
   -2.2146   -3.4570    0.7829 C   0  0  0  0  0  0  0  0  0  0  0  0
   -2.6448   -2.2232    1.2214 C   0  0  0  0  0  0  0  0  0  0  0  0
   -2.3551   -1.0989    0.4703 C   0  0  0  0  0  0  0  0  0  0  0  0
   -0.9787    1.2903   -0.6078 C   0  0  0  0  0  0  0  0  0  0  0  0
   -0.1263    2.3418   -0.8915 C   0  0  0  0  0  0  0  0  0  0  0  0
   -0.1827    3.5474   -0.2040 C   0  0  0  0  0  0  0  0  0  0  0  0
   -1.1993    3.7786    0.6830 C   0  0  0  0  0  0  0  0  0  0  0  0
   -2.1024    2.7696    0.8993 C   0  0  0  0  0  0  0  0  0  0  0  0
   -2.0748    1.5919    0.1646 C   0  0  0  0  0  0  0  0  0  0  0  0
  1  2  1  0
  2  3  1  0
  2  4  1  0
  4  5  1  0
  5  6  1  0
  6  7  1  0
  7  8  1  0
  8  9  2  0
  9 10  1  0
 10 11  2  0
 11 12  1  0
 12 13  2  0
  7 14  1  0
 14 15  2  0
 15 16  1  0
 16 17  2  0
 17 18  1  0
 18 19  2  0
 13  8  1  0
 19 14  1  0
M  END
>  <supplier_code>  (917) 
DB01075

>  <zinc_id>  (917) 
ZINC000000020244

>  <catalog_short_name>  (917) 
dbfda

$$$$

     RDKit          3D

 41 44  0  0  0  0  0  0  0  0999 V2000
    0.2456    2.3476   -0.5630 C   0  0  0  0  0  0  0  0  0  0  0  0
    0.2225    2.2946   -0.2234 C   0  0  0  0  0  0  0  0  0  0  0  0
    0.3356    3.0916    1.0652 C   0  0  0  0  0  0  0  0  0  0  0  0
   -0.0861    0.8775    0.0539 C   0  0  0  0  0  0  0  0  0  0  0  0
   -1.3122    0.4783    0.5644 C   0  0  0  0  0  0  0  0  0  0  0  0
   -2.5419    1.2600    0.7248 C   0  0  0  0  0  0  0  0  0  0  0  0
   -3.1267    1.3443    1.8435 O   0  0  0  0  0  0  0  0  0  0  0  0
   -2.6553    2.4186   -0.1049 N   0  0  0  0  0  0  0  0  0  0  0  0
   -3.9451    3.0150   -0.2862 C   0  0  0  0  0  0  0  0  0  0  0  0
   -4.0954    3.9018   -1.3461 C   0  0  0  0  0  0  0  0  0  0  0  0
   -5.2603    3.9442   -2.1036 C   0  0  0  0  0  0  0  0  0  0  0  0
   -6.3331    3.1532   -1.7466 C   0  0  0  0  0  0  0  0  0  0  0  0
   -6.2737    2.5628   -0.4907 C   0  0  0  0  0  0  0  0  0  0  0  0
   -5.0786    2.4036    0.1938 C   0  0  0  0  0  0  0  0  0  0  0  0
   -1.3363   -0.9075    0.5883 C   0  0  0  0  0  0  0  0  0  0  0  0
   -2.0241   -1.7545    1.5350 C   0  0  0  0  0  0  0  0  0  0  0  0
   -1.7072   -1.6860    2.8874 C   0  0  0  0  0  0  0  0  0  0  0  0
   -2.5595   -2.1700    3.8615 C   0  0  0  0  0  0  0  0  0  0  0  0
   -3.4334   -3.1846    3.5161 C   0  0  0  0  0  0  0  0  0  0  0  0
   -3.6993   -3.3385    2.1613 C   0  0  0  0  0  0  0  0  0  0  0  0
   -3.2039   -2.4304    1.2549 C   0  0  0  0  0  0  0  0  0  0  0  0
   -0.1792   -1.2933   -0.0781 C   0  0  0  0  0  0  0  0  0  0  0  0
    0.0499   -2.6014   -0.7020 C   0  0  0  0  0  0  0  0  0  0  0  0
    0.4664   -2.6370   -2.0282 C   0  0  0  0  0  0  0  0  0  0  0  0
   -0.0149   -3.6005   -2.9059 C   0  0  0  0  0  0  0  0  0  0  0  0
   -0.9155   -4.5611   -2.4655 C   0  0  0  0  0  0  0  0  0  0  0  0
   -1.8622   -5.0372   -3.3031 F   0  0  0  0  0  0  0  0  0  0  0  0
   -0.9484   -4.7715   -1.0943 C   0  0  0  0  0  0  0  0  0  0  0  0
   -0.5374   -3.7621   -0.2324 C   0  0  0  0  0  0  0  0  0  0  0  0
    0.6269   -0.2323   -0.2559 N   0  0  0  0  0  0  0  0  0  0  0  0
    2.0571   -0.2146   -0.5311 C   0  0  0  0  0  0  0  0  0  0  0  0
    2.7832    0.6216    0.4980 C   0  0  0  0  0  0  0  0  0  0  0  0
    3.9479    1.4213   -0.4015 C   0  0  1  0  0  0  0  0  0  0  0  0
    3.9234    2.6175    0.5709 O   0  0  0  0  0  0  0  0  0  0  0  0
    5.1896    0.6750    0.4415 C   0  0  0  0  0  0  0  0  0  0  0  0
    5.8925   -0.0524   -0.8965 C   0  0  1  0  0  0  0  0  0  0  0  0
    6.2008    1.3197   -1.5310 O   0  0  0  0  0  0  0  0  0  0  0  0
    7.3867   -0.1455   -0.1453 C   0  0  0  0  0  0  0  0  0  0  0  0
    7.6650    1.2005    0.3512 C   0  0  0  0  0  0  0  0  0  0  0  0
    7.2774    1.6812    1.4510 O   0  0  0  0  0  0  0  0  0  0  0  0
    8.8590    1.7504   -0.1271 O   0  0  0  0  0  0  0  0  0  0  0  0
  1  2  1  0
  2  3  1  0
  2  4  1  0
  4  5  2  0
  5  6  1  0
  6  7  2  0
  6  8  1  0
  8  9  1  0
  9 10  2  0
 10 11  1  0
 11 12  2  0
 12 13  1  0
 13 14  2  0
  5 15  1  0
 15 16  1  0
 16 17  2  0
 17 18  1  0
 18 19  2  0
 19 20  1  0
 20 21  2  0
 15 22  2  0
 22 23  1  0
 23 24  2  0
 24 25  1  0
 25 26  2  0
 26 27  1  0
 26 28  1  0
 28 29  2  0
 22 30  1  0
 30 31  1  0
 31 32  1  0
 33 32  1  1
 33 34  1  0
 33 35  1  0
 36 35  1  1
 36 37  1  0
 36 38  1  0
 38 39  1  0
 39 40  2  0
 39 41  1  0
 30  4  1  0
 14  9  1  0
 21 16  1  0
 29 23  1  0
M  END
>  <supplier_code>  (918) 
DB01076

>  <zinc_id>  (918) 
ZINC000003920719

>  <catalog_short_name>  (918) 
dbfda

$$$$

     RDKit          3D

 41 44  0  0  0  0  0  0  0  0999 V2000
    1.2587    2.2098   -0.4903 C   0  0  0  0  0  0  0  0  0  0  0  0
    1.3364    1.8438   -0.5364 C   0  0  0  0  0  0  0  0  0  0  0  0
    1.4207    1.3853   -1.9782 C   0  0  0  0  0  0  0  0  0  0  0  0
    0.5303    0.8556    0.2381 C   0  0  0  0  0  0  0  0  0  0  0  0
   -0.8439    0.9176    0.4399 C   0  0  0  0  0  0  0  0  0  0  0  0
   -1.6813    2.1129    0.2744 C   0  0  0  0  0  0  0  0  0  0  0  0
   -1.0822    3.2260    0.1531 O   0  0  0  0  0  0  0  0  0  0  0  0
   -2.9513    2.2193    0.9305 N   0  0  0  0  0  0  0  0  0  0  0  0
   -3.7490    3.3490    0.5538 C   0  0  0  0  0  0  0  0  0  0  0  0
   -4.8054    3.8006    1.3159 C   0  0  0  0  0  0  0  0  0  0  0  0
   -5.8913    4.3897    0.6838 C   0  0  0  0  0  0  0  0  0  0  0  0
   -5.9282    4.5033   -0.6981 C   0  0  0  0  0  0  0  0  0  0  0  0
   -4.7036    4.4419   -1.3519 C   0  0  0  0  0  0  0  0  0  0  0  0
   -3.5853    3.9563   -0.6858 C   0  0  0  0  0  0  0  0  0  0  0  0
   -1.3038   -0.3897    0.5491 C   0  0  0  0  0  0  0  0  0  0  0  0
   -2.5865   -0.9107    0.0619 C   0  0  0  0  0  0  0  0  0  0  0  0
   -3.7451   -0.8939    0.7803 C   0  0  0  0  0  0  0  0  0  0  0  0
   -4.9266   -1.1665    0.1094 C   0  0  0  0  0  0  0  0  0  0  0  0
   -4.8987   -1.9256   -1.0545 C   0  0  0  0  0  0  0  0  0  0  0  0
   -3.6662   -2.4389   -1.4395 C   0  0  0  0  0  0  0  0  0  0  0  0
   -2.5835   -1.6238   -1.1309 C   0  0  0  0  0  0  0  0  0  0  0  0
   -0.1580   -1.1461    0.7718 C   0  0  0  0  0  0  0  0  0  0  0  0
   -0.0131   -2.6054    0.7176 C   0  0  0  0  0  0  0  0  0  0  0  0
    0.2205   -3.2799   -0.4724 C   0  0  0  0  0  0  0  0  0  0  0  0
   -0.1489   -4.6111   -0.6133 C   0  0  0  0  0  0  0  0  0  0  0  0
   -0.8941   -5.2033    0.3991 C   0  0  0  0  0  0  0  0  0  0  0  0
   -1.8738   -6.1049    0.0982 F   0  0  0  0  0  0  0  0  0  0  0  0
   -0.6967   -4.7029    1.6633 C   0  0  0  0  0  0  0  0  0  0  0  0
   -0.1978   -3.4153    1.8256 C   0  0  0  0  0  0  0  0  0  0  0  0
    0.9302   -0.3385    0.7388 N   0  0  0  0  0  0  0  0  0  0  0  0
    2.2460   -0.5367    1.2904 C   0  0  0  0  0  0  0  0  0  0  0  0
    2.8730   -1.8453    0.9144 C   0  0  0  0  0  0  0  0  0  0  0  0
    3.7788   -1.3765   -0.4097 C   0  0  2  0  0  0  0  0  0  0  0  0
    4.2874   -2.8135   -0.6157 O   0  0  0  0  0  0  0  0  0  0  0  0
    5.0983   -0.9903    0.5440 C   0  0  0  0  0  0  0  0  0  0  0  0
    5.6275    0.1817   -0.5268 C   0  0  1  0  0  0  0  0  0  0  0  0
    4.4900    1.1264   -0.1037 O   0  0  0  0  0  0  0  0  0  0  0  0
    6.6584    0.8491    0.6068 C   0  0  0  0  0  0  0  0  0  0  0  0
    7.2854    1.9467   -0.1733 C   0  0  0  0  0  0  0  0  0  0  0  0
    7.6436    1.7277   -1.3597 O   0  0  0  0  0  0  0  0  0  0  0  0
    7.2293    3.2761    0.2497 O   0  0  0  0  0  0  0  0  0  0  0  0
  1  2  1  0
  2  3  1  0
  2  4  1  0
  4  5  2  0
  5  6  1  0
  6  7  2  0
  6  8  1  0
  8  9  1  0
  9 10  2  0
 10 11  1  0
 11 12  2  0
 12 13  1  0
 13 14  2  0
  5 15  1  0
 15 16  1  0
 16 17  2  0
 17 18  1  0
 18 19  2  0
 19 20  1  0
 20 21  2  0
 15 22  2  0
 22 23  1  0
 23 24  2  0
 24 25  1  0
 25 26  2  0
 26 27  1  0
 26 28  1  0
 28 29  2  0
 22 30  1  0
 30 31  1  0
 31 32  1  0
 33 32  1  1
 33 34  1  0
 33 35  1  0
 36 35  1  1
 36 37  1  0
 36 38  1  0
 38 39  1  0
 39 40  2  0
 39 41  1  0
 30  4  1  0
 14  9  1  0
 21 16  1  0
 29 23  1  0
M  END
>  <supplier_code>  (919) 
DB01076

>  <zinc_id>  (919) 
ZINC000011615926

>  <catalog_short_name>  (919) 
dbfda

$$$$

     RDKit          3D

 41 44  0  0  0  0  0  0  0  0999 V2000
    0.1413    2.4034   -1.0963 C   0  0  0  0  0  0  0  0  0  0  0  0
   -0.0405    2.2006   -1.2001 C   0  0  0  0  0  0  0  0  0  0  0  0
    0.0159    1.9633   -2.7019 C   0  0  0  0  0  0  0  0  0  0  0  0
   -0.2330    0.9177   -0.4578 C   0  0  0  0  0  0  0  0  0  0  0  0
   -1.4986    0.5745    0.0048 C   0  0  0  0  0  0  0  0  0  0  0  0
   -2.7896    1.0707   -0.4988 C   0  0  0  0  0  0  0  0  0  0  0  0
   -3.0050    1.1446   -1.7478 O   0  0  0  0  0  0  0  0  0  0  0  0
   -3.6842    1.7886    0.3217 N   0  0  0  0  0  0  0  0  0  0  0  0
   -4.3922    2.9239   -0.1570 C   0  0  0  0  0  0  0  0  0  0  0  0
   -4.8019    3.0820   -1.4537 C   0  0  0  0  0  0  0  0  0  0  0  0
   -5.9231    3.8737   -1.6687 C   0  0  0  0  0  0  0  0  0  0  0  0
   -6.3530    4.7880   -0.7318 C   0  0  0  0  0  0  0  0  0  0  0  0
   -5.5603    4.9153    0.4022 C   0  0  0  0  0  0  0  0  0  0  0  0
   -4.7087    3.8889    0.7911 C   0  0  0  0  0  0  0  0  0  0  0  0
   -1.3007   -0.6956    0.5362 C   0  0  0  0  0  0  0  0  0  0  0  0
   -2.1870   -1.3084    1.5020 C   0  0  0  0  0  0  0  0  0  0  0  0
   -3.2512   -2.1300    1.1515 C   0  0  0  0  0  0  0  0  0  0  0  0
   -3.6567   -3.0750    2.0755 C   0  0  0  0  0  0  0  0  0  0  0  0
   -3.1421   -3.0843    3.3540 C   0  0  0  0  0  0  0  0  0  0  0  0
   -2.4706   -1.9544    3.7695 C   0  0  0  0  0  0  0  0  0  0  0  0
   -2.1200   -0.9751    2.8502 C   0  0  0  0  0  0  0  0  0  0  0  0
   -0.1119   -1.2274    0.0510 C   0  0  0  0  0  0  0  0  0  0  0  0
    0.0768   -2.6524   -0.2537 C   0  0  0  0  0  0  0  0  0  0  0  0
    0.9609   -3.4383    0.4535 C   0  0  0  0  0  0  0  0  0  0  0  0
    0.9160   -4.8251    0.3800 C   0  0  0  0  0  0  0  0  0  0  0  0
   -0.2819   -5.4040   -0.0115 C   0  0  0  0  0  0  0  0  0  0  0  0
   -0.7349   -6.5740    0.4800 F   0  0  0  0  0  0  0  0  0  0  0  0
   -1.0475   -4.7000   -0.9158 C   0  0  0  0  0  0  0  0  0  0  0  0
   -0.8290   -3.3552   -1.0425 C   0  0  0  0  0  0  0  0  0  0  0  0
    0.5843   -0.1626   -0.4163 N   0  0  0  0  0  0  0  0  0  0  0  0
    1.8470   -0.2743   -1.1282 C   0  0  0  0  0  0  0  0  0  0  0  0
    3.0220   -0.2067   -0.1918 C   0  0  0  0  0  0  0  0  0  0  0  0
    4.2318    0.4519   -1.1027 C   0  0  1  0  0  0  0  0  0  0  0  0
    3.5506    1.8109   -1.1203 O   0  0  0  0  0  0  0  0  0  0  0  0
    5.1138    0.8456    0.2394 C   0  0  0  0  0  0  0  0  0  0  0  0
    6.4815    0.0814   -0.2871 C   0  0  2  0  0  0  0  0  0  0  0  0
    6.3534   -0.9966    0.7777 O   0  0  0  0  0  0  0  0  0  0  0  0
    7.4511    0.9984    0.6859 C   0  0  0  0  0  0  0  0  0  0  0  0
    7.7792    2.1151   -0.2402 C   0  0  0  0  0  0  0  0  0  0  0  0
    8.3508    1.8233   -1.3338 O   0  0  0  0  0  0  0  0  0  0  0  0
    7.2472    3.3773   -0.0685 O   0  0  0  0  0  0  0  0  0  0  0  0
  1  2  1  0
  2  3  1  0
  2  4  1  0
  4  5  2  0
  5  6  1  0
  6  7  2  0
  6  8  1  0
  8  9  1  0
  9 10  2  0
 10 11  1  0
 11 12  2  0
 12 13  1  0
 13 14  2  0
  5 15  1  0
 15 16  1  0
 16 17  2  0
 17 18  1  0
 18 19  2  0
 19 20  1  0
 20 21  2  0
 15 22  2  0
 22 23  1  0
 23 24  2  0
 24 25  1  0
 25 26  2  0
 26 27  1  0
 26 28  1  0
 28 29  2  0
 22 30  1  0
 30 31  1  0
 31 32  1  0
 33 32  1  1
 33 34  1  0
 33 35  1  0
 36 35  1  1
 36 37  1  0
 36 38  1  0
 38 39  1  0
 39 40  2  0
 39 41  1  0
 30  4  1  0
 14  9  1  0
 21 16  1  0
 29 23  1  0
M  END
>  <supplier_code>  (920) 
DB01076

>  <zinc_id>  (920) 
ZINC000011615927

>  <catalog_short_name>  (920) 
dbfda

$$$$

     RDKit          3D

 41 44  0  0  0  0  0  0  0  0999 V2000
    0.5584    2.8136   -0.1957 C   0  0  0  0  0  0  0  0  0  0  0  0
    0.4881    2.0964    0.4608 C   0  0  0  0  0  0  0  0  0  0  0  0
    0.3323    2.5852    1.8959 C   0  0  0  0  0  0  0  0  0  0  0  0
   -0.1189    0.7685    0.2497 C   0  0  0  0  0  0  0  0  0  0  0  0
   -1.4484    0.5020   -0.0563 C   0  0  0  0  0  0  0  0  0  0  0  0
   -2.3753    1.4161   -0.7349 C   0  0  0  0  0  0  0  0  0  0  0  0
   -1.8755    2.1304   -1.6582 O   0  0  0  0  0  0  0  0  0  0  0  0
   -3.5338    1.9427   -0.1247 N   0  0  0  0  0  0  0  0  0  0  0  0
   -4.0864    3.2099   -0.3846 C   0  0  0  0  0  0  0  0  0  0  0  0
   -3.3178    4.2425   -0.8681 C   0  0  0  0  0  0  0  0  0  0  0  0
   -3.5111    5.5330   -0.4141 C   0  0  0  0  0  0  0  0  0  0  0  0
   -4.6500    5.8538    0.2668 C   0  0  0  0  0  0  0  0  0  0  0  0
   -5.6081    4.8615    0.4280 C   0  0  0  0  0  0  0  0  0  0  0  0
   -5.3000    3.5326    0.1643 C   0  0  0  0  0  0  0  0  0  0  0  0
   -1.6203   -0.8765   -0.0838 C   0  0  0  0  0  0  0  0  0  0  0  0
   -2.8804   -1.5876    0.1670 C   0  0  0  0  0  0  0  0  0  0  0  0
   -2.8411   -2.9713    0.3056 C   0  0  0  0  0  0  0  0  0  0  0  0
   -3.6351   -3.6763    1.1658 C   0  0  0  0  0  0  0  0  0  0  0  0
   -4.4366   -3.0047    2.0476 C   0  0  0  0  0  0  0  0  0  0  0  0
   -4.6359   -1.6666    1.8471 C   0  0  0  0  0  0  0  0  0  0  0  0
   -3.9237   -1.0142    0.8839 C   0  0  0  0  0  0  0  0  0  0  0  0
   -0.3298   -1.3947   -0.1116 C   0  0  0  0  0  0  0  0  0  0  0  0
   -0.0110   -2.7855   -0.3968 C   0  0  0  0  0  0  0  0  0  0  0  0
    0.5230   -3.6474    0.5539 C   0  0  0  0  0  0  0  0  0  0  0  0
    0.4582   -5.0266    0.3930 C   0  0  0  0  0  0  0  0  0  0  0  0
   -0.1348   -5.5319   -0.7576 C   0  0  0  0  0  0  0  0  0  0  0  0
   -0.9107   -6.6555   -0.7379 F   0  0  0  0  0  0  0  0  0  0  0  0
   -0.1084   -4.6829   -1.8580 C   0  0  0  0  0  0  0  0  0  0  0  0
   -0.0334   -3.3055   -1.6868 C   0  0  0  0  0  0  0  0  0  0  0  0
    0.4415   -0.4457    0.4754 N   0  0  0  0  0  0  0  0  0  0  0  0
    1.7658   -0.6632    1.0443 C   0  0  0  0  0  0  0  0  0  0  0  0
    2.7203    0.1141    0.1450 C   0  0  0  0  0  0  0  0  0  0  0  0
    3.9788   -0.9281   -0.1002 C   0  0  2  0  0  0  0  0  0  0  0  0
    4.3845   -0.8461    1.3635 O   0  0  0  0  0  0  0  0  0  0  0  0
    4.9916    0.3069   -0.5195 C   0  0  0  0  0  0  0  0  0  0  0  0
    6.4053   -0.2802    0.1027 C   0  0  2  0  0  0  0  0  0  0  0  0
    6.3542    0.6796    1.2832 O   0  0  0  0  0  0  0  0  0  0  0  0
    7.3140    0.7331   -0.8222 C   0  0  0  0  0  0  0  0  0  0  0  0
    6.9519    2.0993   -0.5482 C   0  0  0  0  0  0  0  0  0  0  0  0
    7.8506    2.9493   -0.8312 O   0  0  0  0  0  0  0  0  0  0  0  0
    5.8080    2.6198   -0.0049 O   0  0  0  0  0  0  0  0  0  0  0  0
  1  2  1  0
  2  3  1  0
  2  4  1  0
  4  5  2  0
  5  6  1  0
  6  7  2  0
  6  8  1  0
  8  9  1  0
  9 10  2  0
 10 11  1  0
 11 12  2  0
 12 13  1  0
 13 14  2  0
  5 15  1  0
 15 16  1  0
 16 17  2  0
 17 18  1  0
 18 19  2  0
 19 20  1  0
 20 21  2  0
 15 22  2  0
 22 23  1  0
 23 24  2  0
 24 25  1  0
 25 26  2  0
 26 27  1  0
 26 28  1  0
 28 29  2  0
 22 30  1  0
 30 31  1  0
 31 32  1  0
 33 32  1  1
 33 34  1  0
 33 35  1  0
 36 35  1  6
 36 37  1  0
 36 38  1  0
 38 39  1  0
 39 40  2  0
 39 41  1  0
 30  4  1  0
 14  9  1  0
 21 16  1  0
 29 23  1  0
M  END
>  <supplier_code>  (921) 
DB01076

>  <zinc_id>  (921) 
ZINC000011615928

>  <catalog_short_name>  (921) 
dbfda

$$$$

     RDKit          3D

 11 10  0  0  0  0  0  0  0  0999 V2000
   -0.0981    1.1304    1.8048 C   0  0  0  0  0  0  0  0  0  0  0  0
    0.0059   -0.0340    0.8631 C   0  0  0  0  0  0  0  0  0  0  0  0
    0.1299   -1.1993    1.5945 O   0  0  0  0  0  0  0  0  0  0  0  0
    1.4474    0.0977   -0.2468 P   0  0  0  0  0  0  0  0  0  0  0  0
    2.7293    0.2332    0.5159 O   0  0  0  0  0  0  0  0  0  0  0  0
    1.4170   -1.3432   -1.1565 O   0  0  0  0  0  0  0  0  0  0  0  0
    1.2031    1.3777   -1.3321 O   0  0  0  0  0  0  0  0  0  0  0  0
   -1.4077   -0.1020   -0.2922 P   0  0  0  0  0  0  0  0  0  0  0  0
   -1.0565   -1.0564   -1.4116 O   0  0  0  0  0  0  0  0  0  0  0  0
   -1.5692    1.4912   -0.8695 O   0  0  0  0  0  0  0  0  0  0  0  0
   -2.8010   -0.5952    0.5304 O   0  0  0  0  0  0  0  0  0  0  0  0
  1  2  1  0
  2  3  1  0
  2  4  1  0
  4  5  2  0
  4  6  1  0
  4  7  1  0
  2  8  1  0
  8  9  2  0
  8 10  1  0
  8 11  1  0
M  END
>  <supplier_code>  (922) 
DB01077

>  <zinc_id>  (922) 
ZINC000003830813

>  <catalog_short_name>  (922) 
dbfda

$$$$

     RDKit          3D

  9  8  0  0  0  0  0  0  0  0999 V2000
   -2.6338   -0.7954   -0.5929 C   0  0  0  0  0  0  0  0  0  0  0  0
   -2.5965    0.0593   -0.4070 C   0  0  0  0  0  0  0  0  0  0  0  0
   -1.4691    0.7862    0.5515 C   0  0  2  0  0  0  0  0  0  0  0  0
   -0.9879    1.7153   -0.6677 N   0  0  0  0  0  0  0  0  0  0  0  0
   -0.3194   -0.3731    0.1671 C   0  0  0  0  0  0  0  0  0  0  0  0
    0.9110    0.3578    0.7002 C   0  0  0  0  0  0  0  0  0  0  0  0
    2.0812   -0.3698    0.1119 C   0  0  0  0  0  0  0  0  0  0  0  0
    2.1360   -1.6039    0.3355 O   0  0  0  0  0  0  0  0  0  0  0  0
    2.8784    0.2239   -0.8530 O   0  0  0  0  0  0  0  0  0  0  0  0
  1  2  2  0
  3  2  1  6
  3  4  1  0
  3  5  1  0
  5  6  1  0
  6  7  1  0
  7  8  2  0
  7  9  1  0
M  END
>  <supplier_code>  (923) 
DB01080

>  <zinc_id>  (923) 
ZINC000000403618

>  <catalog_short_name>  (923) 
dbfda

$$$$

     RDKit          3D

  9  8  0  0  0  0  0  0  0  0999 V2000
    2.6125    0.7150   -0.4938 C   0  0  0  0  0  0  0  0  0  0  0  0
    2.0610   -0.1989   -1.1667 C   0  0  0  0  0  0  0  0  0  0  0  0
    1.0298   -1.1897   -0.3960 C   0  0  1  0  0  0  0  0  0  0  0  0
    1.9341   -1.3549    0.8873 N   0  0  0  0  0  0  0  0  0  0  0  0
    0.1866    0.0651    0.2914 C   0  0  0  0  0  0  0  0  0  0  0  0
   -0.6745    0.1591   -0.9386 C   0  0  0  0  0  0  0  0  0  0  0  0
   -2.0831    0.4707   -0.7367 C   0  0  0  0  0  0  0  0  0  0  0  0
   -2.2615    1.7241   -0.7944 O   0  0  0  0  0  0  0  0  0  0  0  0
   -2.8048   -0.3905    0.0434 O   0  0  0  0  0  0  0  0  0  0  0  0
  1  2  2  0
  3  2  1  6
  3  4  1  0
  3  5  1  0
  5  6  1  0
  6  7  1  0
  7  8  2  0
  7  9  1  0
M  END
>  <supplier_code>  (924) 
DB01080

>  <zinc_id>  (924) 
ZINC000003798750

>  <catalog_short_name>  (924) 
dbfda

$$$$

     RDKit          3D

 34 37  0  0  0  0  0  0  0  0999 V2000
    5.5703    3.5580   -0.7804 C   0  0  0  0  0  0  0  0  0  0  0  0
    5.2090    2.3522   -1.6399 C   0  0  0  0  0  0  0  0  0  0  0  0
    4.4106    1.5175   -0.8370 O   0  0  0  0  0  0  0  0  0  0  0  0
    3.8392    0.3679   -1.3728 C   0  0  0  0  0  0  0  0  0  0  0  0
    4.5583   -0.3037   -2.1722 O   0  0  0  0  0  0  0  0  0  0  0  0
    2.9647   -0.4194   -0.4472 C   0  0  0  0  0  0  0  0  0  0  0  0
    3.8419   -0.8273    0.6909 C   0  0  0  0  0  0  0  0  0  0  0  0
    4.5130    0.1611    1.3705 C   0  0  0  0  0  0  0  0  0  0  0  0
    5.6183   -0.1872    2.1362 C   0  0  0  0  0  0  0  0  0  0  0  0
    6.1453   -1.4633    2.0294 C   0  0  0  0  0  0  0  0  0  0  0  0
    5.2565   -2.4496    1.6367 C   0  0  0  0  0  0  0  0  0  0  0  0
    4.0438   -2.1407    1.0328 C   0  0  0  0  0  0  0  0  0  0  0  0
    2.4459   -1.5881   -1.2273 C   0  0  0  0  0  0  0  0  0  0  0  0
    1.2511   -2.2552   -0.6351 C   0  0  0  0  0  0  0  0  0  0  0  0
    0.2655   -1.4095   -0.0794 N   0  0  0  0  0  0  0  0  0  0  0  0
   -0.9562   -1.2747   -0.7958 C   0  0  0  0  0  0  0  0  0  0  0  0
   -1.4770    0.1325   -0.8876 C   0  0  0  0  0  0  0  0  0  0  0  0
   -2.7399    0.3543   -0.0967 C   0  0  0  0  0  0  0  0  0  0  0  0
   -2.3814    0.8672    1.2374 C   0  0  0  0  0  0  0  0  0  0  0  0
   -2.2840    1.4095    2.2669 N   0  0  0  0  0  0  0  0  0  0  0  0
   -3.6404    1.3309   -0.7875 C   0  0  0  0  0  0  0  0  0  0  0  0
   -4.9233    1.4453   -0.2737 C   0  0  0  0  0  0  0  0  0  0  0  0
   -5.6211    2.6432   -0.2783 C   0  0  0  0  0  0  0  0  0  0  0  0
   -5.0350    3.7421   -0.8598 C   0  0  0  0  0  0  0  0  0  0  0  0
   -3.8543    3.5707   -1.5511 C   0  0  0  0  0  0  0  0  0  0  0  0
   -3.1319    2.4082   -1.4846 C   0  0  0  0  0  0  0  0  0  0  0  0
   -3.5255   -0.9072    0.0493 C   0  0  0  0  0  0  0  0  0  0  0  0
   -3.2592   -1.8108    1.0494 C   0  0  0  0  0  0  0  0  0  0  0  0
   -4.1221   -2.8714    1.2919 C   0  0  0  0  0  0  0  0  0  0  0  0
   -5.4049   -2.8176    0.7694 C   0  0  0  0  0  0  0  0  0  0  0  0
   -5.5647   -2.1105   -0.4041 C   0  0  0  0  0  0  0  0  0  0  0  0
   -4.5741   -1.2228   -0.8059 C   0  0  0  0  0  0  0  0  0  0  0  0
    0.7084   -0.2737    0.6432 C   0  0  0  0  0  0  0  0  0  0  0  0
    1.8532    0.4720    0.0271 C   0  0  0  0  0  0  0  0  0  0  0  0
  1  2  1  0
  2  3  1  0
  3  4  1  0
  4  5  2  0
  4  6  1  0
  6  7  1  0
  7  8  2  0
  8  9  1  0
  9 10  2  0
 10 11  1  0
 11 12  2  0
  6 13  1  0
 13 14  1  0
 14 15  1  0
 15 16  1  0
 16 17  1  0
 17 18  1  0
 18 19  1  0
 19 20  3  0
 18 21  1  0
 21 22  2  0
 22 23  1  0
 23 24  2  0
 24 25  1  0
 25 26  2  0
 18 27  1  0
 27 28  2  0
 28 29  1  0
 29 30  2  0
 30 31  1  0
 31 32  2  0
 15 33  1  0
 33 34  1  0
 34  6  1  0
 12  7  1  0
 26 21  1  0
 32 27  1  0
M  END
>  <supplier_code>  (925) 
DB01081

>  <zinc_id>  (925) 
ZINC000003830716

>  <catalog_short_name>  (925) 
dbfda

$$$$

     RDKit          3D

 40 42  0  0  0  0  0  0  0  0999 V2000
   -4.3732    0.3428    3.0733 C   0  0  0  0  0  0  0  0  0  0  0  0
   -3.7904    0.2500    2.3563 N   0  0  0  0  0  0  0  0  0  0  0  0
   -4.7273   -0.1914    1.2077 C   0  0  1  0  0  0  0  0  0  0  0  0
   -5.3317    1.4048    1.0890 C   0  0  2  0  0  0  0  0  0  0  0  0
   -6.7205    0.9778    1.5068 O   0  0  0  0  0  0  0  0  0  0  0  0
   -5.6967    1.1261   -0.5697 C   0  0  1  0  0  0  0  0  0  0  0  0
   -6.5253    2.3816   -0.6221 O   0  0  0  0  0  0  0  0  0  0  0  0
   -4.2886    2.0007   -1.0945 C   0  0  2  0  0  0  0  0  0  0  0  0
   -3.8122    0.8456   -2.1833 C   0  0  0  0  0  0  0  0  0  0  0  0
   -4.8725    0.1340   -2.5537 O   0  0  0  0  0  0  0  0  0  0  0  0
   -3.4113    1.5048    0.0605 O   0  0  0  0  0  0  0  0  0  0  0  0
   -3.5812   -0.0211   -0.1074 C   0  0  1  0  0  0  0  0  0  0  0  0
   -2.3369   -0.3050    0.7814 O   0  0  0  0  0  0  0  0  0  0  0  0
   -1.4970   -0.5814   -0.4600 C   0  0  1  0  0  0  0  0  0  0  0  0
   -0.0264   -0.9698    0.4444 C   0  0  2  0  0  0  0  0  0  0  0  0
    0.5486    0.4366    0.3312 O   0  0  0  0  0  0  0  0  0  0  0  0
    1.7754    0.4420   -0.5209 C   0  0  1  0  0  0  0  0  0  0  0  0
    2.0605    2.0087    0.1822 C   0  0  2  0  0  0  0  0  0  0  0  0
    1.1881    2.6835   -0.8434 O   0  0  0  0  0  0  0  0  0  0  0  0
    3.4694    2.3172   -0.7487 C   0  0  1  0  0  0  0  0  0  0  0  0
    3.5665    3.6983   -0.1419 O   0  0  0  0  0  0  0  0  0  0  0  0
    4.4316    1.6568    0.5136 C   0  0  2  0  0  0  0  0  0  0  0  0
    5.7611    1.9552   -0.2404 N   0  0  0  0  0  0  0  0  0  0  0  0
    6.9296    1.5938    0.4898 C   0  0  0  0  0  0  0  0  0  0  0  0
    7.0253    2.0612    1.6780 N   0  0  0  0  0  0  0  0  0  0  0  0
    8.1277    1.1264   -0.1239 N   0  0  0  0  0  0  0  0  0  0  0  0
    4.2410    0.1812   -0.3305 C   0  0  1  0  0  0  0  0  0  0  0  0
    5.1789   -0.5725    0.5872 O   0  0  0  0  0  0  0  0  0  0  0  0
    2.8685   -0.2958    0.5955 C   0  0  2  0  0  0  0  0  0  0  0  0
    3.0265   -1.5930   -0.2401 N   0  0  0  0  0  0  0  0  0  0  0  0
    3.6629   -2.7043    0.2712 C   0  0  0  0  0  0  0  0  0  0  0  0
    3.4883   -2.9594    1.5018 N   0  0  0  0  0  0  0  0  0  0  0  0
    3.6991   -3.8394   -0.5987 N   0  0  0  0  0  0  0  0  0  0  0  0
    0.4164   -1.4737   -0.9494 O   0  0  0  0  0  0  0  0  0  0  0  0
   -0.3160   -2.8177   -0.7533 C   0  0  1  0  0  0  0  0  0  0  0  0
    0.0138   -2.9655    0.8945 C   0  0  0  0  0  0  0  0  0  0  0  0
   -1.8212   -2.1718   -0.4916 C   0  0  1  0  0  0  0  0  0  0  0  0
   -2.2923   -2.6166    0.6558 O   0  0  0  0  0  0  0  0  0  0  0  0
   -2.4460   -2.5460   -1.7380 C   0  0  0  0  0  0  0  0  0  0  0  0
   -3.6125   -2.5046   -2.0491 O   0  0  0  0  0  0  0  0  0  0  0  0
  1  2  1  0
  3  2  1  1
  3  4  1  0
  4  5  1  1
  4  6  1  0
  6  7  1  6
  6  8  1  0
  8  9  1  6
  9 10  1  0
  8 11  1  0
 11 12  1  0
 12 13  1  1
 14 13  1  1
 14 15  1  0
 15 16  1  6
 17 16  1  1
 17 18  1  0
 18 19  1  6
 18 20  1  0
 20 21  1  1
 20 22  1  0
 22 23  1  6
 23 24  1  0
 24 25  2  0
 24 26  1  0
 22 27  1  0
 27 28  1  1
 27 29  1  0
 29 30  1  6
 30 31  1  0
 31 32  2  0
 31 33  1  0
 15 34  1  0
 34 35  1  0
 35 36  1  1
 35 37  1  0
 37 38  1  1
 37 39  1  0
 39 40  2  0
 12  3  1  0
 37 14  1  0
 29 17  1  0
M  END
>  <supplier_code>  (926) 
DB01082

>  <zinc_id>  (926) 
ZINC000008214681

>  <catalog_short_name>  (926) 
dbfda

$$$$

     RDKit          3D

 35 35  0  0  0  0  0  0  0  0999 V2000
   -7.6105    3.9245   -1.2168 C   0  0  0  0  0  0  0  0  0  0  0  0
   -6.4434    4.8549   -1.0081 C   0  0  0  0  0  0  0  0  0  0  0  0
   -6.1547    5.0093    0.4793 C   0  0  0  0  0  0  0  0  0  0  0  0
   -5.7172    3.6614    0.9938 C   0  0  0  0  0  0  0  0  0  0  0  0
   -4.2151    3.5366    0.8134 C   0  0  0  0  0  0  0  0  0  0  0  0
   -3.9040    2.1095    0.4643 C   0  0  0  0  0  0  0  0  0  0  0  0
   -2.5990    1.9864   -0.3089 C   0  0  0  0  0  0  0  0  0  0  0  0
   -2.8109    0.8557   -1.3118 C   0  0  0  0  0  0  0  0  0  0  0  0
   -2.5885   -0.4078   -0.4816 C   0  0  0  0  0  0  0  0  0  0  0  0
   -1.2379   -0.1482    0.1891 C   0  0  0  0  0  0  0  0  0  0  0  0
   -0.2764   -0.0500   -0.9461 C   0  0  0  0  0  0  0  0  0  0  0  0
    0.9219   -1.1528   -0.7002 C   0  0  1  0  0  0  0  0  0  0  0  0
    1.2856   -0.5611    0.7905 C   0  0  0  0  0  0  0  0  0  0  0  0
    1.4306    1.0488    0.4965 C   0  0  2  0  0  0  0  0  0  0  0  0
    2.2369    0.8812   -0.7951 O   0  0  0  0  0  0  0  0  0  0  0  0
    3.3660    0.3329   -0.1618 C   0  0  0  0  0  0  0  0  0  0  0  0
    4.3948   -0.2657   -0.4914 O   0  0  0  0  0  0  0  0  0  0  0  0
    2.9914    1.1162    1.1748 C   0  0  1  0  0  0  0  0  0  0  0  0
    3.3178    2.5544    0.4883 C   0  0  0  0  0  0  0  0  0  0  0  0
    2.9641    3.6319    1.4339 C   0  0  0  0  0  0  0  0  0  0  0  0
    3.7504    4.8516    0.9565 C   0  0  0  0  0  0  0  0  0  0  0  0
    5.2213    4.4500    0.9451 C   0  0  0  0  0  0  0  0  0  0  0  0
    5.7873    4.3724   -0.4412 C   0  0  0  0  0  0  0  0  0  0  0  0
    6.4856    3.0484   -0.7195 C   0  0  0  0  0  0  0  0  0  0  0  0
   -0.0524   -2.2073   -0.1532 O   0  0  0  0  0  0  0  0  0  0  0  0
    0.3649   -3.0241    0.8167 C   0  0  0  0  0  0  0  0  0  0  0  0
    1.4146   -2.8325    1.4813 O   0  0  0  0  0  0  0  0  0  0  0  0
   -0.2626   -4.5022    0.9587 C   0  0  2  0  0  0  0  0  0  0  0  0
    0.2942   -4.9907   -0.5151 C   0  0  0  0  0  0  0  0  0  0  0  0
    0.9303   -6.3192   -0.2126 C   0  0  0  0  0  0  0  0  0  0  0  0
    1.8271   -6.1470    0.9905 C   0  0  0  0  0  0  0  0  0  0  0  0
   -0.1396   -7.3482    0.0564 C   0  0  0  0  0  0  0  0  0  0  0  0
   -1.6977   -4.0694    0.4786 N   0  0  0  0  0  0  0  0  0  0  0  0
   -2.0316   -3.9288   -0.8344 C   0  0  0  0  0  0  0  0  0  0  0  0
   -1.2432   -4.2709   -1.7297 O   0  0  0  0  0  0  0  0  0  0  0  0
  1  2  1  0
  2  3  1  0
  3  4  1  0
  4  5  1  0
  5  6  1  0
  6  7  1  0
  7  8  1  0
  8  9  1  0
  9 10  1  0
 10 11  1  0
 12 11  1  6
 12 13  1  0
 14 13  1  1
 14 15  1  0
 15 16  1  0
 16 17  2  0
 16 18  1  0
 18 19  1  6
 19 20  1  0
 20 21  1  0
 21 22  1  0
 22 23  1  0
 23 24  1  0
 12 25  1  0
 25 26  1  0
 26 27  2  0
 28 26  1  6
 28 29  1  0
 29 30  1  0
 30 31  1  0
 30 32  1  0
 28 33  1  0
 33 34  1  0
 34 35  2  0
 18 14  1  0
M  END
>  <supplier_code>  (927) 
DB01083

>  <zinc_id>  (927) 
ZINC000008214635

>  <catalog_short_name>  (927) 
dbfda

$$$$

     RDKit          3D

 22 24  0  0  0  0  0  0  0  0999 V2000
   -2.4195    4.9577   -0.6019 C   0  0  0  0  0  0  0  0  0  0  0  0
   -1.7056    3.8159    0.0628 C   0  0  0  0  0  0  0  0  0  0  0  0
   -2.5546    2.9665    0.7620 O   0  0  0  0  0  0  0  0  0  0  0  0
   -2.4056    1.6380    0.3917 C   0  0  0  0  0  0  0  0  0  0  0  0
   -1.0076    1.1588    0.6642 C   0  0  0  0  0  0  0  0  0  0  0  0
   -0.8940   -0.2375    0.2716 N   0  0  0  0  0  0  0  0  0  0  0  0
   -1.9361   -1.0772    0.1417 C   0  0  0  0  0  0  0  0  0  0  0  0
   -3.1417   -0.8282   -0.5037 C   0  0  0  0  0  0  0  0  0  0  0  0
   -3.9371   -1.9285   -0.7975 C   0  0  0  0  0  0  0  0  0  0  0  0
   -3.5070   -3.1996   -0.4679 C   0  0  0  0  0  0  0  0  0  0  0  0
   -2.1539   -3.4138   -0.3487 C   0  0  0  0  0  0  0  0  0  0  0  0
   -1.3835   -2.3499    0.0978 C   0  0  0  0  0  0  0  0  0  0  0  0
   -0.0574   -2.2047    0.1326 N   0  0  0  0  0  0  0  0  0  0  0  0
    0.2614   -0.9214    0.4088 C   0  0  0  0  0  0  0  0  0  0  0  0
    1.5859   -0.4012    0.2406 N   0  0  0  0  0  0  0  0  0  0  0  0
    1.9097   -0.2176   -1.1664 C   0  0  0  0  0  0  0  0  0  0  0  0
    3.3739    0.0515   -1.3559 C   0  0  0  0  0  0  0  0  0  0  0  0
    3.7392    1.2652   -0.5457 C   0  0  0  0  0  0  0  0  0  0  0  0
    4.2705    0.8965    0.7456 N   0  0  0  0  0  0  0  0  0  0  0  0
    5.7100    0.9797    0.7571 C   0  0  0  0  0  0  0  0  0  0  0  0
    3.8643   -0.4127    1.1737 C   0  0  0  0  0  0  0  0  0  0  0  0
    2.3889   -0.5377    1.4265 C   0  0  0  0  0  0  0  0  0  0  0  0
  1  2  1  0
  2  3  1  0
  3  4  1  0
  4  5  1  0
  5  6  1  0
  6  7  1  0
  7  8  2  0
  8  9  1  0
  9 10  2  0
 10 11  1  0
 11 12  2  0
 12 13  1  0
 13 14  2  0
 14 15  1  0
 15 16  1  0
 16 17  1  0
 17 18  1  0
 18 19  1  0
 19 20  1  0
 19 21  1  0
 21 22  1  0
 14  6  1  0
 22 15  1  0
 12  7  1  0
M  END
>  <supplier_code>  (928) 
DB01084

>  <zinc_id>  (928) 
ZINC000001530912

>  <catalog_short_name>  (928) 
dbfda

$$$$

     RDKit          3D

 15 16  0  0  0  0  0  0  0  0999 V2000
   -3.0894    0.8523    1.6379 C   0  0  0  0  0  0  0  0  0  0  0  0
   -2.0943    0.0969    1.1093 C   0  0  0  0  0  0  0  0  0  0  0  0
   -1.7202    0.7813   -0.3418 C   0  0  2  0  0  0  0  0  0  0  0  0
   -2.6277   -0.2742   -1.1560 C   0  0  0  0  0  0  0  0  0  0  0  0
   -3.7963    0.1386   -1.3636 O   0  0  0  0  0  0  0  0  0  0  0  0
   -2.1886   -1.5004   -0.7917 O   0  0  0  0  0  0  0  0  0  0  0  0
   -1.0245   -1.5260   -0.0431 C   0  0  0  0  0  0  0  0  0  0  0  0
   -0.3060   -0.1732   -0.6083 C   0  0  2  0  0  0  0  0  0  0  0  0
    0.3341    0.2024    0.8509 C   0  0  0  0  0  0  0  0  0  0  0  0
    1.8000   -0.0101    0.6371 C   0  0  0  0  0  0  0  0  0  0  0  0
    2.3796   -1.2286    0.3048 C   0  0  0  0  0  0  0  0  0  0  0  0
    3.6570   -0.9467   -0.0389 N   0  0  0  0  0  0  0  0  0  0  0  0
    3.8281    0.3727   -0.0086 C   0  0  0  0  0  0  0  0  0  0  0  0
    2.6056    0.9314    0.0873 N   0  0  0  0  0  0  0  0  0  0  0  0
    2.2427    2.2835   -0.2753 C   0  0  0  0  0  0  0  0  0  0  0  0
  1  2  1  0
  3  2  1  1
  3  4  1  0
  4  5  2  0
  4  6  1  0
  6  7  1  0
  7  8  1  0
  8  9  1  1
  9 10  1  0
 10 11  2  0
 11 12  1  0
 12 13  2  0
 13 14  1  0
 14 15  1  0
  8  3  1  0
 14 10  1  0
M  END
>  <supplier_code>  (929) 
DB01085

>  <zinc_id>  (929) 
ZINC000000075008

>  <catalog_short_name>  (929) 
dbfda

$$$$

     RDKit          3D

 12 12  0  0  0  0  0  0  0  0999 V2000
    3.0738    1.2641   -0.3902 C   0  0  0  0  0  0  0  0  0  0  0  0
    3.2717    0.2959    0.7404 C   0  0  0  0  0  0  0  0  0  0  0  0
    2.0336   -0.3124    1.0853 O   0  0  0  0  0  0  0  0  0  0  0  0
    1.2484   -0.9714    0.1333 C   0  0  0  0  0  0  0  0  0  0  0  0
    1.8319   -1.1562   -0.9786 O   0  0  0  0  0  0  0  0  0  0  0  0
   -0.2197   -0.9098    0.1720 C   0  0  0  0  0  0  0  0  0  0  0  0
   -0.9669   -1.0016   -0.9984 C   0  0  0  0  0  0  0  0  0  0  0  0
   -2.1127   -0.2377   -1.1955 C   0  0  0  0  0  0  0  0  0  0  0  0
   -2.4413    0.7594   -0.2827 C   0  0  0  0  0  0  0  0  0  0  0  0
   -2.8371    2.0706   -0.6931 N   0  0  0  0  0  0  0  0  0  0  0  0
   -2.0063    0.4885    1.0110 C   0  0  0  0  0  0  0  0  0  0  0  0
   -0.8755   -0.2895    1.2289 C   0  0  0  0  0  0  0  0  0  0  0  0
  1  2  1  0
  2  3  1  0
  3  4  1  0
  4  5  2  0
  4  6  1  0
  6  7  2  0
  7  8  1  0
  8  9  2  0
  9 10  1  0
  9 11  1  0
 11 12  2  0
 12  6  1  0
M  END
>  <supplier_code>  (930) 
DB01086

>  <zinc_id>  (930) 
ZINC000012358719

>  <catalog_short_name>  (930) 
dbfda

$$$$

     RDKit          3D

 19 20  0  0  0  0  0  0  0  0999 V2000
   -1.6078    3.9448    0.4553 C   0  0  0  0  0  0  0  0  0  0  0  0
   -1.8190    3.3391    0.1486 O   0  0  0  0  0  0  0  0  0  0  0  0
   -1.5831    1.9805   -0.0353 C   0  0  0  0  0  0  0  0  0  0  0  0
   -2.6495    1.1552   -0.3750 C   0  0  0  0  0  0  0  0  0  0  0  0
   -2.4898   -0.2099   -0.1706 C   0  0  0  0  0  0  0  0  0  0  0  0
   -3.5598   -1.0810   -0.3491 C   0  0  0  0  0  0  0  0  0  0  0  0
   -3.3557   -2.3673    0.1327 C   0  0  0  0  0  0  0  0  0  0  0  0
   -2.1871   -2.7013    0.7967 C   0  0  0  0  0  0  0  0  0  0  0  0
   -1.1008   -1.9165    0.7130 N   0  0  0  0  0  0  0  0  0  0  0  0
   -1.2476   -0.6750    0.2473 C   0  0  0  0  0  0  0  0  0  0  0  0
   -0.0899    0.0915    0.1711 C   0  0  0  0  0  0  0  0  0  0  0  0
    1.0289   -0.4896   -0.5144 N   0  0  0  0  0  0  0  0  0  0  0  0
    2.0284   -1.2865    0.4413 C   0  0  1  0  0  0  0  0  0  0  0  0
    1.7534   -2.7109   -0.3849 C   0  0  0  0  0  0  0  0  0  0  0  0
    3.3239   -0.9266   -0.5474 C   0  0  0  0  0  0  0  0  0  0  0  0
    3.6374    0.4966   -0.1935 C   0  0  0  0  0  0  0  0  0  0  0  0
    4.6048    0.4405    0.9846 C   0  0  0  0  0  0  0  0  0  0  0  0
    5.6230    1.4501    0.8073 N   0  0  0  0  0  0  0  0  0  0  0  0
   -0.3097    1.4663    0.1897 C   0  0  0  0  0  0  0  0  0  0  0  0
  1  2  1  0
  2  3  1  0
  3  4  2  0
  4  5  1  0
  5  6  2  0
  6  7  1  0
  7  8  2  0
  8  9  1  0
  9 10  2  0
 10 11  1  0
 11 12  1  0
 13 12  1  6
 13 14  1  0
 13 15  1  0
 15 16  1  0
 16 17  1  0
 17 18  1  0
 11 19  2  0
 19  3  1  0
 10  5  1  0
M  END
>  <supplier_code>  (931) 
DB01087

>  <zinc_id>  (931) 
ZINC000001530862

>  <catalog_short_name>  (931) 
dbfda

$$$$

     RDKit          3D

 19 20  0  0  0  0  0  0  0  0999 V2000
   -2.3635   -3.4568   -0.5797 C   0  0  0  0  0  0  0  0  0  0  0  0
   -2.2089   -3.0738   -0.4224 O   0  0  0  0  0  0  0  0  0  0  0  0
   -1.7748   -1.8162    0.0166 C   0  0  0  0  0  0  0  0  0  0  0  0
   -2.7188   -0.9107    0.4840 C   0  0  0  0  0  0  0  0  0  0  0  0
   -2.4945    0.4514    0.3579 C   0  0  0  0  0  0  0  0  0  0  0  0
   -3.4796    1.3937    0.6130 C   0  0  0  0  0  0  0  0  0  0  0  0
   -3.2236    2.6668    0.1155 C   0  0  0  0  0  0  0  0  0  0  0  0
   -2.1594    2.8642   -0.7567 C   0  0  0  0  0  0  0  0  0  0  0  0
   -1.0712    2.0782   -0.5654 N   0  0  0  0  0  0  0  0  0  0  0  0
   -1.2264    0.8174   -0.0823 C   0  0  0  0  0  0  0  0  0  0  0  0
   -0.1805   -0.0980   -0.1470 C   0  0  0  0  0  0  0  0  0  0  0  0
    1.0738    0.4703    0.0213 N   0  0  0  0  0  0  0  0  0  0  0  0
    2.3317   -0.4547    0.1305 C   0  0  2  0  0  0  0  0  0  0  0  0
    1.6302   -1.4809    1.2043 C   0  0  0  0  0  0  0  0  0  0  0  0
    2.9554    0.4559    1.3486 C   0  0  0  0  0  0  0  0  0  0  0  0
    4.4269    0.1641    1.3781 C   0  0  0  0  0  0  0  0  0  0  0  0
    5.0612    1.0757    0.3340 C   0  0  0  0  0  0  0  0  0  0  0  0
    5.9383    0.2509   -0.4595 N   0  0  0  0  0  0  0  0  0  0  0  0
   -0.5163   -1.3974   -0.3790 C   0  0  0  0  0  0  0  0  0  0  0  0
  1  2  1  0
  2  3  1  0
  3  4  2  0
  4  5  1  0
  5  6  2  0
  6  7  1  0
  7  8  2  0
  8  9  1  0
  9 10  2  0
 10 11  1  0
 11 12  1  0
 13 12  1  1
 13 14  1  0
 13 15  1  0
 15 16  1  0
 16 17  1  0
 17 18  1  0
 11 19  2  0
 19  3  1  0
 10  5  1  0
M  END
>  <supplier_code>  (932) 
DB01087

>  <zinc_id>  (932) 
ZINC000001530863

>  <catalog_short_name>  (932) 
dbfda

$$$$

     RDKit          3D

 26 27  0  0  0  0  0  0  0  0999 V2000
    7.5532   -0.2778    4.4056 C   0  0  0  0  0  0  0  0  0  0  0  0
    6.9784   -0.1051    3.8676 C   0  0  0  0  0  0  0  0  0  0  0  0
    6.0807    0.1535    3.1039 C   0  0  0  0  0  0  0  0  0  0  0  0
    5.1685   -0.2045    2.0260 C   0  0  0  0  0  0  0  0  0  0  0  0
    4.6467    1.1764    1.3812 C   0  0  1  0  0  0  0  0  0  0  0  0
    5.0808    0.7413   -0.1161 C   0  0  0  0  0  0  0  0  0  0  0  0
    3.0185    0.6344    1.3162 C   0  0  2  0  0  0  0  0  0  0  0  0
    3.3365   -0.7326    0.7412 O   0  0  0  0  0  0  0  0  0  0  0  0
    2.6955    1.2076   -0.1682 C   0  0  0  0  0  0  0  0  0  0  0  0
    1.4066    1.1732   -0.4588 C   0  0  0  0  0  0  0  0  0  0  0  0
    0.9485    0.7078   -1.9156 C   0  0  1  0  0  0  0  0  0  0  0  0
    1.2136   -0.9237   -1.5473 C   0  0  2  0  0  0  0  0  0  0  0  0
    0.8676   -1.3677   -2.9625 O   0  0  0  0  0  0  0  0  0  0  0  0
   -0.2360   -1.3197   -0.9573 C   0  0  0  0  0  0  0  0  0  0  0  0
   -0.5930    0.0081   -0.1413 C   0  0  2  0  0  0  0  0  0  0  0  0
   -2.2018   -0.2435   -0.2073 C   0  0  0  0  0  0  0  0  0  0  0  0
   -2.3634   -0.7956   -1.5609 C   0  0  0  0  0  0  0  0  0  0  0  0
   -3.3535   -1.6673   -1.7255 C   0  0  0  0  0  0  0  0  0  0  0  0
   -4.6486   -1.0225   -1.8776 C   0  0  0  0  0  0  0  0  0  0  0  0
   -5.0995   -0.0929   -0.8120 C   0  0  0  0  0  0  0  0  0  0  0  0
   -6.6199   -0.1905   -0.8750 C   0  0  0  0  0  0  0  0  0  0  0  0
   -7.1351   -0.6101    0.4408 C   0  0  0  0  0  0  0  0  0  0  0  0
   -6.3271   -0.7950    1.3901 O   0  0  0  0  0  0  0  0  0  0  0  0
   -8.4763   -0.4495    0.6977 O   0  0  0  0  0  0  0  0  0  0  0  0
   -1.2614   -0.3711   -2.4597 C   0  0  0  0  0  0  0  0  0  0  0  0
   -0.6795    0.8526   -1.5853 C   0  0  2  0  0  0  0  0  0  0  0  0
  1  2  1  0
  2  3  3  0
  3  4  1  0
  5  4  1  1
  5  6  1  0
  5  7  1  0
  7  8  1  6
  7  9  1  0
  9 10  2  0
 11 10  1  1
 11 12  1  0
 12 13  1  6
 12 14  1  0
 15 14  1  6
 15 16  1  0
 16 17  1  0
 17 18  2  0
 18 19  1  0
 19 20  1  0
 20 21  1  0
 21 22  1  0
 22 23  2  0
 22 24  1  0
 17 25  1  0
 26 25  1  6
 26 11  1  0
 26 15  1  0
M  END
>  <supplier_code>  (933) 
DB01088

>  <zinc_id>  (933) 
ZINC000003784120

>  <catalog_short_name>  (933) 
dbfda

$$$$

     RDKit          3D

 26 27  0  0  0  0  0  0  0  0999 V2000
    5.5208    2.9203    0.2915 C   0  0  0  0  0  0  0  0  0  0  0  0
    5.7449    1.7435    0.4506 C   0  0  0  0  0  0  0  0  0  0  0  0
    5.9255    0.5357    0.4627 C   0  0  0  0  0  0  0  0  0  0  0  0
    5.9528   -0.9112    0.1958 C   0  0  0  0  0  0  0  0  0  0  0  0
    4.6974   -1.2453   -0.7681 C   0  0  2  0  0  0  0  0  0  0  0  0
    4.9431    0.0173   -1.7459 C   0  0  0  0  0  0  0  0  0  0  0  0
    3.6356   -0.3611    0.2364 C   0  0  2  0  0  0  0  0  0  0  0  0
    3.3456   -1.5899    1.0861 O   0  0  0  0  0  0  0  0  0  0  0  0
    2.3028   -0.6166   -0.6619 C   0  0  0  0  0  0  0  0  0  0  0  0
    1.4744    0.4343   -0.8266 C   0  0  0  0  0  0  0  0  0  0  0  0
   -0.0875    0.1654   -0.5013 C   0  0  1  0  0  0  0  0  0  0  0  0
   -0.0028   -1.3339   -1.3095 C   0  0  2  0  0  0  0  0  0  0  0  0
   -1.4720   -1.2137   -1.8745 O   0  0  0  0  0  0  0  0  0  0  0  0
   -0.5298   -2.3199   -0.1175 C   0  0  0  0  0  0  0  0  0  0  0  0
   -0.9992   -1.4521    1.1354 C   0  0  2  0  0  0  0  0  0  0  0  0
   -2.0096   -0.4950    0.3148 C   0  0  0  0  0  0  0  0  0  0  0  0
   -1.8759    0.7374    0.9540 C   0  0  0  0  0  0  0  0  0  0  0  0
   -2.7991    1.6633    0.7689 C   0  0  0  0  0  0  0  0  0  0  0  0
   -3.4835    1.8863   -0.5164 C   0  0  0  0  0  0  0  0  0  0  0  0
   -4.3235    0.8486   -1.0926 C   0  0  0  0  0  0  0  0  0  0  0  0
   -5.0640   -0.1138   -0.3091 C   0  0  0  0  0  0  0  0  0  0  0  0
   -6.4810    0.1128   -0.0515 C   0  0  0  0  0  0  0  0  0  0  0  0
   -7.3553   -0.6938   -0.4282 O   0  0  0  0  0  0  0  0  0  0  0  0
   -6.7793    0.8602    1.0884 O   0  0  0  0  0  0  0  0  0  0  0  0
   -0.5741    0.8049    1.6632 C   0  0  0  0  0  0  0  0  0  0  0  0
    0.2939   -0.3839    1.0129 C   0  0  2  0  0  0  0  0  0  0  0  0
  1  2  1  0
  2  3  3  0
  3  4  1  0
  5  4  1  1
  5  6  1  0
  5  7  1  0
  7  8  1  1
  7  9  1  0
  9 10  2  0
 11 10  1  6
 11 12  1  0
 12 13  1  6
 12 14  1  0
 15 14  1  6
 15 16  1  0
 16 17  1  0
 17 18  2  0
 18 19  1  0
 19 20  1  0
 20 21  1  0
 21 22  1  0
 22 23  2  0
 22 24  1  0
 17 25  1  0
 26 25  1  1
 26 11  1  0
 26 15  1  0
M  END
>  <supplier_code>  (934) 
DB01088

>  <zinc_id>  (934) 
ZINC000013587680

>  <catalog_short_name>  (934) 
dbfda

$$$$

     RDKit          3D

 35 37  0  0  0  0  0  0  0  0999 V2000
   -7.6437    3.6826    1.8915 C   0  0  0  0  0  0  0  0  0  0  0  0
   -7.8785    2.9127    1.3194 C   0  0  0  0  0  0  0  0  0  0  0  0
   -8.1603    1.8816    0.7255 C   0  0  0  0  0  0  0  0  0  0  0  0
   -8.4599    0.6578    0.0344 C   0  0  0  0  0  0  0  0  0  0  0  0
   -7.4136    0.3610   -1.1545 C   0  0  1  0  0  0  0  0  0  0  0  0
   -6.6271    1.7777   -1.1005 C   0  0  0  0  0  0  0  0  0  0  0  0
   -6.3200   -0.3710   -0.0480 C   0  0  1  0  0  0  0  0  0  0  0  0
   -6.6327   -1.7452   -0.6271 O   0  0  0  0  0  0  0  0  0  0  0  0
   -5.1113   -0.1830   -1.1217 C   0  0  0  0  0  0  0  0  0  0  0  0
   -4.0036    0.1233   -0.6233 C   0  0  0  0  0  0  0  0  0  0  0  0
   -2.8733   -1.0077   -0.6983 C   0  0  1  0  0  0  0  0  0  0  0  0
   -1.7694    0.1135   -1.2719 C   0  0  2  0  0  0  0  0  0  0  0  0
   -0.9044   -1.1745   -1.1166 C   0  0  0  0  0  0  0  0  0  0  0  0
   -0.8245   -0.2564   -0.0183 C   0  0  0  0  0  0  0  0  0  0  0  0
    0.4433    0.0049    0.2492 C   0  0  0  0  0  0  0  0  0  0  0  0
    1.4382   -0.1037   -0.7649 C   0  0  0  0  0  0  0  0  0  0  0  0
    2.6814   -0.4379   -0.2615 C   0  0  0  0  0  0  0  0  0  0  0  0
    2.7117   -1.8815   -0.7836 C   0  0  0  0  0  0  0  0  0  0  0  0
    4.1246   -2.0366   -1.0826 C   0  0  0  0  0  0  0  0  0  0  0  0
    4.4303   -2.3205   -2.2709 O   0  0  0  0  0  0  0  0  0  0  0  0
    5.0304   -2.5297   -0.1409 O   0  0  0  0  0  0  0  0  0  0  0  0
    6.3275   -1.9401   -0.2439 C   0  0  0  0  0  0  0  0  0  0  0  0
    6.3333   -0.8546    0.7906 C   0  0  0  0  0  0  0  0  0  0  0  0
    5.7707   -1.1162    1.8955 O   0  0  0  0  0  0  0  0  0  0  0  0
    6.8306    0.4626    0.4581 C   0  0  0  0  0  0  0  0  0  0  0  0
    6.6971    0.9987   -0.8160 C   0  0  0  0  0  0  0  0  0  0  0  0
    7.4495    2.1090   -1.1728 C   0  0  0  0  0  0  0  0  0  0  0  0
    8.2366    2.7652   -0.2452 C   0  0  0  0  0  0  0  0  0  0  0  0
    8.1381    2.3974    1.0849 C   0  0  0  0  0  0  0  0  0  0  0  0
    7.3037    1.3440    1.4198 C   0  0  0  0  0  0  0  0  0  0  0  0
   -2.1862    0.4242    0.6345 C   0  0  0  0  0  0  0  0  0  0  0  0
   -1.1006    0.6725    0.2550 C   0  0  1  0  0  0  0  0  0  0  0  0
   -0.9984   -0.9891    0.9024 C   0  0  0  0  0  0  0  0  0  0  0  0
   -2.6023   -1.1128    0.9773 C   0  0  2  0  0  0  0  0  0  0  0  0
   -2.4370   -2.6281    0.9679 O   0  0  0  0  0  0  0  0  0  0  0  0
  1  2  1  0
  2  3  3  0
  3  4  1  0
  5  4  1  1
  5  6  1  0
  5  7  1  0
  7  8  1  6
  7  9  1  0
  9 10  2  0
 11 10  1  1
 11 12  1  0
 12 13  1  6
 13 14  1  0
 14 15  2  0
 15 16  1  0
 16 17  1  0
 17 18  1  0
 18 19  1  0
 19 20  2  0
 19 21  1  0
 21 22  1  0
 22 23  1  0
 23 24  2  0
 23 25  1  0
 25 26  2  0
 26 27  1  0
 27 28  2  0
 28 29  1  0
 29 30  2  0
 14 31  1  0
 32 31  1  1
 32 33  1  0
 33 34  1  0
 34 35  1  6
 34 11  1  0
 32 12  1  0
 30 25  1  0
M  END
>  <supplier_code>  (935) 
DB01088

>  <zinc_id>  (935) 
ZINC000100052681

>  <catalog_short_name>  (935) 
dbfda

$$$$

     RDKit          3D

 35 37  0  0  0  0  0  0  0  0999 V2000
   -7.0277   -0.4612   -3.4727 C   0  0  0  0  0  0  0  0  0  0  0  0
   -7.8705   -0.1222   -2.3246 C   0  0  0  0  0  0  0  0  0  0  0  0
   -8.1333    0.0054   -1.1408 C   0  0  0  0  0  0  0  0  0  0  0  0
   -8.4430   -0.0033    0.3056 C   0  0  0  0  0  0  0  0  0  0  0  0
   -7.2665   -0.8973    0.9799 C   0  0  2  0  0  0  0  0  0  0  0  0
   -7.8748   -0.7605    2.4682 C   0  0  0  0  0  0  0  0  0  0  0  0
   -6.2391    0.4718    0.9605 C   0  0  1  0  0  0  0  0  0  0  0  0
   -6.1307    0.6710    2.4577 O   0  0  0  0  0  0  0  0  0  0  0  0
   -4.9416   -0.4733    0.8815 C   0  0  0  0  0  0  0  0  0  0  0  0
   -4.3651   -1.0250    1.8730 C   0  0  0  0  0  0  0  0  0  0  0  0
   -2.7519   -1.0054    1.9280 C   0  0  1  0  0  0  0  0  0  0  0  0
   -2.5009   -0.7557    0.3003 C   0  0  2  0  0  0  0  0  0  0  0  0
   -1.0108   -1.3862    0.0971 C   0  0  0  0  0  0  0  0  0  0  0  0
   -0.5313   -0.4046   -0.9813 C   0  0  0  0  0  0  0  0  0  0  0  0
    0.8186   -0.2683   -0.9518 C   0  0  0  0  0  0  0  0  0  0  0  0
    1.5467    0.3911    0.1884 C   0  0  0  0  0  0  0  0  0  0  0  0
    1.8231   -0.8212    1.0782 C   0  0  0  0  0  0  0  0  0  0  0  0
    2.8629   -1.4062    0.0897 C   0  0  0  0  0  0  0  0  0  0  0  0
    3.7914   -0.3030   -0.3108 C   0  0  0  0  0  0  0  0  0  0  0  0
    3.9772    0.5161    0.6537 O   0  0  0  0  0  0  0  0  0  0  0  0
    3.7177    0.4379   -1.4971 O   0  0  0  0  0  0  0  0  0  0  0  0
    4.8411    1.2884   -1.8014 C   0  0  0  0  0  0  0  0  0  0  0  0
    5.9762    0.3236   -1.9220 C   0  0  0  0  0  0  0  0  0  0  0  0
    5.6954   -0.6389   -2.7176 O   0  0  0  0  0  0  0  0  0  0  0  0
    7.1842    0.4551   -1.1537 C   0  0  0  0  0  0  0  0  0  0  0  0
    7.2821    0.3469    0.2070 C   0  0  0  0  0  0  0  0  0  0  0  0
    8.4208    0.4516    0.9501 C   0  0  0  0  0  0  0  0  0  0  0  0
    9.5914    0.1927    0.2778 C   0  0  0  0  0  0  0  0  0  0  0  0
    9.5964    0.2635   -1.1078 C   0  0  0  0  0  0  0  0  0  0  0  0
    8.3856    0.3369   -1.8166 C   0  0  0  0  0  0  0  0  0  0  0  0
   -1.5861    0.7147   -1.0815 C   0  0  0  0  0  0  0  0  0  0  0  0
   -1.5782    0.6305    0.5565 C   0  0  1  0  0  0  0  0  0  0  0  0
   -2.9608    1.3108    0.9287 C   0  0  0  0  0  0  0  0  0  0  0  0
   -2.8938    0.6144    2.4196 C   0  0  2  0  0  0  0  0  0  0  0  0
   -1.4050    0.7405    2.6781 O   0  0  0  0  0  0  0  0  0  0  0  0
  1  2  1  0
  2  3  3  0
  3  4  1  0
  5  4  1  6
  5  6  1  0
  5  7  1  0
  7  8  1  1
  7  9  1  0
  9 10  2  0
 11 10  1  6
 11 12  1  0
 12 13  1  1
 13 14  1  0
 14 15  2  0
 15 16  1  0
 16 17  1  0
 17 18  1  0
 18 19  1  0
 19 20  2  0
 19 21  1  0
 21 22  1  0
 22 23  1  0
 23 24  2  0
 23 25  1  0
 25 26  2  0
 26 27  1  0
 27 28  2  0
 28 29  1  0
 29 30  2  0
 14 31  1  0
 32 31  1  6
 32 33  1  0
 33 34  1  0
 34 35  1  6
 34 11  1  0
 32 12  1  0
 30 25  1  0
M  END
>  <supplier_code>  (936) 
DB01088

>  <zinc_id>  (936) 
ZINC000100052685

>  <catalog_short_name>  (936) 
dbfda

$$$$

     RDKit          3D

 35 37  0  0  0  0  0  0  0  0999 V2000
    6.6105    5.4602    0.1438 C   0  0  0  0  0  0  0  0  0  0  0  0
    7.1889    4.2102    0.5375 C   0  0  0  0  0  0  0  0  0  0  0  0
    7.2509    3.0035    0.6817 C   0  0  0  0  0  0  0  0  0  0  0  0
    7.4661    1.5471    0.6284 C   0  0  0  0  0  0  0  0  0  0  0  0
    6.3368    0.9521   -0.3663 C   0  0  1  0  0  0  0  0  0  0  0  0
    7.4421    0.6025   -1.4958 C   0  0  0  0  0  0  0  0  0  0  0  0
    6.4059   -0.5989    0.3543 C   0  0  2  0  0  0  0  0  0  0  0  0
    6.0886   -1.2882   -0.9558 O   0  0  0  0  0  0  0  0  0  0  0  0
    4.8414   -0.5933    0.7818 C   0  0  0  0  0  0  0  0  0  0  0  0
    4.5120   -1.7706    1.1955 C   0  0  0  0  0  0  0  0  0  0  0  0
    3.0076   -2.2606    1.3221 C   0  0  1  0  0  0  0  0  0  0  0  0
    2.4653   -1.2775    0.1012 C   0  0  2  0  0  0  0  0  0  0  0  0
    1.0965   -0.7313    0.7655 C   0  0  0  0  0  0  0  0  0  0  0  0
    0.2536   -0.8034   -0.4901 C   0  0  0  0  0  0  0  0  0  0  0  0
   -0.8943   -1.4420   -0.3684 C   0  0  0  0  0  0  0  0  0  0  0  0
   -1.7796   -1.7230    0.7198 C   0  0  0  0  0  0  0  0  0  0  0  0
   -1.8063   -0.7766    1.8634 C   0  0  0  0  0  0  0  0  0  0  0  0
   -2.2060    0.5233    1.2275 C   0  0  0  0  0  0  0  0  0  0  0  0
   -3.2741    0.4511    0.2615 C   0  0  0  0  0  0  0  0  0  0  0  0
   -3.5489   -0.4190   -0.5812 O   0  0  0  0  0  0  0  0  0  0  0  0
   -3.7409    1.7280   -0.0984 O   0  0  0  0  0  0  0  0  0  0  0  0
   -4.6637    1.9464   -1.1427 C   0  0  0  0  0  0  0  0  0  0  0  0
   -5.9463    2.2771   -0.4485 C   0  0  0  0  0  0  0  0  0  0  0  0
   -5.8325    3.0927    0.5157 O   0  0  0  0  0  0  0  0  0  0  0  0
   -7.0713    1.3641   -0.4998 C   0  0  0  0  0  0  0  0  0  0  0  0
   -7.0220    0.0601   -0.8874 C   0  0  0  0  0  0  0  0  0  0  0  0
   -7.7106   -0.8710   -0.1149 C   0  0  0  0  0  0  0  0  0  0  0  0
   -8.8769   -0.4529    0.4828 C   0  0  0  0  0  0  0  0  0  0  0  0
   -9.2418    0.8818    0.3442 C   0  0  0  0  0  0  0  0  0  0  0  0
   -8.2724    1.8168    0.0111 C   0  0  0  0  0  0  0  0  0  0  0  0
    1.0803   -1.4315   -1.6134 C   0  0  0  0  0  0  0  0  0  0  0  0
    1.5203   -2.5327   -0.4914 C   0  0  1  0  0  0  0  0  0  0  0  0
    2.9222   -3.0362   -1.0856 C   0  0  0  0  0  0  0  0  0  0  0  0
    3.3675   -3.6284    0.3755 C   0  0  2  0  0  0  0  0  0  0  0  0
    2.0314   -4.2799    0.6850 O   0  0  0  0  0  0  0  0  0  0  0  0
  1  2  1  0
  2  3  3  0
  3  4  1  0
  5  4  1  1
  5  6  1  0
  5  7  1  0
  7  8  1  6
  7  9  1  0
  9 10  2  0
 11 10  1  6
 11 12  1  0
 12 13  1  1
 13 14  1  0
 14 15  2  0
 15 16  1  0
 16 17  1  0
 17 18  1  0
 18 19  1  0
 19 20  2  0
 19 21  1  0
 21 22  1  0
 22 23  1  0
 23 24  2  0
 23 25  1  0
 25 26  2  0
 26 27  1  0
 27 28  2  0
 28 29  1  0
 29 30  2  0
 14 31  1  0
 32 31  1  6
 32 33  1  0
 33 34  1  0
 34 35  1  1
 34 11  1  0
 32 12  1  0
 30 25  1  0
M  END
>  <supplier_code>  (937) 
DB01088

>  <zinc_id>  (937) 
ZINC000100052688

>  <catalog_short_name>  (937) 
dbfda

$$$$

     RDKit          3D

 35 37  0  0  0  0  0  0  0  0999 V2000
   -9.9286    4.3757    0.2509 C   0  0  0  0  0  0  0  0  0  0  0  0
   -8.8802    3.7381   -0.5608 C   0  0  0  0  0  0  0  0  0  0  0  0
   -7.9055    3.1303   -0.8906 C   0  0  0  0  0  0  0  0  0  0  0  0
   -6.5457    2.6649   -1.1142 C   0  0  0  0  0  0  0  0  0  0  0  0
   -5.9729    2.0825    0.2833 C   0  0  2  0  0  0  0  0  0  0  0  0
   -4.4532    2.1303   -0.2715 C   0  0  0  0  0  0  0  0  0  0  0  0
   -6.3782    0.4899   -0.2213 C   0  0  2  0  0  0  0  0  0  0  0  0
   -6.8065    0.1288    1.1917 O   0  0  0  0  0  0  0  0  0  0  0  0
   -4.9214   -0.1756   -0.0106 C   0  0  0  0  0  0  0  0  0  0  0  0
   -4.4485   -0.7291   -1.0985 C   0  0  0  0  0  0  0  0  0  0  0  0
   -3.3497   -1.8705   -1.0260 C   0  0  1  0  0  0  0  0  0  0  0  0
   -2.4661   -1.1050    0.1629 C   0  0  2  0  0  0  0  0  0  0  0  0
   -1.1298   -0.8296   -0.6848 C   0  0  0  0  0  0  0  0  0  0  0  0
   -0.2146   -1.1048    0.4802 C   0  0  0  0  0  0  0  0  0  0  0  0
    0.7814   -0.2639    0.7922 C   0  0  0  0  0  0  0  0  0  0  0  0
    1.5385    0.1751   -0.4280 C   0  0  0  0  0  0  0  0  0  0  0  0
    1.9179   -1.1180   -1.1420 C   0  0  0  0  0  0  0  0  0  0  0  0
    2.6203   -2.0355   -0.1735 C   0  0  0  0  0  0  0  0  0  0  0  0
    3.8464   -1.3568    0.3216 C   0  0  0  0  0  0  0  0  0  0  0  0
    3.9655   -0.1056    0.1819 O   0  0  0  0  0  0  0  0  0  0  0  0
    4.7753   -1.9435    1.1546 O   0  0  0  0  0  0  0  0  0  0  0  0
    6.0233   -1.3065    1.4180 C   0  0  0  0  0  0  0  0  0  0  0  0
    6.3630   -0.4265    0.2571 C   0  0  0  0  0  0  0  0  0  0  0  0
    6.5210   -1.0292   -0.8467 O   0  0  0  0  0  0  0  0  0  0  0  0
    7.2566    0.7276    0.4905 C   0  0  0  0  0  0  0  0  0  0  0  0
    8.5946    0.4620    0.4568 C   0  0  0  0  0  0  0  0  0  0  0  0
    9.4521    1.5510    0.5360 C   0  0  0  0  0  0  0  0  0  0  0  0
    9.0106    2.8685    0.4983 C   0  0  0  0  0  0  0  0  0  0  0  0
    7.6468    3.1314    0.3432 C   0  0  0  0  0  0  0  0  0  0  0  0
    6.8291    2.0292    0.3857 C   0  0  0  0  0  0  0  0  0  0  0  0
   -0.8934   -1.9346    1.5431 C   0  0  0  0  0  0  0  0  0  0  0  0
   -1.8322   -2.6523    0.4247 C   0  0  1  0  0  0  0  0  0  0  0  0
   -3.1655   -2.8064    1.3126 C   0  0  0  0  0  0  0  0  0  0  0  0
   -4.2445   -2.8213    0.0760 C   0  0  2  0  0  0  0  0  0  0  0  0
   -3.6057   -4.0706   -0.5043 O   0  0  0  0  0  0  0  0  0  0  0  0
  1  2  1  0
  2  3  3  0
  3  4  1  0
  5  4  1  6
  5  6  1  0
  5  7  1  0
  7  8  1  1
  7  9  1  0
  9 10  2  0
 11 10  1  1
 11 12  1  0
 12 13  1  6
 13 14  1  0
 14 15  2  0
 15 16  1  0
 16 17  1  0
 17 18  1  0
 18 19  1  0
 19 20  2  0
 19 21  1  0
 21 22  1  0
 22 23  1  0
 23 24  2  0
 23 25  1  0
 25 26  2  0
 26 27  1  0
 27 28  2  0
 28 29  1  0
 29 30  2  0
 14 31  1  0
 32 31  1  1
 32 33  1  0
 33 34  1  0
 34 35  1  6
 34 11  1  0
 32 12  1  0
 30 25  1  0
M  END
>  <supplier_code>  (938) 
DB01088

>  <zinc_id>  (938) 
ZINC000100052691

>  <catalog_short_name>  (938) 
dbfda

$$$$

     RDKit          3D

 24 26  0  0  0  0  0  0  0  0999 V2000
   -1.5591   -1.6347   -1.1390 C   0  0  0  0  0  0  0  0  0  0  0  0
   -0.5166   -1.2536   -0.2063 N   0  0  0  0  0  0  0  0  0  0  0  0
    0.4173   -0.4296   -0.9269 C   0  0  0  0  0  0  0  0  0  0  0  0
    1.8395   -0.7905   -0.6422 C   0  0  0  0  0  0  0  0  0  0  0  0
    2.3427   -0.8283    0.6526 C   0  0  0  0  0  0  0  0  0  0  0  0
    3.6277   -0.3621    0.8917 C   0  0  0  0  0  0  0  0  0  0  0  0
    4.4482    0.0973   -0.1313 C   0  0  0  0  0  0  0  0  0  0  0  0
    5.5588    1.0469    0.0854 C   0  0  0  0  0  0  0  0  0  0  0  0
    5.3407    1.8079    1.3700 C   0  0  0  0  0  0  0  0  0  0  0  0
    6.8425    0.2396    0.1303 C   0  0  0  0  0  0  0  0  0  0  0  0
    5.5920    1.9883   -1.1125 C   0  0  0  0  0  0  0  0  0  0  0  0
    4.0693   -0.3077   -1.4060 C   0  0  0  0  0  0  0  0  0  0  0  0
    2.8024   -0.8269   -1.6439 C   0  0  0  0  0  0  0  0  0  0  0  0
   -1.0523   -0.5902    0.9625 C   0  0  0  0  0  0  0  0  0  0  0  0
   -2.5415   -0.7056    1.0397 C   0  0  0  0  0  0  0  0  0  0  0  0
   -3.1426   -1.9080    1.3366 C   0  0  0  0  0  0  0  0  0  0  0  0
   -4.3542   -2.2254    0.7417 C   0  0  0  0  0  0  0  0  0  0  0  0
   -5.1579   -1.1513    0.4090 C   0  0  0  0  0  0  0  0  0  0  0  0
   -4.5972    0.0459   -0.0023 C   0  0  0  0  0  0  0  0  0  0  0  0
   -5.4546    1.1276   -0.0787 C   0  0  0  0  0  0  0  0  0  0  0  0
   -4.9291    2.3885   -0.3184 C   0  0  0  0  0  0  0  0  0  0  0  0
   -3.5719    2.5535   -0.1909 C   0  0  0  0  0  0  0  0  0  0  0  0
   -2.7378    1.4784    0.0401 C   0  0  0  0  0  0  0  0  0  0  0  0
   -3.2664    0.2399    0.3353 C   0  0  0  0  0  0  0  0  0  0  0  0
  1  2  1  0
  2  3  1  0
  3  4  1  0
  4  5  2  0
  5  6  1  0
  6  7  2  0
  7  8  1  0
  8  9  1  0
  8 10  1  0
  8 11  1  0
  7 12  1  0
 12 13  2  0
  2 14  1  0
 14 15  1  0
 15 16  2  0
 16 17  1  0
 17 18  2  0
 18 19  1  0
 19 20  2  0
 20 21  1  0
 21 22  2  0
 22 23  1  0
 23 24  2  0
 13  4  1  0
 24 15  1  0
 24 19  1  0
M  END
>  <supplier_code>  (939) 
DB01091

>  <zinc_id>  (939) 
ZINC000001530975

>  <catalog_short_name>  (939) 
dbfda

$$$$

     RDKit          3D

  4  3  0  0  0  0  0  0  0  0999 V2000
    1.5236   -0.6999   -0.1350 C   0  0  0  0  0  0  0  0  0  0  0  0
    0.0103    0.0805    0.4259 S   0  0  0  0  0  0  0  0  0  0  0  0
   -1.4234   -0.8592   -0.1289 C   0  0  0  0  0  0  0  0  0  0  0  0
   -0.1106    1.4785   -0.1620 O   0  0  0  0  0  0  0  0  0  0  0  0
  1  2  1  0
  2  3  1  0
  2  4  2  0
M  END
>  <supplier_code>  (940) 
DB01093

>  <zinc_id>  (940) 
ZINC000005224188

>  <catalog_short_name>  (940) 
dbfda

$$$$

     RDKit          3D

 30 32  0  0  0  0  0  0  0  0999 V2000
   -0.2108   -2.9384    0.3949 C   0  0  0  0  0  0  0  0  0  0  0  0
   -0.5532   -2.9197    0.6181 C   0  0  0  0  0  0  0  0  0  0  0  0
   -0.1865   -2.7246    2.0745 C   0  0  0  0  0  0  0  0  0  0  0  0
   -1.5019   -1.9253    0.1469 N   0  0  0  0  0  0  0  0  0  0  0  0
   -1.2544   -0.7791   -0.5273 C   0  0  0  0  0  0  0  0  0  0  0  0
   -0.0684   -0.5264   -1.3230 C   0  0  0  0  0  0  0  0  0  0  0  0
    1.0242    0.0851   -0.8993 C   0  0  0  0  0  0  0  0  0  0  0  0
    2.3970   -0.5363   -1.5542 C   0  0  2  0  0  0  0  0  0  0  0  0
    2.5914   -1.4703   -0.3453 O   0  0  0  0  0  0  0  0  0  0  0  0
    3.3380    0.6665   -0.8695 C   0  0  0  0  0  0  0  0  0  0  0  0
    4.6341   -0.2776   -0.4113 C   0  0  2  0  0  0  0  0  0  0  0  0
    4.2822   -0.1104    1.0748 O   0  0  0  0  0  0  0  0  0  0  0  0
    5.6621    1.0312   -0.3594 C   0  0  0  0  0  0  0  0  0  0  0  0
    6.9112    0.3907    0.1498 C   0  0  0  0  0  0  0  0  0  0  0  0
    7.9153    1.1179    0.3516 O   0  0  0  0  0  0  0  0  0  0  0  0
    7.0426   -0.9511    0.4197 O   0  0  0  0  0  0  0  0  0  0  0  0
   -2.3437    0.0440   -0.3454 C   0  0  0  0  0  0  0  0  0  0  0  0
   -2.2979    1.5003   -0.3703 C   0  0  0  0  0  0  0  0  0  0  0  0
   -2.1894    2.1826    0.8243 C   0  0  0  0  0  0  0  0  0  0  0  0
   -2.0316    3.5370    0.8379 C   0  0  0  0  0  0  0  0  0  0  0  0
   -1.8534    4.2571   -0.3227 C   0  0  0  0  0  0  0  0  0  0  0  0
   -2.0980    5.5788   -0.2934 F   0  0  0  0  0  0  0  0  0  0  0  0
   -1.8125    3.5315   -1.4997 C   0  0  0  0  0  0  0  0  0  0  0  0
   -2.3320    2.2478   -1.5237 C   0  0  0  0  0  0  0  0  0  0  0  0
   -3.3297   -0.7637    0.1984 C   0  0  0  0  0  0  0  0  0  0  0  0
   -4.6949   -0.5494    0.2969 C   0  0  0  0  0  0  0  0  0  0  0  0
   -5.5470   -1.6292    0.3945 C   0  0  0  0  0  0  0  0  0  0  0  0
   -5.0083   -2.9069    0.4806 C   0  0  0  0  0  0  0  0  0  0  0  0
   -3.6577   -3.1215    0.5422 C   0  0  0  0  0  0  0  0  0  0  0  0
   -2.8267   -2.0407    0.3455 C   0  0  0  0  0  0  0  0  0  0  0  0
  1  2  1  0
  2  3  1  0
  2  4  1  0
  4  5  1  0
  5  6  1  0
  6  7  2  0
  8  7  1  1
  8  9  1  0
  8 10  1  0
 11 10  1  6
 11 12  1  0
 11 13  1  0
 13 14  1  0
 14 15  2  0
 14 16  1  0
  5 17  2  0
 17 18  1  0
 18 19  2  0
 19 20  1  0
 20 21  2  0
 21 22  1  0
 21 23  1  0
 23 24  2  0
 17 25  1  0
 25 26  2  0
 26 27  1  0
 27 28  2  0
 28 29  1  0
 29 30  2  0
 30  4  1  0
 24 18  1  0
 30 25  1  0
M  END
>  <supplier_code>  (941) 
DB01095

>  <zinc_id>  (941) 
ZINC000001530639

>  <catalog_short_name>  (941) 
dbfda

$$$$

     RDKit          3D

 30 32  0  0  0  0  0  0  0  0999 V2000
    0.6854    0.7387    3.2310 C   0  0  0  0  0  0  0  0  0  0  0  0
   -0.5741    0.2172    3.3816 C   0  0  0  0  0  0  0  0  0  0  0  0
   -1.4653    1.3289    3.9296 C   0  0  0  0  0  0  0  0  0  0  0  0
   -1.1701   -0.2646    2.1463 N   0  0  0  0  0  0  0  0  0  0  0  0
   -0.5941   -0.1775    0.9419 C   0  0  0  0  0  0  0  0  0  0  0  0
    0.8329   -0.0772    0.6028 C   0  0  0  0  0  0  0  0  0  0  0  0
    1.3725   -1.1485    0.1134 C   0  0  0  0  0  0  0  0  0  0  0  0
    2.8685   -0.9538   -0.5699 C   0  0  1  0  0  0  0  0  0  0  0  0
    2.4694    0.3748   -1.2781 O   0  0  0  0  0  0  0  0  0  0  0  0
    3.4708   -0.1318    0.7753 C   0  0  0  0  0  0  0  0  0  0  0  0
    5.0197   -0.7950    0.8010 C   0  0  1  0  0  0  0  0  0  0  0  0
    4.4961   -2.2356    0.5752 O   0  0  0  0  0  0  0  0  0  0  0  0
    5.2435   -0.5432   -0.8484 C   0  0  0  0  0  0  0  0  0  0  0  0
    5.8289    0.8276   -0.8450 C   0  0  0  0  0  0  0  0  0  0  0  0
    5.5720    1.6132   -1.7920 O   0  0  0  0  0  0  0  0  0  0  0  0
    6.6002    1.3320    0.1745 O   0  0  0  0  0  0  0  0  0  0  0  0
   -1.6325   -0.1049    0.0215 C   0  0  0  0  0  0  0  0  0  0  0  0
   -1.6048    0.4511   -1.3370 C   0  0  0  0  0  0  0  0  0  0  0  0
   -1.4158   -0.3595   -2.4517 C   0  0  0  0  0  0  0  0  0  0  0  0
   -2.0716   -0.1268   -3.6336 C   0  0  0  0  0  0  0  0  0  0  0  0
   -2.9464    0.9290   -3.7745 C   0  0  0  0  0  0  0  0  0  0  0  0
   -3.3942    1.2710   -5.0184 F   0  0  0  0  0  0  0  0  0  0  0  0
   -2.8610    1.9216   -2.8085 C   0  0  0  0  0  0  0  0  0  0  0  0
   -2.3319    1.6087   -1.5637 C   0  0  0  0  0  0  0  0  0  0  0  0
   -2.7792   -0.5950    0.6277 C   0  0  0  0  0  0  0  0  0  0  0  0
   -4.1034   -0.6736    0.2127 C   0  0  0  0  0  0  0  0  0  0  0  0
   -5.0300   -1.1421    1.1342 C   0  0  0  0  0  0  0  0  0  0  0  0
   -4.6332   -1.5136    2.4031 C   0  0  0  0  0  0  0  0  0  0  0  0
   -3.4233   -1.0416    2.8835 C   0  0  0  0  0  0  0  0  0  0  0  0
   -2.4289   -0.7295    1.9653 C   0  0  0  0  0  0  0  0  0  0  0  0
  1  2  1  0
  2  3  1  0
  2  4  1  0
  4  5  1  0
  5  6  1  0
  6  7  2  0
  8  7  1  1
  8  9  1  0
  8 10  1  0
 11 10  1  6
 11 12  1  0
 11 13  1  0
 13 14  1  0
 14 15  2  0
 14 16  1  0
  5 17  2  0
 17 18  1  0
 18 19  2  0
 19 20  1  0
 20 21  2  0
 21 22  1  0
 21 23  1  0
 23 24  2  0
 17 25  1  0
 25 26  2  0
 26 27  1  0
 27 28  2  0
 28 29  1  0
 29 30  2  0
 30  4  1  0
 24 18  1  0
 30 25  1  0
M  END
>  <supplier_code>  (942) 
DB01095

>  <zinc_id>  (942) 
ZINC000001886617

>  <catalog_short_name>  (942) 
dbfda

$$$$

     RDKit          3D

 19 20  0  0  0  0  0  0  0  0999 V2000
    2.7802   -0.7091   -2.0776 C   0  0  0  0  0  0  0  0  0  0  0  0
    3.6515    0.1015   -1.1722 C   0  0  0  0  0  0  0  0  0  0  0  0
    4.8287    0.6379   -1.4413 O   0  0  0  0  0  0  0  0  0  0  0  0
    5.4183    0.8519   -0.3132 N   0  0  0  0  0  0  0  0  0  0  0  0
    4.5977    0.6688    0.7261 C   0  0  0  0  0  0  0  0  0  0  0  0
    3.3974    0.2304    0.1836 C   0  0  0  0  0  0  0  0  0  0  0  0
    2.0993    0.1426    0.8409 C   0  0  0  0  0  0  0  0  0  0  0  0
    2.0399    0.2488    2.0878 O   0  0  0  0  0  0  0  0  0  0  0  0
    0.9583    0.5202    0.1006 N   0  0  0  0  0  0  0  0  0  0  0  0
   -0.3373    0.1176    0.5609 C   0  0  0  0  0  0  0  0  0  0  0  0
   -0.8656   -1.1094    0.1764 C   0  0  0  0  0  0  0  0  0  0  0  0
   -2.1829   -1.1983   -0.2584 C   0  0  0  0  0  0  0  0  0  0  0  0
   -3.0861   -0.2083    0.0154 C   0  0  0  0  0  0  0  0  0  0  0  0
   -4.5210   -0.5483    0.1970 C   0  0  0  0  0  0  0  0  0  0  0  0
   -4.6502   -1.4775    1.2005 F   0  0  0  0  0  0  0  0  0  0  0  0
   -5.2041    0.6043    0.5712 F   0  0  0  0  0  0  0  0  0  0  0  0
   -5.0503   -0.9523   -1.0004 F   0  0  0  0  0  0  0  0  0  0  0  0
   -2.6003    0.9960    0.5114 C   0  0  0  0  0  0  0  0  0  0  0  0
   -1.2735    1.0834    0.9110 C   0  0  0  0  0  0  0  0  0  0  0  0
  1  2  1  0
  2  3  1  0
  3  4  1  0
  4  5  2  0
  5  6  1  0
  6  7  1  0
  7  8  2  0
  7  9  1  0
  9 10  1  0
 10 11  2  0
 11 12  1  0
 12 13  2  0
 13 14  1  0
 14 15  1  0
 14 16  1  0
 14 17  1  0
 13 18  1  0
 18 19  2  0
  6  2  2  0
 19 10  1  0
M  END
>  <supplier_code>  (943) 
DB01097

>  <zinc_id>  (943) 
ZINC000000004840

>  <catalog_short_name>  (943) 
dbfda

$$$$

     RDKit          3D

 33 34  0  0  0  0  0  0  0  0999 V2000
    1.1067   -2.2962    0.9344 C   0  0  0  0  0  0  0  0  0  0  0  0
    0.8529   -1.9643    1.2665 C   0  0  0  0  0  0  0  0  0  0  0  0
    0.7783   -2.2273    2.7545 C   0  0  0  0  0  0  0  0  0  0  0  0
   -0.3978   -1.3762    0.7297 C   0  0  0  0  0  0  0  0  0  0  0  0
   -1.1591   -2.1213   -0.1059 N   0  0  0  0  0  0  0  0  0  0  0  0
   -2.3552   -1.5828   -0.4471 C   0  0  0  0  0  0  0  0  0  0  0  0
   -3.2048   -2.3628   -1.2615 N   0  0  0  0  0  0  0  0  0  0  0  0
   -2.9038   -2.4975   -2.6732 C   0  0  0  0  0  0  0  0  0  0  0  0
   -4.2754   -3.4931   -0.5059 S   0  0  0  0  0  0  0  0  0  0  0  0
   -3.4488   -5.0610   -0.4393 C   0  0  0  0  0  0  0  0  0  0  0  0
   -4.6489   -2.9990    0.8522 O   0  0  0  0  0  0  0  0  0  0  0  0
   -5.5459   -3.5665   -1.3181 O   0  0  0  0  0  0  0  0  0  0  0  0
   -2.6738   -0.3287   -0.0592 N   0  0  0  0  0  0  0  0  0  0  0  0
   -1.6795    0.5254    0.2762 C   0  0  0  0  0  0  0  0  0  0  0  0
   -1.8916    1.9627    0.1692 C   0  0  0  0  0  0  0  0  0  0  0  0
   -2.1251    2.4800   -1.0938 C   0  0  0  0  0  0  0  0  0  0  0  0
   -2.4819    3.7954   -1.2219 C   0  0  0  0  0  0  0  0  0  0  0  0
   -2.6233    4.5751   -0.1016 C   0  0  0  0  0  0  0  0  0  0  0  0
   -3.4061    5.6866   -0.0793 F   0  0  0  0  0  0  0  0  0  0  0  0
   -2.0023    4.1397    1.0517 C   0  0  0  0  0  0  0  0  0  0  0  0
   -1.6957    2.8109    1.2310 C   0  0  0  0  0  0  0  0  0  0  0  0
   -0.4901    0.0079    0.7789 C   0  0  0  0  0  0  0  0  0  0  0  0
    0.6623    0.8865    0.7538 C   0  0  0  0  0  0  0  0  0  0  0  0
    1.9161    0.5248    0.9186 C   0  0  0  0  0  0  0  0  0  0  0  0
    2.8674    1.0819   -0.3170 C   0  0  1  0  0  0  0  0  0  0  0  0
    2.5817    2.5548    0.0794 O   0  0  0  0  0  0  0  0  0  0  0  0
    4.2476    1.0514    0.6542 C   0  0  0  0  0  0  0  0  0  0  0  0
    5.1885    1.5897   -0.6358 C   0  0  1  0  0  0  0  0  0  0  0  0
    6.4808    1.5564    0.2133 O   0  0  0  0  0  0  0  0  0  0  0  0
    5.4637    0.0365   -1.2098 C   0  0  0  0  0  0  0  0  0  0  0  0
    5.5974   -0.8304   -0.0628 C   0  0  0  0  0  0  0  0  0  0  0  0
    5.0915   -1.9905   -0.1655 O   0  0  0  0  0  0  0  0  0  0  0  0
    6.1742   -0.5681    1.1558 O   0  0  0  0  0  0  0  0  0  0  0  0
  1  2  1  0
  2  3  1  0
  2  4  1  0
  4  5  2  0
  5  6  1  0
  6  7  1  0
  7  8  1  0
  7  9  1  0
  9 10  1  0
  9 11  2  0
  9 12  2  0
  6 13  2  0
 13 14  1  0
 14 15  1  0
 15 16  2  0
 16 17  1  0
 17 18  2  0
 18 19  1  0
 18 20  1  0
 20 21  2  0
 14 22  2  0
 22 23  1  0
 23 24  2  0
 25 24  1  1
 25 26  1  0
 25 27  1  0
 28 27  1  1
 28 29  1  0
 28 30  1  0
 30 31  1  0
 31 32  2  0
 31 33  1  0
 22  4  1  0
 21 15  1  0
M  END
>  <supplier_code>  (944) 
DB01098

>  <zinc_id>  (944) 
ZINC000001535101

>  <catalog_short_name>  (944) 
dbfda

$$$$

     RDKit          3D

  9  9  0  0  0  0  0  0  0  0999 V2000
   -1.8519    1.6265   -0.1233 N   0  0  0  0  0  0  0  0  0  0  0  0
   -0.7677    0.7163   -0.2060 C   0  0  0  0  0  0  0  0  0  0  0  0
    0.5253    1.1238   -0.1959 N   0  0  0  0  0  0  0  0  0  0  0  0
    1.5336    0.2342   -0.0231 C   0  0  0  0  0  0  0  0  0  0  0  0
    2.5219    0.4816    0.7291 O   0  0  0  0  0  0  0  0  0  0  0  0
    1.2331   -1.0210   -0.4383 N   0  0  0  0  0  0  0  0  0  0  0  0
   -0.0414   -1.4874   -0.4403 C   0  0  0  0  0  0  0  0  0  0  0  0
   -1.0753   -0.6333   -0.0686 C   0  0  0  0  0  0  0  0  0  0  0  0
   -2.0775   -1.0406    0.7664 F   0  0  0  0  0  0  0  0  0  0  0  0
  1  2  1  0
  2  3  2  0
  3  4  1  0
  4  5  2  0
  4  6  1  0
  6  7  1  0
  7  8  2  0
  8  9  1  0
  8  2  1  0
M  END
>  <supplier_code>  (945) 
DB01099

>  <zinc_id>  (945) 
ZINC000000896546

>  <catalog_short_name>  (945) 
dbfda

$$$$

     RDKit          3D

 34 38  0  0  0  0  0  0  0  0999 V2000
    4.4082    2.2644   -1.5498 O   0  0  0  0  0  0  0  0  0  0  0  0
    5.0687    1.5502   -0.5447 C   0  0  0  0  0  0  0  0  0  0  0  0
    6.3957    1.3313   -0.5783 N   0  0  0  0  0  0  0  0  0  0  0  0
    6.6413    0.3310    0.2747 C   0  0  0  0  0  0  0  0  0  0  0  0
    7.7820   -0.4282    0.4811 C   0  0  0  0  0  0  0  0  0  0  0  0
    7.6792   -1.7326    0.9329 C   0  0  0  0  0  0  0  0  0  0  0  0
    6.4726   -2.1958    1.4143 C   0  0  0  0  0  0  0  0  0  0  0  0
    5.4385   -1.2779    1.5158 C   0  0  0  0  0  0  0  0  0  0  0  0
    5.4546   -0.0712    0.8298 C   0  0  0  0  0  0  0  0  0  0  0  0
    4.4986    0.8002    0.4264 N   0  0  0  0  0  0  0  0  0  0  0  0
    3.0980    0.4662    0.4346 C   0  0  0  0  0  0  0  0  0  0  0  0
    2.2112    1.6110    0.8345 C   0  0  0  0  0  0  0  0  0  0  0  0
    0.7917    1.0762    0.9068 C   0  0  0  0  0  0  0  0  0  0  0  0
    0.4515    0.5106   -0.3911 N   0  0  0  0  0  0  0  0  0  0  0  0
   -0.9575    0.2166   -0.4767 C   0  0  0  0  0  0  0  0  0  0  0  0
   -1.1339   -1.1123   -1.1553 C   0  0  0  0  0  0  0  0  0  0  0  0
   -2.3188   -1.1636   -2.0739 C   0  0  0  0  0  0  0  0  0  0  0  0
   -3.6399   -1.0463   -1.3858 C   0  0  0  0  0  0  0  0  0  0  0  0
   -4.2842    0.2701   -1.5406 C   0  0  0  0  0  0  0  0  0  0  0  0
   -5.6622    0.3484   -1.3850 C   0  0  0  0  0  0  0  0  0  0  0  0
   -6.2866    1.5774   -1.3402 C   0  0  0  0  0  0  0  0  0  0  0  0
   -5.5698    2.7410   -1.4668 C   0  0  0  0  0  0  0  0  0  0  0  0
   -6.0651    3.9348   -1.0444 F   0  0  0  0  0  0  0  0  0  0  0  0
   -4.2719    2.6249   -1.9399 C   0  0  0  0  0  0  0  0  0  0  0  0
   -3.6603    1.3971   -2.0115 C   0  0  0  0  0  0  0  0  0  0  0  0
   -3.6279   -1.3967    0.0406 C   0  0  0  0  0  0  0  0  0  0  0  0
   -2.7986   -2.3211    0.6251 C   0  0  0  0  0  0  0  0  0  0  0  0
   -2.6793   -2.2519    2.0080 C   0  0  0  0  0  0  0  0  0  0  0  0
   -3.8406   -2.0154    2.7331 C   0  0  0  0  0  0  0  0  0  0  0  0
   -3.8986   -2.1565    4.0742 F   0  0  0  0  0  0  0  0  0  0  0  0
   -4.9118   -1.4223    2.0849 C   0  0  0  0  0  0  0  0  0  0  0  0
   -4.7255   -0.9984    0.7963 C   0  0  0  0  0  0  0  0  0  0  0  0
    1.2580   -0.6764   -0.6611 C   0  0  0  0  0  0  0  0  0  0  0  0
    2.6825   -0.1768   -0.8681 C   0  0  0  0  0  0  0  0  0  0  0  0
  1  2  1  0
  2  3  2  0
  3  4  1  0
  4  5  2  0
  5  6  1  0
  6  7  2  0
  7  8  1  0
  8  9  2  0
  9 10  1  0
 10 11  1  0
 11 12  1  0
 12 13  1  0
 13 14  1  0
 14 15  1  0
 15 16  1  0
 16 17  1  0
 17 18  1  0
 18 19  1  0
 19 20  2  0
 20 21  1  0
 21 22  2  0
 22 23  1  0
 22 24  1  0
 24 25  2  0
 18 26  1  0
 26 27  2  0
 27 28  1  0
 28 29  2  0
 29 30  1  0
 29 31  1  0
 31 32  2  0
 14 33  1  0
 33 34  1  0
 10  2  1  0
 34 11  1  0
  9  4  1  0
 25 19  1  0
 32 26  1  0
M  END
>  <supplier_code>  (946) 
DB01100

>  <zinc_id>  (946) 
ZINC000004175630

>  <catalog_short_name>  (946) 
dbfda

$$$$

     RDKit          3D

 25 26  0  0  0  0  0  0  0  0999 V2000
    7.0350   -1.9379    1.2898 C   0  0  0  0  0  0  0  0  0  0  0  0
    7.4062   -1.3906   -0.0553 C   0  0  0  0  0  0  0  0  0  0  0  0
    6.3114   -0.4858   -0.5780 C   0  0  0  0  0  0  0  0  0  0  0  0
    5.6403    0.0428    0.6564 C   0  0  0  0  0  0  0  0  0  0  0  0
    4.8627    1.2995    0.3419 C   0  0  0  0  0  0  0  0  0  0  0  0
    3.5688    1.0022    0.7492 O   0  0  0  0  0  0  0  0  0  0  0  0
    2.5318    1.0553   -0.1447 C   0  0  0  0  0  0  0  0  0  0  0  0
    2.6844    0.3273   -1.1683 O   0  0  0  0  0  0  0  0  0  0  0  0
    1.2896    1.6614   -0.0004 N   0  0  0  0  0  0  0  0  0  0  0  0
    0.1633    0.8494    0.0860 C   0  0  0  0  0  0  0  0  0  0  0  0
   -0.7926    0.9597   -0.8989 N   0  0  0  0  0  0  0  0  0  0  0  0
   -1.6687   -0.0545   -0.7139 C   0  0  0  0  0  0  0  0  0  0  0  0
   -1.8124   -0.9249   -1.6156 O   0  0  0  0  0  0  0  0  0  0  0  0
   -2.3228   -0.0315    0.4784 N   0  0  0  0  0  0  0  0  0  0  0  0
   -3.6256   -1.0280    0.5907 C   0  0  2  0  0  0  0  0  0  0  0  0
   -3.8739   -1.3182   -0.8098 O   0  0  0  0  0  0  0  0  0  0  0  0
   -3.2640   -0.3560    0.0986 C   0  0  2  0  0  0  0  0  0  0  0  0
   -4.1625   -0.5122    1.5758 C   0  0  0  0  0  0  0  0  0  0  0  0
   -4.0209    1.0563   -0.5111 C   0  0  1  0  0  0  0  0  0  0  0  0
   -4.3666    0.5427   -1.9222 O   0  0  0  0  0  0  0  0  0  0  0  0
   -5.0232    0.0913    0.4103 C   0  0  1  0  0  0  0  0  0  0  0  0
   -5.7004   -0.6381   -0.7016 O   0  0  0  0  0  0  0  0  0  0  0  0
   -1.4900   -0.1575    1.5545 C   0  0  0  0  0  0  0  0  0  0  0  0
   -0.1890    0.3556    1.3436 C   0  0  0  0  0  0  0  0  0  0  0  0
    0.8191   -0.4084    1.8483 F   0  0  0  0  0  0  0  0  0  0  0  0
  1  2  1  0
  2  3  1  0
  3  4  1  0
  4  5  1  0
  5  6  1  0
  6  7  1  0
  7  8  2  0
  7  9  1  0
  9 10  1  0
 10 11  2  0
 11 12  1  0
 12 13  2  0
 12 14  1  0
 15 14  1  6
 15 16  1  0
 16 17  1  0
 17 18  1  1
 17 19  1  0
 19 20  1  6
 19 21  1  0
 21 22  1  6
 14 23  1  0
 23 24  2  0
 24 25  1  0
 24 10  1  0
 21 15  1  0
M  END
>  <supplier_code>  (947) 
DB01101

>  <zinc_id>  (947) 
ZINC000003806413

>  <catalog_short_name>  (947) 
dbfda

$$$$

     RDKit          3D

 20 22  0  0  0  0  0  0  0  0999 V2000
   -2.4660    3.4300    0.6568 C   0  0  0  0  0  0  0  0  0  0  0  0
   -3.0167    2.1633    0.6354 N   0  0  0  0  0  0  0  0  0  0  0  0
   -2.3612    1.6780   -0.7486 C   0  0  1  0  0  0  0  0  0  0  0  0
   -0.8139    1.8333   -0.1169 C   0  0  0  0  0  0  0  0  0  0  0  0
   -0.1162    1.3994   -1.3221 C   0  0  0  0  0  0  0  0  0  0  0  0
   -0.1491   -0.2630   -1.4297 C   0  0  1  0  0  0  0  0  0  0  0  0
    1.1544   -0.3608   -0.4504 C   0  0  0  0  0  0  0  0  0  0  0  0
    1.2759   -1.5021    0.2702 C   0  0  0  0  0  0  0  0  0  0  0  0
    2.4136   -1.6008    1.0618 C   0  0  0  0  0  0  0  0  0  0  0  0
    3.5064   -0.7944    0.8073 C   0  0  0  0  0  0  0  0  0  0  0  0
    4.8363   -0.5538    1.8942 Cl  0  0  0  0  0  0  0  0  0  0  0  0
    3.4683    0.0257   -0.3141 C   0  0  0  0  0  0  0  0  0  0  0  0
    4.6285    1.3354   -0.5043 Cl  0  0  0  0  0  0  0  0  0  0  0  0
    2.3078    0.1050   -1.0775 C   0  0  0  0  0  0  0  0  0  0  0  0
   -1.1897   -0.5152   -0.1834 C   0  0  0  0  0  0  0  0  0  0  0  0
   -1.3369   -1.9019   -0.1028 C   0  0  0  0  0  0  0  0  0  0  0  0
   -2.5586   -2.5321    0.0599 C   0  0  0  0  0  0  0  0  0  0  0  0
   -3.5937   -1.7028    0.4814 C   0  0  0  0  0  0  0  0  0  0  0  0
   -3.5935   -0.3463    0.1629 C   0  0  0  0  0  0  0  0  0  0  0  0
   -2.3959    0.1030   -0.3133 C   0  0  0  0  0  0  0  0  0  0  0  0
  1  2  1  0
  3  2  1  1
  3  4  1  0
  4  5  1  0
  5  6  1  0
  6  7  1  1
  7  8  2  0
  8  9  1  0
  9 10  2  0
 10 11  1  0
 10 12  1  0
 12 13  1  0
 12 14  2  0
  6 15  1  0
 15 16  2  0
 16 17  1  0
 17 18  2  0
 18 19  1  0
 19 20  2  0
 20  3  1  0
 14  7  1  0
 20 15  1  0
M  END
>  <supplier_code>  (948) 
DB01104

>  <zinc_id>  (948) 
ZINC000001853550

>  <catalog_short_name>  (948) 
dbfda

$$$$

     RDKit          3D

 25 27  0  0  0  0  0  0  0  0999 V2000
    6.3286    1.2007    0.6901 Cl  0  0  0  0  0  0  0  0  0  0  0  0
    4.7965    0.4671    0.3268 C   0  0  0  0  0  0  0  0  0  0  0  0
    3.6002    1.0604    0.7014 C   0  0  0  0  0  0  0  0  0  0  0  0
    2.4600    0.6041    0.0606 C   0  0  0  0  0  0  0  0  0  0  0  0
    2.4388   -0.5174   -0.7243 C   0  0  0  0  0  0  0  0  0  0  0  0
    1.2069   -1.2936   -0.9891 C   0  0  0  0  0  0  0  0  0  0  0  0
    0.1582   -0.5291   -1.4729 O   0  0  0  0  0  0  0  0  0  0  0  0
   -0.5241   -0.1983   -0.1389 C   0  0  2  0  0  0  0  0  0  0  0  0
   -1.1160   -1.7491    0.0029 C   0  0  0  0  0  0  0  0  0  0  0  0
   -1.8040   -1.6736    1.2902 N   0  0  0  0  0  0  0  0  0  0  0  0
   -2.7847   -2.5089    1.6780 C   0  0  0  0  0  0  0  0  0  0  0  0
   -3.1388   -2.2064    2.9806 C   0  0  0  0  0  0  0  0  0  0  0  0
   -2.2069   -1.3408    3.4104 N   0  0  0  0  0  0  0  0  0  0  0  0
   -1.3167   -1.1197    2.4129 C   0  0  0  0  0  0  0  0  0  0  0  0
   -1.8854    0.3101   -0.8948 C   0  0  0  0  0  0  0  0  0  0  0  0
   -2.9692    0.3845   -0.0267 C   0  0  0  0  0  0  0  0  0  0  0  0
   -3.7691    1.5192    0.0351 C   0  0  0  0  0  0  0  0  0  0  0  0
   -3.4132    2.6795   -0.6383 C   0  0  0  0  0  0  0  0  0  0  0  0
   -3.8663    4.2356    0.0294 Cl  0  0  0  0  0  0  0  0  0  0  0  0
   -2.4265    2.5671   -1.5931 C   0  0  0  0  0  0  0  0  0  0  0  0
   -1.5570    1.4940   -1.5454 C   0  0  0  0  0  0  0  0  0  0  0  0
   -0.2861    1.3759   -2.7579 Cl  0  0  0  0  0  0  0  0  0  0  0  0
    3.6340   -1.2034   -0.9089 C   0  0  0  0  0  0  0  0  0  0  0  0
    3.6414   -2.8323   -1.5495 Cl  0  0  0  0  0  0  0  0  0  0  0  0
    4.7994   -0.7255   -0.3785 C   0  0  0  0  0  0  0  0  0  0  0  0
  1  2  1  0
  2  3  2  0
  3  4  1  0
  4  5  2  0
  5  6  1  0
  6  7  1  0
  8  7  1  6
  8  9  1  0
  9 10  1  0
 10 11  1  0
 11 12  2  0
 12 13  1  0
 13 14  2  0
  8 15  1  0
 15 16  2  0
 16 17  1  0
 17 18  2  0
 18 19  1  0
 18 20  1  0
 20 21  2  0
 21 22  1  0
  5 23  1  0
 23 24  1  0
 23 25  2  0
 25  2  1  0
 14 10  1  0
 21 15  1  0
M  END
>  <supplier_code>  (949) 
DB01110

>  <zinc_id>  (949) 
ZINC000000607971

>  <catalog_short_name>  (949) 
dbfda

$$$$

     RDKit          3D

 25 27  0  0  0  0  0  0  0  0999 V2000
    6.1994   -0.7804    0.2995 Cl  0  0  0  0  0  0  0  0  0  0  0  0
    4.5857   -0.9923    0.3402 C   0  0  0  0  0  0  0  0  0  0  0  0
    3.8202   -0.2036    1.1917 C   0  0  0  0  0  0  0  0  0  0  0  0
    2.4475   -0.3891    1.3257 C   0  0  0  0  0  0  0  0  0  0  0  0
    1.8010   -1.3446    0.5879 C   0  0  0  0  0  0  0  0  0  0  0  0
    0.4665   -1.3279    0.0432 C   0  0  0  0  0  0  0  0  0  0  0  0
   -0.5171   -0.6116    0.6084 O   0  0  0  0  0  0  0  0  0  0  0  0
   -1.1418   -0.0619   -0.6719 C   0  0  1  0  0  0  0  0  0  0  0  0
   -2.5698    0.2752    0.0883 C   0  0  0  0  0  0  0  0  0  0  0  0
   -3.0965   -1.0477    0.2691 N   0  0  0  0  0  0  0  0  0  0  0  0
   -3.4202   -1.8520   -0.7550 C   0  0  0  0  0  0  0  0  0  0  0  0
   -4.2713   -2.8224   -0.2636 C   0  0  0  0  0  0  0  0  0  0  0  0
   -4.2647   -2.6804    1.0646 N   0  0  0  0  0  0  0  0  0  0  0  0
   -3.3312   -1.7512    1.3782 C   0  0  0  0  0  0  0  0  0  0  0  0
   -0.5417    1.4188   -0.4143 C   0  0  0  0  0  0  0  0  0  0  0  0
   -0.6193    1.9385    0.8238 C   0  0  0  0  0  0  0  0  0  0  0  0
   -0.3931    3.3011    0.9845 C   0  0  0  0  0  0  0  0  0  0  0  0
   -0.7465    4.0863   -0.1078 C   0  0  0  0  0  0  0  0  0  0  0  0
   -1.4690    5.6641    0.2104 Cl  0  0  0  0  0  0  0  0  0  0  0  0
   -0.7813    3.5543   -1.3899 C   0  0  0  0  0  0  0  0  0  0  0  0
   -0.6437    2.1865   -1.5499 C   0  0  0  0  0  0  0  0  0  0  0  0
   -0.0253    1.5323   -3.0428 Cl  0  0  0  0  0  0  0  0  0  0  0  0
    2.6304   -2.3195    0.0324 C   0  0  0  0  0  0  0  0  0  0  0  0
    1.9094   -3.6827   -0.8228 Cl  0  0  0  0  0  0  0  0  0  0  0  0
    3.9722   -2.0898   -0.2301 C   0  0  0  0  0  0  0  0  0  0  0  0
  1  2  1  0
  2  3  2  0
  3  4  1  0
  4  5  2  0
  5  6  1  0
  6  7  1  0
  8  7  1  1
  8  9  1  0
  9 10  1  0
 10 11  1  0
 11 12  2  0
 12 13  1  0
 13 14  2  0
  8 15  1  0
 15 16  2  0
 16 17  1  0
 17 18  2  0
 18 19  1  0
 18 20  1  0
 20 21  2  0
 21 22  1  0
  5 23  1  0
 23 24  1  0
 23 25  2  0
 25  2  1  0
 14 10  1  0
 21 15  1  0
M  END
>  <supplier_code>  (950) 
DB01110

>  <zinc_id>  (950) 
ZINC000000896740

>  <catalog_short_name>  (950) 
dbfda

$$$$

     RDKit          3D

 29 31  0  0  0  0  0  0  0  0999 V2000
   -3.6170    3.0116   -1.6388 C   0  0  0  0  0  0  0  0  0  0  0  0
   -3.7004    2.4580   -0.9632 O   0  0  0  0  0  0  0  0  0  0  0  0
   -4.4975    1.5514   -0.2820 N   0  0  0  0  0  0  0  0  0  0  0  0
   -3.9758    0.4816    0.2538 C   0  0  0  0  0  0  0  0  0  0  0  0
   -2.5290    0.3911    0.2090 C   0  0  0  0  0  0  0  0  0  0  0  0
   -1.8973   -0.3451   -0.6088 O   0  0  0  0  0  0  0  0  0  0  0  0
   -1.6077    0.8787    1.1564 N   0  0  0  0  0  0  0  0  0  0  0  0
   -0.5743    1.9437    0.5373 C   0  0  2  0  0  0  0  0  0  0  0  0
   -0.0511    1.0171   -0.7056 C   0  0  0  0  0  0  0  0  0  0  0  0
   -0.2850    1.5558   -1.8455 O   0  0  0  0  0  0  0  0  0  0  0  0
    1.2818    1.1403   -0.1397 N   0  0  0  0  0  0  0  0  0  0  0  0
    2.5937    0.5843   -0.1994 C   0  0  0  0  0  0  0  0  0  0  0  0
    3.3803    0.9730   -1.3810 C   0  0  0  0  0  0  0  0  0  0  0  0
    2.8584    0.7762   -2.4998 O   0  0  0  0  0  0  0  0  0  0  0  0
    4.4256    1.8985   -1.2821 O   0  0  0  0  0  0  0  0  0  0  0  0
    3.0532   -0.3471    0.6387 C   0  0  0  0  0  0  0  0  0  0  0  0
    4.3419   -0.9931    0.2210 C   0  0  0  0  0  0  0  0  0  0  0  0
    5.0005   -1.5717    1.3177 O   0  0  0  0  0  0  0  0  0  0  0  0
    6.1299   -2.3363    1.0137 C   0  0  0  0  0  0  0  0  0  0  0  0
    6.9049   -2.8038    2.1232 N   0  0  0  0  0  0  0  0  0  0  0  0
    6.8024   -1.9882   -0.0035 O   0  0  0  0  0  0  0  0  0  0  0  0
    2.1325   -1.2254    1.4288 C   0  0  0  0  0  0  0  0  0  0  0  0
    0.4459   -0.5295    1.4824 S   0  0  0  0  0  0  0  0  0  0  0  0
    0.8200    1.3328    1.2988 C   0  0  2  0  0  0  0  0  0  0  0  0
   -4.8118   -0.7293    0.1701 C   0  0  0  0  0  0  0  0  0  0  0  0
   -4.3928   -1.9089   -0.4331 C   0  0  0  0  0  0  0  0  0  0  0  0
   -5.5284   -2.6070   -0.8181 C   0  0  0  0  0  0  0  0  0  0  0  0
   -6.5862   -1.8467   -0.3954 C   0  0  0  0  0  0  0  0  0  0  0  0
   -6.1167   -0.7620    0.1594 O   0  0  0  0  0  0  0  0  0  0  0  0
  1  2  1  0
  2  3  1  0
  3  4  2  0
  4  5  1  0
  5  6  2  0
  5  7  1  0
  8  7  1  1
  8  9  1  0
  9 10  2  0
  9 11  1  0
 11 12  1  0
 12 13  1  0
 13 14  2  0
 13 15  1  0
 12 16  2  0
 16 17  1  0
 17 18  1  0
 18 19  1  0
 19 20  1  0
 19 21  2  0
 16 22  1  0
 22 23  1  0
 24 23  1  6
  4 25  1  0
 25 26  2  0
 26 27  1  0
 27 28  2  0
 28 29  1  0
 24  8  1  0
 29 25  1  0
 24 11  1  0
M  END
>  <supplier_code>  (951) 
DB01112

>  <zinc_id>  (951) 
ZINC000003871978

>  <catalog_short_name>  (951) 
dbfda

$$$$

     RDKit          3D

 19 20  0  0  0  0  0  0  0  0999 V2000
   -0.1801    3.7179   -0.4456 C   0  0  0  0  0  0  0  0  0  0  0  0
    0.6179    3.5085   -0.4779 N   0  0  0  0  0  0  0  0  0  0  0  0
    1.7405    4.3677   -0.1022 C   0  0  0  0  0  0  0  0  0  0  0  0
    1.0039    2.1491   -0.1269 C   0  0  0  0  0  0  0  0  0  0  0  0
   -0.2074    1.4017    0.4166 C   0  0  0  0  0  0  0  0  0  0  0  0
   -0.3002    0.1939   -0.7325 C   0  0  1  0  0  0  0  0  0  0  0  0
    0.5152   -0.8875    0.1893 C   0  0  0  0  0  0  0  0  0  0  0  0
    1.5992   -0.3859    0.8540 C   0  0  0  0  0  0  0  0  0  0  0  0
    2.7051   -1.1790    1.1278 C   0  0  0  0  0  0  0  0  0  0  0  0
    3.0645   -2.1080    0.1631 C   0  0  0  0  0  0  0  0  0  0  0  0
    4.7521   -2.3845   -0.2544 Cl  0  0  0  0  0  0  0  0  0  0  0  0
    2.0219   -2.6311   -0.5737 C   0  0  0  0  0  0  0  0  0  0  0  0
    0.8209   -1.9515   -0.6608 C   0  0  0  0  0  0  0  0  0  0  0  0
   -1.7390   -0.3099   -0.1287 C   0  0  0  0  0  0  0  0  0  0  0  0
   -2.7077    0.6704   -0.1791 C   0  0  0  0  0  0  0  0  0  0  0  0
   -4.0185    0.3116    0.0053 C   0  0  0  0  0  0  0  0  0  0  0  0
   -4.3172   -1.0225   -0.2453 C   0  0  0  0  0  0  0  0  0  0  0  0
   -3.3310   -1.9065   -0.6379 C   0  0  0  0  0  0  0  0  0  0  0  0
   -2.0401   -1.5541   -0.5332 N   0  0  0  0  0  0  0  0  0  0  0  0
  1  2  1  0
  2  3  1  0
  2  4  1  0
  4  5  1  0
  6  5  1  1
  6  7  1  0
  7  8  2  0
  8  9  1  0
  9 10  2  0
 10 11  1  0
 10 12  1  0
 12 13  2  0
  6 14  1  0
 14 15  2  0
 15 16  1  0
 16 17  2  0
 17 18  1  0
 18 19  2  0
 13  7  1  0
 19 14  1  0
M  END
>  <supplier_code>  (952) 
DB01114

>  <zinc_id>  (952) 
ZINC000000113404

>  <catalog_short_name>  (952) 
dbfda

$$$$

     RDKit          3D

 19 20  0  0  0  0  0  0  0  0999 V2000
    2.8334   -2.4789   -0.4757 C   0  0  0  0  0  0  0  0  0  0  0  0
    3.1092   -2.0752   -0.5218 N   0  0  0  0  0  0  0  0  0  0  0  0
    4.5188   -1.9198   -0.1851 C   0  0  0  0  0  0  0  0  0  0  0  0
    2.6155   -0.7299   -0.7987 C   0  0  0  0  0  0  0  0  0  0  0  0
    1.1348   -0.7846   -1.0748 C   0  0  0  0  0  0  0  0  0  0  0  0
    0.4944   -0.2418    0.3660 C   0  0  2  0  0  0  0  0  0  0  0  0
   -1.0176   -0.6509   -0.1088 C   0  0  0  0  0  0  0  0  0  0  0  0
   -1.3015   -1.8900    0.4678 C   0  0  0  0  0  0  0  0  0  0  0  0
   -2.5506   -2.1858    1.0037 C   0  0  0  0  0  0  0  0  0  0  0  0
   -3.5691   -1.2679    0.8358 C   0  0  0  0  0  0  0  0  0  0  0  0
   -5.2629   -1.6625    1.0790 Cl  0  0  0  0  0  0  0  0  0  0  0  0
   -3.3068    0.0020    0.3347 C   0  0  0  0  0  0  0  0  0  0  0  0
   -1.9780    0.2944    0.1408 C   0  0  0  0  0  0  0  0  0  0  0  0
    0.3810    1.2930   -0.1978 C   0  0  0  0  0  0  0  0  0  0  0  0
    1.6073    1.7899   -0.6337 C   0  0  0  0  0  0  0  0  0  0  0  0
    1.6801    3.1654   -0.7891 C   0  0  0  0  0  0  0  0  0  0  0  0
    0.8317    3.9511   -0.0228 C   0  0  0  0  0  0  0  0  0  0  0  0
   -0.1052    3.3701    0.8204 C   0  0  0  0  0  0  0  0  0  0  0  0
   -0.1144    2.0215    0.8392 N   0  0  0  0  0  0  0  0  0  0  0  0
  1  2  1  0
  2  3  1  0
  2  4  1  0
  4  5  1  0
  6  5  1  6
  6  7  1  0
  7  8  2  0
  8  9  1  0
  9 10  2  0
 10 11  1  0
 10 12  1  0
 12 13  2  0
  6 14  1  0
 14 15  2  0
 15 16  1  0
 16 17  2  0
 17 18  1  0
 18 19  2  0
 13  7  1  0
 19 14  1  0
M  END
>  <supplier_code>  (953) 
DB01114

>  <zinc_id>  (953) 
ZINC000000113410

>  <catalog_short_name>  (953) 
dbfda

$$$$

     RDKit          3D

 25 26  0  0  0  0  0  0  0  0999 V2000
   -1.6805    4.3508    1.0115 C   0  0  0  0  0  0  0  0  0  0  0  0
   -1.1678    3.0223    0.9696 O   0  0  0  0  0  0  0  0  0  0  0  0
   -0.9888    2.3335   -0.2342 C   0  0  0  0  0  0  0  0  0  0  0  0
   -1.3705    2.9608   -1.2684 O   0  0  0  0  0  0  0  0  0  0  0  0
    0.2337    1.5401   -0.4093 C   0  0  0  0  0  0  0  0  0  0  0  0
    1.3499    2.1579   -0.7902 C   0  0  0  0  0  0  0  0  0  0  0  0
    1.2661    3.4109   -1.6045 C   0  0  0  0  0  0  0  0  0  0  0  0
    2.6141    1.6989   -0.2957 N   0  0  0  0  0  0  0  0  0  0  0  0
    2.5674    0.5089    0.4995 C   0  0  0  0  0  0  0  0  0  0  0  0
    3.5770    0.2485    1.5609 C   0  0  0  0  0  0  0  0  0  0  0  0
    1.5624   -0.3579    0.3735 C   0  0  0  0  0  0  0  0  0  0  0  0
    1.8288   -1.7740    0.5529 C   0  0  0  0  0  0  0  0  0  0  0  0
    1.2029   -2.4609    1.4155 O   0  0  0  0  0  0  0  0  0  0  0  0
    2.6639   -2.5081   -0.2910 O   0  0  0  0  0  0  0  0  0  0  0  0
    2.7091   -3.9315   -0.2229 C   0  0  0  0  0  0  0  0  0  0  0  0
    0.2988    0.0825   -0.2371 C   0  0  0  0  0  0  0  0  0  0  0  0
   -0.9037   -0.5060    0.3720 C   0  0  0  0  0  0  0  0  0  0  0  0
   -1.4089   -0.1242    1.6088 C   0  0  0  0  0  0  0  0  0  0  0  0
   -2.7820   -0.1770    1.8164 C   0  0  0  0  0  0  0  0  0  0  0  0
   -3.6583   -0.5227    0.7947 C   0  0  0  0  0  0  0  0  0  0  0  0
   -3.1043   -1.3079   -0.2108 C   0  0  0  0  0  0  0  0  0  0  0  0
   -1.7435   -1.2161   -0.4789 C   0  0  0  0  0  0  0  0  0  0  0  0
   -1.1225   -2.1802   -1.3384 N   0  0  0  0  0  0  0  0  0  0  0  0
   -1.2936   -3.3821   -1.0125 O   0  0  0  0  0  0  0  0  0  0  0  0
   -0.6496   -1.8664   -2.5813 O   0  0  0  0  0  0  0  0  0  0  0  0
  1  2  1  0
  2  3  1  0
  3  4  2  0
  3  5  1  0
  5  6  2  0
  6  7  1  0
  6  8  1  0
  8  9  1  0
  9 10  1  0
  9 11  2  0
 11 12  1  0
 12 13  2  0
 12 14  1  0
 14 15  1  0
 11 16  1  0
 16 17  1  0
 17 18  2  0
 18 19  1  0
 19 20  2  0
 20 21  1  0
 21 22  2  0
 22 23  1  0
 23 24  2  0
 23 25  1  0
 16  5  1  0
 22 17  1  0
M  CHG  2  23   1  25  -1
M  END
>  <supplier_code>  (954) 
DB01115

>  <zinc_id>  (954) 
ZINC000085205448

>  <catalog_short_name>  (954) 
dbfda

$$$$

     RDKit          3D

 26 29  0  0  0  0  0  0  0  0999 V2000
   -3.8212    0.2315   -1.9587 O   0  0  0  0  0  0  0  0  0  0  0  0
   -3.3958   -0.1197   -0.9402 C   0  0  0  0  0  0  0  0  0  0  0  0
   -4.1990    0.0962    0.2715 C   0  0  0  0  0  0  0  0  0  0  0  0
   -5.5722   -0.0898    0.1680 C   0  0  0  0  0  0  0  0  0  0  0  0
   -6.3185   -0.5685    1.2330 C   0  0  0  0  0  0  0  0  0  0  0  0
   -5.7451   -0.4513    2.4936 C   0  0  0  0  0  0  0  0  0  0  0  0
   -4.4008   -0.1225    2.6169 C   0  0  0  0  0  0  0  0  0  0  0  0
   -3.5951    0.0441    1.5015 C   0  0  0  0  0  0  0  0  0  0  0  0
   -2.1310   -0.0233    1.5904 C   0  0  0  0  0  0  0  0  0  0  0  0
   -1.6070   -0.2624    2.6997 O   0  0  0  0  0  0  0  0  0  0  0  0
   -1.3978   -0.1263    0.3491 C   0  0  0  0  0  0  0  0  0  0  0  0
    0.1943    0.1698    0.4499 C   0  0  1  0  0  0  0  0  0  0  0  0
    0.5922   -1.1584   -0.4731 C   0  0  0  0  0  0  0  0  0  0  0  0
    2.0965   -0.8778   -0.4502 C   0  0  0  0  0  0  0  0  0  0  0  0
    2.3325    0.0927   -1.7786 C   0  0  2  0  0  0  0  0  0  0  0  0
    3.8670    0.4200   -1.3444 C   0  0  0  0  0  0  0  0  0  0  0  0
    4.7185   -0.6472   -1.6354 C   0  0  0  0  0  0  0  0  0  0  0  0
    6.0029   -0.6736   -1.1018 C   0  0  0  0  0  0  0  0  0  0  0  0
    6.2740    0.1508   -0.0352 C   0  0  0  0  0  0  0  0  0  0  0  0
    7.8699    0.3127    0.6874 Cl  0  0  0  0  0  0  0  0  0  0  0  0
    5.3680    1.1375    0.2952 C   0  0  0  0  0  0  0  0  0  0  0  0
    4.0517    0.9172   -0.0899 C   0  0  0  0  0  0  0  0  0  0  0  0
    1.7086    1.4257   -1.0032 C   0  0  0  0  0  0  0  0  0  0  0  0
    0.2386    1.1525   -0.8949 C   0  0  0  0  0  0  0  0  0  0  0  0
   -1.9378   -0.2341   -0.8039 C   0  0  0  0  0  0  0  0  0  0  0  0
   -1.1938   -0.7186   -1.8467 O   0  0  0  0  0  0  0  0  0  0  0  0
  1  2  2  0
  2  3  1  0
  3  4  2  0
  4  5  1  0
  5  6  2  0
  6  7  1  0
  7  8  2  0
  8  9  1  0
  9 10  2  0
  9 11  1  0
 12 11  1  6
 12 13  1  0
 13 14  1  0
 14 15  1  0
 15 16  1  1
 16 17  2  0
 17 18  1  0
 18 19  2  0
 19 20  1  0
 19 21  1  0
 21 22  2  0
 15 23  1  0
 23 24  1  0
 11 25  2  0
 25 26  1  0
 25  2  1  0
  8  3  1  0
 24 12  1  0
 22 16  1  0
M  END
>  <supplier_code>  (955) 
DB01117

>  <zinc_id>  (955) 
ZINC000100017856

>  <catalog_short_name>  (955) 
dbfda

$$$$

     RDKit          3D

 26 29  0  0  0  0  0  0  0  0999 V2000
   -4.6732   -2.0544    0.6267 O   0  0  0  0  0  0  0  0  0  0  0  0
   -3.7617   -1.3491    0.3760 C   0  0  0  0  0  0  0  0  0  0  0  0
   -4.0702   -0.0342   -0.1993 C   0  0  0  0  0  0  0  0  0  0  0  0
   -5.2818    0.5560    0.0457 C   0  0  0  0  0  0  0  0  0  0  0  0
   -5.5362    1.9005   -0.0997 C   0  0  0  0  0  0  0  0  0  0  0  0
   -4.5052    2.6614   -0.6166 C   0  0  0  0  0  0  0  0  0  0  0  0
   -3.2748    2.0732   -0.8869 C   0  0  0  0  0  0  0  0  0  0  0  0
   -3.1318    0.6897   -0.9247 C   0  0  0  0  0  0  0  0  0  0  0  0
   -1.7874    0.0846   -0.9450 C   0  0  0  0  0  0  0  0  0  0  0  0
   -0.8393    0.7790   -1.4236 O   0  0  0  0  0  0  0  0  0  0  0  0
   -1.4306   -1.1049   -0.2677 C   0  0  0  0  0  0  0  0  0  0  0  0
    0.0304   -1.3007    0.3803 C   0  0  1  0  0  0  0  0  0  0  0  0
    0.7409   -1.5513   -1.0863 C   0  0  0  0  0  0  0  0  0  0  0  0
    2.1977   -1.8714   -0.7507 C   0  0  0  0  0  0  0  0  0  0  0  0
    2.4930   -1.0362    0.6384 C   0  0  1  0  0  0  0  0  0  0  0  0
    4.0093   -0.6525    0.2422 C   0  0  0  0  0  0  0  0  0  0  0  0
    4.2622   -0.2703   -1.0345 C   0  0  0  0  0  0  0  0  0  0  0  0
    5.3935    0.5128   -1.2818 C   0  0  0  0  0  0  0  0  0  0  0  0
    5.5973    1.5560   -0.3834 C   0  0  0  0  0  0  0  0  0  0  0  0
    5.6390    3.2455   -0.8884 Cl  0  0  0  0  0  0  0  0  0  0  0  0
    5.4468    1.1908    0.9504 C   0  0  0  0  0  0  0  0  0  0  0  0
    4.6024    0.1214    1.2374 C   0  0  0  0  0  0  0  0  0  0  0  0
    1.8695    0.3507    0.0058 C   0  0  0  0  0  0  0  0  0  0  0  0
    0.4366    0.2969    0.3821 C   0  0  0  0  0  0  0  0  0  0  0  0
   -2.3559   -1.7689    0.4265 C   0  0  0  0  0  0  0  0  0  0  0  0
   -2.0704   -3.0246    0.9681 O   0  0  0  0  0  0  0  0  0  0  0  0
  1  2  2  0
  2  3  1  0
  3  4  2  0
  4  5  1  0
  5  6  2  0
  6  7  1  0
  7  8  2  0
  8  9  1  0
  9 10  2  0
  9 11  1  0
 12 11  1  6
 12 13  1  0
 13 14  1  0
 14 15  1  0
 15 16  1  6
 16 17  2  0
 17 18  1  0
 18 19  2  0
 19 20  1  0
 19 21  1  0
 21 22  2  0
 15 23  1  0
 23 24  1  0
 11 25  2  0
 25 26  1  0
 25  2  1  0
  8  3  1  0
 24 12  1  0
 22 16  1  0
M  END
>  <supplier_code>  (956) 
DB01117

>  <zinc_id>  (956) 
ZINC000116473771

>  <catalog_short_name>  (956) 
dbfda

$$$$

     RDKit          3D

 31 33  0  0  0  0  0  0  0  0999 V2000
   -6.9545   -0.0096   -0.2528 C   0  0  0  0  0  0  0  0  0  0  0  0
   -6.8527   -1.4323    0.2769 C   0  0  0  0  0  0  0  0  0  0  0  0
   -6.1964   -1.3161    1.6482 C   0  0  0  0  0  0  0  0  0  0  0  0
   -4.7471   -1.6965    1.5173 C   0  0  0  0  0  0  0  0  0  0  0  0
   -3.9728   -0.4835    1.1183 C   0  0  0  0  0  0  0  0  0  0  0  0
   -4.2375    0.7781    1.3320 O   0  0  0  0  0  0  0  0  0  0  0  0
   -3.4128    1.5582    0.6642 C   0  0  0  0  0  0  0  0  0  0  0  0
   -3.4568    2.8818    0.2511 C   0  0  0  0  0  0  0  0  0  0  0  0
   -3.0567    3.2196   -1.0335 C   0  0  0  0  0  0  0  0  0  0  0  0
   -2.1568    2.4234   -1.7056 C   0  0  0  0  0  0  0  0  0  0  0  0
   -1.8190    1.2148   -1.1249 C   0  0  0  0  0  0  0  0  0  0  0  0
   -2.5380    0.7429   -0.0389 C   0  0  0  0  0  0  0  0  0  0  0  0
   -2.7103   -0.5091    0.5401 C   0  0  0  0  0  0  0  0  0  0  0  0
   -1.9442   -1.7020    0.2488 C   0  0  0  0  0  0  0  0  0  0  0  0
   -2.4608   -2.8585    0.3226 O   0  0  0  0  0  0  0  0  0  0  0  0
   -0.4821   -1.6834    0.1054 C   0  0  0  0  0  0  0  0  0  0  0  0
    0.2954   -1.8463    1.2367 C   0  0  0  0  0  0  0  0  0  0  0  0
    1.6770   -1.7653    1.1248 C   0  0  0  0  0  0  0  0  0  0  0  0
    2.8016   -1.4694    2.8892 I   0  0  0  0  0  0  0  0  0  0  0  0
    2.2183   -1.5339   -0.1331 C   0  0  0  0  0  0  0  0  0  0  0  0
    3.5931   -1.3995   -0.2666 O   0  0  0  0  0  0  0  0  0  0  0  0
    4.2046   -0.1430    0.0088 C   0  0  0  0  0  0  0  0  0  0  0  0
    5.6339   -0.1864   -0.4558 C   0  0  0  0  0  0  0  0  0  0  0  0
    6.2708    1.0524   -0.0811 N   0  0  0  0  0  0  0  0  0  0  0  0
    5.4430    2.1988   -0.3757 C   0  0  0  0  0  0  0  0  0  0  0  0
    5.9743    3.4310    0.3037 C   0  0  0  0  0  0  0  0  0  0  0  0
    7.6124    1.1783   -0.5945 C   0  0  0  0  0  0  0  0  0  0  0  0
    7.6484    1.9760   -1.8731 C   0  0  0  0  0  0  0  0  0  0  0  0
    1.4153   -1.1666   -1.2071 C   0  0  0  0  0  0  0  0  0  0  0  0
    2.1212    0.1245   -2.7288 I   0  0  0  0  0  0  0  0  0  0  0  0
    0.0894   -1.5782   -1.1584 C   0  0  0  0  0  0  0  0  0  0  0  0
  1  2  1  0
  2  3  1  0
  3  4  1  0
  4  5  1  0
  5  6  1  0
  6  7  1  0
  7  8  2  0
  8  9  1  0
  9 10  2  0
 10 11  1  0
 11 12  2  0
 12 13  1  0
 13 14  1  0
 14 15  2  0
 14 16  1  0
 16 17  2  0
 17 18  1  0
 18 19  1  0
 18 20  2  0
 20 21  1  0
 21 22  1  0
 22 23  1  0
 23 24  1  0
 24 25  1  0
 25 26  1  0
 24 27  1  0
 27 28  1  0
 20 29  1  0
 29 30  1  0
 29 31  2  0
 13  5  2  0
 31 16  1  0
 12  7  1  0
M  END
>  <supplier_code>  (957) 
DB01118

>  <zinc_id>  (957) 
ZINC000003830212

>  <catalog_short_name>  (957) 
dbfda

$$$$

     RDKit          3D

 14 15  0  0  0  0  0  0  0  0999 V2000
   -2.9252   -2.2748    0.2439 C   0  0  0  0  0  0  0  0  0  0  0  0
   -2.0289   -1.1100   -0.0362 C   0  0  0  0  0  0  0  0  0  0  0  0
   -2.2539   -0.0498    0.6774 N   0  0  0  0  0  0  0  0  0  0  0  0
   -1.2093    1.3072    0.3883 S   0  0  0  0  0  0  0  0  0  0  0  0
   -1.0735    2.1798    1.5826 O   0  0  0  0  0  0  0  0  0  0  0  0
   -1.7984    2.0325   -0.8014 O   0  0  0  0  0  0  0  0  0  0  0  0
    0.3255    0.6085   -0.1162 C   0  0  0  0  0  0  0  0  0  0  0  0
    1.4979    0.8162    0.6007 C   0  0  0  0  0  0  0  0  0  0  0  0
    2.6242    0.0540    0.3135 C   0  0  0  0  0  0  0  0  0  0  0  0
    3.7202   -0.3750    1.6181 Cl  0  0  0  0  0  0  0  0  0  0  0  0
    2.5907   -0.6467   -0.8857 C   0  0  0  0  0  0  0  0  0  0  0  0
    1.3841   -0.9425   -1.5112 C   0  0  0  0  0  0  0  0  0  0  0  0
    0.1880   -0.4552   -1.0023 C   0  0  0  0  0  0  0  0  0  0  0  0
   -1.0414   -1.1442   -1.0713 N   0  0  0  0  0  0  0  0  0  0  0  0
  1  2  1  0
  2  3  2  0
  3  4  1  0
  4  5  2  0
  4  6  2  0
  4  7  1  0
  7  8  2  0
  8  9  1  0
  9 10  1  0
  9 11  2  0
 11 12  1  0
 12 13  2  0
 13 14  1  0
 14  2  1  0
 13  7  1  0
M  END
>  <supplier_code>  (958) 
DB01119

>  <zinc_id>  (958) 
ZINC000003872277

>  <catalog_short_name>  (958) 
dbfda

$$$$

     RDKit          3D

 16 18  0  0  0  0  0  0  0  0999 V2000
   -4.4583    1.4866   -0.6880 N   0  0  0  0  0  0  0  0  0  0  0  0
   -3.4921    0.5166   -0.2699 C   0  0  0  0  0  0  0  0  0  0  0  0
   -3.3245   -0.6420   -1.0027 C   0  0  0  0  0  0  0  0  0  0  0  0
   -2.1972   -1.4174   -0.7621 C   0  0  0  0  0  0  0  0  0  0  0  0
   -1.2080   -1.0088    0.1234 C   0  0  0  0  0  0  0  0  0  0  0  0
    0.0252   -1.6488    0.1506 C   0  0  0  0  0  0  0  0  0  0  0  0
    1.1999   -0.9138    0.2628 C   0  0  0  0  0  0  0  0  0  0  0  0
    2.4174   -1.5228   -0.0160 C   0  0  0  0  0  0  0  0  0  0  0  0
    3.5151   -0.7465   -0.3587 C   0  0  0  0  0  0  0  0  0  0  0  0
    3.3753    0.6312   -0.3645 C   0  0  0  0  0  0  0  0  0  0  0  0
    4.4651    1.3751   -0.8745 N   0  0  0  0  0  0  0  0  0  0  0  0
    2.1842    1.1983   -0.0036 C   0  0  0  0  0  0  0  0  0  0  0  0
    1.1687    0.4400    0.5679 C   0  0  0  0  0  0  0  0  0  0  0  0
   -0.0464    0.9695    0.7989 N   0  0  0  0  0  0  0  0  0  0  0  0
   -1.1972    0.3280    0.4969 C   0  0  0  0  0  0  0  0  0  0  0  0
   -2.4274    0.9550    0.5064 C   0  0  0  0  0  0  0  0  0  0  0  0
  1  2  1  0
  2  3  2  0
  3  4  1  0
  4  5  2  0
  5  6  1  0
  6  7  2  0
  7  8  1  0
  8  9  2  0
  9 10  1  0
 10 11  1  0
 10 12  2  0
 12 13  1  0
 13 14  2  0
 14 15  1  0
 15 16  2  0
 16  2  1  0
 15  5  1  0
 13  7  1  0
M  END
>  <supplier_code>  (959) 
DB01123

>  <zinc_id>  (959) 
ZINC000003775644

>  <catalog_short_name>  (959) 
dbfda

$$$$

     RDKit          3D

 18 18  0  0  0  0  0  0  0  0999 V2000
    5.3607    2.1415    1.6798 C   0  0  0  0  0  0  0  0  0  0  0  0
    5.2626    1.0598    0.6100 C   0  0  0  0  0  0  0  0  0  0  0  0
    4.5253    1.6971   -0.5614 C   0  0  0  0  0  0  0  0  0  0  0  0
    3.0731    1.2615   -0.4594 C   0  0  0  0  0  0  0  0  0  0  0  0
    3.0871   -0.1958   -0.3809 N   0  0  0  0  0  0  0  0  0  0  0  0
    1.9184   -0.9627   -0.1703 C   0  0  0  0  0  0  0  0  0  0  0  0
    1.7221   -2.1255   -0.9130 O   0  0  0  0  0  0  0  0  0  0  0  0
    0.9226   -0.3806    0.4097 N   0  0  0  0  0  0  0  0  0  0  0  0
   -0.5023   -1.3352    0.6784 S   0  0  0  0  0  0  0  0  0  0  0  0
   -0.5301   -1.7505    2.1127 O   0  0  0  0  0  0  0  0  0  0  0  0
   -0.5063   -2.5552   -0.2079 O   0  0  0  0  0  0  0  0  0  0  0  0
   -1.9504   -0.4368    0.3014 C   0  0  0  0  0  0  0  0  0  0  0  0
   -1.9819    0.9164    0.5216 C   0  0  0  0  0  0  0  0  0  0  0  0
   -3.1931    1.5677    0.7199 C   0  0  0  0  0  0  0  0  0  0  0  0
   -4.3297    0.9027    0.3209 C   0  0  0  0  0  0  0  0  0  0  0  0
   -5.5382    1.7114   -0.0313 C   0  0  0  0  0  0  0  0  0  0  0  0
   -4.2694   -0.4151   -0.0848 C   0  0  0  0  0  0  0  0  0  0  0  0
   -3.0705   -1.1005   -0.1831 C   0  0  0  0  0  0  0  0  0  0  0  0
  1  2  1  0
  2  3  1  0
  3  4  1  0
  4  5  1  0
  5  6  1  0
  6  7  1  0
  6  8  2  0
  8  9  1  0
  9 10  2  0
  9 11  2  0
  9 12  1  0
 12 13  2  0
 13 14  1  0
 14 15  2  0
 15 16  1  0
 15 17  1  0
 17 18  2  0
 18 12  1  0
M  END
>  <supplier_code>  (960) 
DB01124

>  <zinc_id>  (960) 
ZINC000001530703

>  <catalog_short_name>  (960) 
dbfda

$$$$

     RDKit          2D

 37 41  0  0  0  0  0  0  0  0999 V2000
   -0.0360    0.4829    0.0000 C   0  0  0  0  0  0  0  0  0  0  0  0
    1.0863   -0.5124    0.0000 C   0  0  0  0  0  0  0  0  0  0  0  0
    1.5391    0.9176    0.0000 C   0  0  0  0  0  0  0  0  0  0  0  0
    3.0039    1.2405    0.0000 C   0  0  0  0  0  0  0  0  0  0  0  0
    4.0159    0.1333    0.0000 C   0  0  0  0  0  0  0  0  0  0  0  0
    3.5631   -1.2967    0.0000 C   0  0  0  0  0  0  0  0  0  0  0  0
    4.5752   -2.4038    0.0000 C   0  0  0  0  0  0  0  0  0  0  0  0
    6.0400   -2.0810    0.0000 C   0  0  0  0  0  0  0  0  0  0  0  0
    6.4928   -0.6509    0.0000 C   0  0  0  0  0  0  0  0  0  0  0  0
    7.9577   -0.3280    0.0000 N   0  0  0  0  0  0  0  0  0  0  0  0
    8.4105    1.1020    0.0000 C   0  0  0  0  0  0  0  0  0  0  0  0
    9.8753    1.4249    0.0000 O   0  0  0  0  0  0  0  0  0  0  0  0
    7.3984    2.2091    0.0000 C   0  0  0  0  0  0  0  0  0  0  0  0
    5.9336    1.8862    0.0000 C   0  0  0  0  0  0  0  0  0  0  0  0
    5.4808    0.4562    0.0000 C   0  0  0  0  0  0  0  0  0  0  0  0
    4.4687    1.5634    0.0000 C   0  0  0  0  0  0  0  0  0  0  0  0
    2.0983   -1.6196    0.0000 C   0  0  0  0  0  0  0  0  0  0  0  0
    1.3581   -2.9242    0.0000 C   0  0  0  0  0  0  0  0  0  0  0  0
   -0.1114   -2.6234    0.0000 C   0  0  0  0  0  0  0  0  0  0  0  0
   -0.2794   -1.1328    0.0000 C   0  0  0  0  0  0  0  0  0  0  0  0
   -1.5841   -0.3926    0.0000 C   0  0  0  0  0  0  0  0  0  0  0  0
   -1.5953    1.1074    0.0000 O   0  0  0  0  0  0  0  0  0  0  0  0
   -2.8774   -1.1523    0.0000 N   0  0  0  0  0  0  0  0  0  0  0  0
   -4.1821   -0.4121    0.0000 C   0  0  0  0  0  0  0  0  0  0  0  0
   -4.1933    1.0879    0.0000 C   0  0  0  0  0  0  0  0  0  0  0  0
   -5.4980    1.8281    0.0000 C   0  0  0  0  0  0  0  0  0  0  0  0
   -5.5092    3.3281    0.0000 C   0  0  0  0  0  0  0  0  0  0  0  0
   -5.5205    4.8280    0.0000 F   0  0  0  0  0  0  0  0  0  0  0  0
   -4.0093    3.3393    0.0000 F   0  0  0  0  0  0  0  0  0  0  0  0
   -7.0092    3.3168    0.0000 F   0  0  0  0  0  0  0  0  0  0  0  0
   -6.7913    1.0684    0.0000 C   0  0  0  0  0  0  0  0  0  0  0  0
   -6.7801   -0.4316    0.0000 C   0  0  0  0  0  0  0  0  0  0  0  0
   -5.4754   -1.1718    0.0000 C   0  0  0  0  0  0  0  0  0  0  0  0
   -5.4642   -2.6718    0.0000 C   0  0  0  0  0  0  0  0  0  0  0  0
   -5.4529   -4.1717    0.0000 F   0  0  0  0  0  0  0  0  0  0  0  0
   -6.9641   -2.6830    0.0000 F   0  0  0  0  0  0  0  0  0  0  0  0
   -3.9642   -2.6605    0.0000 F   0  0  0  0  0  0  0  0  0  0  0  0
  2  1  1  6
  2  3  1  0
  3  4  1  0
  5  4  1  6
  5  6  1  0
  6  7  1  1
  7  8  1  0
  9  8  1  6
  9 10  1  0
 10 11  1  0
 11 12  2  0
 11 13  1  0
 13 14  2  0
 14 15  1  0
 15 16  1  6
  6 17  1  0
 17 18  1  6
 18 19  1  0
 19 20  1  0
 20 21  1  6
 21 22  2  0
 21 23  1  0
 23 24  1  0
 24 25  2  0
 25 26  1  0
 26 27  1  0
 27 28  1  0
 27 29  1  0
 27 30  1  0
 26 31  2  0
 31 32  1  0
 32 33  2  0
 33 34  1  0
 34 35  1  0
 34 36  1  0
 34 37  1  0
 17  2  1  0
 33 24  1  0
 20  2  1  0
 15  5  1  0
 15  9  1  0
M  END
>  <supplier_code>  (961) 
DB01126

>  <zinc_id>  (961) 
ZINC000003932831

>  <catalog_short_name>  (961) 
dbfda

$$$$

     RDKit          3D

 24 26  0  0  0  0  0  0  0  0999 V2000
    5.6242    0.7485    0.9964 Cl  0  0  0  0  0  0  0  0  0  0  0  0
    4.7319   -0.0123    0.6968 C   0  0  0  0  0  0  0  0  0  0  0  0
    3.6128   -0.1204    1.5187 C   0  0  0  0  0  0  0  0  0  0  0  0
    2.3956   -0.5854    1.0322 C   0  0  0  0  0  0  0  0  0  0  0  0
    2.2336   -0.9128   -0.3001 C   0  0  0  0  0  0  0  0  0  0  0  0
    1.1130   -0.4304   -1.1520 C   0  0  0  0  0  0  0  0  0  0  0  0
   -0.1287   -0.7588   -0.6778 O   0  0  0  0  0  0  0  0  0  0  0  0
   -0.1704   -0.1966    0.7370 C   0  0  2  0  0  0  0  0  0  0  0  0
   -1.2217   -1.3022    1.3443 C   0  0  0  0  0  0  0  0  0  0  0  0
   -1.8083   -2.0647    0.3300 N   0  0  0  0  0  0  0  0  0  0  0  0
   -2.3349   -1.8124   -0.8963 C   0  0  0  0  0  0  0  0  0  0  0  0
   -2.9376   -2.9592   -1.3515 C   0  0  0  0  0  0  0  0  0  0  0  0
   -3.1194   -3.7025   -0.2603 N   0  0  0  0  0  0  0  0  0  0  0  0
   -2.6202   -3.0560    0.7852 C   0  0  0  0  0  0  0  0  0  0  0  0
   -1.3751    0.8445    0.4037 C   0  0  0  0  0  0  0  0  0  0  0  0
   -1.1507    1.6207   -0.7256 C   0  0  0  0  0  0  0  0  0  0  0  0
   -1.9031    2.7704   -0.8138 C   0  0  0  0  0  0  0  0  0  0  0  0
   -2.0551    3.5067    0.3451 C   0  0  0  0  0  0  0  0  0  0  0  0
   -2.1045    5.2611    0.1793 Cl  0  0  0  0  0  0  0  0  0  0  0  0
   -1.9244    2.9038    1.5713 C   0  0  0  0  0  0  0  0  0  0  0  0
   -1.5040    1.5874    1.5792 C   0  0  0  0  0  0  0  0  0  0  0  0
   -1.4273    0.8090    3.1572 Cl  0  0  0  0  0  0  0  0  0  0  0  0
    3.4243   -1.2586   -0.9323 C   0  0  0  0  0  0  0  0  0  0  0  0
    4.6501   -0.8797   -0.3895 C   0  0  0  0  0  0  0  0  0  0  0  0
  1  2  1  0
  2  3  2  0
  3  4  1  0
  4  5  2  0
  5  6  1  0
  6  7  1  0
  8  7  1  6
  8  9  1  0
  9 10  1  0
 10 11  1  0
 11 12  2  0
 12 13  1  0
 13 14  2  0
  8 15  1  0
 15 16  2  0
 16 17  1  0
 17 18  2  0
 18 19  1  0
 18 20  1  0
 20 21  2  0
 21 22  1  0
  5 23  1  0
 23 24  2  0
 24  2  1  0
 14 10  1  0
 21 15  1  0
M  END
>  <supplier_code>  (962) 
DB01127

>  <zinc_id>  (962) 
ZINC000000596881

>  <catalog_short_name>  (962) 
dbfda

$$$$

     RDKit          3D

 24 26  0  0  0  0  0  0  0  0999 V2000
    6.6800    0.5805   -0.2613 Cl  0  0  0  0  0  0  0  0  0  0  0  0
    5.5437   -0.0082   -0.2220 C   0  0  0  0  0  0  0  0  0  0  0  0
    4.8709   -0.5955   -1.2872 C   0  0  0  0  0  0  0  0  0  0  0  0
    3.5116   -0.8859   -1.2482 C   0  0  0  0  0  0  0  0  0  0  0  0
    2.7593   -0.3334   -0.2136 C   0  0  0  0  0  0  0  0  0  0  0  0
    1.4779    0.3662   -0.4110 C   0  0  0  0  0  0  0  0  0  0  0  0
    0.4490   -0.5404   -0.3830 O   0  0  0  0  0  0  0  0  0  0  0  0
   -0.5215    0.3135    0.4301 C   0  0  1  0  0  0  0  0  0  0  0  0
   -0.8405    1.2689   -0.8838 C   0  0  0  0  0  0  0  0  0  0  0  0
   -1.5378    2.3519   -0.2527 N   0  0  0  0  0  0  0  0  0  0  0  0
   -1.1066    3.4492    0.3784 C   0  0  0  0  0  0  0  0  0  0  0  0
   -2.1750    3.9236    1.1281 C   0  0  0  0  0  0  0  0  0  0  0  0
   -3.2880    3.2751    0.7276 N   0  0  0  0  0  0  0  0  0  0  0  0
   -2.8849    2.4552   -0.2612 C   0  0  0  0  0  0  0  0  0  0  0  0
   -1.8217   -0.6126    0.1646 C   0  0  0  0  0  0  0  0  0  0  0  0
   -2.6759   -0.5466    1.2515 C   0  0  0  0  0  0  0  0  0  0  0  0
   -3.4524   -1.6613    1.5392 C   0  0  0  0  0  0  0  0  0  0  0  0
   -3.3699   -2.7679    0.7075 C   0  0  0  0  0  0  0  0  0  0  0  0
   -4.5891   -4.0415    0.7603 Cl  0  0  0  0  0  0  0  0  0  0  0  0
   -2.6312   -2.7370   -0.4689 C   0  0  0  0  0  0  0  0  0  0  0  0
   -1.7502   -1.6779   -0.6218 C   0  0  0  0  0  0  0  0  0  0  0  0
   -0.8855   -1.3785   -2.1268 Cl  0  0  0  0  0  0  0  0  0  0  0  0
    3.4446   -0.2664    0.9949 C   0  0  0  0  0  0  0  0  0  0  0  0
    4.7931    0.0691    0.9458 C   0  0  0  0  0  0  0  0  0  0  0  0
  1  2  1  0
  2  3  2  0
  3  4  1  0
  4  5  2  0
  5  6  1  0
  6  7  1  0
  8  7  1  6
  8  9  1  0
  9 10  1  0
 10 11  1  0
 11 12  2  0
 12 13  1  0
 13 14  2  0
  8 15  1  0
 15 16  2  0
 16 17  1  0
 17 18  2  0
 18 19  1  0
 18 20  1  0
 20 21  2  0
 21 22  1  0
  5 23  1  0
 23 24  2  0
 24  2  1  0
 14 10  1  0
 21 15  1  0
M  END
>  <supplier_code>  (963) 
DB01127

>  <zinc_id>  (963) 
ZINC000000643055

>  <catalog_short_name>  (963) 
dbfda

$$$$

     RDKit          3D

 29 30  0  0  0  0  0  0  0  0999 V2000
    1.2923    1.3659   -1.4817 C   0  0  0  0  0  0  0  0  0  0  0  0
    1.2978    0.8489   -0.0876 C   0  0  2  0  0  0  0  0  0  0  0  0
    2.1090    1.6807    0.6871 O   0  0  0  0  0  0  0  0  0  0  0  0
    1.6799   -0.5952    0.0300 C   0  0  0  0  0  0  0  0  0  0  0  0
    3.0950   -1.0385   -0.9203 S   0  0  0  0  0  0  0  0  0  0  0  0
    3.3609   -2.5044   -0.6566 O   0  0  0  0  0  0  0  0  0  0  0  0
    2.8828   -0.8953   -2.3904 O   0  0  0  0  0  0  0  0  0  0  0  0
    4.5138   -0.1729   -0.3771 C   0  0  0  0  0  0  0  0  0  0  0  0
    5.2183    0.6970   -1.1734 C   0  0  0  0  0  0  0  0  0  0  0  0
    6.5419    0.9311   -0.8250 C   0  0  0  0  0  0  0  0  0  0  0  0
    7.0452    0.5354    0.4076 C   0  0  0  0  0  0  0  0  0  0  0  0
    8.3888    0.4079    0.5858 F   0  0  0  0  0  0  0  0  0  0  0  0
    6.1513    0.0414    1.3408 C   0  0  0  0  0  0  0  0  0  0  0  0
    4.8711   -0.3176    0.9521 C   0  0  0  0  0  0  0  0  0  0  0  0
   -0.0946    0.9840    0.4412 C   0  0  0  0  0  0  0  0  0  0  0  0
   -0.4803    2.0698    0.9701 O   0  0  0  0  0  0  0  0  0  0  0  0
   -0.8692   -0.1691    0.7916 N   0  0  0  0  0  0  0  0  0  0  0  0
   -2.2621   -0.1244    1.0032 C   0  0  0  0  0  0  0  0  0  0  0  0
   -2.8212    0.9474    1.6563 C   0  0  0  0  0  0  0  0  0  0  0  0
   -4.1171    1.3572    1.3683 C   0  0  0  0  0  0  0  0  0  0  0  0
   -4.8878    0.5862    0.5080 C   0  0  0  0  0  0  0  0  0  0  0  0
   -5.9133    1.1783   -0.3209 C   0  0  0  0  0  0  0  0  0  0  0  0
   -6.6669    1.6538   -1.0700 N   0  0  0  0  0  0  0  0  0  0  0  0
   -4.4193   -0.6639    0.1243 C   0  0  0  0  0  0  0  0  0  0  0  0
   -5.4457   -1.6699   -0.2644 C   0  0  0  0  0  0  0  0  0  0  0  0
   -5.2589   -2.8147    0.4972 F   0  0  0  0  0  0  0  0  0  0  0  0
   -6.7264   -1.2396   -0.0290 F   0  0  0  0  0  0  0  0  0  0  0  0
   -5.3516   -2.0158   -1.5920 F   0  0  0  0  0  0  0  0  0  0  0  0
   -3.1337   -1.0639    0.4685 C   0  0  0  0  0  0  0  0  0  0  0  0
  2  1  1  6
  2  3  1  0
  2  4  1  0
  4  5  1  0
  5  6  2  0
  5  7  2  0
  5  8  1  0
  8  9  2  0
  9 10  1  0
 10 11  2  0
 11 12  1  0
 11 13  1  0
 13 14  2  0
  2 15  1  0
 15 16  2  0
 15 17  1  0
 17 18  1  0
 18 19  2  0
 19 20  1  0
 20 21  2  0
 21 22  1  0
 22 23  3  0
 21 24  1  0
 24 25  1  0
 25 26  1  0
 25 27  1  0
 25 28  1  0
 24 29  2  0
 14  8  1  0
 29 18  1  0
M  END
>  <supplier_code>  (964) 
DB01128

>  <zinc_id>  (964) 
ZINC000000538564

>  <catalog_short_name>  (964) 
dbfda

$$$$

     RDKit          3D

 29 30  0  0  0  0  0  0  0  0999 V2000
   -1.7145   -1.7705    1.1125 C   0  0  0  0  0  0  0  0  0  0  0  0
   -1.2721   -1.4735   -0.2289 C   0  0  1  0  0  0  0  0  0  0  0  0
   -0.9239   -2.6325   -0.9419 O   0  0  0  0  0  0  0  0  0  0  0  0
   -2.3117   -0.7482   -1.0320 C   0  0  0  0  0  0  0  0  0  0  0  0
   -3.9302   -1.3911   -0.7458 S   0  0  0  0  0  0  0  0  0  0  0  0
   -4.5185   -1.9578   -2.0184 O   0  0  0  0  0  0  0  0  0  0  0  0
   -3.9527   -2.4935    0.2640 O   0  0  0  0  0  0  0  0  0  0  0  0
   -4.9657   -0.1085   -0.1352 C   0  0  0  0  0  0  0  0  0  0  0  0
   -5.7831    0.6422   -0.9393 C   0  0  0  0  0  0  0  0  0  0  0  0
   -6.0156    1.9887   -0.6867 C   0  0  0  0  0  0  0  0  0  0  0  0
   -5.3869    2.6227    0.3781 C   0  0  0  0  0  0  0  0  0  0  0  0
   -4.9254    3.9007    0.2495 F   0  0  0  0  0  0  0  0  0  0  0  0
   -4.9208    1.7766    1.3777 C   0  0  0  0  0  0  0  0  0  0  0  0
   -4.6136    0.4530    1.0862 C   0  0  0  0  0  0  0  0  0  0  0  0
   -0.0134   -0.6880   -0.0786 C   0  0  0  0  0  0  0  0  0  0  0  0
    0.1886    0.4241   -0.6072 O   0  0  0  0  0  0  0  0  0  0  0  0
    0.8813   -1.0641    0.9749 N   0  0  0  0  0  0  0  0  0  0  0  0
    2.2866   -0.9077    0.7451 C   0  0  0  0  0  0  0  0  0  0  0  0
    2.9334   -2.0341    0.2542 C   0  0  0  0  0  0  0  0  0  0  0  0
    4.1869   -1.9202   -0.3156 C   0  0  0  0  0  0  0  0  0  0  0  0
    4.8119   -0.6952   -0.2190 C   0  0  0  0  0  0  0  0  0  0  0  0
    6.2417   -0.6028   -0.3925 C   0  0  0  0  0  0  0  0  0  0  0  0
    7.3810   -0.5739   -0.5356 N   0  0  0  0  0  0  0  0  0  0  0  0
    4.1040    0.4420    0.0855 C   0  0  0  0  0  0  0  0  0  0  0  0
    4.7327    1.7944    0.1218 C   0  0  0  0  0  0  0  0  0  0  0  0
    5.6572    1.9077   -0.8891 F   0  0  0  0  0  0  0  0  0  0  0  0
    3.7306    2.7390   -0.0752 F   0  0  0  0  0  0  0  0  0  0  0  0
    5.2666    2.0319    1.3670 F   0  0  0  0  0  0  0  0  0  0  0  0
    2.8456    0.3386    0.6490 C   0  0  0  0  0  0  0  0  0  0  0  0
  2  1  1  1
  2  3  1  0
  2  4  1  0
  4  5  1  0
  5  6  2  0
  5  7  2  0
  5  8  1  0
  8  9  2  0
  9 10  1  0
 10 11  2  0
 11 12  1  0
 11 13  1  0
 13 14  2  0
  2 15  1  0
 15 16  2  0
 15 17  1  0
 17 18  1  0
 18 19  2  0
 19 20  1  0
 20 21  2  0
 21 22  1  0
 22 23  3  0
 21 24  1  0
 24 25  1  0
 25 26  1  0
 25 27  1  0
 25 28  1  0
 24 29  2  0
 14  8  1  0
 29 18  1  0
M  END
>  <supplier_code>  (965) 
DB01128

>  <zinc_id>  (965) 
ZINC000000897408

>  <catalog_short_name>  (965) 
dbfda

$$$$

     RDKit          3D

 25 27  0  0  0  0  0  0  0  0999 V2000
    6.7137    2.0911    0.6636 C   0  0  0  0  0  0  0  0  0  0  0  0
    6.4064    2.3552    0.4435 O   0  0  0  0  0  0  0  0  0  0  0  0
    5.3159    2.2447   -0.4342 C   0  0  0  0  0  0  0  0  0  0  0  0
    4.0535    1.9815    0.3773 C   0  0  0  0  0  0  0  0  0  0  0  0
    3.9379    0.5036    0.7223 C   0  0  0  0  0  0  0  0  0  0  0  0
    3.7338   -0.2816   -0.4495 O   0  0  0  0  0  0  0  0  0  0  0  0
    3.0370   -1.4887   -0.3373 C   0  0  0  0  0  0  0  0  0  0  0  0
    3.5664   -2.5873    0.3234 C   0  0  0  0  0  0  0  0  0  0  0  0
    2.6876   -3.5631    0.7771 C   0  0  0  0  0  0  0  0  0  0  0  0
    1.3608   -3.3096    0.8865 N   0  0  0  0  0  0  0  0  0  0  0  0
    0.8057   -2.2384    0.2719 C   0  0  0  0  0  0  0  0  0  0  0  0
   -0.6697   -1.9861    0.2993 C   0  0  0  0  0  0  0  0  0  0  0  0
   -0.8787   -0.3103   -0.4381 S   0  0  0  0  0  0  0  0  0  0  0  0
   -0.5465    0.5671    0.8059 O   0  0  0  0  0  0  0  0  0  0  0  0
   -2.6844   -0.1867   -0.4747 C   0  0  0  0  0  0  0  0  0  0  0  0
   -3.5469   -0.4568    0.5023 N   0  0  0  0  0  0  0  0  0  0  0  0
   -4.7558    0.1121    0.2636 C   0  0  0  0  0  0  0  0  0  0  0  0
   -5.6425    0.5744    1.2292 C   0  0  0  0  0  0  0  0  0  0  0  0
   -6.3663    1.7317    1.0962 C   0  0  0  0  0  0  0  0  0  0  0  0
   -6.0494    2.6136    0.0792 C   0  0  0  0  0  0  0  0  0  0  0  0
   -5.3767    2.0642   -1.0054 C   0  0  0  0  0  0  0  0  0  0  0  0
   -4.5447    0.9684   -0.8102 C   0  0  0  0  0  0  0  0  0  0  0  0
   -3.3219    0.6671   -1.3111 N   0  0  0  0  0  0  0  0  0  0  0  0
    1.6702   -1.4789   -0.5027 C   0  0  0  0  0  0  0  0  0  0  0  0
    1.0947   -0.5873   -1.5576 C   0  0  0  0  0  0  0  0  0  0  0  0
  1  2  1  0
  2  3  1  0
  3  4  1  0
  4  5  1  0
  5  6  1  0
  6  7  1  0
  7  8  2  0
  8  9  1  0
  9 10  2  0
 10 11  1  0
 11 12  1  0
 13 12  1  1
 13 14  2  0
 13 15  1  0
 15 16  2  0
 16 17  1  0
 17 18  2  0
 18 19  1  0
 19 20  2  0
 20 21  1  0
 21 22  2  0
 22 23  1  0
 11 24  2  0
 24 25  1  0
 24  7  1  0
 23 15  1  0
 22 17  1  0
M  END
>  <supplier_code>  (966) 
DB01129

>  <zinc_id>  (966) 
ZINC000001530935

>  <catalog_short_name>  (966) 
dbfda

$$$$

     RDKit          3D

 25 27  0  0  0  0  0  0  0  0999 V2000
    7.1238    1.8696   -0.0993 C   0  0  0  0  0  0  0  0  0  0  0  0
    6.5833    3.0121   -0.6423 O   0  0  0  0  0  0  0  0  0  0  0  0
    5.2602    3.2019   -0.2825 C   0  0  0  0  0  0  0  0  0  0  0  0
    4.6999    1.8366    0.0827 C   0  0  0  0  0  0  0  0  0  0  0  0
    3.2992    1.7321   -0.5064 C   0  0  0  0  0  0  0  0  0  0  0  0
    3.2044    0.4519   -1.0927 O   0  0  0  0  0  0  0  0  0  0  0  0
    2.7790   -0.6540   -0.3667 C   0  0  0  0  0  0  0  0  0  0  0  0
    3.6190   -1.7326   -0.1794 C   0  0  0  0  0  0  0  0  0  0  0  0
    3.1029   -2.8960    0.3528 C   0  0  0  0  0  0  0  0  0  0  0  0
    1.8349   -2.9682    0.8011 N   0  0  0  0  0  0  0  0  0  0  0  0
    1.0362   -1.8903    0.6155 C   0  0  0  0  0  0  0  0  0  0  0  0
   -0.4002   -2.0389    0.9958 C   0  0  0  0  0  0  0  0  0  0  0  0
   -1.3816   -1.9008   -0.5557 S   0  0  0  0  0  0  0  0  0  0  0  0
   -1.9815   -3.3386   -0.6124 O   0  0  0  0  0  0  0  0  0  0  0  0
   -2.8407   -0.9877    0.0029 C   0  0  0  0  0  0  0  0  0  0  0  0
   -3.7845   -0.6160   -0.8959 N   0  0  0  0  0  0  0  0  0  0  0  0
   -4.6707    0.1994   -0.2778 C   0  0  0  0  0  0  0  0  0  0  0  0
   -5.8427    0.8260   -0.6415 C   0  0  0  0  0  0  0  0  0  0  0  0
   -6.2969    1.9458    0.0391 C   0  0  0  0  0  0  0  0  0  0  0  0
   -5.6395    2.3794    1.1647 C   0  0  0  0  0  0  0  0  0  0  0  0
   -4.5816    1.6439    1.6380 C   0  0  0  0  0  0  0  0  0  0  0  0
   -4.0813    0.5925    0.9133 C   0  0  0  0  0  0  0  0  0  0  0  0
   -2.9426   -0.1170    1.0008 N   0  0  0  0  0  0  0  0  0  0  0  0
    1.4335   -0.7798   -0.0949 C   0  0  0  0  0  0  0  0  0  0  0  0
    0.4675    0.2286   -0.6035 C   0  0  0  0  0  0  0  0  0  0  0  0
  1  2  1  0
  2  3  1  0
  3  4  1  0
  4  5  1  0
  5  6  1  0
  6  7  1  0
  7  8  2  0
  8  9  1  0
  9 10  2  0
 10 11  1  0
 11 12  1  0
 13 12  1  1
 13 14  2  0
 13 15  1  0
 15 16  2  0
 16 17  1  0
 17 18  2  0
 18 19  1  0
 19 20  2  0
 20 21  1  0
 21 22  2  0
 22 23  1  0
 11 24  2  0
 24 25  1  0
 24  7  1  0
 23 15  1  0
 22 17  1  0
M  END
>  <supplier_code>  (967) 
DB01129

>  <zinc_id>  (967) 
ZINC000004618208

>  <catalog_short_name>  (967) 
dbfda

$$$$

     RDKit          3D

 35 38  0  0  0  0  0  0  0  0999 V2000
    3.8131    5.1844    1.9979 C   0  0  0  0  0  0  0  0  0  0  0  0
    4.3610    4.9817    0.6081 C   0  0  0  0  0  0  0  0  0  0  0  0
    3.3136    4.3407   -0.1189 O   0  0  0  0  0  0  0  0  0  0  0  0
    2.6885    3.2759    0.4771 C   0  0  0  0  0  0  0  0  0  0  0  0
    2.8322    2.9241    1.6756 O   0  0  0  0  0  0  0  0  0  0  0  0
    1.8308    2.5135   -0.2735 O   0  0  0  0  0  0  0  0  0  0  0  0
    1.6359    1.1219   -0.1054 C   0  0  1  0  0  0  0  0  0  0  0  0
    2.3379    0.4336   -1.2003 C   0  0  0  0  0  0  0  0  0  0  0  0
    3.2720    0.9974   -1.7725 O   0  0  0  0  0  0  0  0  0  0  0  0
    2.4468   -1.0620   -1.2493 C   0  0  0  0  0  0  0  0  0  0  0  0
    3.7736   -1.4080   -0.8592 O   0  0  0  0  0  0  0  0  0  0  0  0
    3.8752   -2.5047    0.0039 C   0  0  0  0  0  0  0  0  0  0  0  0
    2.9835   -3.4046   -0.0321 O   0  0  0  0  0  0  0  0  0  0  0  0
    5.1704   -2.7119    0.6815 C   0  0  0  0  0  0  0  0  0  0  0  0
    6.1286   -3.4988   -0.1779 C   0  0  0  0  0  0  0  0  0  0  0  0
    1.9655    0.6154    1.2663 C   0  0  0  0  0  0  0  0  0  0  0  0
    0.8296   -0.3124    1.6970 C   0  0  0  0  0  0  0  0  0  0  0  0
    0.1794   -0.6619    0.2302 C   0  0  1  0  0  0  0  0  0  0  0  0
   -1.4281   -0.6558    0.8207 C   0  0  2  0  0  0  0  0  0  0  0  0
   -1.4531   -2.2738    0.8961 C   0  0  0  0  0  0  0  0  0  0  0  0
   -2.8561   -2.6855    1.2572 C   0  0  0  0  0  0  0  0  0  0  0  0
   -3.7963   -2.1855    0.2050 C   0  0  0  0  0  0  0  0  0  0  0  0
   -5.0524   -2.6351    0.2063 C   0  0  0  0  0  0  0  0  0  0  0  0
   -6.1398   -1.7669   -0.2615 C   0  0  0  0  0  0  0  0  0  0  0  0
   -7.3565   -2.0192   -0.0087 O   0  0  0  0  0  0  0  0  0  0  0  0
   -5.7637   -0.6769   -1.1702 C   0  0  0  0  0  0  0  0  0  0  0  0
   -4.4756   -0.5360   -1.3965 C   0  0  0  0  0  0  0  0  0  0  0  0
   -3.5893   -0.7918   -0.2312 C   0  0  1  0  0  0  0  0  0  0  0  0
   -3.8382    0.1568    0.8724 C   0  0  0  0  0  0  0  0  0  0  0  0
   -2.0705   -0.6508   -0.7412 C   0  0  1  0  0  0  0  0  0  0  0  0
   -2.1228    1.0787   -0.7491 C   0  0  2  0  0  0  0  0  0  0  0  0
   -2.7096    1.1030   -2.1712 O   0  0  0  0  0  0  0  0  0  0  0  0
   -0.5658    1.1378   -1.3658 C   0  0  0  0  0  0  0  0  0  0  0  0
    0.1481    0.9392   -0.1091 C   0  0  2  0  0  0  0  0  0  0  0  0
   -0.3680    1.6376    1.0980 C   0  0  0  0  0  0  0  0  0  0  0  0
  1  2  1  0
  2  3  1  0
  3  4  1  0
  4  5  2  0
  4  6  1  0
  7  6  1  1
  7  8  1  0
  8  9  2  0
  8 10  1  0
 10 11  1  0
 11 12  1  0
 12 13  2  0
 12 14  1  0
 14 15  1  0
  7 16  1  0
 16 17  1  0
 18 17  1  1
 18 19  1  0
 19 20  1  6
 20 21  1  0
 21 22  1  0
 22 23  2  0
 23 24  1  0
 24 25  2  0
 24 26  1  0
 26 27  2  0
 27 28  1  0
 28 29  1  1
 30 28  1  1
 30 31  1  0
 31 32  1  6
 31 33  1  0
 33 34  1  0
 34 35  1  1
 34  7  1  0
 34 18  1  0
 30 19  1  0
 28 22  1  0
M  END
>  <supplier_code>  (968) 
DB01130

>  <zinc_id>  (968) 
ZINC000000601253

>  <catalog_short_name>  (968) 
dbfda

$$$$

     RDKit          3D

 35 38  0  0  0  0  0  0  0  0999 V2000
    4.1863   -0.1770   -4.4930 C   0  0  0  0  0  0  0  0  0  0  0  0
    3.0795   -0.9529   -4.9519 C   0  0  0  0  0  0  0  0  0  0  0  0
    2.2757   -1.5210   -3.9379 O   0  0  0  0  0  0  0  0  0  0  0  0
    1.7846   -0.7722   -2.8667 C   0  0  0  0  0  0  0  0  0  0  0  0
    1.9204    0.4782   -3.0133 O   0  0  0  0  0  0  0  0  0  0  0  0
    1.4045   -1.3504   -1.6504 O   0  0  0  0  0  0  0  0  0  0  0  0
    1.4672   -0.5659   -0.4918 C   0  0  2  0  0  0  0  0  0  0  0  0
    2.7434    0.2213   -0.5299 C   0  0  0  0  0  0  0  0  0  0  0  0
    3.6878   -0.4518   -0.9563 O   0  0  0  0  0  0  0  0  0  0  0  0
    3.2010    1.0503    0.6359 C   0  0  0  0  0  0  0  0  0  0  0  0
    4.0976    0.3642    1.4712 O   0  0  0  0  0  0  0  0  0  0  0  0
    5.4810    0.5298    1.4215 C   0  0  0  0  0  0  0  0  0  0  0  0
    5.9368    0.9114    0.3015 O   0  0  0  0  0  0  0  0  0  0  0  0
    6.3279    0.7931    2.5960 C   0  0  0  0  0  0  0  0  0  0  0  0
    6.0638   -0.0990    3.7673 C   0  0  0  0  0  0  0  0  0  0  0  0
    1.6995   -1.3761    0.7853 C   0  0  0  0  0  0  0  0  0  0  0  0
    0.7404   -0.6980    1.7791 C   0  0  0  0  0  0  0  0  0  0  0  0
   -0.4546   -0.9369    0.6843 C   0  0  1  0  0  0  0  0  0  0  0  0
   -1.5274    0.2374    1.3131 C   0  0  2  0  0  0  0  0  0  0  0  0
   -2.0719   -0.8065    2.4074 C   0  0  0  0  0  0  0  0  0  0  0  0
   -3.4398   -1.1619    2.2978 C   0  0  0  0  0  0  0  0  0  0  0  0
   -4.4182   -0.2844    1.6705 C   0  0  0  0  0  0  0  0  0  0  0  0
   -5.7140   -0.4405    1.7512 C   0  0  0  0  0  0  0  0  0  0  0  0
   -6.5430   -0.3204    0.5439 C   0  0  0  0  0  0  0  0  0  0  0  0
   -7.6833   -0.8740    0.4862 O   0  0  0  0  0  0  0  0  0  0  0  0
   -5.9757    0.4103   -0.5696 C   0  0  0  0  0  0  0  0  0  0  0  0
   -4.7541    0.9289   -0.4585 C   0  0  0  0  0  0  0  0  0  0  0  0
   -3.8578    0.6815    0.6679 C   0  0  1  0  0  0  0  0  0  0  0  0
   -3.4294    1.8237    1.4615 C   0  0  0  0  0  0  0  0  0  0  0  0
   -2.6405   -0.2340    0.1380 C   0  0  1  0  0  0  0  0  0  0  0  0
   -2.1326    0.8802   -1.0921 C   0  0  1  0  0  0  0  0  0  0  0  0
   -1.6086    1.9614   -0.1358 O   0  0  0  0  0  0  0  0  0  0  0  0
   -0.6508    0.1715   -1.3409 C   0  0  0  0  0  0  0  0  0  0  0  0
    0.2284    0.2043   -0.2746 C   0  0  2  0  0  0  0  0  0  0  0  0
    0.5756    1.3447    0.5829 C   0  0  0  0  0  0  0  0  0  0  0  0
  1  2  1  0
  2  3  1  0
  3  4  1  0
  4  5  2  0
  4  6  1  0
  7  6  1  6
  7  8  1  0
  8  9  2  0
  8 10  1  0
 10 11  1  0
 11 12  1  0
 12 13  2  0
 12 14  1  0
 14 15  1  0
  7 16  1  0
 16 17  1  0
 18 17  1  1
 18 19  1  0
 19 20  1  1
 20 21  1  0
 21 22  1  0
 22 23  2  0
 23 24  1  0
 24 25  2  0
 24 26  1  0
 26 27  2  0
 27 28  1  0
 28 29  1  1
 30 28  1  1
 30 31  1  0
 31 32  1  1
 31 33  1  0
 33 34  1  0
 34 35  1  1
 34  7  1  0
 34 18  1  0
 30 19  1  0
 28 22  1  0
M  END
>  <supplier_code>  (969) 
DB01130

>  <zinc_id>  (969) 
ZINC000003938652

>  <catalog_short_name>  (969) 
dbfda

$$$$

     RDKit          3D

 35 38  0  0  0  0  0  0  0  0999 V2000
   -4.8802    4.6751   -0.1737 C   0  0  0  0  0  0  0  0  0  0  0  0
   -4.5902    3.7837    0.5260 C   0  0  0  0  0  0  0  0  0  0  0  0
   -3.2998    3.2888    0.2569 O   0  0  0  0  0  0  0  0  0  0  0  0
   -2.8893    2.0068    0.5651 C   0  0  0  0  0  0  0  0  0  0  0  0
   -3.6337    1.3112    1.2770 O   0  0  0  0  0  0  0  0  0  0  0  0
   -2.2813    1.1686   -0.2707 O   0  0  0  0  0  0  0  0  0  0  0  0
   -1.6008    0.0405   -0.3052 C   0  0  1  0  0  0  0  0  0  0  0  0
   -2.0135   -1.2394    0.2101 C   0  0  0  0  0  0  0  0  0  0  0  0
   -1.6709   -2.2652   -0.3958 O   0  0  0  0  0  0  0  0  0  0  0  0
   -2.7818   -1.6094    1.3849 C   0  0  0  0  0  0  0  0  0  0  0  0
   -4.0903   -1.9259    1.3277 O   0  0  0  0  0  0  0  0  0  0  0  0
   -4.8280   -2.1530    0.1927 C   0  0  0  0  0  0  0  0  0  0  0  0
   -4.3458   -3.0783   -0.4846 O   0  0  0  0  0  0  0  0  0  0  0  0
   -6.1906   -1.6369   -0.0550 C   0  0  0  0  0  0  0  0  0  0  0  0
   -7.2611   -2.4281    0.6392 C   0  0  0  0  0  0  0  0  0  0  0  0
   -1.5776   -0.1789   -1.8421 C   0  0  0  0  0  0  0  0  0  0  0  0
   -0.2161   -0.7022   -2.1736 C   0  0  0  0  0  0  0  0  0  0  0  0
    0.4142   -1.0011   -0.7133 C   0  0  1  0  0  0  0  0  0  0  0  0
    1.8863   -0.2769   -1.0748 C   0  0  2  0  0  0  0  0  0  0  0  0
    2.5092   -1.6430   -1.6246 C   0  0  0  0  0  0  0  0  0  0  0  0
    3.7646   -2.0477   -1.1008 C   0  0  0  0  0  0  0  0  0  0  0  0
    4.6107   -1.2108   -0.2664 C   0  0  0  0  0  0  0  0  0  0  0  0
    5.9043   -0.9610   -0.5032 C   0  0  0  0  0  0  0  0  0  0  0  0
    6.5500    0.2780   -0.0407 C   0  0  0  0  0  0  0  0  0  0  0  0
    7.7258    0.5894   -0.4011 O   0  0  0  0  0  0  0  0  0  0  0  0
    5.7829    1.0940    0.9150 C   0  0  0  0  0  0  0  0  0  0  0  0
    4.5220    0.7453    1.2088 C   0  0  0  0  0  0  0  0  0  0  0  0
    3.9014    0.0675    0.0990 C   0  0  1  0  0  0  0  0  0  0  0  0
    3.9703    0.8052   -1.1651 C   0  0  0  0  0  0  0  0  0  0  0  0
    2.4810   -0.5515    0.4622 C   0  0  1  0  0  0  0  0  0  0  0  0
    1.9398    0.8773    1.2300 C   0  0  1  0  0  0  0  0  0  0  0  0
    1.9947    1.7839    0.0210 O   0  0  0  0  0  0  0  0  0  0  0  0
    0.3473    0.5312    1.1191 C   0  0  0  0  0  0  0  0  0  0  0  0
   -0.1475    0.4102   -0.1705 C   0  0  2  0  0  0  0  0  0  0  0  0
   -0.0061    1.4525   -1.2222 C   0  0  0  0  0  0  0  0  0  0  0  0
  1  2  1  0
  2  3  1  0
  3  4  1  0
  4  5  2  0
  4  6  1  0
  7  6  1  6
  7  8  1  0
  8  9  2  0
  8 10  1  0
 10 11  1  0
 11 12  1  0
 12 13  2  0
 12 14  1  0
 14 15  1  0
  7 16  1  0
 16 17  1  0
 18 17  1  6
 18 19  1  0
 19 20  1  6
 20 21  1  0
 21 22  1  0
 22 23  2  0
 23 24  1  0
 24 25  2  0
 24 26  1  0
 26 27  2  0
 27 28  1  0
 28 29  1  6
 30 28  1  6
 30 31  1  0
 31 32  1  6
 31 33  1  0
 33 34  1  0
 34 35  1  6
 34  7  1  0
 34 18  1  0
 30 19  1  0
 28 22  1  0
M  END
>  <supplier_code>  (970) 
DB01130

>  <zinc_id>  (970) 
ZINC000118913560

>  <catalog_short_name>  (970) 
dbfda

$$$$

     RDKit          3D

 35 38  0  0  0  0  0  0  0  0999 V2000
    6.3940   -4.3781   -0.8434 C   0  0  0  0  0  0  0  0  0  0  0  0
    5.8072   -3.1133   -0.3847 C   0  0  0  0  0  0  0  0  0  0  0  0
    4.5093   -2.8969   -0.9358 O   0  0  0  0  0  0  0  0  0  0  0  0
    3.7375   -1.8568   -0.4293 C   0  0  0  0  0  0  0  0  0  0  0  0
    4.3969   -0.8569   -0.0126 O   0  0  0  0  0  0  0  0  0  0  0  0
    2.3394   -1.8533   -0.4926 O   0  0  0  0  0  0  0  0  0  0  0  0
    1.7438   -0.6749   -0.0433 C   0  0  2  0  0  0  0  0  0  0  0  0
    2.4887    0.4608   -0.6890 C   0  0  0  0  0  0  0  0  0  0  0  0
    2.5767    0.4248   -1.9150 O   0  0  0  0  0  0  0  0  0  0  0  0
    2.6647    1.6830    0.1142 C   0  0  0  0  0  0  0  0  0  0  0  0
    3.1821    2.7758   -0.5837 O   0  0  0  0  0  0  0  0  0  0  0  0
    3.3857    3.9371    0.1682 C   0  0  0  0  0  0  0  0  0  0  0  0
    3.2222    3.9206    1.4245 O   0  0  0  0  0  0  0  0  0  0  0  0
    4.1821    5.0849   -0.3595 C   0  0  0  0  0  0  0  0  0  0  0  0
    3.9275    6.2969    0.5174 C   0  0  0  0  0  0  0  0  0  0  0  0
    1.8448   -0.5244    1.4726 C   0  0  0  0  0  0  0  0  0  0  0  0
    0.4485   -0.2038    1.9620 C   0  0  0  0  0  0  0  0  0  0  0  0
   -0.3062   -1.2648    0.9634 C   0  0  1  0  0  0  0  0  0  0  0  0
   -1.7422   -0.3330    0.9425 C   0  0  2  0  0  0  0  0  0  0  0  0
   -2.3768   -1.2216    2.1384 C   0  0  0  0  0  0  0  0  0  0  0  0
   -3.7128   -0.5856    2.3873 C   0  0  0  0  0  0  0  0  0  0  0  0
   -4.4642   -0.6593    1.0945 C   0  0  0  0  0  0  0  0  0  0  0  0
   -5.6794   -0.1063    1.1576 C   0  0  0  0  0  0  0  0  0  0  0  0
   -6.4980    0.0593   -0.0521 C   0  0  0  0  0  0  0  0  0  0  0  0
   -7.3819    0.9647   -0.1434 O   0  0  0  0  0  0  0  0  0  0  0  0
   -5.9707   -0.6482   -1.2269 C   0  0  0  0  0  0  0  0  0  0  0  0
   -4.7438   -1.1729   -1.2094 C   0  0  0  0  0  0  0  0  0  0  0  0
   -3.8331   -0.5176   -0.2292 C   0  0  1  0  0  0  0  0  0  0  0  0
   -3.6835    0.8972   -0.5570 C   0  0  0  0  0  0  0  0  0  0  0  0
   -2.4411   -1.3098   -0.2455 C   0  0  1  0  0  0  0  0  0  0  0  0
   -1.7669   -0.3402   -1.5150 C   0  0  2  0  0  0  0  0  0  0  0  0
   -2.3072   -1.3111   -2.5786 O   0  0  0  0  0  0  0  0  0  0  0  0
   -0.3119   -1.1661   -1.4537 C   0  0  0  0  0  0  0  0  0  0  0  0
    0.3180   -0.4789   -0.3307 C   0  0  2  0  0  0  0  0  0  0  0  0
    0.0504    0.9687   -0.1473 C   0  0  0  0  0  0  0  0  0  0  0  0
  1  2  1  0
  2  3  1  0
  3  4  1  0
  4  5  2  0
  4  6  1  0
  7  6  1  6
  7  8  1  0
  8  9  2  0
  8 10  1  0
 10 11  1  0
 11 12  1  0
 12 13  2  0
 12 14  1  0
 14 15  1  0
  7 16  1  0
 16 17  1  0
 18 17  1  1
 18 19  1  0
 19 20  1  1
 20 21  1  0
 21 22  1  0
 22 23  2  0
 23 24  1  0
 24 25  2  0
 24 26  1  0
 26 27  2  0
 27 28  1  0
 28 29  1  6
 30 28  1  1
 30 31  1  0
 31 32  1  6
 31 33  1  0
 33 34  1  0
 34 35  1  1
 34  7  1  0
 34 18  1  0
 30 19  1  0
 28 22  1  0
M  END
>  <supplier_code>  (971) 
DB01130

>  <zinc_id>  (971) 
ZINC000118913562

>  <catalog_short_name>  (971) 
dbfda

$$$$

     RDKit          3D

 17 17  0  0  0  0  0  0  0  0999 V2000
    3.6958   -1.3883   -0.3984 C   0  0  0  0  0  0  0  0  0  0  0  0
    3.1695   -0.5661   -1.5416 C   0  0  0  0  0  0  0  0  0  0  0  0
    4.3368    0.2786   -2.0402 C   0  0  0  0  0  0  0  0  0  0  0  0
    2.1002    0.3262   -1.1632 N   0  0  0  0  0  0  0  0  0  0  0  0
    1.3644    0.1876    0.0659 C   0  0  0  0  0  0  0  0  0  0  0  0
    1.8696   -0.7332    0.8490 N   0  0  0  0  0  0  0  0  0  0  0  0
    1.0999    1.3804    0.8383 N   0  0  0  0  0  0  0  0  0  0  0  0
    0.2698    1.1397    1.9822 C   0  0  0  0  0  0  0  0  0  0  0  0
    0.2957    1.9475    3.1644 N   0  0  0  0  0  0  0  0  0  0  0  0
   -0.4016    0.0298    1.8750 N   0  0  0  0  0  0  0  0  0  0  0  0
   -1.0487   -0.1248    0.5903 C   0  0  0  0  0  0  0  0  0  0  0  0
   -1.7461   -1.3315    0.5007 C   0  0  0  0  0  0  0  0  0  0  0  0
   -2.8879   -1.5105   -0.2240 C   0  0  0  0  0  0  0  0  0  0  0  0
   -3.3160   -0.4842   -1.0530 C   0  0  0  0  0  0  0  0  0  0  0  0
   -4.3713   -0.7818   -2.4305 Cl  0  0  0  0  0  0  0  0  0  0  0  0
   -2.6326    0.7148   -1.0509 C   0  0  0  0  0  0  0  0  0  0  0  0
   -1.7974    0.9157    0.0358 C   0  0  0  0  0  0  0  0  0  0  0  0
  1  2  1  0
  2  3  1  0
  2  4  1  0
  4  5  1  0
  5  6  2  0
  5  7  1  0
  7  8  1  0
  8  9  1  0
  8 10  2  0
 10 11  1  0
 11 12  2  0
 12 13  1  0
 13 14  2  0
 14 15  1  0
 14 16  1  0
 16 17  2  0
 17 11  1  0
M  END
>  <supplier_code>  (972) 
DB01131

>  <zinc_id>  (972) 
ZINC000095452610

>  <catalog_short_name>  (972) 
dbfda

$$$$

     RDKit          3D

 25 27  0  0  0  0  0  0  0  0999 V2000
    7.2779   -2.3748   -0.3032 C   0  0  0  0  0  0  0  0  0  0  0  0
    6.2202   -2.0461   -0.9984 C   0  0  0  0  0  0  0  0  0  0  0  0
    5.6919   -0.7445   -0.5069 C   0  0  0  0  0  0  0  0  0  0  0  0
    4.8074   -0.7322    0.5646 C   0  0  0  0  0  0  0  0  0  0  0  0
    4.0033    0.3645    0.7563 C   0  0  0  0  0  0  0  0  0  0  0  0
    4.1343    1.4766   -0.0656 C   0  0  0  0  0  0  0  0  0  0  0  0
    3.3384    2.7153    0.1538 C   0  0  0  0  0  0  0  0  0  0  0  0
    1.9554    2.2344    0.5833 C   0  0  0  0  0  0  0  0  0  0  0  0
    1.5463    1.1013   -0.1741 O   0  0  0  0  0  0  0  0  0  0  0  0
    0.1793    0.9301   -0.4183 C   0  0  0  0  0  0  0  0  0  0  0  0
   -0.7236    1.9068   -0.0122 C   0  0  0  0  0  0  0  0  0  0  0  0
   -2.0442    1.4868    0.0877 C   0  0  0  0  0  0  0  0  0  0  0  0
   -2.5388    0.4460   -0.6923 C   0  0  0  0  0  0  0  0  0  0  0  0
   -3.9387    0.6057   -1.1454 C   0  0  0  0  0  0  0  0  0  0  0  0
   -4.5330   -0.8411   -1.4704 C   0  0  2  0  0  0  0  0  0  0  0  0
   -6.3517   -0.2501   -1.3326 S   0  0  0  0  0  0  0  0  0  0  0  0
   -6.7347   -1.1306    0.1894 C   0  0  0  0  0  0  0  0  0  0  0  0
   -7.9100   -1.4522    0.5431 O   0  0  0  0  0  0  0  0  0  0  0  0
   -5.6830   -2.1057    0.2102 N   0  0  0  0  0  0  0  0  0  0  0  0
   -4.4863   -1.3396    0.0169 C   0  0  0  0  0  0  0  0  0  0  0  0
   -3.3716   -1.8219    0.3930 O   0  0  0  0  0  0  0  0  0  0  0  0
   -1.5846   -0.1740   -1.4929 C   0  0  0  0  0  0  0  0  0  0  0  0
   -0.2824   -0.2369   -1.0097 C   0  0  0  0  0  0  0  0  0  0  0  0
    5.1407    1.5377   -0.9459 N   0  0  0  0  0  0  0  0  0  0  0  0
    5.8876    0.4446   -1.1803 C   0  0  0  0  0  0  0  0  0  0  0  0
  1  2  1  0
  2  3  1  0
  3  4  2  0
  4  5  1  0
  5  6  2  0
  6  7  1  0
  7  8  1  0
  8  9  1  0
  9 10  1  0
 10 11  2  0
 11 12  1  0
 12 13  2  0
 13 14  1  0
 15 14  1  1
 15 16  1  0
 16 17  1  0
 17 18  2  0
 17 19  1  0
 19 20  1  0
 20 21  2  0
 13 22  1  0
 22 23  2  0
  6 24  1  0
 24 25  2  0
 25  3  1  0
 23 10  1  0
 20 15  1  0
M  END
>  <supplier_code>  (973) 
DB01132

>  <zinc_id>  (973) 
ZINC000000968326

>  <catalog_short_name>  (973) 
dbfda

$$$$

     RDKit          3D

 25 27  0  0  0  0  0  0  0  0999 V2000
    7.2028    0.1870    1.4788 C   0  0  0  0  0  0  0  0  0  0  0  0
    7.2554    0.5924    0.5602 C   0  0  0  0  0  0  0  0  0  0  0  0
    6.2081    0.0812   -0.3787 C   0  0  0  0  0  0  0  0  0  0  0  0
    5.5508   -1.0937   -0.0634 C   0  0  0  0  0  0  0  0  0  0  0  0
    4.2451   -1.2270   -0.5134 C   0  0  0  0  0  0  0  0  0  0  0  0
    3.6685   -0.2841   -1.3502 C   0  0  0  0  0  0  0  0  0  0  0  0
    2.2002   -0.2009   -1.3225 C   0  0  0  0  0  0  0  0  0  0  0  0
    1.6303    0.8335   -2.2490 C   0  0  0  0  0  0  0  0  0  0  0  0
    0.2120    0.7456   -2.1265 O   0  0  0  0  0  0  0  0  0  0  0  0
   -0.3041    0.6129   -0.8364 C   0  0  0  0  0  0  0  0  0  0  0  0
   -0.9299    1.7126   -0.2846 C   0  0  0  0  0  0  0  0  0  0  0  0
   -1.9670    1.5557    0.6141 C   0  0  0  0  0  0  0  0  0  0  0  0
   -2.0599    0.3801    1.3261 C   0  0  0  0  0  0  0  0  0  0  0  0
   -3.1694    0.0576    2.2428 C   0  0  0  0  0  0  0  0  0  0  0  0
   -4.5284    0.5838    1.6023 C   0  0  1  0  0  0  0  0  0  0  0  0
   -4.1656   -0.0592   -0.1584 S   0  0  0  0  0  0  0  0  0  0  0  0
   -5.7661   -0.8551   -0.3712 C   0  0  0  0  0  0  0  0  0  0  0  0
   -6.4827   -0.5635   -1.3777 O   0  0  0  0  0  0  0  0  0  0  0  0
   -6.3373   -0.8390    0.9427 N   0  0  0  0  0  0  0  0  0  0  0  0
   -5.3482   -0.7033    1.9372 C   0  0  0  0  0  0  0  0  0  0  0  0
   -5.4952   -1.1238    3.1190 O   0  0  0  0  0  0  0  0  0  0  0  0
   -1.3719   -0.7092    0.8050 C   0  0  0  0  0  0  0  0  0  0  0  0
   -0.4668   -0.6077   -0.2155 C   0  0  0  0  0  0  0  0  0  0  0  0
    4.4881    0.5859   -1.9393 N   0  0  0  0  0  0  0  0  0  0  0  0
    5.7310    0.7971   -1.4415 C   0  0  0  0  0  0  0  0  0  0  0  0
  1  2  1  0
  2  3  1  0
  3  4  2  0
  4  5  1  0
  5  6  2  0
  6  7  1  0
  7  8  1  0
  8  9  1  0
  9 10  1  0
 10 11  2  0
 11 12  1  0
 12 13  2  0
 13 14  1  0
 15 14  1  1
 15 16  1  0
 16 17  1  0
 17 18  2  0
 17 19  1  0
 19 20  1  0
 20 21  2  0
 13 22  1  0
 22 23  2  0
  6 24  1  0
 24 25  2  0
 25  3  1  0
 23 10  1  0
 20 15  1  0
M  END
>  <supplier_code>  (974) 
DB01132

>  <zinc_id>  (974) 
ZINC000000968327

>  <catalog_short_name>  (974) 
dbfda

$$$$

     RDKit          3D

 30 33  0  0  0  0  0  0  0  0999 V2000
    6.2464   -2.8751   -0.1849 C   0  0  0  0  0  0  0  0  0  0  0  0
    6.4380   -2.2683   -0.3369 O   0  0  0  0  0  0  0  0  0  0  0  0
    6.4184   -0.9093   -0.0107 C   0  0  0  0  0  0  0  0  0  0  0  0
    7.5675   -0.1656    0.1365 C   0  0  0  0  0  0  0  0  0  0  0  0
    7.5094    1.0529    0.8000 C   0  0  0  0  0  0  0  0  0  0  0  0
    6.3772    1.3552    1.5414 C   0  0  0  0  0  0  0  0  0  0  0  0
    5.2268    0.6450    1.3573 C   0  0  0  0  0  0  0  0  0  0  0  0
    5.2246   -0.3724    0.4222 C   0  0  0  0  0  0  0  0  0  0  0  0
    4.0601   -0.7801   -0.2367 O   0  0  0  0  0  0  0  0  0  0  0  0
    3.4643    0.1566   -1.1221 C   0  0  0  0  0  0  0  0  0  0  0  0
    3.0840    1.3486   -0.2615 C   0  0  0  0  0  0  0  0  0  0  0  0
    2.0857    0.9900    0.7451 N   0  0  0  0  0  0  0  0  0  0  0  0
    0.8891    1.6516    0.3385 C   0  0  0  0  0  0  0  0  0  0  0  0
   -0.3326    0.5099    0.4292 C   0  0  2  0  0  0  0  0  0  0  0  0
    0.5715   -0.6403   -0.0652 O   0  0  0  0  0  0  0  0  0  0  0  0
   -0.8119    0.8592   -1.1372 C   0  0  0  0  0  0  0  0  0  0  0  0
   -2.1742    0.6786   -1.1673 O   0  0  0  0  0  0  0  0  0  0  0  0
   -3.1534    1.2938   -0.4274 C   0  0  0  0  0  0  0  0  0  0  0  0
   -3.3190    2.6700   -0.3956 C   0  0  0  0  0  0  0  0  0  0  0  0
   -4.5942    3.2161   -0.4254 C   0  0  0  0  0  0  0  0  0  0  0  0
   -5.7323    2.4379   -0.3788 C   0  0  0  0  0  0  0  0  0  0  0  0
   -5.5579    1.0988   -0.1134 C   0  0  0  0  0  0  0  0  0  0  0  0
   -6.4445    0.0773   -0.1681 N   0  0  0  0  0  0  0  0  0  0  0  0
   -5.7664   -1.0827   -0.0080 C   0  0  0  0  0  0  0  0  0  0  0  0
   -6.1174   -2.4201    0.0452 C   0  0  0  0  0  0  0  0  0  0  0  0
   -5.1643   -3.3921    0.3236 C   0  0  0  0  0  0  0  0  0  0  0  0
   -3.8325   -3.0368    0.4418 C   0  0  0  0  0  0  0  0  0  0  0  0
   -3.4740   -1.8386   -0.1691 C   0  0  0  0  0  0  0  0  0  0  0  0
   -4.4014   -0.8202    0.0133 C   0  0  0  0  0  0  0  0  0  0  0  0
   -4.2869    0.5602   -0.0903 C   0  0  0  0  0  0  0  0  0  0  0  0
  1  2  1  0
  2  3  1  0
  3  4  2  0
  4  5  1  0
  5  6  2  0
  6  7  1  0
  7  8  2  0
  8  9  1  0
  9 10  1  0
 10 11  1  0
 11 12  1  0
 12 13  1  0
 14 13  1  6
 14 15  1  0
 14 16  1  0
 16 17  1  0
 17 18  1  0
 18 19  2  0
 19 20  1  0
 20 21  2  0
 21 22  1  0
 22 23  1  0
 23 24  1  0
 24 25  2  0
 25 26  1  0
 26 27  2  0
 27 28  1  0
 28 29  2  0
 29 30  1  0
  8  3  1  0
 30 18  1  0
 30 22  2  0
 29 24  1  0
M  END
>  <supplier_code>  (975) 
DB01136

>  <zinc_id>  (975) 
ZINC000001530579

>  <catalog_short_name>  (975) 
dbfda

$$$$

     RDKit          3D

 30 33  0  0  0  0  0  0  0  0999 V2000
    5.4505    3.3341    0.3984 C   0  0  0  0  0  0  0  0  0  0  0  0
    5.6920    2.3747   -0.5945 O   0  0  0  0  0  0  0  0  0  0  0  0
    5.9724    1.0481   -0.2809 C   0  0  0  0  0  0  0  0  0  0  0  0
    7.2416    0.5092   -0.4458 C   0  0  0  0  0  0  0  0  0  0  0  0
    7.5216   -0.7958   -0.1131 C   0  0  0  0  0  0  0  0  0  0  0  0
    6.5389   -1.6051    0.4424 C   0  0  0  0  0  0  0  0  0  0  0  0
    5.2488   -1.1150    0.4413 C   0  0  0  0  0  0  0  0  0  0  0  0
    4.9580    0.1406   -0.0446 C   0  0  0  0  0  0  0  0  0  0  0  0
    3.6213    0.4997   -0.1710 O   0  0  0  0  0  0  0  0  0  0  0  0
    2.9814    1.1522    0.8978 C   0  0  0  0  0  0  0  0  0  0  0  0
    1.7631    0.3261    1.2878 C   0  0  0  0  0  0  0  0  0  0  0  0
    0.6274    0.9460    0.6204 N   0  0  0  0  0  0  0  0  0  0  0  0
    0.3897    0.2646   -0.6386 C   0  0  0  0  0  0  0  0  0  0  0  0
    0.2324   -1.3065   -0.1571 C   0  0  1  0  0  0  0  0  0  0  0  0
   -0.9165   -0.9559    0.7718 O   0  0  0  0  0  0  0  0  0  0  0  0
   -0.7282   -1.6729   -1.4362 C   0  0  0  0  0  0  0  0  0  0  0  0
   -2.0133   -1.3824   -1.2455 O   0  0  0  0  0  0  0  0  0  0  0  0
   -2.9944   -1.8270   -0.4159 C   0  0  0  0  0  0  0  0  0  0  0  0
   -3.1093   -3.0622    0.1592 C   0  0  0  0  0  0  0  0  0  0  0  0
   -4.2691   -3.4269    0.8352 C   0  0  0  0  0  0  0  0  0  0  0  0
   -5.0189   -2.4293    1.4289 C   0  0  0  0  0  0  0  0  0  0  0  0
   -4.7598   -1.1114    1.0734 C   0  0  0  0  0  0  0  0  0  0  0  0
   -5.2229    0.0799    1.5247 N   0  0  0  0  0  0  0  0  0  0  0  0
   -4.7463    1.0802    0.7581 C   0  0  0  0  0  0  0  0  0  0  0  0
   -4.5895    2.4500    0.9060 C   0  0  0  0  0  0  0  0  0  0  0  0
   -4.3910    3.1598   -0.2719 C   0  0  0  0  0  0  0  0  0  0  0  0
   -3.7571    2.5741   -1.3468 C   0  0  0  0  0  0  0  0  0  0  0  0
   -3.6453    1.1904   -1.3868 C   0  0  0  0  0  0  0  0  0  0  0  0
   -4.1199    0.4564   -0.3145 C   0  0  0  0  0  0  0  0  0  0  0  0
   -3.9575   -0.8957   -0.0377 C   0  0  0  0  0  0  0  0  0  0  0  0
  1  2  1  0
  2  3  1  0
  3  4  2  0
  4  5  1  0
  5  6  2  0
  6  7  1  0
  7  8  2  0
  8  9  1  0
  9 10  1  0
 10 11  1  0
 11 12  1  0
 12 13  1  0
 14 13  1  6
 14 15  1  0
 14 16  1  0
 16 17  1  0
 17 18  1  0
 18 19  2  0
 19 20  1  0
 20 21  2  0
 21 22  1  0
 22 23  1  0
 23 24  1  0
 24 25  2  0
 25 26  1  0
 26 27  2  0
 27 28  1  0
 28 29  2  0
 29 30  1  0
  8  3  1  0
 30 18  1  0
 30 22  2  0
 29 24  1  0
M  END
>  <supplier_code>  (976) 
DB01136

>  <zinc_id>  (976) 
ZINC000001530580

>  <catalog_short_name>  (976) 
dbfda

$$$$

     RDKit          3D

 26 29  0  0  0  0  0  0  0  0999 V2000
    1.1665    3.1228   -0.6648 C   0  0  0  0  0  0  0  0  0  0  0  0
    1.9532    2.7289    0.7441 C   0  0  1  0  0  0  0  0  0  0  0  0
    0.5646    2.5664    1.6316 C   0  0  0  0  0  0  0  0  0  0  0  0
   -0.4576    2.1738    0.7910 O   0  0  0  0  0  0  0  0  0  0  0  0
   -0.3370    0.9775    0.0781 C   0  0  0  0  0  0  0  0  0  0  0  0
   -1.3775    0.0594   -0.0047 C   0  0  0  0  0  0  0  0  0  0  0  0
   -2.6814    0.5946   -0.0537 N   0  0  0  0  0  0  0  0  0  0  0  0
   -3.4709    0.2971   -1.2403 C   0  0  0  0  0  0  0  0  0  0  0  0
   -4.7019   -0.4873   -0.9319 C   0  0  0  0  0  0  0  0  0  0  0  0
   -5.2178   -0.3920    0.3707 N   0  0  0  0  0  0  0  0  0  0  0  0
   -5.5690   -1.6111    1.0263 C   0  0  0  0  0  0  0  0  0  0  0  0
   -4.8025    0.6681    1.2001 C   0  0  0  0  0  0  0  0  0  0  0  0
   -3.3927    1.1163    1.0743 C   0  0  0  0  0  0  0  0  0  0  0  0
   -1.1712   -1.2787   -0.2671 C   0  0  0  0  0  0  0  0  0  0  0  0
   -2.1769   -2.1802   -0.2609 F   0  0  0  0  0  0  0  0  0  0  0  0
    0.1273   -1.7010   -0.2979 C   0  0  0  0  0  0  0  0  0  0  0  0
    1.1480   -0.7643   -0.4112 C   0  0  0  0  0  0  0  0  0  0  0  0
    2.3938   -1.2694   -0.6829 C   0  0  0  0  0  0  0  0  0  0  0  0
    2.5671   -2.4832   -0.9253 O   0  0  0  0  0  0  0  0  0  0  0  0
    3.5002   -0.5117   -0.3235 C   0  0  0  0  0  0  0  0  0  0  0  0
    4.8149   -1.1515   -0.1837 C   0  0  0  0  0  0  0  0  0  0  0  0
    5.8366   -0.4511   -0.3212 O   0  0  0  0  0  0  0  0  0  0  0  0
    4.9793   -2.5266   -0.3092 O   0  0  0  0  0  0  0  0  0  0  0  0
    3.3076    0.7574    0.2092 C   0  0  0  0  0  0  0  0  0  0  0  0
    2.0336    1.1890    0.3878 N   0  0  0  0  0  0  0  0  0  0  0  0
    0.9636    0.5566   -0.0114 C   0  0  0  0  0  0  0  0  0  0  0  0
  2  1  1  6
  2  3  1  0
  3  4  1  0
  4  5  1  0
  5  6  1  0
  6  7  1  0
  7  8  1  0
  8  9  1  0
  9 10  1  0
 10 11  1  0
 10 12  1  0
 12 13  1  0
  6 14  2  0
 14 15  1  0
 14 16  1  0
 16 17  2  0
 17 18  1  0
 18 19  2  0
 18 20  1  0
 20 21  1  0
 21 22  2  0
 21 23  1  0
 20 24  2  0
 24 25  1  0
 25 26  1  0
 25  2  1  0
 26  5  2  0
 13  7  1  0
 26 17  1  0
M  END
>  <supplier_code>  (977) 
DB01137

>  <zinc_id>  (977) 
ZINC000000538273

>  <catalog_short_name>  (977) 
dbfda

$$$$

     RDKit          3D

 25 27  0  0  0  0  0  0  0  0999 V2000
   -4.8449    1.4888    1.1259 C   0  0  0  0  0  0  0  0  0  0  0  0
   -3.9161    0.8496    1.0847 C   0  0  0  0  0  0  0  0  0  0  0  0
   -3.7228   -0.0670    0.1363 C   0  0  0  0  0  0  0  0  0  0  0  0
   -4.6567   -0.0691   -1.0009 C   0  0  0  0  0  0  0  0  0  0  0  0
   -4.1910    0.2758   -2.1168 O   0  0  0  0  0  0  0  0  0  0  0  0
   -5.9995    0.2135   -0.7395 O   0  0  0  0  0  0  0  0  0  0  0  0
   -2.5458   -0.8678    0.1151 N   0  0  0  0  0  0  0  0  0  0  0  0
   -1.8935   -1.9246   -0.6161 C   0  0  0  0  0  0  0  0  0  0  0  0
   -1.7611   -2.3160   -1.7752 O   0  0  0  0  0  0  0  0  0  0  0  0
   -0.7767   -1.8964    0.5624 C   0  0  1  0  0  0  0  0  0  0  0  0
   -0.2811   -0.4480    0.1117 N   0  0  0  0  0  0  0  0  0  0  0  0
    1.0983   -0.4082    0.4814 C   0  0  0  0  0  0  0  0  0  0  0  0
    1.4934   -0.7950    1.6213 O   0  0  0  0  0  0  0  0  0  0  0  0
    1.8703    0.9478   -0.0062 C   0  0  2  0  0  0  0  0  0  0  0  0
    1.3991    0.7442   -1.5217 N   0  0  0  0  0  0  0  0  0  0  0  0
    3.2598    0.1111   -0.2257 C   0  0  0  0  0  0  0  0  0  0  0  0
    3.9263    0.3700   -1.3857 C   0  0  0  0  0  0  0  0  0  0  0  0
    5.3117    0.4084   -1.4808 C   0  0  0  0  0  0  0  0  0  0  0  0
    5.9981    0.7635   -0.3259 C   0  0  0  0  0  0  0  0  0  0  0  0
    7.0607    1.6674   -0.3715 O   0  0  0  0  0  0  0  0  0  0  0  0
    5.3960    0.4351    0.8822 C   0  0  0  0  0  0  0  0  0  0  0  0
    4.0371    0.1443    0.9315 C   0  0  0  0  0  0  0  0  0  0  0  0
   -2.1026   -1.3702    1.4805 C   0  0  1  0  0  0  0  0  0  0  0  0
   -1.4681    0.2764    2.2042 S   0  0  0  0  0  0  0  0  0  0  0  0
   -2.6907    1.4665    1.6686 C   0  0  0  0  0  0  0  0  0  0  0  0
  1  2  1  0
  2  3  2  0
  3  4  1  0
  4  5  2  0
  4  6  1  0
  3  7  1  0
  7  8  1  0
  8  9  2  0
  8 10  1  0
 10 11  1  6
 11 12  1  0
 12 13  2  0
 14 12  1  1
 14 15  1  0
 14 16  1  0
 16 17  2  0
 17 18  1  0
 18 19  2  0
 19 20  1  0
 19 21  1  0
 21 22  2  0
 10 23  1  0
 23 24  1  1
 24 25  1  0
 25  2  1  0
 23  7  1  0
 22 16  1  0
M  END
>  <supplier_code>  (978) 
DB01140

>  <zinc_id>  (978) 
ZINC000003830391

>  <catalog_short_name>  (978) 
dbfda

$$$$

     RDKit          3D

 21 23  0  0  0  0  0  0  0  0999 V2000
    4.6776   -0.8579    0.7267 C   0  0  0  0  0  0  0  0  0  0  0  0
    4.2551   -0.7263   -0.6670 N   0  0  0  0  0  0  0  0  0  0  0  0
    4.9548   -1.7576   -1.4217 C   0  0  0  0  0  0  0  0  0  0  0  0
    2.8156   -0.9567   -0.6580 C   0  0  0  0  0  0  0  0  0  0  0  0
    2.2142   -0.1249    0.4705 C   0  0  0  0  0  0  0  0  0  0  0  0
    0.9171   -0.7942    0.8012 C   0  0  0  0  0  0  0  0  0  0  0  0
   -0.1661   -0.2856    0.2148 C   0  0  0  0  0  0  0  0  0  0  0  0
   -1.2653   -1.2372    0.0011 C   0  0  0  0  0  0  0  0  0  0  0  0
   -1.2111   -2.2836    0.9151 C   0  0  0  0  0  0  0  0  0  0  0  0
   -2.3918   -2.8984    1.3141 C   0  0  0  0  0  0  0  0  0  0  0  0
   -3.6010   -2.4962    0.7593 C   0  0  0  0  0  0  0  0  0  0  0  0
   -3.5460   -1.7304   -0.3946 C   0  0  0  0  0  0  0  0  0  0  0  0
   -2.4786   -0.8613   -0.5660 C   0  0  0  0  0  0  0  0  0  0  0  0
   -2.8461    0.3834   -1.3087 C   0  0  0  0  0  0  0  0  0  0  0  0
   -2.4905    1.5506   -0.5751 O   0  0  0  0  0  0  0  0  0  0  0  0
   -1.1904    1.9831   -0.2948 C   0  0  0  0  0  0  0  0  0  0  0  0
   -1.0688    3.3437   -0.1492 C   0  0  0  0  0  0  0  0  0  0  0  0
    0.1366    3.8435    0.3130 C   0  0  0  0  0  0  0  0  0  0  0  0
    1.2714    3.0545    0.1890 C   0  0  0  0  0  0  0  0  0  0  0  0
    1.1122    1.6919    0.3746 C   0  0  0  0  0  0  0  0  0  0  0  0
   -0.0989    1.1596   -0.0441 C   0  0  0  0  0  0  0  0  0  0  0  0
  1  2  1  0
  2  3  1  0
  2  4  1  0
  4  5  1  0
  5  6  1  0
  6  7  2  0
  7  8  1  0
  8  9  2  0
  9 10  1  0
 10 11  2  0
 11 12  1  0
 12 13  2  0
 13 14  1  0
 14 15  1  0
 15 16  1  0
 16 17  2  0
 17 18  1  0
 18 19  2  0
 19 20  1  0
 20 21  2  0
 21  7  1  0
 13  8  1  0
 21 16  1  0
M  END
>  <supplier_code>  (979) 
DB01142

>  <zinc_id>  (979) 
ZINC000000001148

>  <catalog_short_name>  (979) 
dbfda

$$$$

     RDKit          3D

 21 23  0  0  0  0  0  0  0  0999 V2000
    5.4661   -1.5137    0.8565 C   0  0  0  0  0  0  0  0  0  0  0  0
    4.5844   -0.5859    0.1478 N   0  0  0  0  0  0  0  0  0  0  0  0
    5.0747   -0.5488   -1.2236 C   0  0  0  0  0  0  0  0  0  0  0  0
    3.2590   -1.1397    0.2367 C   0  0  0  0  0  0  0  0  0  0  0  0
    2.1765   -0.0738    0.2879 C   0  0  0  0  0  0  0  0  0  0  0  0
    0.8859   -0.8145    0.1374 C   0  0  0  0  0  0  0  0  0  0  0  0
   -0.2268   -0.2381   -0.2911 C   0  0  0  0  0  0  0  0  0  0  0  0
   -0.1730    1.2221   -0.1378 C   0  0  0  0  0  0  0  0  0  0  0  0
    0.9688    1.6590    0.5225 C   0  0  0  0  0  0  0  0  0  0  0  0
    0.9420    2.9544    1.0255 C   0  0  0  0  0  0  0  0  0  0  0  0
   -0.2639    3.6404    1.1143 C   0  0  0  0  0  0  0  0  0  0  0  0
   -1.1653    3.3647    0.0932 C   0  0  0  0  0  0  0  0  0  0  0  0
   -1.2909    2.0379   -0.2778 C   0  0  0  0  0  0  0  0  0  0  0  0
   -2.6197    1.7280   -0.8920 C   0  0  0  0  0  0  0  0  0  0  0  0
   -3.2124    0.5820   -0.2836 O   0  0  0  0  0  0  0  0  0  0  0  0
   -2.7324   -0.7252   -0.1504 C   0  0  0  0  0  0  0  0  0  0  0  0
   -3.7092   -1.6563    0.1057 C   0  0  0  0  0  0  0  0  0  0  0  0
   -3.3770   -2.9912   -0.0698 C   0  0  0  0  0  0  0  0  0  0  0  0
   -2.1229   -3.3319   -0.5440 C   0  0  0  0  0  0  0  0  0  0  0  0
   -1.0600   -2.4512   -0.3857 C   0  0  0  0  0  0  0  0  0  0  0  0
   -1.4039   -1.1184   -0.2719 C   0  0  0  0  0  0  0  0  0  0  0  0
  1  2  1  0
  2  3  1  0
  2  4  1  0
  4  5  1  0
  5  6  1  0
  6  7  2  0
  7  8  1  0
  8  9  2  0
  9 10  1  0
 10 11  2  0
 11 12  1  0
 12 13  2  0
 13 14  1  0
 14 15  1  0
 15 16  1  0
 16 17  2  0
 17 18  1  0
 18 19  2  0
 19 20  1  0
 20 21  2  0
 21  7  1  0
 13  8  1  0
 21 16  1  0
M  END
>  <supplier_code>  (980) 
DB01142

>  <zinc_id>  (980) 
ZINC000000001331

>  <catalog_short_name>  (980) 
dbfda

$$$$

     RDKit          3D

 16 16  0  0  0  0  0  0  0  0999 V2000
    2.6954   -2.3396   -0.5899 N   0  0  0  0  0  0  0  0  0  0  0  0
    2.8824   -0.6582   -0.2505 S   0  0  0  0  0  0  0  0  0  0  0  0
    3.1427   -0.4934    1.2109 O   0  0  0  0  0  0  0  0  0  0  0  0
    3.9806   -0.1281   -1.1082 O   0  0  0  0  0  0  0  0  0  0  0  0
    1.3492    0.1390   -0.5866 C   0  0  0  0  0  0  0  0  0  0  0  0
    1.1953    1.5009   -0.3551 C   0  0  0  0  0  0  0  0  0  0  0  0
   -0.0609    2.0422   -0.1249 C   0  0  0  0  0  0  0  0  0  0  0  0
   -0.1632    3.7093    0.4056 Cl  0  0  0  0  0  0  0  0  0  0  0  0
   -1.1568    1.2245    0.1116 C   0  0  0  0  0  0  0  0  0  0  0  0
   -2.7600    1.9079    0.3249 Cl  0  0  0  0  0  0  0  0  0  0  0  0
   -1.0186   -0.1375   -0.0966 C   0  0  0  0  0  0  0  0  0  0  0  0
   -2.3319   -1.2278    0.3339 S   0  0  0  0  0  0  0  0  0  0  0  0
   -2.0342   -2.7028   -0.5343 N   0  0  0  0  0  0  0  0  0  0  0  0
   -3.6680   -0.6586    0.0152 O   0  0  0  0  0  0  0  0  0  0  0  0
   -2.2355   -1.5649    1.7950 O   0  0  0  0  0  0  0  0  0  0  0  0
    0.1836   -0.6127   -0.5511 C   0  0  0  0  0  0  0  0  0  0  0  0
  1  2  1  0
  2  3  2  0
  2  4  2  0
  2  5  1  0
  5  6  2  0
  6  7  1  0
  7  8  1  0
  7  9  2  0
  9 10  1  0
  9 11  1  0
 11 12  1  0
 12 13  1  0
 12 14  2  0
 12 15  2  0
 11 16  2  0
 16  5  1  0
M  END
>  <supplier_code>  (981) 
DB01144

>  <zinc_id>  (981) 
ZINC000000896918

>  <catalog_short_name>  (981) 
dbfda

$$$$

     RDKit          3D

 29 32  0  0  0  0  0  0  0  0999 V2000
   -4.7139    1.5352   -0.8764 C   0  0  0  0  0  0  0  0  0  0  0  0
   -3.3316    1.3053   -0.4153 C   0  0  0  0  0  0  0  0  0  0  0  0
   -2.7494    2.2213    0.4377 C   0  0  0  0  0  0  0  0  0  0  0  0
   -3.3121    3.2420    0.8766 O   0  0  0  0  0  0  0  0  0  0  0  0
   -1.4620    1.9117    0.8595 C   0  0  0  0  0  0  0  0  0  0  0  0
   -0.9530    2.4075    2.0467 C   0  0  0  0  0  0  0  0  0  0  0  0
    0.3318    2.0273    2.4160 C   0  0  0  0  0  0  0  0  0  0  0  0
    1.0923    1.3127    1.4983 C   0  0  0  0  0  0  0  0  0  0  0  0
    0.5079    0.6422    0.4374 C   0  0  0  0  0  0  0  0  0  0  0  0
    1.2957    0.0329   -0.6381 C   0  0  0  0  0  0  0  0  0  0  0  0
    1.8923    0.8096   -1.4416 O   0  0  0  0  0  0  0  0  0  0  0  0
    1.7950   -1.2455   -0.5262 O   0  0  0  0  0  0  0  0  0  0  0  0
    3.0182   -1.5983   -1.1457 C   0  0  0  0  0  0  0  0  0  0  0  0
    4.0628   -0.5084   -1.0004 C   0  0  0  0  0  0  0  0  0  0  0  0
    4.5038   -0.4385    0.3898 N   0  0  0  0  0  0  0  0  0  0  0  0
    5.3970   -1.5675    0.5948 C   0  0  0  0  0  0  0  0  0  0  0  0
    6.4776   -1.6500   -0.4460 C   0  0  0  0  0  0  0  0  0  0  0  0
    6.9973   -0.2454   -0.6806 C   0  0  0  0  0  0  0  0  0  0  0  0
    6.6946    0.5996    0.5384 C   0  0  0  0  0  0  0  0  0  0  0  0
    5.2057    0.8044    0.5807 C   0  0  0  0  0  0  0  0  0  0  0  0
   -0.8401    0.8691    0.1921 C   0  0  0  0  0  0  0  0  0  0  0  0
   -1.5199   -0.0933   -0.4070 O   0  0  0  0  0  0  0  0  0  0  0  0
   -2.8225    0.0236   -0.5923 C   0  0  0  0  0  0  0  0  0  0  0  0
   -3.6792   -1.1669   -0.5321 C   0  0  0  0  0  0  0  0  0  0  0  0
   -3.2431   -2.3562    0.0378 C   0  0  0  0  0  0  0  0  0  0  0  0
   -4.1618   -3.1847    0.6706 C   0  0  0  0  0  0  0  0  0  0  0  0
   -5.4899   -2.8118    0.8353 C   0  0  0  0  0  0  0  0  0  0  0  0
   -5.9573   -1.8484   -0.0462 C   0  0  0  0  0  0  0  0  0  0  0  0
   -5.0362   -1.0297   -0.6889 C   0  0  0  0  0  0  0  0  0  0  0  0
  1  2  1  0
  2  3  1  0
  3  4  2  0
  3  5  1  0
  5  6  2  0
  6  7  1  0
  7  8  2  0
  8  9  1  0
  9 10  1  0
 10 11  2  0
 10 12  1  0
 12 13  1  0
 13 14  1  0
 14 15  1  0
 15 16  1  0
 16 17  1  0
 17 18  1  0
 18 19  1  0
 19 20  1  0
  9 21  2  0
 21 22  1  0
 22 23  1  0
 23 24  1  0
 24 25  2  0
 25 26  1  0
 26 27  2  0
 27 28  1  0
 28 29  2  0
 23  2  2  0
 29 24  1  0
 21  5  1  0
 20 15  1  0
M  END
>  <supplier_code>  (982) 
DB01148

>  <zinc_id>  (982) 
ZINC000000608382

>  <catalog_short_name>  (982) 
dbfda

$$$$

     RDKit          3D

 33 36  0  0  0  0  0  0  0  0999 V2000
    3.0156   -3.1369    0.2510 C   0  0  0  0  0  0  0  0  0  0  0  0
    3.6147   -1.9580   -0.5036 C   0  0  0  0  0  0  0  0  0  0  0  0
    2.6372   -0.8469   -0.4008 C   0  0  0  0  0  0  0  0  0  0  0  0
    1.3104   -0.9594   -0.1818 N   0  0  0  0  0  0  0  0  0  0  0  0
    0.7419    0.0820   -0.7658 N   0  0  0  0  0  0  0  0  0  0  0  0
   -0.6562    0.2745   -1.1390 C   0  0  0  0  0  0  0  0  0  0  0  0
   -1.1945   -1.0781   -1.5900 C   0  0  0  0  0  0  0  0  0  0  0  0
   -1.5872   -1.8226   -0.3475 C   0  0  0  0  0  0  0  0  0  0  0  0
   -2.8279   -1.4346    0.2210 N   0  0  0  0  0  0  0  0  0  0  0  0
   -2.9887   -0.0735    0.5649 C   0  0  0  0  0  0  0  0  0  0  0  0
   -3.9778    0.6980   -0.2501 C   0  0  0  0  0  0  0  0  0  0  0  0
   -5.1656   -0.1184   -0.4196 N   0  0  0  0  0  0  0  0  0  0  0  0
   -6.4566    0.3927   -0.1724 C   0  0  0  0  0  0  0  0  0  0  0  0
   -6.5873    1.5363    0.5710 C   0  0  0  0  0  0  0  0  0  0  0  0
   -7.8096    1.9889    1.0476 C   0  0  0  0  0  0  0  0  0  0  0  0
   -8.8310    1.0582    1.0857 C   0  0  0  0  0  0  0  0  0  0  0  0
   -8.7410   -0.0967    0.3232 C   0  0  0  0  0  0  0  0  0  0  0  0
   -9.9660   -1.3166    0.6150 Cl  0  0  0  0  0  0  0  0  0  0  0  0
   -7.5736   -0.3700   -0.3779 C   0  0  0  0  0  0  0  0  0  0  0  0
   -4.9486   -1.4217   -1.0366 C   0  0  0  0  0  0  0  0  0  0  0  0
   -3.9747   -2.1622   -0.1694 C   0  0  0  0  0  0  0  0  0  0  0  0
    1.6913    1.0309   -0.7982 C   0  0  0  0  0  0  0  0  0  0  0  0
    1.4333    2.2548   -0.9519 O   0  0  0  0  0  0  0  0  0  0  0  0
    2.9072    0.4421   -0.7080 N   0  0  0  0  0  0  0  0  0  0  0  0
    4.1586    1.0294   -1.1463 C   0  0  0  0  0  0  0  0  0  0  0  0
    5.2605    0.0524   -0.8238 C   0  0  0  0  0  0  0  0  0  0  0  0
    5.7890    0.2951    0.4713 O   0  0  0  0  0  0  0  0  0  0  0  0
    7.1236    0.5791    0.6819 C   0  0  0  0  0  0  0  0  0  0  0  0
    7.9367   -0.1689    1.5239 C   0  0  0  0  0  0  0  0  0  0  0  0
    9.2727    0.1524    1.6632 C   0  0  0  0  0  0  0  0  0  0  0  0
    9.7343    1.4039    1.2772 C   0  0  0  0  0  0  0  0  0  0  0  0
    8.9214    2.1214    0.4241 C   0  0  0  0  0  0  0  0  0  0  0  0
    7.7379    1.5722   -0.0441 C   0  0  0  0  0  0  0  0  0  0  0  0
  1  2  1  0
  2  3  1  0
  3  4  2  0
  4  5  1  0
  5  6  1  0
  6  7  1  0
  7  8  1  0
  8  9  1  0
  9 10  1  0
 10 11  1  0
 11 12  1  0
 12 13  1  0
 13 14  2  0
 14 15  1  0
 15 16  2  0
 16 17  1  0
 17 18  1  0
 17 19  2  0
 12 20  1  0
 20 21  1  0
  5 22  1  0
 22 23  2  0
 22 24  1  0
 24 25  1  0
 25 26  1  0
 26 27  1  0
 27 28  1  0
 28 29  2  0
 29 30  1  0
 30 31  2  0
 31 32  1  0
 32 33  2  0
 24  3  1  0
 33 28  1  0
 21  9  1  0
 19 13  1  0
M  END
>  <supplier_code>  (983) 
DB01149

>  <zinc_id>  (983) 
ZINC000000538065

>  <catalog_short_name>  (983) 
dbfda

$$$$

     RDKit          3D

 27 29  0  0  0  0  0  0  0  0999 V2000
   -6.1657    1.8950   -1.5805 C   0  0  0  0  0  0  0  0  0  0  0  0
   -5.2188    1.3527   -1.4009 C   0  0  0  0  0  0  0  0  0  0  0  0
   -4.7556    0.1322   -1.6283 C   0  0  0  0  0  0  0  0  0  0  0  0
   -3.4686   -0.3305   -1.1242 C   0  0  0  0  0  0  0  0  0  0  0  0
   -3.4142   -0.6319    0.1707 C   0  0  0  0  0  0  0  0  0  0  0  0
   -4.5438   -1.2795    0.8377 C   0  0  0  0  0  0  0  0  0  0  0  0
   -4.3027   -2.3218    1.5214 O   0  0  0  0  0  0  0  0  0  0  0  0
   -5.8264   -0.7308    0.8494 O   0  0  0  0  0  0  0  0  0  0  0  0
   -2.2332   -0.4794    0.9701 N   0  0  0  0  0  0  0  0  0  0  0  0
   -1.1146   -1.2697    1.4528 C   0  0  0  0  0  0  0  0  0  0  0  0
   -1.1268   -2.0754    2.4351 O   0  0  0  0  0  0  0  0  0  0  0  0
   -0.3985    0.1728    1.7404 C   0  0  1  0  0  0  0  0  0  0  0  0
    0.9245   -0.1546    0.8860 N   0  0  0  0  0  0  0  0  0  0  0  0
    1.6017    1.0044    0.3879 C   0  0  0  0  0  0  0  0  0  0  0  0
    0.8217    1.9722    0.1273 O   0  0  0  0  0  0  0  0  0  0  0  0
    2.8555    1.4962    1.3493 C   0  0  2  0  0  0  0  0  0  0  0  0
    3.2508    2.7053    0.3550 N   0  0  0  0  0  0  0  0  0  0  0  0
    3.9189    0.4519    0.6498 C   0  0  0  0  0  0  0  0  0  0  0  0
    5.1010    0.4430    1.3571 C   0  0  0  0  0  0  0  0  0  0  0  0
    6.1894   -0.2403    0.8347 C   0  0  0  0  0  0  0  0  0  0  0  0
    6.1622   -0.5096   -0.5243 C   0  0  0  0  0  0  0  0  0  0  0  0
    7.1619   -1.3600   -1.0030 O   0  0  0  0  0  0  0  0  0  0  0  0
    5.0192   -0.2558   -1.2731 C   0  0  0  0  0  0  0  0  0  0  0  0
    3.9603    0.4365   -0.6935 C   0  0  0  0  0  0  0  0  0  0  0  0
   -1.3619    0.6449    0.4161 C   0  0  1  0  0  0  0  0  0  0  0  0
   -0.7557   -0.5015   -0.9904 S   0  0  0  0  0  0  0  0  0  0  0  0
   -2.2807   -0.5662   -2.0047 C   0  0  0  0  0  0  0  0  0  0  0  0
  1  2  1  0
  2  3  2  0
  3  4  1  0
  4  5  2  0
  5  6  1  0
  6  7  2  0
  6  8  1  0
  5  9  1  0
  9 10  1  0
 10 11  2  0
 10 12  1  0
 12 13  1  6
 13 14  1  0
 14 15  2  0
 16 14  1  6
 16 17  1  0
 16 18  1  0
 18 19  2  0
 19 20  1  0
 20 21  2  0
 21 22  1  0
 21 23  1  0
 23 24  2  0
 12 25  1  0
 25 26  1  6
 26 27  1  0
 27  4  1  0
 25  9  1  0
 24 18  1  0
M  END
>  <supplier_code>  (984) 
DB01150

>  <zinc_id>  (984) 
ZINC000003776970

>  <catalog_short_name>  (984) 
dbfda

$$$$

     RDKit          3D

 27 29  0  0  0  0  0  0  0  0999 V2000
   -6.0871   -1.2300    0.6240 C   0  0  0  0  0  0  0  0  0  0  0  0
   -6.1766   -0.7194    0.5741 C   0  0  0  0  0  0  0  0  0  0  0  0
   -5.3381    0.2862    0.7901 C   0  0  0  0  0  0  0  0  0  0  0  0
   -3.9348   -0.1108    0.6309 C   0  0  0  0  0  0  0  0  0  0  0  0
   -3.3852    0.1348   -0.5590 C   0  0  0  0  0  0  0  0  0  0  0  0
   -4.0348    0.9911   -1.5605 C   0  0  0  0  0  0  0  0  0  0  0  0
   -3.8739    2.2411   -1.5637 O   0  0  0  0  0  0  0  0  0  0  0  0
   -5.0782    0.4424   -2.3138 O   0  0  0  0  0  0  0  0  0  0  0  0
   -2.0958   -0.3664   -0.9324 N   0  0  0  0  0  0  0  0  0  0  0  0
   -0.7084    0.0351   -1.0825 C   0  0  0  0  0  0  0  0  0  0  0  0
   -0.3929    0.6530   -2.1610 O   0  0  0  0  0  0  0  0  0  0  0  0
   -0.3398   -1.5530   -1.0695 C   0  0  1  0  0  0  0  0  0  0  0  0
    0.6160   -1.5385    0.2105 N   0  0  0  0  0  0  0  0  0  0  0  0
    1.7528   -0.7447    0.1655 C   0  0  0  0  0  0  0  0  0  0  0  0
    1.6080    0.3901   -0.2881 O   0  0  0  0  0  0  0  0  0  0  0  0
    3.1647   -1.4801   -0.2247 C   0  0  2  0  0  0  0  0  0  0  0  0
    3.3193   -2.0632    1.2596 N   0  0  0  0  0  0  0  0  0  0  0  0
    4.0637   -0.1568    0.1516 C   0  0  0  0  0  0  0  0  0  0  0  0
    4.0158    0.7837   -0.8800 C   0  0  0  0  0  0  0  0  0  0  0  0
    4.7916    1.9168   -0.6574 C   0  0  0  0  0  0  0  0  0  0  0  0
    5.9875    1.7600    0.0240 C   0  0  0  0  0  0  0  0  0  0  0  0
    6.7009    2.8795    0.4653 O   0  0  0  0  0  0  0  0  0  0  0  0
    6.3524    0.4671    0.3819 C   0  0  0  0  0  0  0  0  0  0  0  0
    5.3715   -0.5139    0.4796 C   0  0  0  0  0  0  0  0  0  0  0  0
   -1.7978   -1.6697   -0.2076 C   0  0  1  0  0  0  0  0  0  0  0  0
   -1.4283   -0.7503    1.4232 S   0  0  0  0  0  0  0  0  0  0  0  0
   -3.0728   -0.0843    1.8549 C   0  0  0  0  0  0  0  0  0  0  0  0
  1  2  1  0
  2  3  2  0
  3  4  1  0
  4  5  2  0
  5  6  1  0
  6  7  2  0
  6  8  1  0
  5  9  1  0
  9 10  1  0
 10 11  2  0
 10 12  1  0
 12 13  1  1
 13 14  1  0
 14 15  2  0
 16 14  1  1
 16 17  1  0
 16 18  1  0
 18 19  2  0
 19 20  1  0
 20 21  2  0
 21 22  1  0
 21 23  1  0
 23 24  2  0
 12 25  1  0
 25 26  1  1
 26 27  1  0
 27  4  1  0
 25  9  1  0
 24 18  1  0
M  END
>  <supplier_code>  (985) 
DB01150

>  <zinc_id>  (985) 
ZINC000004474443

>  <catalog_short_name>  (985) 
dbfda

$$$$

     RDKit          3D

 20 22  0  0  0  0  0  0  0  0999 V2000
    4.3259   -0.2010    1.0126 C   0  0  0  0  0  0  0  0  0  0  0  0
    4.1025    0.6122   -0.1671 N   0  0  0  0  0  0  0  0  0  0  0  0
    3.7886   -0.1961   -1.3206 C   0  0  0  0  0  0  0  0  0  0  0  0
    2.3030   -0.0729   -1.6307 C   0  0  0  0  0  0  0  0  0  0  0  0
    1.5809   -0.1093   -0.3085 C   0  0  0  0  0  0  0  0  0  0  0  0
    0.1374   -0.0023   -0.4678 N   0  0  0  0  0  0  0  0  0  0  0  0
   -0.5813   -1.2383   -0.3621 C   0  0  0  0  0  0  0  0  0  0  0  0
    0.2991   -2.3123   -0.3398 C   0  0  0  0  0  0  0  0  0  0  0  0
   -0.0843   -3.5466    0.1185 C   0  0  0  0  0  0  0  0  0  0  0  0
   -1.4347   -3.8216    0.2057 C   0  0  0  0  0  0  0  0  0  0  0  0
   -2.3495   -2.7821    0.2186 C   0  0  0  0  0  0  0  0  0  0  0  0
   -1.8534   -1.4896    0.1386 C   0  0  0  0  0  0  0  0  0  0  0  0
   -2.8403   -0.4598    0.5872 C   0  0  0  0  0  0  0  0  0  0  0  0
   -2.8780    0.7344   -0.3413 C   0  0  0  0  0  0  0  0  0  0  0  0
   -1.7125    1.6421   -0.1235 C   0  0  0  0  0  0  0  0  0  0  0  0
   -2.0527    2.8844    0.3617 C   0  0  0  0  0  0  0  0  0  0  0  0
   -1.1289    3.6581    1.0491 C   0  0  0  0  0  0  0  0  0  0  0  0
    0.1860    3.2362    1.1772 C   0  0  0  0  0  0  0  0  0  0  0  0
    0.5566    2.1511    0.3948 C   0  0  0  0  0  0  0  0  0  0  0  0
   -0.3642    1.3136   -0.2025 C   0  0  0  0  0  0  0  0  0  0  0  0
  1  2  1  0
  2  3  1  0
  3  4  1  0
  4  5  1  0
  5  6  1  0
  6  7  1  0
  7  8  2  0
  8  9  1  0
  9 10  2  0
 10 11  1  0
 11 12  2  0
 12 13  1  0
 13 14  1  0
 14 15  1  0
 15 16  2  0
 16 17  1  0
 17 18  2  0
 18 19  1  0
 19 20  2  0
 20  6  1  0
 12  7  1  0
 20 15  1  0
M  END
>  <supplier_code>  (986) 
DB01151

>  <zinc_id>  (986) 
ZINC000001530611

>  <catalog_short_name>  (986) 
dbfda

$$$$

     RDKit          3D

 27 30  0  0  0  0  0  0  0  0999 V2000
   -4.8496    3.5999   -0.2908 Cl  0  0  0  0  0  0  0  0  0  0  0  0
   -3.5642    2.5788    0.2630 C   0  0  0  0  0  0  0  0  0  0  0  0
   -2.2757    2.6349   -0.2495 C   0  0  0  0  0  0  0  0  0  0  0  0
   -1.4921    1.4849   -0.2332 C   0  0  0  0  0  0  0  0  0  0  0  0
   -1.9447    0.3163    0.3821 C   0  0  0  0  0  0  0  0  0  0  0  0
   -0.6662   -0.4909    1.0617 C   0  0  1  0  0  0  0  0  0  0  0  0
   -1.6477   -1.7641    1.5614 C   0  0  0  0  0  0  0  0  0  0  0  0
   -2.1028   -2.4390    0.4084 N   0  0  0  0  0  0  0  0  0  0  0  0
   -2.6516   -2.0354   -0.7514 C   0  0  0  0  0  0  0  0  0  0  0  0
   -2.9761   -3.1646   -1.4886 C   0  0  0  0  0  0  0  0  0  0  0  0
   -2.4410   -4.2155   -0.8807 N   0  0  0  0  0  0  0  0  0  0  0  0
   -1.9168   -3.7735    0.2549 C   0  0  0  0  0  0  0  0  0  0  0  0
   -0.2977   -1.1702   -0.2849 O   0  0  0  0  0  0  0  0  0  0  0  0
    0.6863   -0.3907   -0.8224 C   0  0  0  0  0  0  0  0  0  0  0  0
    1.9478   -0.4198   -0.0135 C   0  0  0  0  0  0  0  0  0  0  0  0
    2.3324   -1.4118    0.8813 C   0  0  0  0  0  0  0  0  0  0  0  0
    4.0414   -1.2165    0.8608 S   0  0  0  0  0  0  0  0  0  0  0  0
    4.1143    0.2820    0.0219 C   0  0  0  0  0  0  0  0  0  0  0  0
    2.7893    0.6808    0.1034 C   0  0  0  0  0  0  0  0  0  0  0  0
    2.5045    2.0240   -0.1192 C   0  0  0  0  0  0  0  0  0  0  0  0
    3.5328    2.9004   -0.4424 C   0  0  0  0  0  0  0  0  0  0  0  0
    4.8447    2.5080   -0.5495 C   0  0  0  0  0  0  0  0  0  0  0  0
    5.1300    1.2231   -0.1234 C   0  0  0  0  0  0  0  0  0  0  0  0
    6.7715    0.6404   -0.1893 Cl  0  0  0  0  0  0  0  0  0  0  0  0
   -2.9313    0.5518    1.3403 C   0  0  0  0  0  0  0  0  0  0  0  0
   -3.0545   -0.4618    2.7790 Cl  0  0  0  0  0  0  0  0  0  0  0  0
   -3.8830    1.5284    1.1039 C   0  0  0  0  0  0  0  0  0  0  0  0
  1  2  1  0
  2  3  2  0
  3  4  1  0
  4  5  2  0
  6  5  1  6
  6  7  1  0
  7  8  1  0
  8  9  1  0
  9 10  2  0
 10 11  1  0
 11 12  2  0
  6 13  1  0
 13 14  1  0
 14 15  1  0
 15 16  2  0
 16 17  1  0
 17 18  1  0
 18 19  2  0
 19 20  1  0
 20 21  2  0
 21 22  1  0
 22 23  2  0
 23 24  1  0
  5 25  1  0
 25 26  1  0
 25 27  2  0
 27  2  1  0
 12  8  1  0
 19 15  1  0
 23 18  1  0
M  END
>  <supplier_code>  (987) 
DB01153

>  <zinc_id>  (987) 
ZINC000000606383

>  <catalog_short_name>  (987) 
dbfda

$$$$

     RDKit          3D

 27 30  0  0  0  0  0  0  0  0999 V2000
   -3.3513   -5.0148   -2.1417 Cl  0  0  0  0  0  0  0  0  0  0  0  0
   -2.7784   -3.6416   -1.3469 C   0  0  0  0  0  0  0  0  0  0  0  0
   -1.4277   -3.3531   -1.1970 C   0  0  0  0  0  0  0  0  0  0  0  0
   -1.0117   -2.1844   -0.5703 C   0  0  0  0  0  0  0  0  0  0  0  0
   -1.8665   -1.0862   -0.6346 C   0  0  0  0  0  0  0  0  0  0  0  0
   -1.5636   -0.1103    0.6707 C   0  0  2  0  0  0  0  0  0  0  0  0
   -2.6944    1.0382    0.1710 C   0  0  0  0  0  0  0  0  0  0  0  0
   -2.5147    2.0770    1.1847 N   0  0  0  0  0  0  0  0  0  0  0  0
   -3.1872    2.1774    2.3594 C   0  0  0  0  0  0  0  0  0  0  0  0
   -3.5479    3.5035    2.5768 C   0  0  0  0  0  0  0  0  0  0  0  0
   -2.9531    4.2116    1.6015 N   0  0  0  0  0  0  0  0  0  0  0  0
   -2.2739    3.3611    0.8309 C   0  0  0  0  0  0  0  0  0  0  0  0
   -0.4413    0.6276   -0.1024 O   0  0  0  0  0  0  0  0  0  0  0  0
    0.6252    0.5431    0.7684 C   0  0  0  0  0  0  0  0  0  0  0  0
    1.8948    0.7576   -0.0003 C   0  0  0  0  0  0  0  0  0  0  0  0
    1.8959    1.5673   -1.1105 C   0  0  0  0  0  0  0  0  0  0  0  0
    3.5529    1.7346   -1.5103 S   0  0  0  0  0  0  0  0  0  0  0  0
    4.1673    0.6469   -0.3378 C   0  0  0  0  0  0  0  0  0  0  0  0
    3.0549    0.0922    0.2215 C   0  0  0  0  0  0  0  0  0  0  0  0
    3.3465   -0.7979    1.2559 C   0  0  0  0  0  0  0  0  0  0  0  0
    4.4962   -1.5321    1.2177 C   0  0  0  0  0  0  0  0  0  0  0  0
    5.6201   -1.0447    0.5790 C   0  0  0  0  0  0  0  0  0  0  0  0
    5.4131    0.0278   -0.2795 C   0  0  0  0  0  0  0  0  0  0  0  0
    6.6487    0.3537   -1.4910 Cl  0  0  0  0  0  0  0  0  0  0  0  0
   -3.2087   -1.3834   -0.7473 C   0  0  0  0  0  0  0  0  0  0  0  0
   -4.2201    0.0556   -0.8870 Cl  0  0  0  0  0  0  0  0  0  0  0  0
   -3.6750   -2.6264   -1.0811 C   0  0  0  0  0  0  0  0  0  0  0  0
  1  2  1  0
  2  3  2  0
  3  4  1  0
  4  5  2  0
  6  5  1  6
  6  7  1  0
  7  8  1  0
  8  9  1  0
  9 10  2  0
 10 11  1  0
 11 12  2  0
  6 13  1  0
 13 14  1  0
 14 15  1  0
 15 16  2  0
 16 17  1  0
 17 18  1  0
 18 19  2  0
 19 20  1  0
 20 21  2  0
 21 22  1  0
 22 23  2  0
 23 24  1  0
  5 25  1  0
 25 26  1  0
 25 27  2  0
 27  2  1  0
 12  8  1  0
 19 15  1  0
 23 18  1  0
M  END
>  <supplier_code>  (988) 
DB01153

>  <zinc_id>  (988) 
ZINC000002016037

>  <catalog_short_name>  (988) 
dbfda

$$$$

     RDKit          3D

 28 31  0  0  0  0  0  0  0  0999 V2000
    5.5822    2.1757   -0.1734 C   0  0  0  0  0  0  0  0  0  0  0  0
    5.2887    1.2214   -1.1599 O   0  0  0  0  0  0  0  0  0  0  0  0
    5.0647   -0.1020   -0.8189 N   0  0  0  0  0  0  0  0  0  0  0  0
    4.3021   -0.3915    0.1976 C   0  0  0  0  0  0  0  0  0  0  0  0
    3.2809    0.5951    0.6592 C   0  0  0  0  0  0  0  0  0  0  0  0
    2.0664   -0.1563    0.8856 N   0  0  0  0  0  0  0  0  0  0  0  0
    0.8036    0.0547    0.2639 C   0  0  0  0  0  0  0  0  0  0  0  0
   -0.1846    0.8015    0.8156 N   0  0  0  0  0  0  0  0  0  0  0  0
   -1.4456    0.6044    0.3546 C   0  0  0  0  0  0  0  0  0  0  0  0
   -1.6624   -0.4382   -0.5399 C   0  0  0  0  0  0  0  0  0  0  0  0
   -0.6339   -1.0064   -1.2836 C   0  0  0  0  0  0  0  0  0  0  0  0
    0.6460   -0.5647   -0.9706 C   0  0  0  0  0  0  0  0  0  0  0  0
    1.6023   -0.3456   -1.9191 F   0  0  0  0  0  0  0  0  0  0  0  0
   -2.9508   -0.9117   -0.7026 C   0  0  0  0  0  0  0  0  0  0  0  0
   -3.1319   -2.1320   -0.8850 O   0  0  0  0  0  0  0  0  0  0  0  0
   -3.9651   -0.0128   -0.3998 C   0  0  0  0  0  0  0  0  0  0  0  0
   -5.3009   -0.5752   -0.1696 C   0  0  0  0  0  0  0  0  0  0  0  0
   -5.6649   -1.4642   -0.9935 O   0  0  0  0  0  0  0  0  0  0  0  0
   -5.6704   -0.7869    1.1525 O   0  0  0  0  0  0  0  0  0  0  0  0
   -3.6339    1.2491    0.0815 C   0  0  0  0  0  0  0  0  0  0  0  0
   -2.3734    1.5924    0.4111 N   0  0  0  0  0  0  0  0  0  0  0  0
   -1.9505    2.9770    0.5966 C   0  0  0  0  0  0  0  0  0  0  0  0
   -3.0419    3.8193    1.3052 C   0  0  0  0  0  0  0  0  0  0  0  0
   -1.6765    3.5295    1.9296 C   0  0  0  0  0  0  0  0  0  0  0  0
    2.5821   -1.3996    1.4614 C   0  0  0  0  0  0  0  0  0  0  0  0
    3.4491   -1.7770    0.0956 C   0  0  2  0  0  0  0  0  0  0  0  0
    4.5830   -2.6035    0.9823 C   0  0  0  0  0  0  0  0  0  0  0  0
    4.0355   -3.9526    0.8670 N   0  0  0  0  0  0  0  0  0  0  0  0
  1  2  1  0
  2  3  1  0
  3  4  2  0
  4  5  1  0
  5  6  1  0
  6  7  1  0
  7  8  2  0
  8  9  1  0
  9 10  2  0
 10 11  1  0
 11 12  2  0
 12 13  1  0
 10 14  1  0
 14 15  2  0
 14 16  1  0
 16 17  1  0
 17 18  2  0
 17 19  1  0
 16 20  2  0
 20 21  1  0
 21 22  1  0
 22 23  1  0
 23 24  1  0
  6 25  1  0
 25 26  1  0
 26 27  1  1
 27 28  1  0
 26  4  1  0
 12  7  1  0
 24 22  1  0
 21  9  1  0
M  END
>  <supplier_code>  (989) 
DB01155

>  <zinc_id>  (989) 
ZINC000022059926

>  <catalog_short_name>  (989) 
dbfda

$$$$

     RDKit          3D

 28 31  0  0  0  0  0  0  0  0999 V2000
    4.6210    3.3589   -1.3367 C   0  0  0  0  0  0  0  0  0  0  0  0
    4.6959    2.0226   -1.7184 O   0  0  0  0  0  0  0  0  0  0  0  0
    5.1216    1.0515   -0.8706 N   0  0  0  0  0  0  0  0  0  0  0  0
    4.3594    0.0160   -0.7601 C   0  0  0  0  0  0  0  0  0  0  0  0
    3.0233   -0.3023   -1.2191 C   0  0  0  0  0  0  0  0  0  0  0  0
    2.2613   -0.6850   -0.0278 N   0  0  0  0  0  0  0  0  0  0  0  0
    0.8888   -0.2777   -0.0039 C   0  0  0  0  0  0  0  0  0  0  0  0
   -0.1375   -1.1509    0.0739 N   0  0  0  0  0  0  0  0  0  0  0  0
   -1.3784   -0.6958    0.3430 C   0  0  0  0  0  0  0  0  0  0  0  0
   -1.4634    0.5267    1.0013 C   0  0  0  0  0  0  0  0  0  0  0  0
   -0.5081    1.5131    0.7562 C   0  0  0  0  0  0  0  0  0  0  0  0
    0.6614    1.0887    0.1304 C   0  0  0  0  0  0  0  0  0  0  0  0
    1.3214    1.8886   -0.7582 F   0  0  0  0  0  0  0  0  0  0  0  0
   -2.7455    0.8764    1.4140 C   0  0  0  0  0  0  0  0  0  0  0  0
   -2.8053    1.7891    2.2773 O   0  0  0  0  0  0  0  0  0  0  0  0
   -3.8908    0.4575    0.7436 C   0  0  0  0  0  0  0  0  0  0  0  0
   -5.0344    1.3731    0.6126 C   0  0  0  0  0  0  0  0  0  0  0  0
   -4.8196    2.3880   -0.1236 O   0  0  0  0  0  0  0  0  0  0  0  0
   -5.6830    1.7062    1.8092 O   0  0  0  0  0  0  0  0  0  0  0  0
   -3.7132   -0.6769   -0.0016 C   0  0  0  0  0  0  0  0  0  0  0  0
   -2.5032   -1.2809   -0.1331 N   0  0  0  0  0  0  0  0  0  0  0  0
   -2.3929   -2.3073   -1.1335 C   0  0  0  0  0  0  0  0  0  0  0  0
   -3.4432   -2.5344   -2.1473 C   0  0  0  0  0  0  0  0  0  0  0  0
   -3.1539   -3.5698   -1.0585 C   0  0  0  0  0  0  0  0  0  0  0  0
    3.0544   -0.4409    1.1544 C   0  0  0  0  0  0  0  0  0  0  0  0
    4.5446   -0.8188    0.6002 C   0  0  1  0  0  0  0  0  0  0  0  0
    4.0382   -2.2207   -0.0832 C   0  0  0  0  0  0  0  0  0  0  0  0
    5.0811   -3.0952    0.4593 N   0  0  0  0  0  0  0  0  0  0  0  0
  1  2  1  0
  2  3  1  0
  3  4  2  0
  4  5  1  0
  5  6  1  0
  6  7  1  0
  7  8  2  0
  8  9  1  0
  9 10  2  0
 10 11  1  0
 11 12  2  0
 12 13  1  0
 10 14  1  0
 14 15  2  0
 14 16  1  0
 16 17  1  0
 17 18  2  0
 17 19  1  0
 16 20  2  0
 20 21  1  0
 21 22  1  0
 22 23  1  0
 23 24  1  0
  6 25  1  0
 25 26  1  0
 26 27  1  6
 27 28  1  0
 26  4  1  0
 12  7  1  0
 24 22  1  0
 21  9  1  0
M  END
>  <supplier_code>  (990) 
DB01155

>  <zinc_id>  (990) 
ZINC000022059930

>  <catalog_short_name>  (990) 
dbfda

$$$$

     RDKit          3D

 16 16  0  0  0  0  0  0  0  0999 V2000
    1.9820    0.6862   -1.7451 C   0  0  0  0  0  0  0  0  0  0  0  0
    1.2864    0.7164   -0.2224 C   0  0  2  0  0  0  0  0  0  0  0  0
    2.1077   -0.5808    0.2359 N   0  0  0  0  0  0  0  0  0  0  0  0
    3.3507   -0.0772    0.7549 C   0  0  0  0  0  0  0  0  0  0  0  0
    4.4543   -1.0381    0.3229 C   0  0  0  0  0  0  0  0  0  0  0  0
    3.6686    1.3212    0.3026 C   0  0  0  0  0  0  0  0  0  0  0  0
    3.3035   -0.0923    2.2788 C   0  0  0  0  0  0  0  0  0  0  0  0
    0.0087   -0.1874   -0.6999 C   0  0  0  0  0  0  0  0  0  0  0  0
    0.2502   -1.1584   -1.4032 O   0  0  0  0  0  0  0  0  0  0  0  0
   -1.2863    0.3521   -0.3484 C   0  0  0  0  0  0  0  0  0  0  0  0
   -2.1067    0.9130   -1.3224 C   0  0  0  0  0  0  0  0  0  0  0  0
   -3.4703    0.7687   -1.3250 C   0  0  0  0  0  0  0  0  0  0  0  0
   -4.0860    0.0092   -0.3642 C   0  0  0  0  0  0  0  0  0  0  0  0
   -3.3379   -0.4677    0.6802 C   0  0  0  0  0  0  0  0  0  0  0  0
   -4.1363   -0.9395    2.1541 Cl  0  0  0  0  0  0  0  0  0  0  0  0
   -1.9888   -0.2252    0.7013 C   0  0  0  0  0  0  0  0  0  0  0  0
  2  1  1  6
  2  3  1  0
  3  4  1  0
  4  5  1  0
  4  6  1  0
  4  7  1  0
  2  8  1  0
  8  9  2  0
  8 10  1  0
 10 11  2  0
 11 12  1  0
 12 13  2  0
 13 14  1  0
 14 15  1  0
 14 16  2  0
 16 10  1  0
M  END
>  <supplier_code>  (991) 
DB01156

>  <zinc_id>  (991) 
ZINC000000020228

>  <catalog_short_name>  (991) 
dbfda

$$$$

     RDKit          3D

 16 16  0  0  0  0  0  0  0  0999 V2000
    1.4095   -0.6939    1.9769 C   0  0  0  0  0  0  0  0  0  0  0  0
    0.9400    0.0678    0.5964 C   0  0  1  0  0  0  0  0  0  0  0  0
    2.1682   -0.4969   -0.2142 N   0  0  0  0  0  0  0  0  0  0  0  0
    3.2579    0.4114    0.0370 C   0  0  0  0  0  0  0  0  0  0  0  0
    4.3856   -0.4308    0.6222 C   0  0  0  0  0  0  0  0  0  0  0  0
    3.7167    1.0273   -1.2753 C   0  0  0  0  0  0  0  0  0  0  0  0
    2.9259    1.4615    1.0617 C   0  0  0  0  0  0  0  0  0  0  0  0
   -0.0192   -1.1404    0.1359 C   0  0  0  0  0  0  0  0  0  0  0  0
    0.3750   -2.2932    0.2652 O   0  0  0  0  0  0  0  0  0  0  0  0
   -1.4117   -0.7250    0.0325 C   0  0  0  0  0  0  0  0  0  0  0  0
   -1.9968   -0.8243   -1.2234 C   0  0  0  0  0  0  0  0  0  0  0  0
   -3.1178   -0.1065   -1.5456 C   0  0  0  0  0  0  0  0  0  0  0  0
   -3.5669    0.8413   -0.6675 C   0  0  0  0  0  0  0  0  0  0  0  0
   -3.1909    0.7471    0.6670 C   0  0  0  0  0  0  0  0  0  0  0  0
   -3.9301    1.9422    1.7282 Cl  0  0  0  0  0  0  0  0  0  0  0  0
   -1.9454    0.2125    0.9083 C   0  0  0  0  0  0  0  0  0  0  0  0
  2  1  1  1
  2  3  1  0
  3  4  1  0
  4  5  1  0
  4  6  1  0
  4  7  1  0
  2  8  1  0
  8  9  2  0
  8 10  1  0
 10 11  2  0
 11 12  1  0
 12 13  2  0
 13 14  1  0
 14 15  1  0
 14 16  2  0
 16 10  1  0
M  END
>  <supplier_code>  (992) 
DB01156

>  <zinc_id>  (992) 
ZINC000000057206

>  <catalog_short_name>  (992) 
dbfda

$$$$

     RDKit          3D

 18 18  0  0  0  0  0  0  0  0999 V2000
    4.5290    0.6637    2.0686 C   0  0  0  0  0  0  0  0  0  0  0  0
    3.2751    0.5419    1.2398 C   0  0  0  0  0  0  0  0  0  0  0  0
    3.5322    0.0897   -0.1032 N   0  0  0  0  0  0  0  0  0  0  0  0
    4.6566   -0.7956   -0.2160 C   0  0  0  0  0  0  0  0  0  0  0  0
    5.6317   -0.2395   -1.2446 C   0  0  0  0  0  0  0  0  0  0  0  0
    2.3305   -0.3999   -0.7233 C   0  0  0  0  0  0  0  0  0  0  0  0
    1.4935    0.7748   -1.1248 C   0  0  0  0  0  0  0  0  0  0  0  0
    0.1164    0.5925   -0.9442 O   0  0  0  0  0  0  0  0  0  0  0  0
   -0.5040   -0.6284   -0.7258 C   0  0  0  0  0  0  0  0  0  0  0  0
    0.1142   -1.6482   -1.1552 O   0  0  0  0  0  0  0  0  0  0  0  0
   -1.9087   -0.7002   -0.3007 C   0  0  0  0  0  0  0  0  0  0  0  0
   -2.2720   -1.3614    0.8641 C   0  0  0  0  0  0  0  0  0  0  0  0
   -3.3016   -0.9313    1.6667 C   0  0  0  0  0  0  0  0  0  0  0  0
   -3.9437    0.2545    1.3546 C   0  0  0  0  0  0  0  0  0  0  0  0
   -4.5724    1.0720    2.3422 N   0  0  0  0  0  0  0  0  0  0  0  0
   -3.9000    0.6432    0.0226 C   0  0  0  0  0  0  0  0  0  0  0  0
   -2.8399    0.2197   -0.7676 C   0  0  0  0  0  0  0  0  0  0  0  0
   -2.4369    1.0545   -2.2533 Cl  0  0  0  0  0  0  0  0  0  0  0  0
  1  2  1  0
  2  3  1  0
  3  4  1  0
  4  5  1  0
  3  6  1  0
  6  7  1  0
  7  8  1  0
  8  9  1  0
  9 10  2  0
  9 11  1  0
 11 12  2  0
 12 13  1  0
 13 14  2  0
 14 15  1  0
 14 16  1  0
 16 17  2  0
 17 18  1  0
 17 11  1  0
M  END
>  <supplier_code>  (993) 
DB01161

>  <zinc_id>  (993) 
ZINC000001530938

>  <catalog_short_name>  (993) 
dbfda

$$$$

     RDKit          3D

 28 31  0  0  0  0  0  0  0  0999 V2000
    6.2493   -0.7441    2.0195 C   0  0  0  0  0  0  0  0  0  0  0  0
    5.7126    0.5042    1.9279 O   0  0  0  0  0  0  0  0  0  0  0  0
    4.5276    0.6166    1.1910 C   0  0  0  0  0  0  0  0  0  0  0  0
    3.3284    0.0835    1.6501 C   0  0  0  0  0  0  0  0  0  0  0  0
    2.3882   -0.3525    0.7242 C   0  0  0  0  0  0  0  0  0  0  0  0
    1.1001   -0.5954    1.0691 N   0  0  0  0  0  0  0  0  0  0  0  0
    0.2134   -0.9291    0.0999 C   0  0  0  0  0  0  0  0  0  0  0  0
   -1.1447   -0.4824    0.1851 N   0  0  0  0  0  0  0  0  0  0  0  0
   -1.9265   -1.0330    1.2884 C   0  0  0  0  0  0  0  0  0  0  0  0
   -3.0328   -1.8494    0.6260 C   0  0  0  0  0  0  0  0  0  0  0  0
   -3.7206   -0.8848   -0.2357 N   0  0  0  0  0  0  0  0  0  0  0  0
   -4.4783    0.1101    0.4565 C   0  0  0  0  0  0  0  0  0  0  0  0
   -4.2877    0.3670    1.6859 O   0  0  0  0  0  0  0  0  0  0  0  0
   -4.5553    1.5343   -0.3904 C   0  0  2  0  0  0  0  0  0  0  0  0
   -5.8847    2.0783    0.4930 C   0  0  0  0  0  0  0  0  0  0  0  0
   -6.7016    0.8392    0.5083 C   0  0  0  0  0  0  0  0  0  0  0  0
   -6.2854    0.1383   -0.7375 C   0  0  0  0  0  0  0  0  0  0  0  0
   -5.4805    0.9318   -1.4806 O   0  0  0  0  0  0  0  0  0  0  0  0
   -2.9506   -0.5765   -1.4412 C   0  0  0  0  0  0  0  0  0  0  0  0
   -1.7390    0.2016   -0.9393 C   0  0  0  0  0  0  0  0  0  0  0  0
    0.7132   -1.5155   -1.0124 N   0  0  0  0  0  0  0  0  0  0  0  0
    2.0156   -1.3617   -1.3567 C   0  0  0  0  0  0  0  0  0  0  0  0
    2.5338   -1.7861   -2.6124 N   0  0  0  0  0  0  0  0  0  0  0  0
    2.7680   -0.4931   -0.6058 C   0  0  0  0  0  0  0  0  0  0  0  0
    3.8232    0.2487   -1.1059 C   0  0  0  0  0  0  0  0  0  0  0  0
    4.6003    0.9151   -0.1649 C   0  0  0  0  0  0  0  0  0  0  0  0
    5.5617    1.8251   -0.5683 O   0  0  0  0  0  0  0  0  0  0  0  0
    6.6524    2.2097    0.2302 C   0  0  0  0  0  0  0  0  0  0  0  0
  1  2  1  0
  2  3  1  0
  3  4  2  0
  4  5  1  0
  5  6  2  0
  6  7  1  0
  7  8  1  0
  8  9  1  0
  9 10  1  0
 10 11  1  0
 11 12  1  0
 12 13  2  0
 14 12  1  1
 14 15  1  0
 15 16  1  0
 16 17  1  0
 17 18  1  0
 11 19  1  0
 19 20  1  0
  7 21  2  0
 21 22  1  0
 22 23  1  0
 22 24  2  0
 24 25  1  0
 25 26  2  0
 26 27  1  0
 27 28  1  0
 26  3  1  0
 24  5  1  0
 20  8  1  0
 18 14  1  0
M  END
>  <supplier_code>  (994) 
DB01162

>  <zinc_id>  (994) 
ZINC000095616599

>  <catalog_short_name>  (994) 
dbfda

$$$$

     RDKit          3D

 28 31  0  0  0  0  0  0  0  0999 V2000
    4.9231   -3.4845   -0.2981 C   0  0  0  0  0  0  0  0  0  0  0  0
    5.4747   -2.1852   -0.2125 O   0  0  0  0  0  0  0  0  0  0  0  0
    4.6028   -1.1338   -0.0287 C   0  0  0  0  0  0  0  0  0  0  0  0
    3.2983   -1.2247   -0.4956 C   0  0  0  0  0  0  0  0  0  0  0  0
    2.4161   -0.1749   -0.4268 C   0  0  0  0  0  0  0  0  0  0  0  0
    1.0801   -0.3090   -0.4629 N   0  0  0  0  0  0  0  0  0  0  0  0
    0.2593    0.5803    0.1479 C   0  0  0  0  0  0  0  0  0  0  0  0
   -1.1412    0.3644   -0.0796 N   0  0  0  0  0  0  0  0  0  0  0  0
   -1.6309    0.8720   -1.3579 C   0  0  0  0  0  0  0  0  0  0  0  0
   -2.7890    0.0199   -1.8630 C   0  0  0  0  0  0  0  0  0  0  0  0
   -3.6292   -0.1707   -0.6799 N   0  0  0  0  0  0  0  0  0  0  0  0
   -4.4345    0.9052   -0.3155 C   0  0  0  0  0  0  0  0  0  0  0  0
   -4.7271    1.8069   -1.1478 O   0  0  0  0  0  0  0  0  0  0  0  0
   -5.8721    0.5277    0.4095 C   0  0  1  0  0  0  0  0  0  0  0  0
   -6.1686   -0.7647   -0.6349 C   0  0  0  0  0  0  0  0  0  0  0  0
   -6.9161   -1.5833    0.4096 C   0  0  0  0  0  0  0  0  0  0  0  0
   -6.3232   -1.1578    1.7439 C   0  0  0  0  0  0  0  0  0  0  0  0
   -5.1826   -0.4178    1.4284 O   0  0  0  0  0  0  0  0  0  0  0  0
   -3.0753   -1.1348    0.2479 C   0  0  0  0  0  0  0  0  0  0  0  0
   -1.6243   -0.8859    0.4949 C   0  0  0  0  0  0  0  0  0  0  0  0
    0.7055    1.8398    0.3076 N   0  0  0  0  0  0  0  0  0  0  0  0
    2.0344    2.0903    0.2439 C   0  0  0  0  0  0  0  0  0  0  0  0
    2.5594    3.4173    0.2685 N   0  0  0  0  0  0  0  0  0  0  0  0
    2.8929    1.0244    0.0676 C   0  0  0  0  0  0  0  0  0  0  0  0
    4.2009    1.1120    0.5180 C   0  0  0  0  0  0  0  0  0  0  0  0
    5.1153    0.0875    0.3102 C   0  0  0  0  0  0  0  0  0  0  0  0
    6.4464    0.4297    0.2610 O   0  0  0  0  0  0  0  0  0  0  0  0
    7.5050   -0.4507   -0.0056 C   0  0  0  0  0  0  0  0  0  0  0  0
  1  2  1  0
  2  3  1  0
  3  4  2  0
  4  5  1  0
  5  6  2  0
  6  7  1  0
  7  8  1  0
  8  9  1  0
  9 10  1  0
 10 11  1  0
 11 12  1  0
 12 13  2  0
 14 12  1  6
 14 15  1  0
 15 16  1  0
 16 17  1  0
 17 18  1  0
 11 19  1  0
 19 20  1  0
  7 21  2  0
 21 22  1  0
 22 23  1  0
 22 24  2  0
 24 25  1  0
 25 26  2  0
 26 27  1  0
 27 28  1  0
 26  3  1  0
 24  5  1  0
 20  8  1  0
 18 14  1  0
M  END
>  <supplier_code>  (995) 
DB01162

>  <zinc_id>  (995) 
ZINC000095616600

>  <catalog_short_name>  (995) 
dbfda

$$$$

     RDKit          3D

 26 29  0  0  0  0  0  0  0  0999 V2000
    0.2916   -0.8042   -2.6697 C   0  0  0  0  0  0  0  0  0  0  0  0
    1.5152   -1.8444   -2.2107 C   0  0  2  0  0  0  0  0  0  0  0  0
    0.4934   -2.8497   -1.3655 C   0  0  0  0  0  0  0  0  0  0  0  0
   -0.4828   -2.0692   -0.7898 O   0  0  0  0  0  0  0  0  0  0  0  0
   -0.2197   -0.9533    0.0018 C   0  0  0  0  0  0  0  0  0  0  0  0
   -1.2448   -0.1544    0.4939 C   0  0  0  0  0  0  0  0  0  0  0  0
   -2.5977   -0.5881    0.3916 N   0  0  0  0  0  0  0  0  0  0  0  0
   -3.4428   -0.6056    1.5631 C   0  0  0  0  0  0  0  0  0  0  0  0
   -4.5673    0.3709    1.2917 C   0  0  0  0  0  0  0  0  0  0  0  0
   -5.3206    0.0130    0.1270 N   0  0  0  0  0  0  0  0  0  0  0  0
   -6.3077   -1.0193    0.3678 C   0  0  0  0  0  0  0  0  0  0  0  0
   -4.5559   -0.1823   -1.0585 C   0  0  0  0  0  0  0  0  0  0  0  0
   -3.2186   -0.8050   -0.8737 C   0  0  0  0  0  0  0  0  0  0  0  0
   -1.0002    1.2009    0.6784 C   0  0  0  0  0  0  0  0  0  0  0  0
   -1.9755    2.1409    0.5732 F   0  0  0  0  0  0  0  0  0  0  0  0
    0.3227    1.5094    0.9528 C   0  0  0  0  0  0  0  0  0  0  0  0
    1.3676    0.6485    0.6260 C   0  0  0  0  0  0  0  0  0  0  0  0
    2.6303    1.2197    0.4972 C   0  0  0  0  0  0  0  0  0  0  0  0
    2.8131    2.4455    0.7006 O   0  0  0  0  0  0  0  0  0  0  0  0
    3.5496    0.5524   -0.2997 C   0  0  0  0  0  0  0  0  0  0  0  0
    4.8900    1.0889   -0.5230 C   0  0  0  0  0  0  0  0  0  0  0  0
    5.8676    0.2827   -0.4734 O   0  0  0  0  0  0  0  0  0  0  0  0
    5.0564    2.3932   -0.9507 O   0  0  0  0  0  0  0  0  0  0  0  0
    3.1957   -0.5913   -0.9939 C   0  0  0  0  0  0  0  0  0  0  0  0
    1.9282   -1.0332   -0.9044 N   0  0  0  0  0  0  0  0  0  0  0  0
    1.0123   -0.3658   -0.2600 C   0  0  0  0  0  0  0  0  0  0  0  0
  2  1  1  6
  2  3  1  0
  3  4  1  0
  4  5  1  0
  5  6  1  0
  6  7  1  0
  7  8  1  0
  8  9  1  0
  9 10  1  0
 10 11  1  0
 10 12  1  0
 12 13  1  0
  6 14  2  0
 14 15  1  0
 14 16  1  0
 16 17  2  0
 17 18  1  0
 18 19  2  0
 18 20  1  0
 20 21  1  0
 21 22  2  0
 21 23  1  0
 20 24  2  0
 24 25  1  0
 25 26  1  0
 25  2  1  0
 26  5  2  0
 13  7  1  0
 26 17  1  0
M  END
>  <supplier_code>  (996) 
DB01165

>  <zinc_id>  (996) 
ZINC000000537891

>  <catalog_short_name>  (996) 
dbfda

$$$$

     RDKit          3D

 26 29  0  0  0  0  0  0  0  0999 V2000
    1.1665    3.1228   -0.6648 C   0  0  0  0  0  0  0  0  0  0  0  0
    1.9532    2.7289    0.7441 C   0  0  1  0  0  0  0  0  0  0  0  0
    0.5646    2.5664    1.6316 C   0  0  0  0  0  0  0  0  0  0  0  0
   -0.4576    2.1738    0.7910 O   0  0  0  0  0  0  0  0  0  0  0  0
   -0.3370    0.9775    0.0781 C   0  0  0  0  0  0  0  0  0  0  0  0
   -1.3775    0.0594   -0.0047 C   0  0  0  0  0  0  0  0  0  0  0  0
   -2.6814    0.5946   -0.0537 N   0  0  0  0  0  0  0  0  0  0  0  0
   -3.4709    0.2971   -1.2403 C   0  0  0  0  0  0  0  0  0  0  0  0
   -4.7019   -0.4873   -0.9319 C   0  0  0  0  0  0  0  0  0  0  0  0
   -5.2178   -0.3920    0.3707 N   0  0  0  0  0  0  0  0  0  0  0  0
   -5.5690   -1.6111    1.0263 C   0  0  0  0  0  0  0  0  0  0  0  0
   -4.8025    0.6681    1.2001 C   0  0  0  0  0  0  0  0  0  0  0  0
   -3.3927    1.1163    1.0743 C   0  0  0  0  0  0  0  0  0  0  0  0
   -1.1712   -1.2787   -0.2671 C   0  0  0  0  0  0  0  0  0  0  0  0
   -2.1769   -2.1802   -0.2609 F   0  0  0  0  0  0  0  0  0  0  0  0
    0.1273   -1.7010   -0.2979 C   0  0  0  0  0  0  0  0  0  0  0  0
    1.1480   -0.7643   -0.4112 C   0  0  0  0  0  0  0  0  0  0  0  0
    2.3938   -1.2694   -0.6829 C   0  0  0  0  0  0  0  0  0  0  0  0
    2.5671   -2.4832   -0.9253 O   0  0  0  0  0  0  0  0  0  0  0  0
    3.5002   -0.5117   -0.3235 C   0  0  0  0  0  0  0  0  0  0  0  0
    4.8149   -1.1515   -0.1837 C   0  0  0  0  0  0  0  0  0  0  0  0
    5.8366   -0.4511   -0.3212 O   0  0  0  0  0  0  0  0  0  0  0  0
    4.9793   -2.5266   -0.3092 O   0  0  0  0  0  0  0  0  0  0  0  0
    3.3076    0.7574    0.2092 C   0  0  0  0  0  0  0  0  0  0  0  0
    2.0336    1.1890    0.3878 N   0  0  0  0  0  0  0  0  0  0  0  0
    0.9636    0.5566   -0.0114 C   0  0  0  0  0  0  0  0  0  0  0  0
  2  1  1  6
  2  3  1  0
  3  4  1  0
  4  5  1  0
  5  6  1  0
  6  7  1  0
  7  8  1  0
  8  9  1  0
  9 10  1  0
 10 11  1  0
 10 12  1  0
 12 13  1  0
  6 14  2  0
 14 15  1  0
 14 16  1  0
 16 17  2  0
 17 18  1  0
 18 19  2  0
 18 20  1  0
 20 21  1  0
 21 22  2  0
 21 23  1  0
 20 24  2  0
 24 25  1  0
 25 26  1  0
 25  2  1  0
 26  5  2  0
 13  7  1  0
 26 17  1  0
M  END
>  <supplier_code>  (997) 
DB01165

>  <zinc_id>  (997) 
ZINC000000538273

>  <catalog_short_name>  (997) 
dbfda

$$$$

     RDKit          3D

 27 30  0  0  0  0  0  0  0  0999 V2000
   -5.3770    3.1282   -1.4992 O   0  0  0  0  0  0  0  0  0  0  0  0
   -5.5907    1.9638   -1.0489 C   0  0  0  0  0  0  0  0  0  0  0  0
   -6.0083    1.8637    0.3726 C   0  0  0  0  0  0  0  0  0  0  0  0
   -5.5550    0.5922    1.0302 C   0  0  0  0  0  0  0  0  0  0  0  0
   -4.4844   -0.1056    0.2849 C   0  0  0  0  0  0  0  0  0  0  0  0
   -3.5110   -0.8687    0.9185 C   0  0  0  0  0  0  0  0  0  0  0  0
   -2.5801   -1.6059    0.2186 C   0  0  0  0  0  0  0  0  0  0  0  0
   -1.2544   -1.6167    0.6639 O   0  0  0  0  0  0  0  0  0  0  0  0
   -0.1845   -2.0943   -0.1121 C   0  0  0  0  0  0  0  0  0  0  0  0
    1.0491   -2.1677    0.7440 C   0  0  0  0  0  0  0  0  0  0  0  0
    0.9542   -1.3209    1.9878 C   0  0  0  0  0  0  0  0  0  0  0  0
    1.9374   -0.1833    1.9805 C   0  0  0  0  0  0  0  0  0  0  0  0
    2.2020    0.3269    0.5997 C   0  0  0  0  0  0  0  0  0  0  0  0
    1.4567    1.2802   -0.0093 N   0  0  0  0  0  0  0  0  0  0  0  0
    2.2546    1.9950   -0.7956 N   0  0  0  0  0  0  0  0  0  0  0  0
    3.3298    1.2581   -0.9598 N   0  0  0  0  0  0  0  0  0  0  0  0
    3.3421    0.2298   -0.1241 N   0  0  0  0  0  0  0  0  0  0  0  0
    4.4766   -0.5462    0.3560 C   0  0  0  0  0  0  0  0  0  0  0  0
    5.2107    0.1666    1.4546 C   0  0  0  0  0  0  0  0  0  0  0  0
    6.1784    1.2147    0.9184 C   0  0  0  0  0  0  0  0  0  0  0  0
    7.2095    0.4397    0.1057 C   0  0  0  0  0  0  0  0  0  0  0  0
    6.4594   -0.0748   -1.1171 C   0  0  0  0  0  0  0  0  0  0  0  0
    5.3612   -1.0324   -0.7510 C   0  0  0  0  0  0  0  0  0  0  0  0
   -2.9260   -1.9725   -1.0732 C   0  0  0  0  0  0  0  0  0  0  0  0
   -3.9886   -1.3303   -1.6978 C   0  0  0  0  0  0  0  0  0  0  0  0
   -4.7086   -0.3257   -1.0688 C   0  0  0  0  0  0  0  0  0  0  0  0
   -5.2531    0.7862   -1.7888 N   0  0  0  0  0  0  0  0  0  0  0  0
  1  2  2  0
  2  3  1  0
  3  4  1  0
  4  5  1  0
  5  6  2  0
  6  7  1  0
  7  8  1  0
  8  9  1  0
  9 10  1  0
 10 11  1  0
 11 12  1  0
 12 13  1  0
 13 14  2  0
 14 15  1  0
 15 16  2  0
 16 17  1  0
 17 18  1  0
 18 19  1  0
 19 20  1  0
 20 21  1  0
 21 22  1  0
 22 23  1  0
  7 24  2  0
 24 25  1  0
 25 26  2  0
 26 27  1  0
 27  2  1  0
 26  5  1  0
 17 13  1  0
 23 18  1  0
M  END
>  <supplier_code>  (998) 
DB01166

>  <zinc_id>  (998) 
ZINC000001552174

>  <catalog_short_name>  (998) 
dbfda

$$$$

     RDKit          3D

 49 55  0  0  0  0  0  0  0  0999 V2000
   10.6075   -0.1540    1.4933 C   0  0  0  0  0  0  0  0  0  0  0  0
   11.1187    0.4722    0.2190 C   0  0  0  0  0  0  0  0  0  0  0  0
   10.7395    2.0563    0.5341 C   0  0  1  0  0  0  0  0  0  0  0  0
   10.6615    2.4209   -1.0802 C   0  0  0  0  0  0  0  0  0  0  0  0
    9.1873    1.7782    0.6604 N   0  0  0  0  0  0  0  0  0  0  0  0
    8.6575    1.6472    1.8766 N   0  0  0  0  0  0  0  0  0  0  0  0
    7.4574    1.0439    1.6981 C   0  0  0  0  0  0  0  0  0  0  0  0
    7.3471    0.6668    0.4008 N   0  0  0  0  0  0  0  0  0  0  0  0
    6.6874   -0.5044   -0.1011 C   0  0  0  0  0  0  0  0  0  0  0  0
    6.3224   -0.5451   -1.4391 C   0  0  0  0  0  0  0  0  0  0  0  0
    5.1797   -1.2820   -1.7270 C   0  0  0  0  0  0  0  0  0  0  0  0
    4.6071   -2.1351   -0.7973 C   0  0  0  0  0  0  0  0  0  0  0  0
    3.2019   -2.4392   -0.7962 N   0  0  0  0  0  0  0  0  0  0  0  0
    2.6406   -2.5788    0.5551 C   0  0  0  0  0  0  0  0  0  0  0  0
    3.0433   -1.2481    1.1981 C   0  0  0  0  0  0  0  0  0  0  0  0
    2.3276   -0.2420    0.4045 N   0  0  0  0  0  0  0  0  0  0  0  0
    0.8956   -0.3748    0.4410 C   0  0  0  0  0  0  0  0  0  0  0  0
    0.1210    0.1001   -0.6134 C   0  0  0  0  0  0  0  0  0  0  0  0
   -1.2461   -0.1265   -0.6682 C   0  0  0  0  0  0  0  0  0  0  0  0
   -1.8506   -0.9105    0.2946 C   0  0  0  0  0  0  0  0  0  0  0  0
   -3.1396   -0.5842    0.7260 O   0  0  0  0  0  0  0  0  0  0  0  0
   -3.7702    0.5824    0.2700 C   0  0  0  0  0  0  0  0  0  0  0  0
   -4.1739    0.2456   -1.3143 C   0  0  1  0  0  0  0  0  0  0  0  0
   -4.7981   -1.2538   -0.9389 C   0  0  0  0  0  0  0  0  0  0  0  0
   -5.5287   -0.9030    0.1582 O   0  0  0  0  0  0  0  0  0  0  0  0
   -6.1470    0.2598   -0.1912 C   0  0  2  0  0  0  0  0  0  0  0  0
   -6.2165    1.1380    1.0583 C   0  0  0  0  0  0  0  0  0  0  0  0
   -6.3637    2.5322    0.6918 N   0  0  0  0  0  0  0  0  0  0  0  0
   -7.3537    3.1272   -0.0180 C   0  0  0  0  0  0  0  0  0  0  0  0
   -6.8575    4.3428   -0.3426 N   0  0  0  0  0  0  0  0  0  0  0  0
   -5.7008    4.5051    0.3463 C   0  0  0  0  0  0  0  0  0  0  0  0
   -5.7913    3.5626    1.3181 N   0  0  0  0  0  0  0  0  0  0  0  0
   -7.5792   -0.1163   -0.4283 C   0  0  0  0  0  0  0  0  0  0  0  0
   -8.5572    0.0344    0.5402 C   0  0  0  0  0  0  0  0  0  0  0  0
   -9.5702   -0.9002    0.7160 C   0  0  0  0  0  0  0  0  0  0  0  0
   -9.5581   -2.0046   -0.1273 C   0  0  0  0  0  0  0  0  0  0  0  0
  -10.4210   -3.4695    0.3035 Cl  0  0  0  0  0  0  0  0  0  0  0  0
   -9.0118   -1.8046   -1.3909 C   0  0  0  0  0  0  0  0  0  0  0  0
   -7.8954   -0.9815   -1.4697 C   0  0  0  0  0  0  0  0  0  0  0  0
   -7.2330   -0.4246   -3.0039 Cl  0  0  0  0  0  0  0  0  0  0  0  0
   -5.5515    0.9007   -1.1939 O   0  0  0  0  0  0  0  0  0  0  0  0
   -1.0261   -1.7697    0.9846 C   0  0  0  0  0  0  0  0  0  0  0  0
    0.2733   -1.3540    1.2058 C   0  0  0  0  0  0  0  0  0  0  0  0
    2.8479   -0.1496   -0.9664 C   0  0  0  0  0  0  0  0  0  0  0  0
    2.4011   -1.4838   -1.5761 C   0  0  0  0  0  0  0  0  0  0  0  0
    5.4335   -2.4428    0.2768 C   0  0  0  0  0  0  0  0  0  0  0  0
    6.5399   -1.6637    0.6029 C   0  0  0  0  0  0  0  0  0  0  0  0
    8.5046    1.0450   -0.2019 C   0  0  0  0  0  0  0  0  0  0  0  0
    8.5378    1.3851   -1.4246 O   0  0  0  0  0  0  0  0  0  0  0  0
  1  2  1  0
  3  2  1  6
  3  4  1  0
  3  5  1  0
  5  6  1  0
  6  7  2  0
  7  8  1  0
  8  9  1  0
  9 10  2  0
 10 11  1  0
 11 12  2  0
 12 13  1  0
 13 14  1  0
 14 15  1  0
 15 16  1  0
 16 17  1  0
 17 18  2  0
 18 19  1  0
 19 20  2  0
 20 21  1  0
 21 22  1  0
 23 22  1  1
 23 24  1  0
 24 25  1  0
 25 26  1  0
 26 27  1  1
 27 28  1  0
 28 29  1  0
 29 30  2  0
 30 31  1  0
 31 32  2  0
 26 33  1  0
 33 34  2  0
 34 35  1  0
 35 36  2  0
 36 37  1  0
 36 38  1  0
 38 39  2  0
 39 40  1  0
 26 41  1  0
 20 42  1  0
 42 43  2  0
 16 44  1  0
 44 45  1  0
 12 46  1  0
 46 47  2  0
  8 48  1  0
 48 49  2  0
 48  5  1  0
 47  9  1  0
 45 13  1  0
 43 17  1  0
 41 23  1  0
 32 28  1  0
 39 33  1  0
M  END
>  <supplier_code>  (999) 
DB01167

>  <zinc_id>  (999) 
ZINC000004097343

>  <catalog_short_name>  (999) 
dbfda

$$$$

     RDKit          3D

 49 55  0  0  0  0  0  0  0  0999 V2000
   10.4936    1.9439    1.7233 C   0  0  0  0  0  0  0  0  0  0  0  0
   10.6881    1.8956    1.5079 C   0  0  0  0  0  0  0  0  0  0  0  0
   11.5429    1.1824    0.2675 C   0  0  2  0  0  0  0  0  0  0  0  0
   10.8375    2.1804   -0.8652 C   0  0  0  0  0  0  0  0  0  0  0  0
   10.4639    0.0370    0.0500 N   0  0  0  0  0  0  0  0  0  0  0  0
   10.6959   -1.1685    0.5272 N   0  0  0  0  0  0  0  0  0  0  0  0
    9.5511   -1.8579    0.3029 C   0  0  0  0  0  0  0  0  0  0  0  0
    8.6002   -0.9786   -0.0958 N   0  0  0  0  0  0  0  0  0  0  0  0
    7.2088   -1.2067    0.1576 C   0  0  0  0  0  0  0  0  0  0  0  0
    6.6334   -2.3998   -0.1891 C   0  0  0  0  0  0  0  0  0  0  0  0
    5.2863   -2.3758   -0.5301 C   0  0  0  0  0  0  0  0  0  0  0  0
    4.5110   -1.2782   -0.2382 C   0  0  0  0  0  0  0  0  0  0  0  0
    3.0890   -1.4336   -0.1578 N   0  0  0  0  0  0  0  0  0  0  0  0
    2.5886   -1.7874    1.1691 C   0  0  0  0  0  0  0  0  0  0  0  0
    2.1079   -0.4992    1.8300 C   0  0  0  0  0  0  0  0  0  0  0  0
    1.1224    0.0457    0.8954 N   0  0  0  0  0  0  0  0  0  0  0  0
   -0.0089   -0.8122    0.7033 C   0  0  0  0  0  0  0  0  0  0  0  0
   -1.1232   -0.7616    1.5293 C   0  0  0  0  0  0  0  0  0  0  0  0
   -2.3408   -1.2052    1.0329 C   0  0  0  0  0  0  0  0  0  0  0  0
   -2.4284   -1.5952   -0.2982 C   0  0  0  0  0  0  0  0  0  0  0  0
   -3.5517   -1.3746   -1.0551 O   0  0  0  0  0  0  0  0  0  0  0  0
   -3.7375   -0.4614   -2.0636 C   0  0  0  0  0  0  0  0  0  0  0  0
   -4.0520    1.0183   -1.3376 C   0  0  1  0  0  0  0  0  0  0  0  0
   -5.4493    1.1792   -2.2486 C   0  0  0  0  0  0  0  0  0  0  0  0
   -6.3027    1.6018   -1.2709 O   0  0  0  0  0  0  0  0  0  0  0  0
   -6.0836    0.6161   -0.3548 C   0  0  2  0  0  0  0  0  0  0  0  0
   -6.6979   -0.7111   -0.6636 C   0  0  0  0  0  0  0  0  0  0  0  0
   -7.9114   -0.6722   -1.4184 N   0  0  0  0  0  0  0  0  0  0  0  0
   -8.9372   -1.4899   -1.0637 C   0  0  0  0  0  0  0  0  0  0  0  0
   -9.7341   -1.6714   -2.1114 N   0  0  0  0  0  0  0  0  0  0  0  0
   -9.1446   -1.1361   -3.1801 C   0  0  0  0  0  0  0  0  0  0  0  0
   -7.9606   -0.7003   -2.7513 N   0  0  0  0  0  0  0  0  0  0  0  0
   -6.6623    1.1326    0.9305 C   0  0  0  0  0  0  0  0  0  0  0  0
   -5.9927    0.9833    2.1391 C   0  0  0  0  0  0  0  0  0  0  0  0
   -6.1862    1.8098    3.2178 C   0  0  0  0  0  0  0  0  0  0  0  0
   -7.0354    2.8797    3.1025 C   0  0  0  0  0  0  0  0  0  0  0  0
   -6.9208    4.2714    4.1665 Cl  0  0  0  0  0  0  0  0  0  0  0  0
   -7.9847    2.8014    2.0907 C   0  0  0  0  0  0  0  0  0  0  0  0
   -7.6506    2.1111    0.9322 C   0  0  0  0  0  0  0  0  0  0  0  0
   -8.5998    2.3599   -0.5138 Cl  0  0  0  0  0  0  0  0  0  0  0  0
   -4.7877    0.3791   -0.1491 O   0  0  0  0  0  0  0  0  0  0  0  0
   -1.2966   -2.1816   -0.8271 C   0  0  0  0  0  0  0  0  0  0  0  0
   -0.0814   -1.7221   -0.3356 C   0  0  0  0  0  0  0  0  0  0  0  0
    1.7191    0.5771   -0.3290 C   0  0  0  0  0  0  0  0  0  0  0  0
    2.2964   -0.6185   -1.0761 C   0  0  0  0  0  0  0  0  0  0  0  0
    5.0349   -0.3057    0.6047 C   0  0  0  0  0  0  0  0  0  0  0  0
    6.3980   -0.2310    0.6907 C   0  0  0  0  0  0  0  0  0  0  0  0
    9.1714    0.2483   -0.0151 C   0  0  0  0  0  0  0  0  0  0  0  0
    8.6217    1.3815   -0.1602 O   0  0  0  0  0  0  0  0  0  0  0  0
  1  2  1  0
  3  2  1  1
  3  4  1  0
  3  5  1  0
  5  6  1  0
  6  7  2  0
  7  8  1  0
  8  9  1  0
  9 10  2  0
 10 11  1  0
 11 12  2  0
 12 13  1  0
 13 14  1  0
 14 15  1  0
 15 16  1  0
 16 17  1  0
 17 18  2  0
 18 19  1  0
 19 20  2  0
 20 21  1  0
 21 22  1  0
 23 22  1  6
 23 24  1  0
 24 25  1  0
 25 26  1  0
 26 27  1  6
 27 28  1  0
 28 29  1  0
 29 30  2  0
 30 31  1  0
 31 32  2  0
 26 33  1  0
 33 34  2  0
 34 35  1  0
 35 36  2  0
 36 37  1  0
 36 38  1  0
 38 39  2  0
 39 40  1  0
 26 41  1  0
 20 42  1  0
 42 43  2  0
 16 44  1  0
 44 45  1  0
 12 46  1  0
 46 47  2  0
  8 48  1  0
 48 49  2  0
 48  5  1  0
 47  9  1  0
 45 13  1  0
 43 17  1  0
 41 23  1  0
 32 28  1  0
 39 33  1  0
M  END
>  <supplier_code>  (1000) 
DB01167

>  <zinc_id>  (1000) 
ZINC000004097344

>  <catalog_short_name>  (1000) 
dbfda

$$$$

     RDKit          3D

 16 16  0  0  0  0  0  0  0  0999 V2000
    5.3955    0.0811   -0.5173 C   0  0  0  0  0  0  0  0  0  0  0  0
    4.8762    1.4189   -0.4861 N   0  0  0  0  0  0  0  0  0  0  0  0
    3.7421    1.5768    0.2922 N   0  0  0  0  0  0  0  0  0  0  0  0
    3.2640    0.3434    0.8801 C   0  0  0  0  0  0  0  0  0  0  0  0
    1.8516    0.0625    0.4723 C   0  0  0  0  0  0  0  0  0  0  0  0
    0.9272    0.0260    1.5064 C   0  0  0  0  0  0  0  0  0  0  0  0
   -0.3619   -0.4163    1.2438 C   0  0  0  0  0  0  0  0  0  0  0  0
   -0.6944   -1.0310    0.0436 C   0  0  0  0  0  0  0  0  0  0  0  0
   -2.1045   -0.9750   -0.3630 C   0  0  0  0  0  0  0  0  0  0  0  0
   -2.7501   -2.0223   -0.5825 O   0  0  0  0  0  0  0  0  0  0  0  0
   -2.8071    0.2395   -0.1974 N   0  0  0  0  0  0  0  0  0  0  0  0
   -4.2219    0.4043   -0.4721 C   0  0  0  0  0  0  0  0  0  0  0  0
   -4.5271    1.8747   -0.2046 C   0  0  0  0  0  0  0  0  0  0  0  0
   -4.3925    0.2067   -1.9717 C   0  0  0  0  0  0  0  0  0  0  0  0
    0.2486   -1.0553   -0.9650 C   0  0  0  0  0  0  0  0  0  0  0  0
    1.5544   -0.7340   -0.6227 C   0  0  0  0  0  0  0  0  0  0  0  0
  1  2  1  0
  2  3  1  0
  3  4  1  0
  4  5  1  0
  5  6  2  0
  6  7  1  0
  7  8  2  0
  8  9  1  0
  9 10  2  0
  9 11  1  0
 11 12  1  0
 12 13  1  0
 12 14  1  0
  8 15  1  0
 15 16  2  0
 16  5  1  0
M  END
>  <supplier_code>  (1001) 
DB01168

>  <zinc_id>  (1001) 
ZINC000019166988

>  <catalog_short_name>  (1001) 
dbfda

$$$$

     RDKit          3D

 20 21  0  0  0  0  0  0  0  0999 V2000
   -1.9287   -0.8881   -2.5301 C   0  0  0  0  0  0  0  0  0  0  0  0
   -1.6424   -1.5176   -1.3312 C   0  0  0  0  0  0  0  0  0  0  0  0
   -2.5182   -2.4721   -0.8265 C   0  0  0  0  0  0  0  0  0  0  0  0
   -2.3498   -3.0163    0.4279 C   0  0  0  0  0  0  0  0  0  0  0  0
   -1.3169   -2.5466    1.2277 C   0  0  0  0  0  0  0  0  0  0  0  0
   -0.7094   -1.3600    0.8345 C   0  0  0  0  0  0  0  0  0  0  0  0
   -0.5714   -1.1922   -0.5058 C   0  0  0  0  0  0  0  0  0  0  0  0
    0.0649    0.2736   -0.9608 C   0  0  2  0  0  0  0  0  0  0  0  0
    1.2046    0.1938    0.1061 O   0  0  0  0  0  0  0  0  0  0  0  0
    1.9661   -0.8621   -0.3592 C   0  0  0  0  0  0  0  0  0  0  0  0
    3.2824   -0.4417   -0.9268 C   0  0  0  0  0  0  0  0  0  0  0  0
    4.3129   -0.2336    0.0444 N   0  0  0  0  0  0  0  0  0  0  0  0
    4.7379    1.1377    0.0047 C   0  0  0  0  0  0  0  0  0  0  0  0
    3.9858   -0.6795    1.3732 C   0  0  0  0  0  0  0  0  0  0  0  0
   -0.9868    1.1170    0.0060 C   0  0  0  0  0  0  0  0  0  0  0  0
   -0.6155    1.3985    1.2550 C   0  0  0  0  0  0  0  0  0  0  0  0
   -1.3353    2.3934    1.9072 C   0  0  0  0  0  0  0  0  0  0  0  0
   -1.8510    3.4309    1.1693 C   0  0  0  0  0  0  0  0  0  0  0  0
   -2.1380    3.1827   -0.1474 C   0  0  0  0  0  0  0  0  0  0  0  0
   -1.5912    2.0823   -0.7683 C   0  0  0  0  0  0  0  0  0  0  0  0
  1  2  1  0
  2  3  2  0
  3  4  1  0
  4  5  2  0
  5  6  1  0
  6  7  2  0
  8  7  1  1
  8  9  1  0
  9 10  1  0
 10 11  1  0
 11 12  1  0
 12 13  1  0
 12 14  1  0
  8 15  1  0
 15 16  2  0
 16 17  1  0
 17 18  2  0
 18 19  1  0
 19 20  2  0
  7  2  1  0
 20 15  1  0
M  END
>  <supplier_code>  (1002) 
DB01173

>  <zinc_id>  (1002) 
ZINC000000000565

>  <catalog_short_name>  (1002) 
dbfda

$$$$

     RDKit          3D

 20 21  0  0  0  0  0  0  0  0999 V2000
   -2.6926    1.2937   -1.1720 C   0  0  0  0  0  0  0  0  0  0  0  0
   -1.9284    1.6182   -0.1043 C   0  0  0  0  0  0  0  0  0  0  0  0
   -2.1512    2.9058    0.3622 C   0  0  0  0  0  0  0  0  0  0  0  0
   -1.4751    3.3163    1.5048 C   0  0  0  0  0  0  0  0  0  0  0  0
   -0.4855    2.5181    2.0095 C   0  0  0  0  0  0  0  0  0  0  0  0
   -0.0034    1.5328    1.1594 C   0  0  0  0  0  0  0  0  0  0  0  0
   -0.9078    0.8069    0.3903 C   0  0  0  0  0  0  0  0  0  0  0  0
   -0.1941    0.1223   -0.9480 C   0  0  1  0  0  0  0  0  0  0  0  0
    1.1213   -0.2457   -0.1933 O   0  0  0  0  0  0  0  0  0  0  0  0
    1.9843    0.6745   -0.7929 C   0  0  0  0  0  0  0  0  0  0  0  0
    3.2967    0.0008   -1.1778 C   0  0  0  0  0  0  0  0  0  0  0  0
    4.2417    0.2344   -0.1067 N   0  0  0  0  0  0  0  0  0  0  0  0
    3.6338   -0.1710    1.1528 C   0  0  0  0  0  0  0  0  0  0  0  0
    5.4627   -0.4926   -0.3517 C   0  0  0  0  0  0  0  0  0  0  0  0
   -0.8517   -1.3661   -0.6495 C   0  0  0  0  0  0  0  0  0  0  0  0
   -0.7268   -1.8233    0.6140 C   0  0  0  0  0  0  0  0  0  0  0  0
   -1.3475   -3.0448    0.8571 C   0  0  0  0  0  0  0  0  0  0  0  0
   -2.4263   -3.4232    0.0666 C   0  0  0  0  0  0  0  0  0  0  0  0
   -2.7165   -2.7226   -1.0981 C   0  0  0  0  0  0  0  0  0  0  0  0
   -1.8336   -1.7344   -1.5226 C   0  0  0  0  0  0  0  0  0  0  0  0
  1  2  1  0
  2  3  2  0
  3  4  1  0
  4  5  2  0
  5  6  1  0
  6  7  2  0
  8  7  1  1
  8  9  1  0
  9 10  1  0
 10 11  1  0
 11 12  1  0
 12 13  1  0
 12 14  1  0
  8 15  1  0
 15 16  2  0
 16 17  1  0
 17 18  2  0
 18 19  1  0
 19 20  2  0
  7  2  1  0
 20 15  1  0
M  END
>  <supplier_code>  (1003) 
DB01173

>  <zinc_id>  (1003) 
ZINC000000155269

>  <catalog_short_name>  (1003) 
dbfda

$$$$

     RDKit          3D

 24 26  0  0  0  0  0  0  0  0999 V2000
    5.9064    0.1573   -0.4800 C   0  0  0  0  0  0  0  0  0  0  0  0
    4.8115   -0.3322    0.1809 N   0  0  0  0  0  0  0  0  0  0  0  0
    4.7953   -1.7916    0.2287 C   0  0  0  0  0  0  0  0  0  0  0  0
    3.5572    0.1805   -0.3192 C   0  0  0  0  0  0  0  0  0  0  0  0
    2.7297    0.8340    0.7634 C   0  0  0  0  0  0  0  0  0  0  0  0
    1.5014    0.0459    1.1149 C   0  0  0  0  0  0  0  0  0  0  0  0
    0.5027    0.1533   -0.0007 C   0  0  1  0  0  0  0  0  0  0  0  0
    0.1386    1.5557   -0.2823 C   0  0  0  0  0  0  0  0  0  0  0  0
   -0.1768    2.3420    0.8193 C   0  0  0  0  0  0  0  0  0  0  0  0
   -1.0443    3.4081    0.7538 C   0  0  0  0  0  0  0  0  0  0  0  0
   -1.7984    3.6004   -0.3952 C   0  0  0  0  0  0  0  0  0  0  0  0
   -2.3662    4.8092   -0.5603 F   0  0  0  0  0  0  0  0  0  0  0  0
   -1.5266    2.8216   -1.5116 C   0  0  0  0  0  0  0  0  0  0  0  0
   -0.4650    1.9258   -1.4712 C   0  0  0  0  0  0  0  0  0  0  0  0
    0.9655   -0.5373   -1.1022 O   0  0  0  0  0  0  0  0  0  0  0  0
    0.9546   -1.8614   -0.6336 C   0  0  0  0  0  0  0  0  0  0  0  0
   -0.3506   -1.9408    0.0943 C   0  0  0  0  0  0  0  0  0  0  0  0
   -1.3385   -2.8883    0.2428 C   0  0  0  0  0  0  0  0  0  0  0  0
   -2.6814   -2.5370    0.1805 C   0  0  0  0  0  0  0  0  0  0  0  0
   -3.6732   -3.5597    0.4164 C   0  0  0  0  0  0  0  0  0  0  0  0
   -4.5581   -4.2781    0.6497 N   0  0  0  0  0  0  0  0  0  0  0  0
   -3.0669   -1.2113    0.0215 C   0  0  0  0  0  0  0  0  0  0  0  0
   -2.0812   -0.2718    0.3012 C   0  0  0  0  0  0  0  0  0  0  0  0
   -0.7358   -0.6243    0.3225 C   0  0  0  0  0  0  0  0  0  0  0  0
  1  2  1  0
  2  3  1  0
  2  4  1  0
  4  5  1  0
  5  6  1  0
  7  6  1  1
  7  8  1  0
  8  9  2  0
  9 10  1  0
 10 11  2  0
 11 12  1  0
 11 13  1  0
 13 14  2  0
  7 15  1  0
 15 16  1  0
 16 17  1  0
 17 18  2  0
 18 19  1  0
 19 20  1  0
 20 21  3  0
 19 22  2  0
 22 23  1  0
 23 24  2  0
 24  7  1  0
 14  8  1  0
 24 17  1  0
M  END
>  <supplier_code>  (1004) 
DB01175

>  <zinc_id>  (1004) 
ZINC000003800706

>  <catalog_short_name>  (1004) 
dbfda

$$$$

     RDKit          3D

 20 22  0  0  0  0  0  0  0  0999 V2000
    5.2570    0.5052    0.1984 C   0  0  0  0  0  0  0  0  0  0  0  0
    3.8547    0.4929   -0.1309 N   0  0  0  0  0  0  0  0  0  0  0  0
    3.4650   -0.8071   -0.6526 C   0  0  0  0  0  0  0  0  0  0  0  0
    2.0351   -0.7086   -1.0977 C   0  0  0  0  0  0  0  0  0  0  0  0
    1.1493   -0.1884   -0.0889 N   0  0  0  0  0  0  0  0  0  0  0  0
   -0.1643   -0.0286   -0.6541 C   0  0  0  0  0  0  0  0  0  0  0  0
   -0.9804   -1.2534   -0.3930 C   0  0  0  0  0  0  0  0  0  0  0  0
   -0.4408   -2.2759    0.3788 C   0  0  0  0  0  0  0  0  0  0  0  0
   -1.3465   -3.1719    0.9345 C   0  0  0  0  0  0  0  0  0  0  0  0
   -2.4955   -3.4238    0.2072 C   0  0  0  0  0  0  0  0  0  0  0  0
   -2.7234   -2.7416   -0.9765 C   0  0  0  0  0  0  0  0  0  0  0  0
   -2.0528   -1.5526   -1.2242 C   0  0  0  0  0  0  0  0  0  0  0  0
   -0.8541    1.1923   -0.1428 C   0  0  0  0  0  0  0  0  0  0  0  0
   -1.8017    1.0594    0.8631 C   0  0  0  0  0  0  0  0  0  0  0  0
   -2.4345    2.1990    1.3014 C   0  0  0  0  0  0  0  0  0  0  0  0
   -2.3252    3.4198    0.6533 C   0  0  0  0  0  0  0  0  0  0  0  0
   -1.7401    3.3673   -0.6059 C   0  0  0  0  0  0  0  0  0  0  0  0
   -1.0930    2.2203   -1.0453 C   0  0  0  0  0  0  0  0  0  0  0  0
    1.6467    1.0021    0.5566 C   0  0  0  0  0  0  0  0  0  0  0  0
    3.0445    0.6936    1.0693 C   0  0  0  0  0  0  0  0  0  0  0  0
  1  2  1  0
  2  3  1  0
  3  4  1  0
  4  5  1  0
  5  6  1  0
  6  7  1  0
  7  8  2  0
  8  9  1  0
  9 10  2  0
 10 11  1  0
 11 12  2  0
  6 13  1  0
 13 14  2  0
 14 15  1  0
 15 16  2  0
 16 17  1  0
 17 18  2  0
  5 19  1  0
 19 20  1  0
 20  2  1  0
 12  7  1  0
 18 13  1  0
M  END
>  <supplier_code>  (1005) 
DB01176

>  <zinc_id>  (1005) 
ZINC000019156872

>  <catalog_short_name>  (1005) 
dbfda

$$$$

     RDKit          3D

 36 40  0  0  0  0  0  0  0  0999 V2000
   -1.6609    4.5594   -2.4108 C   0  0  0  0  0  0  0  0  0  0  0  0
   -2.3024    3.2136   -2.2270 C   0  0  0  0  0  0  0  0  0  0  0  0
   -3.2449    2.9191   -2.9156 O   0  0  0  0  0  0  0  0  0  0  0  0
   -1.6367    2.2840   -1.2547 C   0  0  2  0  0  0  0  0  0  0  0  0
   -1.7831    2.8201   -0.0371 O   0  0  0  0  0  0  0  0  0  0  0  0
   -0.1766    2.4409   -1.6768 C   0  0  0  0  0  0  0  0  0  0  0  0
    0.5003    1.4186   -0.8603 C   0  0  0  0  0  0  0  0  0  0  0  0
    1.8430    1.7166   -0.6489 C   0  0  0  0  0  0  0  0  0  0  0  0
    2.5070    2.7352   -1.3163 O   0  0  0  0  0  0  0  0  0  0  0  0
    2.5651    0.8472    0.1191 C   0  0  0  0  0  0  0  0  0  0  0  0
    1.9170   -0.2478    0.6769 C   0  0  0  0  0  0  0  0  0  0  0  0
    0.5275   -0.2512    0.7036 C   0  0  0  0  0  0  0  0  0  0  0  0
   -0.0180   -0.9816    1.7170 O   0  0  0  0  0  0  0  0  0  0  0  0
   -0.2694    0.6850    0.0442 C   0  0  0  0  0  0  0  0  0  0  0  0
   -1.3874   -0.2382   -0.7423 C   0  0  1  0  0  0  0  0  0  0  0  0
   -2.4951   -0.1176    0.3231 O   0  0  0  0  0  0  0  0  0  0  0  0
   -3.5798   -0.4486   -0.7648 C   0  0  1  0  0  0  0  0  0  0  0  0
   -3.7193   -2.0656   -0.4155 C   0  0  0  0  0  0  0  0  0  0  0  0
   -3.1225   -2.3001    1.0577 C   0  0  2  0  0  0  0  0  0  0  0  0
   -4.0882   -3.4966    1.4413 N   0  0  0  0  0  0  0  0  0  0  0  0
   -3.9342   -1.0584    1.9228 C   0  0  2  0  0  0  0  0  0  0  0  0
   -4.6125   -1.9521    2.9392 O   0  0  0  0  0  0  0  0  0  0  0  0
   -5.3931   -0.8218    1.0307 C   0  0  2  0  0  0  0  0  0  0  0  0
   -5.5383   -2.2126    0.1670 C   0  0  0  0  0  0  0  0  0  0  0  0
   -4.7708    0.0863    0.0125 O   0  0  0  0  0  0  0  0  0  0  0  0
   -2.0390    0.9928   -1.6313 C   0  0  0  0  0  0  0  0  0  0  0  0
    2.6823   -1.4262    1.1213 C   0  0  0  0  0  0  0  0  0  0  0  0
    1.9768   -2.4785    1.1965 O   0  0  0  0  0  0  0  0  0  0  0  0
    4.0649   -1.5049    0.6313 C   0  0  0  0  0  0  0  0  0  0  0  0
    4.6811   -2.7273    0.3915 C   0  0  0  0  0  0  0  0  0  0  0  0
    6.0568   -2.7334    0.5741 C   0  0  0  0  0  0  0  0  0  0  0  0
    6.8047   -1.5780    0.3729 C   0  0  0  0  0  0  0  0  0  0  0  0
    6.1646   -0.3574    0.5359 C   0  0  0  0  0  0  0  0  0  0  0  0
    4.7821   -0.3214    0.5034 C   0  0  0  0  0  0  0  0  0  0  0  0
    4.0303    0.8310   -0.0071 C   0  0  0  0  0  0  0  0  0  0  0  0
    4.6688    1.7697   -0.5734 O   0  0  0  0  0  0  0  0  0  0  0  0
  1  2  1  0
  2  3  2  0
  4  2  1  6
  4  5  1  0
  4  6  1  0
  6  7  1  0
  7  8  2  0
  8  9  1  0
  8 10  1  0
 10 11  2  0
 11 12  1  0
 12 13  1  0
 12 14  2  0
 14 15  1  0
 15 16  1  1
 17 16  1  1
 17 18  1  0
 18 19  1  0
 19 20  1  1
 19 21  1  0
 21 22  1  1
 21 23  1  0
 23 24  1  6
 23 25  1  0
 15 26  1  0
 11 27  1  0
 27 28  2  0
 27 29  1  0
 29 30  2  0
 30 31  1  0
 31 32  2  0
 32 33  1  0
 33 34  2  0
 34 35  1  0
 35 36  2  0
 26  4  1  0
 34 29  1  0
 14  7  1  0
 25 17  1  0
 35 10  1  0
M  END
>  <supplier_code>  (1006) 
DB01177

>  <zinc_id>  (1006) 
ZINC000003920266

>  <catalog_short_name>  (1006) 
dbfda

$$$$

     RDKit          3D

 30 34  0  0  0  0  0  0  0  0999 V2000
    3.0012    2.8037   -1.6319 C   0  0  0  0  0  0  0  0  0  0  0  0
    2.9460    2.7306   -0.3120 O   0  0  0  0  0  0  0  0  0  0  0  0
    2.5407    1.4860    0.1923 C   0  0  0  0  0  0  0  0  0  0  0  0
    1.2828    0.9917    0.0222 C   0  0  0  0  0  0  0  0  0  0  0  0
    0.9518   -0.3665   -0.0253 C   0  0  0  0  0  0  0  0  0  0  0  0
   -0.1514   -0.4368   -1.1706 C   0  0  2  0  0  0  0  0  0  0  0  0
   -1.4245   -0.0609   -0.2190 C   0  0  0  0  0  0  0  0  0  0  0  0
   -1.2951    1.0349    0.5142 C   0  0  0  0  0  0  0  0  0  0  0  0
   -2.4384    1.5321    1.0448 C   0  0  0  0  0  0  0  0  0  0  0  0
   -3.6219    1.2743    0.3653 C   0  0  0  0  0  0  0  0  0  0  0  0
   -3.7599    0.1701   -0.4058 C   0  0  0  0  0  0  0  0  0  0  0  0
   -2.6799   -0.6961   -0.3523 C   0  0  0  0  0  0  0  0  0  0  0  0
   -3.0080   -2.1113   -1.0828 C   0  0  2  0  0  0  0  0  0  0  0  0
   -2.5709   -3.1658   -0.0793 O   0  0  0  0  0  0  0  0  0  0  0  0
   -1.6254   -2.3835   -2.1217 C   0  0  1  0  0  0  0  0  0  0  0  0
   -1.6575   -0.8402   -2.2390 C   0  0  0  0  0  0  0  0  0  0  0  0
   -1.4995   -1.3657   -1.0567 O   0  0  0  0  0  0  0  0  0  0  0  0
   -1.0699   -1.9069    0.0534 C   0  0  0  0  0  0  0  0  0  0  0  0
   -0.6116   -1.8148    1.1582 O   0  0  0  0  0  0  0  0  0  0  0  0
   -0.2342   -2.1805   -1.1384 C   0  0  2  0  0  0  0  0  0  0  0  0
   -4.4804    2.2634    0.7599 O   0  0  0  0  0  0  0  0  0  0  0  0
   -3.9122    2.9583    1.8696 C   0  0  0  0  0  0  0  0  0  0  0  0
   -2.5348    2.6676    1.8047 O   0  0  0  0  0  0  0  0  0  0  0  0
    2.0508   -1.2057   -0.1596 C   0  0  0  0  0  0  0  0  0  0  0  0
    3.2167   -0.8021    0.4655 C   0  0  0  0  0  0  0  0  0  0  0  0
    4.3215   -1.6471    0.5576 O   0  0  0  0  0  0  0  0  0  0  0  0
    5.0686   -1.8085   -0.6339 C   0  0  0  0  0  0  0  0  0  0  0  0
    3.5067    0.5543    0.5428 C   0  0  0  0  0  0  0  0  0  0  0  0
    4.7219    1.0531    0.9492 O   0  0  0  0  0  0  0  0  0  0  0  0
    4.9666    1.2723    2.3286 C   0  0  0  0  0  0  0  0  0  0  0  0
  1  2  1  0
  2  3  1  0
  3  4  2  0
  4  5  1  0
  6  5  1  1
  6  7  1  0
  7  8  2  0
  8  9  1  0
  9 10  2  0
 10 11  1  0
 11 12  2  0
 12 13  1  0
 13 14  1  1
 13 15  1  0
 15 16  1  6
 16 17  1  0
 17 18  1  0
 18 19  2  0
 20 18  1  1
 10 21  1  0
 21 22  1  0
 22 23  1  0
  5 24  2  0
 24 25  1  0
 25 26  1  0
 26 27  1  0
 25 28  2  0
 28 29  1  0
 29 30  1  0
 28  3  1  0
 20  6  1  0
 12  7  1  0
 20 15  1  0
 23  9  1  0
M  END
>  <supplier_code>  (1007) 
DB01179

>  <zinc_id>  (1007) 
ZINC000003861806

>  <catalog_short_name>  (1007) 
dbfda

$$$$

     RDKit          3D

 30 34  0  0  0  0  0  0  0  0999 V2000
    4.6883   -1.1585   -1.8106 C   0  0  0  0  0  0  0  0  0  0  0  0
    4.0135   -1.1473   -1.6205 O   0  0  0  0  0  0  0  0  0  0  0  0
    2.9859   -0.4151   -1.0207 C   0  0  0  0  0  0  0  0  0  0  0  0
    1.6959   -0.9092   -0.9372 C   0  0  0  0  0  0  0  0  0  0  0  0
    0.7149   -0.1626   -0.3455 C   0  0  0  0  0  0  0  0  0  0  0  0
   -0.1830   -0.8704    0.7750 C   0  0  1  0  0  0  0  0  0  0  0  0
   -1.4466    0.0455    0.4444 C   0  0  0  0  0  0  0  0  0  0  0  0
   -1.4294    1.3166    1.0084 C   0  0  0  0  0  0  0  0  0  0  0  0
   -2.3453    2.2621    0.5620 C   0  0  0  0  0  0  0  0  0  0  0  0
   -2.8919    2.0942   -0.7046 C   0  0  0  0  0  0  0  0  0  0  0  0
   -3.0442    0.7674   -1.1065 C   0  0  0  0  0  0  0  0  0  0  0  0
   -2.3534   -0.2489   -0.4555 C   0  0  0  0  0  0  0  0  0  0  0  0
   -3.0097   -1.7102   -0.5979 C   0  0  2  0  0  0  0  0  0  0  0  0
   -4.1408   -1.3993    0.3617 O   0  0  0  0  0  0  0  0  0  0  0  0
   -2.0619   -2.3147    0.6752 C   0  0  1  0  0  0  0  0  0  0  0  0
   -2.1821   -3.8305    0.1822 C   0  0  0  0  0  0  0  0  0  0  0  0
   -0.9430   -4.2296    0.7658 O   0  0  0  0  0  0  0  0  0  0  0  0
    0.0369   -3.2541    0.5397 C   0  0  0  0  0  0  0  0  0  0  0  0
    1.1927   -3.6703    0.2164 O   0  0  0  0  0  0  0  0  0  0  0  0
   -0.6934   -2.1069   -0.2631 C   0  0  2  0  0  0  0  0  0  0  0  0
   -3.7210    3.1990   -0.8764 O   0  0  0  0  0  0  0  0  0  0  0  0
   -3.9892    3.8295    0.3656 C   0  0  0  0  0  0  0  0  0  0  0  0
   -2.9731    3.3286    1.2141 O   0  0  0  0  0  0  0  0  0  0  0  0
    1.0467    1.1490   -0.0399 C   0  0  0  0  0  0  0  0  0  0  0  0
    2.3554    1.6146   -0.0509 C   0  0  0  0  0  0  0  0  0  0  0  0
    2.6917    2.9295    0.1935 O   0  0  0  0  0  0  0  0  0  0  0  0
    2.8595    3.4985    1.4637 C   0  0  0  0  0  0  0  0  0  0  0  0
    3.3909    0.7389   -0.3598 C   0  0  0  0  0  0  0  0  0  0  0  0
    4.6015    0.8406    0.2953 O   0  0  0  0  0  0  0  0  0  0  0  0
    5.1343   -0.1865    1.1259 C   0  0  0  0  0  0  0  0  0  0  0  0
  1  2  1  0
  2  3  1  0
  3  4  2  0
  4  5  1  0
  6  5  1  6
  6  7  1  0
  7  8  2  0
  8  9  1  0
  9 10  2  0
 10 11  1  0
 11 12  2  0
 12 13  1  0
 13 14  1  1
 13 15  1  0
 15 16  1  6
 16 17  1  0
 17 18  1  0
 18 19  2  0
 20 18  1  1
 10 21  1  0
 21 22  1  0
 22 23  1  0
  5 24  2  0
 24 25  1  0
 25 26  1  0
 26 27  1  0
 25 28  2  0
 28 29  1  0
 29 30  1  0
 28  3  1  0
 20  6  1  0
 12  7  1  0
 20 15  1  0
 23  9  1  0
M  END
>  <supplier_code>  (1008) 
DB01179

>  <zinc_id>  (1008) 
ZINC000003874715

>  <catalog_short_name>  (1008) 
dbfda

$$$$

     RDKit          3D

 14 14  0  0  0  0  0  0  0  0999 V2000
    0.5971   -0.1944   -1.1465 O   0  0  0  0  0  0  0  0  0  0  0  0
    0.3527    0.3881    0.1906 P   0  0  1  0  0  0  0  0  0  0  0  0
    1.4487   -0.3165    1.3756 N   0  0  0  0  0  0  0  0  0  0  0  0
    2.8116   -0.2295    0.9257 C   0  0  0  0  0  0  0  0  0  0  0  0
    3.3471   -1.6094    0.6239 C   0  0  0  0  0  0  0  0  0  0  0  0
    5.0628   -1.5310    0.1901 Cl  0  0  0  0  0  0  0  0  0  0  0  0
    0.6922    2.0288    0.0961 O   0  0  0  0  0  0  0  0  0  0  0  0
   -0.3440    2.8409    0.5120 C   0  0  0  0  0  0  0  0  0  0  0  0
   -1.6871    2.3467    0.0104 C   0  0  0  0  0  0  0  0  0  0  0  0
   -2.0840    1.1982    0.9044 C   0  0  0  0  0  0  0  0  0  0  0  0
   -1.2544    0.0395    0.7427 N   0  0  0  0  0  0  0  0  0  0  0  0
   -1.9090   -0.9770   -0.0367 C   0  0  0  0  0  0  0  0  0  0  0  0
   -3.3158   -1.1376    0.4713 C   0  0  0  0  0  0  0  0  0  0  0  0
   -3.7180   -2.8467    0.6771 Cl  0  0  0  0  0  0  0  0  0  0  0  0
  1  2  2  0
  2  3  1  1
  3  4  1  0
  4  5  1  0
  5  6  1  0
  2  7  1  0
  7  8  1  0
  8  9  1  0
  9 10  1  0
 10 11  1  0
 11 12  1  0
 12 13  1  0
 13 14  1  0
 11  2  1  0
M  END
>  <supplier_code>  (1009) 
DB01181

>  <zinc_id>  (1009) 
ZINC000001530659

>  <catalog_short_name>  (1009) 
dbfda

$$$$

     RDKit          3D

 14 14  0  0  0  0  0  0  0  0999 V2000
    1.0730   -1.3902   -1.1966 O   0  0  0  0  0  0  0  0  0  0  0  0
    0.4179   -0.7733   -0.1302 P   0  0  2  0  0  0  0  0  0  0  0  0
    1.4858    0.2290    0.8047 N   0  0  0  0  0  0  0  0  0  0  0  0
    1.9257    1.4088    0.1137 C   0  0  0  0  0  0  0  0  0  0  0  0
    3.0603    1.1748   -0.8372 C   0  0  0  0  0  0  0  0  0  0  0  0
    4.4653    0.4136   -0.0900 Cl  0  0  0  0  0  0  0  0  0  0  0  0
   -0.1788   -1.9779    0.9079 O   0  0  0  0  0  0  0  0  0  0  0  0
   -1.1645   -2.7452    0.3037 C   0  0  0  0  0  0  0  0  0  0  0  0
   -1.6981   -2.1307   -0.9611 C   0  0  0  0  0  0  0  0  0  0  0  0
   -2.1096   -0.7116   -0.6514 C   0  0  0  0  0  0  0  0  0  0  0  0
   -0.9344    0.1308   -0.7914 N   0  0  0  0  0  0  0  0  0  0  0  0
   -1.0805    1.4070   -0.1404 C   0  0  0  0  0  0  0  0  0  0  0  0
   -2.5235    1.8528   -0.1579 C   0  0  0  0  0  0  0  0  0  0  0  0
   -2.7387    3.1122    1.0842 Cl  0  0  0  0  0  0  0  0  0  0  0  0
  1  2  2  0
  2  3  1  1
  3  4  1  0
  4  5  1  0
  5  6  1  0
  2  7  1  0
  7  8  1  0
  8  9  1  0
  9 10  1  0
 10 11  1  0
 11 12  1  0
 12 13  1  0
 13 14  1  0
 11  2  1  0
M  END
>  <supplier_code>  (1010) 
DB01181

>  <zinc_id>  (1010) 
ZINC000001530660

>  <catalog_short_name>  (1010) 
dbfda

$$$$

     RDKit          3D

 25 26  0  0  0  0  0  0  0  0999 V2000
    6.7038    0.3769   -1.1618 C   0  0  0  0  0  0  0  0  0  0  0  0
    6.5848    0.4965   -1.3051 C   0  0  0  0  0  0  0  0  0  0  0  0
    5.6176   -0.2982   -2.1253 C   0  0  0  0  0  0  0  0  0  0  0  0
    4.8834    0.5213   -3.0731 N   0  0  0  0  0  0  0  0  0  0  0  0
    3.4667    0.1590   -2.9785 C   0  0  0  0  0  0  0  0  0  0  0  0
    3.1834    0.6843   -1.4387 C   0  0  2  0  0  0  0  0  0  0  0  0
    3.3690   -0.7124   -0.8649 O   0  0  0  0  0  0  0  0  0  0  0  0
    1.5535    0.4759   -1.5931 C   0  0  0  0  0  0  0  0  0  0  0  0
    1.0964    0.9964   -0.3737 O   0  0  0  0  0  0  0  0  0  0  0  0
    0.9711    0.2158    0.7723 C   0  0  0  0  0  0  0  0  0  0  0  0
    1.9654    0.3026    1.7388 C   0  0  0  0  0  0  0  0  0  0  0  0
    1.8387   -0.4357    2.9093 C   0  0  0  0  0  0  0  0  0  0  0  0
    0.6020   -0.9322    3.2319 C   0  0  0  0  0  0  0  0  0  0  0  0
   -0.4858   -0.5284    2.4683 C   0  0  0  0  0  0  0  0  0  0  0  0
   -0.3207    0.0834    1.2605 C   0  0  0  0  0  0  0  0  0  0  0  0
   -1.4585    0.3717    0.4044 C   0  0  0  0  0  0  0  0  0  0  0  0
   -1.6663   -0.3592   -0.5838 O   0  0  0  0  0  0  0  0  0  0  0  0
   -2.3345    1.5311    0.7587 C   0  0  0  0  0  0  0  0  0  0  0  0
   -3.4310    1.0363    1.6946 C   0  0  0  0  0  0  0  0  0  0  0  0
   -4.5039    0.3697    0.9412 C   0  0  0  0  0  0  0  0  0  0  0  0
   -4.4836   -1.0070    0.7649 C   0  0  0  0  0  0  0  0  0  0  0  0
   -5.2044   -1.5186   -0.3052 C   0  0  0  0  0  0  0  0  0  0  0  0
   -6.0296   -0.7084   -1.0386 C   0  0  0  0  0  0  0  0  0  0  0  0
   -6.3775    0.5140   -0.5236 C   0  0  0  0  0  0  0  0  0  0  0  0
   -5.5397    1.0947    0.4203 C   0  0  0  0  0  0  0  0  0  0  0  0
  1  2  1  0
  2  3  1  0
  3  4  1  0
  4  5  1  0
  6  5  1  6
  6  7  1  0
  6  8  1  0
  8  9  1  0
  9 10  1  0
 10 11  2  0
 11 12  1  0
 12 13  2  0
 13 14  1  0
 14 15  2  0
 15 16  1  0
 16 17  2  0
 16 18  1  0
 18 19  1  0
 19 20  1  0
 20 21  2  0
 21 22  1  0
 22 23  2  0
 23 24  1  0
 24 25  2  0
 15 10  1  0
 25 20  1  0
M  END
>  <supplier_code>  (1011) 
DB01182

>  <zinc_id>  (1011) 
ZINC000001530759

>  <catalog_short_name>  (1011) 
dbfda

$$$$

     RDKit          3D

 25 26  0  0  0  0  0  0  0  0999 V2000
    6.9757    3.0714    0.0307 C   0  0  0  0  0  0  0  0  0  0  0  0
    6.4403    2.6455   -0.2499 C   0  0  0  0  0  0  0  0  0  0  0  0
    5.0134    2.3237    0.1464 C   0  0  0  0  0  0  0  0  0  0  0  0
    5.0163    1.2205    1.0959 N   0  0  0  0  0  0  0  0  0  0  0  0
    4.7009   -0.0017    0.3622 C   0  0  0  0  0  0  0  0  0  0  0  0
    3.0413    0.1819    0.1669 C   0  0  1  0  0  0  0  0  0  0  0  0
    3.1819    0.0949   -1.3714 O   0  0  0  0  0  0  0  0  0  0  0  0
    2.8071   -1.4792    0.2764 C   0  0  0  0  0  0  0  0  0  0  0  0
    1.6639   -1.6860   -0.5253 O   0  0  0  0  0  0  0  0  0  0  0  0
    0.4968   -2.2229    0.0269 C   0  0  0  0  0  0  0  0  0  0  0  0
    0.5044   -3.4498    0.6790 C   0  0  0  0  0  0  0  0  0  0  0  0
   -0.6624   -3.8209    1.3284 C   0  0  0  0  0  0  0  0  0  0  0  0
   -1.5983   -2.8513    1.6476 C   0  0  0  0  0  0  0  0  0  0  0  0
   -1.6474   -1.7205    0.8414 C   0  0  0  0  0  0  0  0  0  0  0  0
   -0.6369   -1.4374   -0.0443 C   0  0  0  0  0  0  0  0  0  0  0  0
   -0.7177   -0.4533   -1.1041 C   0  0  0  0  0  0  0  0  0  0  0  0
   -0.0515   -0.6152   -2.1715 O   0  0  0  0  0  0  0  0  0  0  0  0
   -1.7866    0.5859   -1.1789 C   0  0  0  0  0  0  0  0  0  0  0  0
   -3.1574   -0.0161   -1.3161 C   0  0  0  0  0  0  0  0  0  0  0  0
   -4.0778    0.7491   -0.4342 C   0  0  0  0  0  0  0  0  0  0  0  0
   -5.3343    1.0477   -0.9465 C   0  0  0  0  0  0  0  0  0  0  0  0
   -6.2204    1.7640   -0.1590 C   0  0  0  0  0  0  0  0  0  0  0  0
   -5.8018    2.4023    1.0000 C   0  0  0  0  0  0  0  0  0  0  0  0
   -4.5429    2.0487    1.4695 C   0  0  0  0  0  0  0  0  0  0  0  0
   -3.6066    1.6187    0.5414 C   0  0  0  0  0  0  0  0  0  0  0  0
  1  2  1  0
  2  3  1  0
  3  4  1  0
  4  5  1  0
  6  5  1  1
  6  7  1  0
  6  8  1  0
  8  9  1  0
  9 10  1  0
 10 11  2  0
 11 12  1  0
 12 13  2  0
 13 14  1  0
 14 15  2  0
 15 16  1  0
 16 17  2  0
 16 18  1  0
 18 19  1  0
 19 20  1  0
 20 21  2  0
 21 22  1  0
 22 23  2  0
 23 24  1  0
 24 25  2  0
 15 10  1  0
 25 20  1  0
M  END
>  <supplier_code>  (1012) 
DB01182

>  <zinc_id>  (1012) 
ZINC000001530760

>  <catalog_short_name>  (1012) 
dbfda

$$$$

     RDKit          3D

 24 28  0  0  0  0  0  0  0  0999 V2000
    5.2439   -1.5039   -0.0783 C   0  0  0  0  0  0  0  0  0  0  0  0
    4.7769   -1.2027   -0.1861 C   0  0  0  0  0  0  0  0  0  0  0  0
    3.2996   -1.3492   -0.1605 C   0  0  0  0  0  0  0  0  0  0  0  0
    2.5904   -0.1028   -0.4765 N   0  0  0  0  0  0  0  0  0  0  0  0
    1.7615   -0.3683   -1.5321 C   0  0  0  0  0  0  0  0  0  0  0  0
    0.4078    0.0352   -1.7592 C   0  0  0  0  0  0  0  0  0  0  0  0
   -0.2188    0.6009   -0.5671 C   0  0  1  0  0  0  0  0  0  0  0  0
   -1.1528   -0.2014    0.1935 C   0  0  0  0  0  0  0  0  0  0  0  0
   -2.2202   -0.3061   -0.6148 C   0  0  0  0  0  0  0  0  0  0  0  0
   -3.0143   -1.4261   -0.3896 C   0  0  0  0  0  0  0  0  0  0  0  0
   -4.3768   -1.3570   -0.6952 O   0  0  0  0  0  0  0  0  0  0  0  0
   -2.4833   -2.4807    0.3576 C   0  0  0  0  0  0  0  0  0  0  0  0
   -1.2193   -2.3787    0.9451 C   0  0  0  0  0  0  0  0  0  0  0  0
   -0.4849   -1.1935    0.8850 C   0  0  0  0  0  0  0  0  0  0  0  0
    0.9236   -1.3663    0.4624 C   0  0  0  0  0  0  0  0  0  0  0  0
    1.7566   -0.0166    0.8633 C   0  0  2  0  0  0  0  0  0  0  0  0
    0.7623    1.1433    0.2802 C   0  0  1  0  0  0  0  0  0  0  0  0
    1.5886    2.0969   -0.2802 O   0  0  0  0  0  0  0  0  0  0  0  0
    0.3692    1.7316    1.6282 C   0  0  0  0  0  0  0  0  0  0  0  0
   -0.4728    2.9468    1.2373 C   0  0  0  0  0  0  0  0  0  0  0  0
   -1.5798    2.2351    0.5481 C   0  0  0  0  0  0  0  0  0  0  0  0
   -2.5350    1.7785    1.0558 O   0  0  0  0  0  0  0  0  0  0  0  0
   -1.2423    1.8041   -0.9873 C   0  0  2  0  0  0  0  0  0  0  0  0
   -2.4802    0.8808   -1.1672 O   0  0  0  0  0  0  0  0  0  0  0  0
  1  2  2  0
  2  3  1  0
  3  4  1  0
  4  5  1  0
  5  6  1  0
  7  6  1  6
  7  8  1  0
  8  9  2  0
  9 10  1  0
 10 11  1  0
 10 12  2  0
 12 13  1  0
 13 14  2  0
 14 15  1  0
 16 15  1  6
 16 17  1  0
 17 18  1  6
 17 19  1  0
 19 20  1  0
 20 21  1  0
 21 22  2  0
 23 21  1  1
 23 24  1  0
 16  4  1  0
 17  7  1  0
 23  7  1  0
 14  8  1  0
 24  9  1  0
M  END
>  <supplier_code>  (1013) 
DB01183

>  <zinc_id>  (1013) 
ZINC000000389747

>  <catalog_short_name>  (1013) 
dbfda

$$$$

     RDKit          3D

 24 27  0  0  0  0  0  0  0  0999 V2000
   -4.0928   -0.4931    1.0711 C   0  0  0  0  0  0  0  0  0  0  0  0
   -3.7767    0.1771   -0.1498 C   0  0  2  0  0  0  0  0  0  0  0  0
   -4.7595    1.1637   -0.3342 O   0  0  0  0  0  0  0  0  0  0  0  0
   -3.9169   -0.7489   -1.3622 C   0  0  0  0  0  0  0  0  0  0  0  0
   -2.5190   -0.8700   -1.9751 C   0  0  0  0  0  0  0  0  0  0  0  0
   -1.7659   -0.7827   -0.5480 C   0  0  1  0  0  0  0  0  0  0  0  0
   -0.3665    0.0175   -1.0650 C   0  0  2  0  0  0  0  0  0  0  0  0
    0.2822   -1.2925   -1.7676 C   0  0  0  0  0  0  0  0  0  0  0  0
    1.7361   -0.9551   -1.8603 C   0  0  0  0  0  0  0  0  0  0  0  0
    2.3594   -0.4086   -0.6582 C   0  0  0  0  0  0  0  0  0  0  0  0
    3.6829   -0.5139   -0.5508 C   0  0  0  0  0  0  0  0  0  0  0  0
    4.4079   -0.3365    0.6887 C   0  0  0  0  0  0  0  0  0  0  0  0
    5.6196   -0.6111    0.8531 O   0  0  0  0  0  0  0  0  0  0  0  0
    3.6813    0.2179    1.8727 C   0  0  0  0  0  0  0  0  0  0  0  0
    2.2495   -0.2172    1.7388 C   0  0  0  0  0  0  0  0  0  0  0  0
    1.6280    0.2805    0.4555 C   0  0  1  0  0  0  0  0  0  0  0  0
    1.8624    1.7479    0.3136 C   0  0  0  0  0  0  0  0  0  0  0  0
    0.3206   -0.2462    0.3520 C   0  0  2  0  0  0  0  0  0  0  0  0
    0.3209   -1.6113    0.5989 F   0  0  0  0  0  0  0  0  0  0  0  0
   -0.7403    0.1791    1.5096 C   0  0  1  0  0  0  0  0  0  0  0  0
    0.1557    1.2606    2.0972 O   0  0  0  0  0  0  0  0  0  0  0  0
   -1.5900    1.3011    0.6470 C   0  0  0  0  0  0  0  0  0  0  0  0
   -2.4371    0.6712   -0.3052 C   0  0  2  0  0  0  0  0  0  0  0  0
   -2.3417    1.4373   -1.6218 C   0  0  0  0  0  0  0  0  0  0  0  0
  2  1  1  1
  2  3  1  0
  2  4  1  0
  4  5  1  0
  6  5  1  6
  6  7  1  0
  7  8  1  6
  8  9  1  0
  9 10  1  0
 10 11  2  0
 11 12  1  0
 12 13  2  0
 12 14  1  0
 14 15  1  0
 15 16  1  0
 16 17  1  6
 16 18  1  0
 18 19  1  1
 18 20  1  0
 20 21  1  1
 20 22  1  0
 22 23  1  0
 23 24  1  6
 23  2  1  0
 23  6  1  0
 18  7  1  0
 16 10  1  0
M  END
>  <supplier_code>  (1014) 
DB01185

>  <zinc_id>  (1014) 
ZINC000003875484

>  <catalog_short_name>  (1014) 
dbfda

$$$$

     RDKit          3D

 15 16  0  0  0  0  0  0  0  0999 V2000
    2.6031    2.7795   -0.2240 C   0  0  0  0  0  0  0  0  0  0  0  0
    2.1352    1.3741   -0.1719 C   0  0  0  0  0  0  0  0  0  0  0  0
    2.9329    0.3152   -0.5384 C   0  0  0  0  0  0  0  0  0  0  0  0
    2.3183   -0.9296   -0.5861 C   0  0  0  0  0  0  0  0  0  0  0  0
    3.0256   -1.9809   -0.5353 O   0  0  0  0  0  0  0  0  0  0  0  0
    0.9797   -1.0504   -0.5958 N   0  0  0  0  0  0  0  0  0  0  0  0
    0.4319   -2.2595   -0.8970 O   0  0  0  0  0  0  0  0  0  0  0  0
    0.1536   -0.0240   -0.2700 C   0  0  0  0  0  0  0  0  0  0  0  0
   -1.1660   -0.2738    0.3489 C   0  0  0  0  0  0  0  0  0  0  0  0
   -2.0888   -1.0669   -0.5703 C   0  0  0  0  0  0  0  0  0  0  0  0
   -3.4854   -0.8844    0.0136 C   0  0  0  0  0  0  0  0  0  0  0  0
   -4.0054    0.4334   -0.5431 C   0  0  0  0  0  0  0  0  0  0  0  0
   -2.7962    1.3570   -0.6347 C   0  0  0  0  0  0  0  0  0  0  0  0
   -1.8478    1.0784    0.5268 C   0  0  0  0  0  0  0  0  0  0  0  0
    0.8092    1.1319    0.1393 C   0  0  0  0  0  0  0  0  0  0  0  0
  1  2  1  0
  2  3  2  0
  3  4  1  0
  4  5  2  0
  4  6  1  0
  6  7  1  0
  6  8  1  0
  8  9  1  0
  9 10  1  0
 10 11  1  0
 11 12  1  0
 12 13  1  0
 13 14  1  0
  8 15  2  0
 15  2  1  0
 14  9  1  0
M  END
>  <supplier_code>  (1015) 
DB01188

>  <zinc_id>  (1015) 
ZINC000000001145

>  <catalog_short_name>  (1015) 
dbfda

$$$$

     RDKit          3D

 10  9  0  0  0  0  0  0  0  0999 V2000
    2.6148   -0.7832    0.0100 F   0  0  0  0  0  0  0  0  0  0  0  0
    1.9069    0.2617   -0.0229 C   0  0  0  0  0  0  0  0  0  0  0  0
    2.6273    1.3559    0.4031 F   0  0  0  0  0  0  0  0  0  0  0  0
    0.7107    0.1571    0.6699 O   0  0  0  0  0  0  0  0  0  0  0  0
   -0.3086    0.3114   -0.5157 C   0  0  1  0  0  0  0  0  0  0  0  0
   -0.2104   -1.2015   -0.8620 F   0  0  0  0  0  0  0  0  0  0  0  0
   -1.6485    0.0336    0.4974 C   0  0  0  0  0  0  0  0  0  0  0  0
   -2.5287   -0.4088   -0.4359 F   0  0  0  0  0  0  0  0  0  0  0  0
   -1.8923    1.2425    1.0400 F   0  0  0  0  0  0  0  0  0  0  0  0
   -1.2712   -0.9686    1.2996 F   0  0  0  0  0  0  0  0  0  0  0  0
  1  2  1  0
  2  3  1  0
  2  4  1  0
  5  4  1  1
  5  6  1  0
  5  7  1  0
  7  8  1  0
  7  9  1  0
  7 10  1  0
M  END
>  <supplier_code>  (1016) 
DB01189

>  <zinc_id>  (1016) 
ZINC000003776875

>  <catalog_short_name>  (1016) 
dbfda

$$$$

     RDKit          3D

 10  9  0  0  0  0  0  0  0  0999 V2000
    2.7525   -0.1643   -0.5756 F   0  0  0  0  0  0  0  0  0  0  0  0
    1.8856    0.7264   -0.2085 C   0  0  0  0  0  0  0  0  0  0  0  0
    2.0725    1.1996    1.0565 F   0  0  0  0  0  0  0  0  0  0  0  0
    0.6194    0.3260   -0.5138 O   0  0  0  0  0  0  0  0  0  0  0  0
   -0.0174   -0.1667    0.7927 C   0  0  2  0  0  0  0  0  0  0  0  0
    0.1615   -1.6127    0.3500 F   0  0  0  0  0  0  0  0  0  0  0  0
   -1.5684   -0.1036    0.2111 C   0  0  0  0  0  0  0  0  0  0  0  0
   -2.1355    0.8486    1.0535 F   0  0  0  0  0  0  0  0  0  0  0  0
   -2.1689   -1.2810    0.5503 F   0  0  0  0  0  0  0  0  0  0  0  0
   -1.6012    0.2278   -1.0656 F   0  0  0  0  0  0  0  0  0  0  0  0
  1  2  1  0
  2  3  1  0
  2  4  1  0
  5  4  1  6
  5  6  1  0
  5  7  1  0
  7  8  1  0
  7  9  1  0
  7 10  1  0
M  END
>  <supplier_code>  (1017) 
DB01189

>  <zinc_id>  (1017) 
ZINC000004097392

>  <catalog_short_name>  (1017) 
dbfda

$$$$

     RDKit          3D

 27 28  0  0  0  0  0  0  0  0999 V2000
    6.6319   -0.0376    0.5042 C   0  0  0  0  0  0  0  0  0  0  0  0
    5.9477   -0.9801    0.0374 C   0  0  0  0  0  0  0  0  0  0  0  0
    4.4913   -0.6746    0.1567 C   0  0  0  0  0  0  0  0  0  0  0  0
    4.1885    0.4337   -1.0037 C   0  0  2  0  0  0  0  0  0  0  0  0
    2.6138    0.2264   -0.7892 C   0  0  0  0  0  0  0  0  0  0  0  0
    2.4597   -1.2598   -1.4634 C   0  0  1  0  0  0  0  0  0  0  0  0
    0.8738   -1.1356   -1.6360 C   0  0  0  0  0  0  0  0  0  0  0  0
    0.2975   -0.6020   -2.5386 O   0  0  0  0  0  0  0  0  0  0  0  0
   -0.0717   -1.3364   -0.5660 N   0  0  0  0  0  0  0  0  0  0  0  0
   -0.0219   -0.1702    0.4756 C   0  0  2  0  0  0  0  0  0  0  0  0
    0.3025   -1.2403    1.7482 C   0  0  1  0  0  0  0  0  0  0  0  0
   -0.0764   -0.2923    2.9844 C   0  0  0  0  0  0  0  0  0  0  0  0
   -1.0706   -2.4974    1.6535 Cl  0  0  0  0  0  0  0  0  0  0  0  0
   -1.6235    0.3474    0.5935 C   0  0  1  0  0  0  0  0  0  0  0  0
   -2.3962   -0.7025   -0.0919 O   0  0  0  0  0  0  0  0  0  0  0  0
   -3.7312   -0.2632    0.3570 C   0  0  2  0  0  0  0  0  0  0  0  0
   -4.4077    0.1190   -1.4096 S   0  0  0  0  0  0  0  0  0  0  0  0
   -5.9636    0.9259   -0.8938 C   0  0  0  0  0  0  0  0  0  0  0  0
   -3.7246    1.3751    0.7553 C   0  0  2  0  0  0  0  0  0  0  0  0
   -2.8064    1.8249   -0.3742 O   0  0  0  0  0  0  0  0  0  0  0  0
   -2.5977    1.6076    2.0133 C   0  0  1  0  0  0  0  0  0  0  0  0
   -3.5928    1.4897    3.1342 O   0  0  0  0  0  0  0  0  0  0  0  0
   -2.0065    0.0105    2.2234 C   0  0  1  0  0  0  0  0  0  0  0  0
   -3.3407   -0.6616    2.1517 O   0  0  0  0  0  0  0  0  0  0  0  0
    2.9248   -0.6145   -2.8158 N   0  0  0  0  0  0  0  0  0  0  0  0
    2.4337    0.7437   -2.9576 C   0  0  0  0  0  0  0  0  0  0  0  0
    4.2660   -0.6031   -2.2484 C   0  0  0  0  0  0  0  0  0  0  0  0
  1  2  1  0
  2  3  1  0
  4  3  1  1
  4  5  1  0
  5  6  1  0
  6  7  1  6
  7  8  2  0
  7  9  1  0
 10  9  1  6
 10 11  1  0
 11 12  1  1
 11 13  1  0
 10 14  1  0
 14 15  1  6
 15 16  1  0
 16 17  1  6
 17 18  1  0
 16 19  1  0
 19 20  1  6
 19 21  1  0
 21 22  1  1
 21 23  1  0
 23 24  1  6
  6 25  1  0
 25 26  1  0
 25 27  1  0
 27  4  1  0
 23 14  1  0
M  END
>  <supplier_code>  (1018) 
DB01190

>  <zinc_id>  (1018) 
ZINC000003978028

>  <catalog_short_name>  (1018) 
dbfda

$$$$

     RDKit          3D

 27 28  0  0  0  0  0  0  0  0999 V2000
    6.4800   -0.0869   -0.0525 C   0  0  0  0  0  0  0  0  0  0  0  0
    5.8466   -0.5926   -0.3003 C   0  0  0  0  0  0  0  0  0  0  0  0
    4.5157   -0.2493    0.3580 C   0  0  0  0  0  0  0  0  0  0  0  0
    4.3297    1.3755    0.1566 C   0  0  2  0  0  0  0  0  0  0  0  0
    2.7726    1.3542    0.6917 C   0  0  0  0  0  0  0  0  0  0  0  0
    2.4002    0.2527   -0.4830 C   0  0  1  0  0  0  0  0  0  0  0  0
    0.7807    0.4436   -0.3371 C   0  0  0  0  0  0  0  0  0  0  0  0
    0.5136    0.0785    0.8429 O   0  0  0  0  0  0  0  0  0  0  0  0
   -0.0040   -0.1230   -1.2968 N   0  0  0  0  0  0  0  0  0  0  0  0
   -1.0107   -1.3014   -1.1347 C   0  0  1  0  0  0  0  0  0  0  0  0
   -0.0090   -2.2906   -0.2234 C   0  0  1  0  0  0  0  0  0  0  0  0
   -0.9997   -3.5093   -0.1381 C   0  0  0  0  0  0  0  0  0  0  0  0
    1.0079   -2.9127   -1.6426 Cl  0  0  0  0  0  0  0  0  0  0  0  0
   -1.7438   -0.7431    0.3166 C   0  0  1  0  0  0  0  0  0  0  0  0
   -2.0572    0.6231   -0.1826 O   0  0  0  0  0  0  0  0  0  0  0  0
   -3.3611    1.0209    0.3252 C   0  0  2  0  0  0  0  0  0  0  0  0
   -2.7111    2.6698    1.0859 S   0  0  0  0  0  0  0  0  0  0  0  0
   -3.6172    4.0030    0.2698 C   0  0  0  0  0  0  0  0  0  0  0  0
   -3.4600    0.3104    1.8578 C   0  0  2  0  0  0  0  0  0  0  0  0
   -2.0191   -0.0661    2.1103 O   0  0  0  0  0  0  0  0  0  0  0  0
   -4.0372   -1.2312    1.3414 C   0  0  1  0  0  0  0  0  0  0  0  0
   -5.2475   -0.5820    0.6894 O   0  0  0  0  0  0  0  0  0  0  0  0
   -3.1974   -1.5509   -0.1226 C   0  0  1  0  0  0  0  0  0  0  0  0
   -3.8197   -0.5111   -1.0160 O   0  0  0  0  0  0  0  0  0  0  0  0
    2.5779    1.4455   -1.5165 N   0  0  0  0  0  0  0  0  0  0  0  0
    2.0974    0.9369   -2.7574 C   0  0  0  0  0  0  0  0  0  0  0  0
    3.9722    1.2362   -1.4344 C   0  0  0  0  0  0  0  0  0  0  0  0
  1  2  1  0
  2  3  1  0
  4  3  1  1
  4  5  1  0
  5  6  1  0
  6  7  1  1
  7  8  2  0
  7  9  1  0
 10  9  1  1
 10 11  1  0
 11 12  1  6
 11 13  1  0
 10 14  1  0
 14 15  1  6
 15 16  1  0
 16 17  1  1
 17 18  1  0
 16 19  1  0
 19 20  1  6
 19 21  1  0
 21 22  1  6
 21 23  1  0
 23 24  1  6
  6 25  1  0
 25 26  1  0
 25 27  1  0
 27  4  1  0
 23 14  1  0
M  END
>  <supplier_code>  (1019) 
DB01190

>  <zinc_id>  (1019) 
ZINC000003978029

>  <catalog_short_name>  (1019) 
dbfda

$$$$

     RDKit          3D

 27 28  0  0  0  0  0  0  0  0999 V2000
    6.6555    1.0017   -0.0846 C   0  0  0  0  0  0  0  0  0  0  0  0
    6.6671    0.6556    0.4900 C   0  0  0  0  0  0  0  0  0  0  0  0
    5.3499    0.3515    1.2041 C   0  0  0  0  0  0  0  0  0  0  0  0
    4.3312    0.9592    0.0841 C   0  0  2  0  0  0  0  0  0  0  0  0
    3.0151    0.7393    1.0151 C   0  0  0  0  0  0  0  0  0  0  0  0
    2.6112   -0.7796    0.5577 C   0  0  1  0  0  0  0  0  0  0  0  0
    1.0371   -0.4757    0.6213 C   0  0  0  0  0  0  0  0  0  0  0  0
    0.6380    0.3376   -0.2070 O   0  0  0  0  0  0  0  0  0  0  0  0
    0.1113   -1.3754    1.0911 N   0  0  0  0  0  0  0  0  0  0  0  0
   -1.3356   -1.4534    0.5259 C   0  0  2  0  0  0  0  0  0  0  0  0
   -0.8324   -2.1497   -0.8844 C   0  0  2  0  0  0  0  0  0  0  0  0
   -2.1483   -2.9628   -1.1687 C   0  0  0  0  0  0  0  0  0  0  0  0
    0.0293   -3.6019   -0.1159 Cl  0  0  0  0  0  0  0  0  0  0  0  0
   -1.2850    0.1090   -0.1422 C   0  0  1  0  0  0  0  0  0  0  0  0
   -2.6200    0.1763   -0.7630 O   0  0  0  0  0  0  0  0  0  0  0  0
   -3.6544   -0.3656    0.0764 C   0  0  2  0  0  0  0  0  0  0  0  0
   -4.9993   -0.3973   -1.2962 S   0  0  0  0  0  0  0  0  0  0  0  0
   -4.5633    0.7439   -2.6171 C   0  0  0  0  0  0  0  0  0  0  0  0
   -4.1305    1.0399    0.9116 C   0  0  2  0  0  0  0  0  0  0  0  0
   -4.8232    1.7482   -0.2200 O   0  0  0  0  0  0  0  0  0  0  0  0
   -2.7251    1.9493    0.5847 C   0  0  1  0  0  0  0  0  0  0  0  0
   -2.8707    2.7674    1.8351 O   0  0  0  0  0  0  0  0  0  0  0  0
   -1.5818    0.9337    1.3417 C   0  0  1  0  0  0  0  0  0  0  0  0
   -2.4835   -0.0487    2.0001 O   0  0  0  0  0  0  0  0  0  0  0  0
    2.8080   -0.4090   -0.9653 N   0  0  0  0  0  0  0  0  0  0  0  0
    2.5517    0.9653   -1.1961 C   0  0  0  0  0  0  0  0  0  0  0  0
    4.2478   -0.4587   -0.7172 C   0  0  0  0  0  0  0  0  0  0  0  0
  1  2  1  0
  2  3  1  0
  4  3  1  1
  4  5  1  0
  5  6  1  0
  6  7  1  6
  7  8  2  0
  7  9  1  0
 10  9  1  1
 10 11  1  0
 11 12  1  6
 11 13  1  0
 10 14  1  0
 14 15  1  6
 15 16  1  0
 16 17  1  6
 17 18  1  0
 16 19  1  0
 19 20  1  6
 19 21  1  0
 21 22  1  1
 21 23  1  0
 23 24  1  1
  6 25  1  0
 25 26  1  0
 25 27  1  0
 27  4  1  0
 23 14  1  0
M  END
>  <supplier_code>  (1020) 
DB01190

>  <zinc_id>  (1020) 
ZINC000004038341

>  <catalog_short_name>  (1020) 
dbfda

$$$$

     RDKit          3D

 22 26  0  0  0  0  0  0  0  0999 V2000
    3.9004   -0.3856   -0.0242 C   0  0  0  0  0  0  0  0  0  0  0  0
    2.9736   -0.9072   -0.0692 N   0  0  0  0  0  0  0  0  0  0  0  0
    2.1659   -1.4008   -1.0862 C   0  0  0  0  0  0  0  0  0  0  0  0
    1.1653   -0.4889   -1.7057 C   0  0  0  0  0  0  0  0  0  0  0  0
    0.4798    0.2008   -0.6146 C   0  0  1  0  0  0  0  0  0  0  0  0
   -0.6591   -0.3529    0.0066 C   0  0  0  0  0  0  0  0  0  0  0  0
   -1.8451   -0.0616   -0.5357 C   0  0  0  0  0  0  0  0  0  0  0  0
   -2.8345   -1.0127   -0.3138 C   0  0  0  0  0  0  0  0  0  0  0  0
   -3.6537   -1.4324   -1.3712 O   0  0  0  0  0  0  0  0  0  0  0  0
   -2.6744   -1.8054    0.8220 C   0  0  0  0  0  0  0  0  0  0  0  0
   -1.4496   -1.9051    1.4821 C   0  0  0  0  0  0  0  0  0  0  0  0
   -0.3658   -1.1073    1.1222 C   0  0  0  0  0  0  0  0  0  0  0  0
    0.9860   -1.7339    0.8989 C   0  0  0  0  0  0  0  0  0  0  0  0
    2.0812   -0.5430    1.1796 C   0  0  2  0  0  0  0  0  0  0  0  0
    1.3469    0.6986    0.3988 C   0  0  1  0  0  0  0  0  0  0  0  0
    2.3976    1.4689   -0.1105 O   0  0  0  0  0  0  0  0  0  0  0  0
    0.8106    1.4106    1.5895 C   0  0  0  0  0  0  0  0  0  0  0  0
   -0.0137    2.5853    1.1240 C   0  0  0  0  0  0  0  0  0  0  0  0
   -1.0014    1.9380    0.1875 C   0  0  0  0  0  0  0  0  0  0  0  0
   -1.9679    2.6514   -0.0877 O   0  0  0  0  0  0  0  0  0  0  0  0
   -0.3029    1.5073   -1.2233 C   0  0  2  0  0  0  0  0  0  0  0  0
   -1.5392    0.6759   -1.6690 O   0  0  0  0  0  0  0  0  0  0  0  0
  1  2  1  0
  2  3  1  0
  3  4  1  0
  5  4  1  6
  5  6  1  0
  6  7  2  0
  7  8  1  0
  8  9  1  0
  8 10  2  0
 10 11  1  0
 11 12  2  0
 12 13  1  0
 14 13  1  6
 14 15  1  0
 15 16  1  6
 15 17  1  0
 17 18  1  0
 18 19  1  0
 19 20  2  0
 21 19  1  1
 21 22  1  0
 14  2  1  0
 15  5  1  0
 21  5  1  0
 12  6  1  0
 22  7  1  0
M  END
>  <supplier_code>  (1021) 
DB01192

>  <zinc_id>  (1021) 
ZINC000003875483

>  <catalog_short_name>  (1021) 
dbfda

$$$$

     RDKit          3D

 24 24  0  0  0  0  0  0  0  0999 V2000
   -4.5812    3.4390   -0.2373 C   0  0  0  0  0  0  0  0  0  0  0  0
   -5.1582    3.2006   -0.2011 C   0  0  0  0  0  0  0  0  0  0  0  0
   -5.5900    1.7461   -0.0797 C   0  0  0  0  0  0  0  0  0  0  0  0
   -4.3676    0.8942   -0.1677 C   0  0  0  0  0  0  0  0  0  0  0  0
   -4.5224   -0.3496   -0.2345 O   0  0  0  0  0  0  0  0  0  0  0  0
   -3.0705    1.4523   -0.0375 N   0  0  0  0  0  0  0  0  0  0  0  0
   -1.9998    0.6134    0.3702 C   0  0  0  0  0  0  0  0  0  0  0  0
   -0.7772    1.1705    0.7223 C   0  0  0  0  0  0  0  0  0  0  0  0
    0.3566    0.3731    0.7125 C   0  0  0  0  0  0  0  0  0  0  0  0
    0.3967   -0.8458    0.0455 C   0  0  0  0  0  0  0  0  0  0  0  0
    1.4020   -1.1881   -0.8420 O   0  0  0  0  0  0  0  0  0  0  0  0
    2.4024   -2.1335   -0.6314 C   0  0  0  0  0  0  0  0  0  0  0  0
    3.3810   -1.4495    0.5539 C   0  0  1  0  0  0  0  0  0  0  0  0
    4.6571   -1.9749   -0.1488 O   0  0  0  0  0  0  0  0  0  0  0  0
    3.4788    0.0048   -0.2882 C   0  0  0  0  0  0  0  0  0  0  0  0
    4.1388    0.8061    0.7427 N   0  0  0  0  0  0  0  0  0  0  0  0
    5.0057    1.7301    0.0553 C   0  0  0  0  0  0  0  0  0  0  0  0
    4.7419    3.1702    0.3874 C   0  0  0  0  0  0  0  0  0  0  0  0
    6.4576    1.3514    0.1504 C   0  0  0  0  0  0  0  0  0  0  0  0
   -0.8418   -1.4515   -0.1326 C   0  0  0  0  0  0  0  0  0  0  0  0
   -0.8495   -2.8998   -0.3811 C   0  0  0  0  0  0  0  0  0  0  0  0
   -1.4216   -3.3109   -1.7020 C   0  0  0  0  0  0  0  0  0  0  0  0
   -1.2189   -3.6081    0.6040 O   0  0  0  0  0  0  0  0  0  0  0  0
   -2.0199   -0.7403    0.0660 C   0  0  0  0  0  0  0  0  0  0  0  0
  1  2  1  0
  2  3  1  0
  3  4  1  0
  4  5  2  0
  4  6  1  0
  6  7  1  0
  7  8  2  0
  8  9  1  0
  9 10  2  0
 10 11  1  0
 11 12  1  0
 13 12  1  6
 13 14  1  0
 13 15  1  0
 15 16  1  0
 16 17  1  0
 17 18  1  0
 17 19  1  0
 10 20  1  0
 20 21  1  0
 21 22  1  0
 21 23  2  0
 20 24  2  0
 24  7  1  0
M  END
>  <supplier_code>  (1022) 
DB01193

>  <zinc_id>  (1022) 
ZINC000000156792

>  <catalog_short_name>  (1022) 
dbfda

$$$$

     RDKit          3D

 24 24  0  0  0  0  0  0  0  0999 V2000
   -4.9261    1.5113   -0.3264 C   0  0  0  0  0  0  0  0  0  0  0  0
   -5.3051    0.9752   -0.2413 C   0  0  0  0  0  0  0  0  0  0  0  0
   -5.7608   -0.4145   -0.6274 C   0  0  0  0  0  0  0  0  0  0  0  0
   -4.6303   -1.3656   -0.7611 C   0  0  0  0  0  0  0  0  0  0  0  0
   -4.4895   -2.3193    0.0609 O   0  0  0  0  0  0  0  0  0  0  0  0
   -3.5679   -1.2081   -1.6989 N   0  0  0  0  0  0  0  0  0  0  0  0
   -2.1981   -1.3762   -1.3102 C   0  0  0  0  0  0  0  0  0  0  0  0
   -1.2001   -0.8046   -2.0916 C   0  0  0  0  0  0  0  0  0  0  0  0
    0.0422   -0.5089   -1.5404 C   0  0  0  0  0  0  0  0  0  0  0  0
    0.3294   -0.7784   -0.2068 C   0  0  0  0  0  0  0  0  0  0  0  0
    1.3947   -0.1443    0.4424 O   0  0  0  0  0  0  0  0  0  0  0  0
    2.7586   -0.4711    0.1717 C   0  0  0  0  0  0  0  0  0  0  0  0
    3.0994    0.9053   -0.7335 C   0  0  2  0  0  0  0  0  0  0  0  0
    3.1471    0.0745   -2.0374 O   0  0  0  0  0  0  0  0  0  0  0  0
    4.7518    0.7081   -0.4958 C   0  0  0  0  0  0  0  0  0  0  0  0
    4.9057    1.1718    0.8622 N   0  0  0  0  0  0  0  0  0  0  0  0
    5.6079    2.4385    0.9583 C   0  0  0  0  0  0  0  0  0  0  0  0
    4.7505    3.6051    0.5409 C   0  0  0  0  0  0  0  0  0  0  0  0
    6.9407    2.4180    0.2516 C   0  0  0  0  0  0  0  0  0  0  0  0
   -0.7505   -1.0716    0.6199 C   0  0  0  0  0  0  0  0  0  0  0  0
   -0.7851   -0.6281    2.0202 C   0  0  0  0  0  0  0  0  0  0  0  0
   -1.0839   -1.6086    3.0934 C   0  0  0  0  0  0  0  0  0  0  0  0
   -1.1962    0.5593    2.1927 O   0  0  0  0  0  0  0  0  0  0  0  0
   -1.8343   -1.6678   -0.0018 C   0  0  0  0  0  0  0  0  0  0  0  0
  1  2  1  0
  2  3  1  0
  3  4  1  0
  4  5  2  0
  4  6  1  0
  6  7  1  0
  7  8  2  0
  8  9  1  0
  9 10  2  0
 10 11  1  0
 11 12  1  0
 13 12  1  1
 13 14  1  0
 13 15  1  0
 15 16  1  0
 16 17  1  0
 17 18  1  0
 17 19  1  0
 10 20  1  0
 20 21  1  0
 21 22  1  0
 21 23  2  0
 20 24  2  0
 24  7  1  0
M  END
>  <supplier_code>  (1023) 
DB01193

>  <zinc_id>  (1023) 
ZINC000000968255

>  <catalog_short_name>  (1023) 
dbfda

$$$$

     RDKit          3D

 23 24  0  0  0  0  0  0  0  0999 V2000
    0.3429   -3.8203   -0.3913 C   0  0  0  0  0  0  0  0  0  0  0  0
    0.1858   -3.5751   -0.8177 C   0  0  0  0  0  0  0  0  0  0  0  0
   -0.3438   -2.2211   -1.0141 N   0  0  0  0  0  0  0  0  0  0  0  0
   -0.6253   -1.8949    0.5052 C   0  0  1  0  0  0  0  0  0  0  0  0
    0.9670   -1.6284    0.8087 C   0  0  0  0  0  0  0  0  0  0  0  0
    1.5083   -0.6994   -0.0473 N   0  0  0  0  0  0  0  0  0  0  0  0
    2.6963   -0.8015   -0.7308 C   0  0  0  0  0  0  0  0  0  0  0  0
    3.9108   -0.5964    0.1247 C   0  0  0  0  0  0  0  0  0  0  0  0
    5.0994   -0.0878   -0.5370 C   0  0  0  0  0  0  0  0  0  0  0  0
    5.3484    1.1968   -0.7142 O   0  0  0  0  0  0  0  0  0  0  0  0
    4.6891    2.1730   -0.0668 C   0  0  0  0  0  0  0  0  0  0  0  0
    1.2278    0.7609    0.8637 S   0  0  0  0  0  0  0  0  0  0  0  0
    1.7818    0.5724    2.2309 O   0  0  0  0  0  0  0  0  0  0  0  0
    1.6794    1.9780    0.1683 O   0  0  0  0  0  0  0  0  0  0  0  0
   -0.5384    0.6056    0.9523 C   0  0  0  0  0  0  0  0  0  0  0  0
   -1.8033    1.7776    0.9803 S   0  0  0  0  0  0  0  0  0  0  0  0
   -3.0364    0.8318    0.2540 C   0  0  0  0  0  0  0  0  0  0  0  0
   -4.5732    1.4377   -0.3678 S   0  0  0  0  0  0  0  0  0  0  0  0
   -5.6481    0.1096   -0.5039 N   0  0  0  0  0  0  0  0  0  0  0  0
   -5.1247    2.3968    0.6296 O   0  0  0  0  0  0  0  0  0  0  0  0
   -4.3474    2.0644   -1.7086 O   0  0  0  0  0  0  0  0  0  0  0  0
   -2.3371   -0.2145   -0.2263 C   0  0  0  0  0  0  0  0  0  0  0  0
   -1.0594   -0.3651    0.1854 C   0  0  0  0  0  0  0  0  0  0  0  0
  1  2  1  0
  2  3  1  0
  4  3  1  6
  4  5  1  0
  5  6  1  0
  6  7  1  0
  7  8  1  0
  8  9  1  0
  9 10  1  0
 10 11  1  0
  6 12  1  0
 12 13  2  0
 12 14  2  0
 12 15  1  0
 15 16  1  0
 16 17  1  0
 17 18  1  0
 18 19  1  0
 18 20  2  0
 18 21  2  0
 17 22  2  0
 22 23  1  0
 23  4  1  0
 23 15  2  0
M  END
>  <supplier_code>  (1024) 
DB01194

>  <zinc_id>  (1024) 
ZINC000003953037

>  <catalog_short_name>  (1024) 
dbfda

$$$$

     RDKit          3D

 28 29  0  0  0  0  0  0  0  0999 V2000
   -1.7491    0.4475    0.7583 O   0  0  0  0  0  0  0  0  0  0  0  0
   -1.0793   -0.4109    0.2429 C   0  0  0  0  0  0  0  0  0  0  0  0
   -1.7590   -1.6479    0.0227 N   0  0  0  0  0  0  0  0  0  0  0  0
   -2.6418   -2.2123    1.0214 C   0  0  0  0  0  0  0  0  0  0  0  0
   -4.0727   -1.3807    0.8129 C   0  0  1  0  0  0  0  0  0  0  0  0
   -4.2369   -1.9610   -0.7440 C   0  0  0  0  0  0  0  0  0  0  0  0
   -5.4718   -1.1725   -1.1699 C   0  0  0  0  0  0  0  0  0  0  0  0
   -6.3892   -1.1896    0.0479 C   0  0  0  0  0  0  0  0  0  0  0  0
   -6.1714   -2.5484    0.7034 C   0  0  0  0  0  0  0  0  0  0  0  0
   -4.9164   -2.6028    1.4071 N   0  0  0  0  0  0  0  0  0  0  0  0
    0.3295   -0.1981   -0.0201 C   0  0  0  0  0  0  0  0  0  0  0  0
    1.3196   -1.0914    0.3762 C   0  0  0  0  0  0  0  0  0  0  0  0
    2.6521   -0.9151    0.0223 C   0  0  0  0  0  0  0  0  0  0  0  0
    3.4261   -2.0738   -0.0877 O   0  0  0  0  0  0  0  0  0  0  0  0
    4.2793   -2.3457    1.0224 C   0  0  0  0  0  0  0  0  0  0  0  0
    5.6066   -1.6999    0.7227 C   0  0  0  0  0  0  0  0  0  0  0  0
    6.6224   -2.4545    1.2573 F   0  0  0  0  0  0  0  0  0  0  0  0
    5.5773   -0.4195    1.2067 F   0  0  0  0  0  0  0  0  0  0  0  0
    5.7957   -1.6470   -0.6427 F   0  0  0  0  0  0  0  0  0  0  0  0
    2.9547    0.2533   -0.6399 C   0  0  0  0  0  0  0  0  0  0  0  0
    2.0760    1.3234   -0.5199 C   0  0  0  0  0  0  0  0  0  0  0  0
    0.7617    1.1202   -0.1147 C   0  0  0  0  0  0  0  0  0  0  0  0
   -0.1082    2.2014   -0.0366 O   0  0  0  0  0  0  0  0  0  0  0  0
    0.2521    3.4544    0.5118 C   0  0  0  0  0  0  0  0  0  0  0  0
   -0.5677    4.5357   -0.1416 C   0  0  0  0  0  0  0  0  0  0  0  0
   -1.2479    4.0181   -1.2329 F   0  0  0  0  0  0  0  0  0  0  0  0
    0.2630    5.5288   -0.6294 F   0  0  0  0  0  0  0  0  0  0  0  0
   -1.5044    5.0881    0.7040 F   0  0  0  0  0  0  0  0  0  0  0  0
  1  2  2  0
  2  3  1  0
  3  4  1  0
  5  4  1  1
  5  6  1  0
  6  7  1  0
  7  8  1  0
  8  9  1  0
  9 10  1  0
  2 11  1  0
 11 12  2  0
 12 13  1  0
 13 14  1  0
 14 15  1  0
 15 16  1  0
 16 17  1  0
 16 18  1  0
 16 19  1  0
 13 20  2  0
 20 21  1  0
 21 22  2  0
 22 23  1  0
 23 24  1  0
 24 25  1  0
 25 26  1  0
 25 27  1  0
 25 28  1  0
 10  5  1  0
 22 11  1  0
M  END
>  <supplier_code>  (1025) 
DB01195

>  <zinc_id>  (1025) 
ZINC000000896543

>  <catalog_short_name>  (1025) 
dbfda

$$$$

     RDKit          3D

 28 29  0  0  0  0  0  0  0  0999 V2000
   -2.1135   -0.8691   -0.4966 O   0  0  0  0  0  0  0  0  0  0  0  0
   -1.3575    0.0808   -0.3282 C   0  0  0  0  0  0  0  0  0  0  0  0
   -1.7184    0.9719    0.7340 N   0  0  0  0  0  0  0  0  0  0  0  0
   -3.0629    1.0637    1.2559 C   0  0  0  0  0  0  0  0  0  0  0  0
   -3.6276    2.4229    0.5070 C   0  0  2  0  0  0  0  0  0  0  0  0
   -5.1947    1.9284    0.6653 C   0  0  0  0  0  0  0  0  0  0  0  0
   -5.9143    2.9952   -0.1003 C   0  0  0  0  0  0  0  0  0  0  0  0
   -5.2179    3.4886   -1.3112 C   0  0  0  0  0  0  0  0  0  0  0  0
   -4.1107    2.6669   -1.8389 C   0  0  0  0  0  0  0  0  0  0  0  0
   -3.5090    1.7503   -0.9200 N   0  0  0  0  0  0  0  0  0  0  0  0
    0.0727   -0.2474   -0.4075 C   0  0  0  0  0  0  0  0  0  0  0  0
    0.9471    0.8214   -0.5286 C   0  0  0  0  0  0  0  0  0  0  0  0
    2.2919    0.6355   -0.2669 C   0  0  0  0  0  0  0  0  0  0  0  0
    3.2017    1.6826   -0.2256 O   0  0  0  0  0  0  0  0  0  0  0  0
    4.1870    1.7266    0.7814 C   0  0  0  0  0  0  0  0  0  0  0  0
    5.5308    1.5300    0.1273 C   0  0  0  0  0  0  0  0  0  0  0  0
    6.2178    0.5119    0.7805 F   0  0  0  0  0  0  0  0  0  0  0  0
    6.2487    2.6958    0.2337 F   0  0  0  0  0  0  0  0  0  0  0  0
    5.4167    1.1169   -1.1904 F   0  0  0  0  0  0  0  0  0  0  0  0
    2.7056   -0.6005    0.1512 C   0  0  0  0  0  0  0  0  0  0  0  0
    1.8052   -1.5620    0.5287 C   0  0  0  0  0  0  0  0  0  0  0  0
    0.4682   -1.3172    0.3764 C   0  0  0  0  0  0  0  0  0  0  0  0
   -0.4433   -2.0248    1.1642 O   0  0  0  0  0  0  0  0  0  0  0  0
   -0.0791   -3.3215    1.5835 C   0  0  0  0  0  0  0  0  0  0  0  0
   -0.5543   -4.3161    0.5497 C   0  0  0  0  0  0  0  0  0  0  0  0
    0.0413   -4.0788   -0.6827 F   0  0  0  0  0  0  0  0  0  0  0  0
   -0.2995   -5.5953    0.9804 F   0  0  0  0  0  0  0  0  0  0  0  0
   -1.9317   -4.1569    0.4529 F   0  0  0  0  0  0  0  0  0  0  0  0
  1  2  2  0
  2  3  1  0
  3  4  1  0
  5  4  1  1
  5  6  1  0
  6  7  1  0
  7  8  1  0
  8  9  1  0
  9 10  1  0
  2 11  1  0
 11 12  2  0
 12 13  1  0
 13 14  1  0
 14 15  1  0
 15 16  1  0
 16 17  1  0
 16 18  1  0
 16 19  1  0
 13 20  2  0
 20 21  1  0
 21 22  2  0
 22 23  1  0
 23 24  1  0
 24 25  1  0
 25 26  1  0
 25 27  1  0
 25 28  1  0
 10  5  1  0
 22 11  1  0
M  END
>  <supplier_code>  (1026) 
DB01195

>  <zinc_id>  (1026) 
ZINC000003830842

>  <catalog_short_name>  (1026) 
dbfda

$$$$

     RDKit          3D

 29 32  0  0  0  0  0  0  0  0999 V2000
   -4.5261   -0.5297   -1.6648 C   0  0  0  0  0  0  0  0  0  0  0  0
   -4.6646   -0.2406   -0.3060 C   0  0  2  0  0  0  0  0  0  0  0  0
   -4.7041    1.1840    0.2004 C   0  0  0  0  0  0  0  0  0  0  0  0
   -3.4426    1.8217   -0.3876 C   0  0  0  0  0  0  0  0  0  0  0  0
   -2.1719    1.1106    0.3542 C   0  0  2  0  0  0  0  0  0  0  0  0
   -0.9862    1.7446   -0.5051 C   0  0  0  0  0  0  0  0  0  0  0  0
   -0.4644    2.8166    0.2305 C   0  0  0  0  0  0  0  0  0  0  0  0
    0.8533    2.7896    0.7110 C   0  0  0  0  0  0  0  0  0  0  0  0
    1.7748    1.9443    0.1446 C   0  0  0  0  0  0  0  0  0  0  0  0
    3.0035    1.5829    0.7214 O   0  0  0  0  0  0  0  0  0  0  0  0
    3.5833    0.4080    0.2690 C   0  0  0  0  0  0  0  0  0  0  0  0
    3.2895   -0.0352   -0.8821 O   0  0  0  0  0  0  0  0  0  0  0  0
    4.6250   -0.3287    0.8791 N   0  0  0  0  0  0  0  0  0  0  0  0
    5.9631    0.1203    0.4710 C   0  0  0  0  0  0  0  0  0  0  0  0
    6.1731   -0.2683   -0.9907 C   0  0  0  0  0  0  0  0  0  0  0  0
    6.8625    1.1431   -1.8446 Cl  0  0  0  0  0  0  0  0  0  0  0  0
    4.5649   -1.7943    0.8358 C   0  0  0  0  0  0  0  0  0  0  0  0
    3.2221   -2.3421    1.1770 C   0  0  0  0  0  0  0  0  0  0  0  0
    3.2644   -3.0755    2.8078 Cl  0  0  0  0  0  0  0  0  0  0  0  0
    1.2954    1.2608   -0.9681 C   0  0  0  0  0  0  0  0  0  0  0  0
   -0.0445    0.8728   -1.0627 C   0  0  0  0  0  0  0  0  0  0  0  0
   -0.3428   -0.5578   -1.3540 C   0  0  0  0  0  0  0  0  0  0  0  0
   -1.0812   -1.0711   -0.0944 C   0  0  0  0  0  0  0  0  0  0  0  0
   -2.3763   -0.2596   -0.6179 C   0  0  1  0  0  0  0  0  0  0  0  0
   -3.4200   -0.7146    0.6170 C   0  0  2  0  0  0  0  0  0  0  0  0
   -3.7065   -2.2514    0.1852 C   0  0  0  0  0  0  0  0  0  0  0  0
   -4.7911   -2.0853    1.2794 C   0  0  0  0  0  0  0  0  0  0  0  0
   -5.8335   -1.0954    0.4484 C   0  0  2  0  0  0  0  0  0  0  0  0
   -5.9189   -2.1498   -0.6538 O   0  0  0  0  0  0  0  0  0  0  0  0
  2  1  1  6
  2  3  1  0
  3  4  1  0
  5  4  1  6
  5  6  1  0
  6  7  2  0
  7  8  1  0
  8  9  2  0
  9 10  1  0
 10 11  1  0
 11 12  2  0
 11 13  1  0
 13 14  1  0
 14 15  1  0
 15 16  1  0
 13 17  1  0
 17 18  1  0
 18 19  1  0
  9 20  1  0
 20 21  2  0
 21 22  1  0
 22 23  1  0
 24 23  1  1
 24 25  1  0
 25 26  1  6
 26 27  1  0
 27 28  1  0
 28 29  1  6
 25  2  1  0
 28  2  1  0
 24  5  1  0
 21  6  1  0
M  END
>  <supplier_code>  (1027) 
DB01196

>  <zinc_id>  (1027) 
ZINC000004099032

>  <catalog_short_name>  (1027) 
dbfda

$$$$

     RDKit          3D

 14 14  0  0  0  0  0  0  0  0999 V2000
    2.6044   -1.2117   -0.8002 C   0  0  0  0  0  0  0  0  0  0  0  0
    1.7669    0.1867   -0.7561 C   0  0  2  0  0  0  0  0  0  0  0  0
    2.8152    0.9075    0.2721 C   0  0  0  0  0  0  0  0  0  0  0  0
    2.2986    2.6595    0.3796 S   0  0  0  0  0  0  0  0  0  0  0  0
    0.7569   -0.3049    0.4002 C   0  0  0  0  0  0  0  0  0  0  0  0
    1.3409   -0.7946    1.4213 O   0  0  0  0  0  0  0  0  0  0  0  0
   -0.3315   -1.0005   -0.0736 N   0  0  0  0  0  0  0  0  0  0  0  0
   -0.8097   -2.2796    0.4752 C   0  0  0  0  0  0  0  0  0  0  0  0
   -1.6597   -1.7594    1.6319 C   0  0  0  0  0  0  0  0  0  0  0  0
   -2.0672   -0.3672    1.2875 C   0  0  0  0  0  0  0  0  0  0  0  0
   -1.8044   -0.5053   -0.3373 C   0  0  1  0  0  0  0  0  0  0  0  0
   -1.5652    1.0719   -0.5023 C   0  0  0  0  0  0  0  0  0  0  0  0
   -0.5722    1.6518   -0.6116 O   0  0  0  0  0  0  0  0  0  0  0  0
   -2.7729    1.7458   -0.5161 O   0  0  0  0  0  0  0  0  0  0  0  0
  2  1  1  1
  2  3  1  0
  3  4  1  0
  2  5  1  0
  5  6  2  0
  5  7  1  0
  7  8  1  0
  8  9  1  0
  9 10  1  0
 10 11  1  0
 11 12  1  6
 12 13  2  0
 12 14  1  0
 11  7  1  0
M  END
>  <supplier_code>  (1028) 
DB01197

>  <zinc_id>  (1028) 
ZINC000000057001

>  <catalog_short_name>  (1028) 
dbfda

$$$$

     RDKit          3D

 43 49  0  0  0  0  0  0  0  0999 V2000
    7.0856    2.5668    0.9767 C   0  0  0  0  0  0  0  0  0  0  0  0
    6.6588    1.3953    1.5975 C   0  0  0  0  0  0  0  0  0  0  0  0
    6.7748    1.4128    3.0982 C   0  0  0  0  0  0  0  0  0  0  0  0
    5.2020    1.2430    1.2307 C   0  0  0  0  0  0  0  0  0  0  0  0
    5.3423    0.7530   -0.3391 C   0  0  1  0  0  0  0  0  0  0  0  0
    5.7414   -0.7415    0.1174 C   0  0  0  0  0  0  0  0  0  0  0  0
    7.0107   -0.7779    0.1538 O   0  0  0  0  0  0  0  0  0  0  0  0
    5.1187   -1.8400   -0.4054 N   0  0  0  0  0  0  0  0  0  0  0  0
    5.3304   -3.2534   -0.4929 C   0  0  0  0  0  0  0  0  0  0  0  0
    4.1745   -3.6773    0.4038 C   0  0  0  0  0  0  0  0  0  0  0  0
    3.0334   -2.9671   -0.1770 C   0  0  0  0  0  0  0  0  0  0  0  0
    3.6938   -1.7431   -1.0433 C   0  0  1  0  0  0  0  0  0  0  0  0
    3.2091   -0.6448    0.0741 C   0  0  2  0  0  0  0  0  0  0  0  0
    3.5458   -1.0711    1.3095 O   0  0  0  0  0  0  0  0  0  0  0  0
    1.9193   -0.5751   -0.2566 O   0  0  0  0  0  0  0  0  0  0  0  0
    1.6448    0.5681   -0.9739 C   0  0  2  0  0  0  0  0  0  0  0  0
    0.3320    0.9767   -0.6102 N   0  0  0  0  0  0  0  0  0  0  0  0
   -0.5205   -0.1281   -0.2664 C   0  0  0  0  0  0  0  0  0  0  0  0
   -0.2347   -0.7232    0.7545 O   0  0  0  0  0  0  0  0  0  0  0  0
   -2.0235   -0.0353   -0.7939 C   0  0  2  0  0  0  0  0  0  0  0  0
   -2.5119    0.7811    0.5108 C   0  0  0  0  0  0  0  0  0  0  0  0
   -3.6569    0.5458    1.0047 C   0  0  0  0  0  0  0  0  0  0  0  0
   -4.8831    1.3444    0.8991 C   0  0  0  0  0  0  0  0  0  0  0  0
   -4.6674    2.7015    0.6852 C   0  0  0  0  0  0  0  0  0  0  0  0
   -5.7312    3.4315    0.1652 C   0  0  0  0  0  0  0  0  0  0  0  0
   -6.8620    2.7866   -0.3244 C   0  0  0  0  0  0  0  0  0  0  0  0
   -7.0155    1.4116   -0.1892 C   0  0  0  0  0  0  0  0  0  0  0  0
   -7.7551    0.4556   -0.7680 N   0  0  0  0  0  0  0  0  0  0  0  0
   -7.2082   -0.7627   -0.5298 C   0  0  0  0  0  0  0  0  0  0  0  0
   -8.0520   -2.4643   -0.7041 Br  0  0  0  0  0  0  0  0  0  0  0  0
   -6.0456   -0.5627    0.2037 C   0  0  0  0  0  0  0  0  0  0  0  0
   -6.1225    0.7533    0.6516 C   0  0  0  0  0  0  0  0  0  0  0  0
   -4.7638   -1.3330    0.1566 C   0  0  0  0  0  0  0  0  0  0  0  0
   -4.0160   -0.9200    1.5637 C   0  0  1  0  0  0  0  0  0  0  0  0
   -2.6175   -1.5015    1.1389 N   0  0  0  0  0  0  0  0  0  0  0  0
   -2.6556   -2.8072    1.6833 C   0  0  0  0  0  0  0  0  0  0  0  0
   -2.4532   -1.5046   -0.2221 C   0  0  0  0  0  0  0  0  0  0  0  0
    1.8170    0.3840   -2.4692 C   0  0  0  0  0  0  0  0  0  0  0  0
    0.4763    0.1097   -3.1232 C   0  0  0  0  0  0  0  0  0  0  0  0
    2.2633    1.7416   -2.9990 C   0  0  0  0  0  0  0  0  0  0  0  0
    2.7508    1.4616   -0.5414 C   0  0  0  0  0  0  0  0  0  0  0  0
    2.8665    2.7113   -0.7161 O   0  0  0  0  0  0  0  0  0  0  0  0
    3.8047    0.4986   -0.4338 N   0  0  0  0  0  0  0  0  0  0  0  0
  1  2  1  0
  2  3  1  0
  2  4  1  0
  5  4  1  1
  5  6  1  0
  6  7  2  0
  6  8  1  0
  8  9  1  0
  9 10  1  0
 10 11  1  0
 12 11  1  1
 12 13  1  0
 13 14  1  1
 13 15  1  0
 15 16  1  0
 16 17  1  6
 17 18  1  0
 18 19  2  0
 20 18  1  1
 20 21  1  0
 21 22  2  0
 22 23  1  0
 23 24  2  0
 24 25  1  0
 25 26  2  0
 26 27  1  0
 27 28  1  0
 28 29  1  0
 29 30  1  0
 29 31  2  0
 31 32  1  0
 31 33  1  0
 34 33  1  6
 34 35  1  0
 35 36  1  0
 35 37  1  0
 16 38  1  0
 38 39  1  0
 38 40  1  0
 16 41  1  0
 41 42  2  0
 41 43  1  0
 43  5  1  0
 12  8  1  0
 43 13  1  0
 37 20  1  0
 34 22  1  0
 32 23  1  0
 32 27  2  0
M  END
>  <supplier_code>  (1029) 
DB01200

>  <zinc_id>  (1029) 
ZINC000053683151

>  <catalog_short_name>  (1029) 
dbfda

$$$$

     RDKit          3D

 63 68  0  0  0  0  0  0  0  0999 V2000
   -5.7404    2.3381   -3.8967 C   0  0  0  0  0  0  0  0  0  0  0  0
   -5.0503    1.9016   -3.3640 O   0  0  0  0  0  0  0  0  0  0  0  0
   -5.7834    0.7213   -2.6969 C   0  0  1  0  0  0  0  0  0  0  0  0
   -4.3825   -0.1301   -2.5873 C   0  0  0  0  0  0  0  0  0  0  0  0
   -3.8194   -0.3371   -3.7521 C   0  0  0  0  0  0  0  0  0  0  0  0
   -2.4947   -0.0270   -4.0756 O   0  0  0  0  0  0  0  0  0  0  0  0
   -1.5431    0.3843   -3.1329 C   0  0  1  0  0  0  0  0  0  0  0  0
   -1.4135    1.8612   -3.0109 C   0  0  0  0  0  0  0  0  0  0  0  0
   -1.9253   -0.2812   -1.9432 O   0  0  0  0  0  0  0  0  0  0  0  0
   -1.0363   -1.3547   -1.8449 C   0  0  0  0  0  0  0  0  0  0  0  0
    0.1992   -0.8836   -2.3147 C   0  0  0  0  0  0  0  0  0  0  0  0
    1.3690   -1.3253   -1.7667 C   0  0  0  0  0  0  0  0  0  0  0  0
    2.5919   -0.6657   -1.6496 C   0  0  0  0  0  0  0  0  0  0  0  0
    3.5529   -0.6386   -2.6884 O   0  0  0  0  0  0  0  0  0  0  0  0
    3.2162   -0.5726   -0.3879 C   0  0  0  0  0  0  0  0  0  0  0  0
    4.6741   -0.2940   -0.3085 C   0  0  0  0  0  0  0  0  0  0  0  0
    5.1702    0.8739   -0.4605 N   0  0  0  0  0  0  0  0  0  0  0  0
    6.4973    0.9721   -0.9233 N   0  0  0  0  0  0  0  0  0  0  0  0
    7.2019    2.1906   -0.5604 C   0  0  0  0  0  0  0  0  0  0  0  0
    7.9839    1.8189    0.6994 C   0  0  0  0  0  0  0  0  0  0  0  0
    9.0181    0.8898    0.2502 N   0  0  0  0  0  0  0  0  0  0  0  0
    9.8627    0.5109    1.3822 C   0  0  0  0  0  0  0  0  0  0  0  0
    9.0194    0.1600    2.6020 C   0  0  0  0  0  0  0  0  0  0  0  0
   10.0772    0.1544    3.6955 C   0  0  0  0  0  0  0  0  0  0  0  0
   11.1376    1.1313    3.2406 C   0  0  0  0  0  0  0  0  0  0  0  0
   10.6287    1.7109    1.9240 C   0  0  0  0  0  0  0  0  0  0  0  0
    8.5022   -0.3216   -0.3040 C   0  0  0  0  0  0  0  0  0  0  0  0
    7.3079   -0.1996   -1.1743 C   0  0  0  0  0  0  0  0  0  0  0  0
    2.4947   -1.0412    0.7254 C   0  0  0  0  0  0  0  0  0  0  0  0
    1.8000   -2.2251    0.4572 C   0  0  0  0  0  0  0  0  0  0  0  0
    1.9324   -3.4586    1.1048 O   0  0  0  0  0  0  0  0  0  0  0  0
    1.1694   -2.3152   -0.7867 C   0  0  0  0  0  0  0  0  0  0  0  0
    0.0492   -3.1412   -0.8918 C   0  0  0  0  0  0  0  0  0  0  0  0
    0.0610   -4.3519   -0.2330 O   0  0  0  0  0  0  0  0  0  0  0  0
   -1.1737   -2.6608   -1.3620 C   0  0  0  0  0  0  0  0  0  0  0  0
   -2.4773   -3.2017   -0.9343 C   0  0  0  0  0  0  0  0  0  0  0  0
    1.9654   -0.2515    1.7511 N   0  0  0  0  0  0  0  0  0  0  0  0
    1.8067    1.0361    2.1485 C   0  0  0  0  0  0  0  0  0  0  0  0
    2.7240    1.8684    2.4740 O   0  0  0  0  0  0  0  0  0  0  0  0
    0.4452    1.4745    2.5276 C   0  0  0  0  0  0  0  0  0  0  0  0
    0.1033    2.9033    2.1981 C   0  0  0  0  0  0  0  0  0  0  0  0
   -0.1688    1.0385    3.6238 C   0  0  0  0  0  0  0  0  0  0  0  0
   -0.8527   -0.2005    3.8179 C   0  0  0  0  0  0  0  0  0  0  0  0
   -1.9157   -0.1324    4.6252 C   0  0  0  0  0  0  0  0  0  0  0  0
   -2.8792    1.0227    4.0564 C   0  0  2  0  0  0  0  0  0  0  0  0
   -3.8930    0.8786    5.3338 C   0  0  0  0  0  0  0  0  0  0  0  0
   -3.7717   -0.1348    3.1362 C   0  0  2  0  0  0  0  0  0  0  0  0
   -2.8147   -0.0503    1.9590 O   0  0  0  0  0  0  0  0  0  0  0  0
   -4.8555    1.0512    2.5388 C   0  0  1  0  0  0  0  0  0  0  0  0
   -3.7531    2.0980    2.0096 C   0  0  0  0  0  0  0  0  0  0  0  0
   -5.0408    0.3246    1.0012 C   0  0  1  0  0  0  0  0  0  0  0  0
   -5.3187   -1.0472    1.6033 O   0  0  0  0  0  0  0  0  0  0  0  0
   -6.7125    0.6822    1.0427 C   0  0  1  0  0  0  0  0  0  0  0  0
   -6.4617    2.2719    1.0429 C   0  0  0  0  0  0  0  0  0  0  0  0
   -6.9830    0.5248   -0.6370 C   0  0  2  0  0  0  0  0  0  0  0  0
   -6.2455   -0.8335   -0.7102 O   0  0  0  0  0  0  0  0  0  0  0  0
   -7.1302   -1.8272   -1.0891 C   0  0  0  0  0  0  0  0  0  0  0  0
   -7.1053   -3.2284   -0.5732 C   0  0  0  0  0  0  0  0  0  0  0  0
   -7.7961   -1.6308   -2.1406 O   0  0  0  0  0  0  0  0  0  0  0  0
   -5.6028    1.3949   -1.1214 C   0  0  2  0  0  0  0  0  0  0  0  0
   -6.4541    2.6886   -1.5396 C   0  0  0  0  0  0  0  0  0  0  0  0
   -0.1571   -0.1075   -3.4459 C   0  0  0  0  0  0  0  0  0  0  0  0
    0.1903   -0.0066   -4.6640 O   0  0  0  0  0  0  0  0  0  0  0  0
  1  2  1  0
  3  2  1  6
  3  4  1  0
  4  5  2  0
  5  6  1  0
  6  7  1  0
  7  8  1  1
  7  9  1  0
  9 10  1  0
 10 11  2  0
 11 12  1  0
 12 13  2  0
 13 14  1  0
 13 15  1  0
 15 16  1  0
 16 17  2  0
 17 18  1  0
 18 19  1  0
 19 20  1  0
 20 21  1  0
 21 22  1  0
 22 23  1  0
 23 24  1  0
 24 25  1  0
 25 26  1  0
 21 27  1  0
 27 28  1  0
 15 29  2  0
 29 30  1  0
 30 31  1  0
 30 32  2  0
 32 33  1  0
 33 34  1  0
 33 35  2  0
 35 36  1  0
 29 37  1  0
 37 38  1  0
 38 39  2  0
 38 40  1  0
 40 41  1  0
 40 42  2  0
 42 43  1  0
 43 44  2  0
 44 45  1  0
 45 46  1  1
 45 47  1  0
 47 48  1  6
 47 49  1  0
 49 50  1  6
 49 51  1  0
 51 52  1  1
 51 53  1  0
 53 54  1  6
 53 55  1  0
 55 56  1  6
 56 57  1  0
 57 58  1  0
 57 59  2  0
 55 60  1  0
 60 61  1  6
 11 62  1  0
 62 63  2  0
 60  3  1  0
 62  7  1  0
 35 10  1  0
 32 12  1  0
 28 18  1  0
 26 22  1  0
M  END
>  <supplier_code>  (1030) 
DB01201

>  <zinc_id>  (1030) 
ZINC000169621228

>  <catalog_short_name>  (1030) 
dbfda

$$$$

     RDKit          3D

 12 12  0  0  0  0  0  0  0  0999 V2000
   -1.1466   -1.5580   -1.0015 C   0  0  0  0  0  0  0  0  0  0  0  0
   -1.5112   -1.0493   -1.1299 C   0  0  0  0  0  0  0  0  0  0  0  0
   -0.8831    0.4496   -0.8567 C   0  0  1  0  0  0  0  0  0  0  0  0
   -1.5368    0.6327    0.6019 C   0  0  0  0  0  0  0  0  0  0  0  0
   -2.0238    1.9690    0.7720 N   0  0  0  0  0  0  0  0  0  0  0  0
   -2.0863   -0.2865    1.1714 O   0  0  0  0  0  0  0  0  0  0  0  0
    0.4614   -0.1231   -0.2783 N   0  0  0  0  0  0  0  0  0  0  0  0
    0.5466   -1.1686    0.6783 C   0  0  0  0  0  0  0  0  0  0  0  0
    1.9567   -1.0907    1.1380 C   0  0  0  0  0  0  0  0  0  0  0  0
    2.7157   -0.1719    0.2286 C   0  0  0  0  0  0  0  0  0  0  0  0
    1.6405    0.6720   -0.3309 C   0  0  0  0  0  0  0  0  0  0  0  0
    1.8669    1.7249   -0.9929 O   0  0  0  0  0  0  0  0  0  0  0  0
  1  2  1  0
  3  2  1  6
  3  4  1  0
  4  5  1  0
  4  6  2  0
  3  7  1  0
  7  8  1  0
  8  9  1  0
  9 10  1  0
 10 11  1  0
 11 12  2  0
 11  7  1  0
M  END
>  <supplier_code>  (1031) 
DB01202

>  <zinc_id>  (1031) 
ZINC000001547851

>  <catalog_short_name>  (1031) 
dbfda

$$$$

     RDKit          3D

 12 12  0  0  0  0  0  0  0  0999 V2000
    1.1160    2.7016   -0.7794 C   0  0  0  0  0  0  0  0  0  0  0  0
    0.9972    1.2980   -1.0063 C   0  0  0  0  0  0  0  0  0  0  0  0
    0.6727    0.6358    0.4634 C   0  0  2  0  0  0  0  0  0  0  0  0
    1.8919   -0.4087    0.3475 C   0  0  0  0  0  0  0  0  0  0  0  0
    2.4951   -0.6939    1.5896 N   0  0  0  0  0  0  0  0  0  0  0  0
    1.9463   -1.1563   -0.6276 O   0  0  0  0  0  0  0  0  0  0  0  0
   -0.3781   -0.3640   -0.1558 N   0  0  0  0  0  0  0  0  0  0  0  0
   -0.6206   -1.5719    0.6318 C   0  0  0  0  0  0  0  0  0  0  0  0
   -1.9562   -1.1812    1.2547 C   0  0  0  0  0  0  0  0  0  0  0  0
   -2.6883   -0.7076    0.0021 C   0  0  0  0  0  0  0  0  0  0  0  0
   -1.6263    0.1506   -0.6135 C   0  0  0  0  0  0  0  0  0  0  0  0
   -1.8497    1.2975   -1.1063 O   0  0  0  0  0  0  0  0  0  0  0  0
  1  2  1  0
  3  2  1  6
  3  4  1  0
  4  5  1  0
  4  6  2  0
  3  7  1  0
  7  8  1  0
  8  9  1  0
  9 10  1  0
 10 11  1  0
 11 12  2  0
 11  7  1  0
M  END
>  <supplier_code>  (1032) 
DB01202

>  <zinc_id>  (1032) 
ZINC000003830990

>  <catalog_short_name>  (1032) 
dbfda

$$$$

     RDKit          3D

 22 23  0  0  0  0  0  0  0  0999 V2000
    4.9056    0.8980    0.2311 C   0  0  0  0  0  0  0  0  0  0  0  0
    4.7082    0.6726    0.3989 C   0  0  0  0  0  0  0  0  0  0  0  0
    4.1162    1.6318    1.3505 C   0  0  0  0  0  0  0  0  0  0  0  0
    5.7778   -0.2160    0.9342 C   0  0  0  0  0  0  0  0  0  0  0  0
    3.8729    0.1380   -0.6024 N   0  0  0  0  0  0  0  0  0  0  0  0
    2.9268   -0.8549   -0.1820 C   0  0  0  0  0  0  0  0  0  0  0  0
    1.5544   -0.5014   -1.0547 C   0  0  1  0  0  0  0  0  0  0  0  0
    2.2713   -0.7745   -2.3793 O   0  0  0  0  0  0  0  0  0  0  0  0
    1.0181   -2.0732   -0.9618 C   0  0  0  0  0  0  0  0  0  0  0  0
   -0.3730   -1.9373   -0.6721 O   0  0  0  0  0  0  0  0  0  0  0  0
   -0.7901   -0.9177    0.1716 C   0  0  0  0  0  0  0  0  0  0  0  0
   -0.0210   -0.4361    1.2216 C   0  0  0  0  0  0  0  0  0  0  0  0
   -0.3472    0.7785    1.8163 C   0  0  0  0  0  0  0  0  0  0  0  0
   -1.2819    1.6388    1.2468 C   0  0  0  0  0  0  0  0  0  0  0  0
   -2.1060    1.0985    0.2897 C   0  0  0  0  0  0  0  0  0  0  0  0
   -1.7151   -0.0526   -0.4030 C   0  0  0  0  0  0  0  0  0  0  0  0
   -2.9578   -0.6655   -0.9932 C   0  0  0  0  0  0  0  0  0  0  0  0
   -3.8964   -0.5189    0.3592 C   0  0  2  0  0  0  0  0  0  0  0  0
   -5.0341   -1.3193   -0.2453 O   0  0  0  0  0  0  0  0  0  0  0  0
   -4.6080    1.0112   -0.0874 C   0  0  2  0  0  0  0  0  0  0  0  0
   -4.8357    0.6343   -1.5429 O   0  0  0  0  0  0  0  0  0  0  0  0
   -3.1850    1.7656   -0.4311 C   0  0  0  0  0  0  0  0  0  0  0  0
  1  2  1  0
  2  3  1  0
  2  4  1  0
  2  5  1  0
  5  6  1  0
  7  6  1  1
  7  8  1  0
  7  9  1  0
  9 10  1  0
 10 11  1  0
 11 12  2  0
 12 13  1  0
 13 14  2  0
 14 15  1  0
 15 16  2  0
 16 17  1  0
 17 18  1  0
 18 19  1  6
 18 20  1  0
 20 21  1  6
 20 22  1  0
 16 11  1  0
 22 15  1  0
M  END
>  <supplier_code>  (1033) 
DB01203

>  <zinc_id>  (1033) 
ZINC000003812974

>  <catalog_short_name>  (1033) 
dbfda

$$$$

     RDKit          3D

 22 23  0  0  0  0  0  0  0  0999 V2000
    5.4802    1.0154    0.1975 C   0  0  0  0  0  0  0  0  0  0  0  0
    4.6517    1.3907   -0.0124 C   0  0  0  0  0  0  0  0  0  0  0  0
    4.8228    2.8197   -0.4940 C   0  0  0  0  0  0  0  0  0  0  0  0
    3.8937    1.4684    1.2820 C   0  0  0  0  0  0  0  0  0  0  0  0
    3.9158    0.6914   -1.0363 N   0  0  0  0  0  0  0  0  0  0  0  0
    3.5357   -0.6520   -0.6373 C   0  0  0  0  0  0  0  0  0  0  0  0
    2.1056   -0.3014    0.1653 C   0  0  2  0  0  0  0  0  0  0  0  0
    2.4267   -1.3398    1.2605 O   0  0  0  0  0  0  0  0  0  0  0  0
    1.2715   -1.4474   -0.7306 C   0  0  0  0  0  0  0  0  0  0  0  0
    0.1624   -1.7165    0.0980 O   0  0  0  0  0  0  0  0  0  0  0  0
   -1.0911   -1.6728   -0.4661 C   0  0  0  0  0  0  0  0  0  0  0  0
   -1.4103   -2.2375   -1.6821 C   0  0  0  0  0  0  0  0  0  0  0  0
   -2.7457   -2.2640   -2.0675 C   0  0  0  0  0  0  0  0  0  0  0  0
   -3.7170   -1.5390   -1.4176 C   0  0  0  0  0  0  0  0  0  0  0  0
   -3.3707   -0.9102   -0.2397 C   0  0  0  0  0  0  0  0  0  0  0  0
   -2.0084   -0.7714    0.0554 C   0  0  0  0  0  0  0  0  0  0  0  0
   -1.8686   -0.0753    1.3327 C   0  0  0  0  0  0  0  0  0  0  0  0
   -2.0074    1.5514    1.0517 C   0  0  2  0  0  0  0  0  0  0  0  0
   -3.2372    1.6605    1.9547 O   0  0  0  0  0  0  0  0  0  0  0  0
   -2.9454    1.3818   -0.4281 C   0  0  2  0  0  0  0  0  0  0  0  0
   -3.8022    2.6068   -0.1229 O   0  0  0  0  0  0  0  0  0  0  0  0
   -4.0618    0.3413    0.2310 C   0  0  0  0  0  0  0  0  0  0  0  0
  1  2  1  0
  2  3  1  0
  2  4  1  0
  2  5  1  0
  5  6  1  0
  7  6  1  6
  7  8  1  0
  7  9  1  0
  9 10  1  0
 10 11  1  0
 11 12  2  0
 12 13  1  0
 13 14  2  0
 14 15  1  0
 15 16  2  0
 16 17  1  0
 17 18  1  0
 18 19  1  1
 18 20  1  0
 20 21  1  1
 20 22  1  0
 16 11  1  0
 22 15  1  0
M  END
>  <supplier_code>  (1034) 
DB01203

>  <zinc_id>  (1034) 
ZINC000003831165

>  <catalog_short_name>  (1034) 
dbfda

$$$$

     RDKit          3D

 32 34  0  0  0  0  0  0  0  0999 V2000
   -2.7150   -1.0430    1.2883 O   0  0  0  0  0  0  0  0  0  0  0  0
   -1.5531   -1.2907    0.8608 C   0  0  0  0  0  0  0  0  0  0  0  0
   -1.0002   -2.6477    0.9129 C   0  0  0  0  0  0  0  0  0  0  0  0
   -1.8454   -3.7328    1.1059 C   0  0  0  0  0  0  0  0  0  0  0  0
   -3.1697   -3.4829    1.4037 O   0  0  0  0  0  0  0  0  0  0  0  0
   -1.2447   -4.9613    1.1798 C   0  0  0  0  0  0  0  0  0  0  0  0
    0.1097   -5.1591    1.2780 C   0  0  0  0  0  0  0  0  0  0  0  0
    0.9333   -4.0495    1.1320 C   0  0  0  0  0  0  0  0  0  0  0  0
    2.2800   -4.0804    1.5108 O   0  0  0  0  0  0  0  0  0  0  0  0
    0.3785   -2.7799    1.0235 C   0  0  0  0  0  0  0  0  0  0  0  0
    1.2584   -1.7335    0.4865 C   0  0  0  0  0  0  0  0  0  0  0  0
    2.3953   -2.0333    0.0137 O   0  0  0  0  0  0  0  0  0  0  0  0
    0.6407   -0.4977   -0.0120 C   0  0  0  0  0  0  0  0  0  0  0  0
    1.3497    0.3145   -0.8854 C   0  0  0  0  0  0  0  0  0  0  0  0
    2.3154   -0.2930   -1.7394 N   0  0  0  0  0  0  0  0  0  0  0  0
    3.4302    0.4010   -2.3230 C   0  0  0  0  0  0  0  0  0  0  0  0
    4.2541    1.1644   -1.3213 C   0  0  0  0  0  0  0  0  0  0  0  0
    5.2500    1.9137   -2.0854 N   0  0  0  0  0  0  0  0  0  0  0  0
    5.1869    3.3072   -1.6546 C   0  0  0  0  0  0  0  0  0  0  0  0
    5.1672    3.2704   -0.1314 C   0  0  0  0  0  0  0  0  0  0  0  0
    6.2350    4.0460    0.3163 O   0  0  0  0  0  0  0  0  0  0  0  0
    0.7138    1.4615   -1.3143 C   0  0  0  0  0  0  0  0  0  0  0  0
   -0.5820    1.7879   -0.9333 C   0  0  0  0  0  0  0  0  0  0  0  0
   -1.3110    0.8723   -0.2028 C   0  0  0  0  0  0  0  0  0  0  0  0
   -2.7188    1.0781   -0.0445 N   0  0  0  0  0  0  0  0  0  0  0  0
   -3.6714    0.8207   -1.0940 C   0  0  0  0  0  0  0  0  0  0  0  0
   -4.3255    2.0650   -1.6281 C   0  0  0  0  0  0  0  0  0  0  0  0
   -4.0436    3.2317   -0.8333 N   0  0  0  0  0  0  0  0  0  0  0  0
   -4.7632    3.1457    0.4349 C   0  0  0  0  0  0  0  0  0  0  0  0
   -4.6969    4.5421    1.0382 C   0  0  0  0  0  0  0  0  0  0  0  0
   -3.5843    4.5961    1.8708 O   0  0  0  0  0  0  0  0  0  0  0  0
   -0.6732   -0.2336    0.3465 C   0  0  0  0  0  0  0  0  0  0  0  0
  1  2  2  0
  2  3  1  0
  3  4  2  0
  4  5  1  0
  4  6  1  0
  6  7  2  0
  7  8  1  0
  8  9  1  0
  8 10  2  0
 10 11  1  0
 11 12  2  0
 11 13  1  0
 13 14  2  0
 14 15  1  0
 15 16  1  0
 16 17  1  0
 17 18  1  0
 18 19  1  0
 19 20  1  0
 20 21  1  0
 14 22  1  0
 22 23  2  0
 23 24  1  0
 24 25  1  0
 25 26  1  0
 26 27  1  0
 27 28  1  0
 28 29  1  0
 29 30  1  0
 30 31  1  0
 24 32  2  0
 32  2  1  0
 10  3  1  0
 32 13  1  0
M  END
>  <supplier_code>  (1035) 
DB01204

>  <zinc_id>  (1035) 
ZINC000003794794

>  <catalog_short_name>  (1035) 
dbfda

$$$$

     RDKit          3D

 22 24  0  0  0  0  0  0  0  0999 V2000
    6.2018   -0.9544    1.6513 C   0  0  0  0  0  0  0  0  0  0  0  0
    5.4692   -0.0031    0.7406 C   0  0  0  0  0  0  0  0  0  0  0  0
    4.0949   -0.3540    0.6625 O   0  0  0  0  0  0  0  0  0  0  0  0
    3.2649    0.0803   -0.3636 C   0  0  0  0  0  0  0  0  0  0  0  0
    3.8180    0.4674   -1.4363 O   0  0  0  0  0  0  0  0  0  0  0  0
    1.9244    0.6258   -0.1187 C   0  0  0  0  0  0  0  0  0  0  0  0
    1.6932    1.9282    0.1473 N   0  0  0  0  0  0  0  0  0  0  0  0
    0.5085    2.0254    0.7950 C   0  0  0  0  0  0  0  0  0  0  0  0
   -0.1250    0.8429    0.6425 N   0  0  0  0  0  0  0  0  0  0  0  0
    0.7496   -0.0510    0.1204 C   0  0  0  0  0  0  0  0  0  0  0  0
    0.6967   -1.5211    0.2194 C   0  0  0  0  0  0  0  0  0  0  0  0
   -0.5237   -2.0758   -0.3338 N   0  0  0  0  0  0  0  0  0  0  0  0
   -0.4163   -3.2182   -1.2339 C   0  0  0  0  0  0  0  0  0  0  0  0
   -1.8380   -1.7037    0.0967 C   0  0  0  0  0  0  0  0  0  0  0  0
   -2.7401   -2.5225   -0.1621 O   0  0  0  0  0  0  0  0  0  0  0  0
   -2.3490   -0.3806    0.4764 C   0  0  0  0  0  0  0  0  0  0  0  0
   -3.6981   -0.2177    0.1854 C   0  0  0  0  0  0  0  0  0  0  0  0
   -4.2408    1.0285   -0.1022 C   0  0  0  0  0  0  0  0  0  0  0  0
   -5.2911    1.1624   -0.9636 F   0  0  0  0  0  0  0  0  0  0  0  0
   -3.4555    2.1432    0.1617 C   0  0  0  0  0  0  0  0  0  0  0  0
   -2.1910    1.9656    0.7055 C   0  0  0  0  0  0  0  0  0  0  0  0
   -1.5525    0.7324    0.7046 C   0  0  0  0  0  0  0  0  0  0  0  0
  1  2  1  0
  2  3  1  0
  3  4  1  0
  4  5  2  0
  4  6  1  0
  6  7  1  0
  7  8  2  0
  8  9  1  0
  9 10  1  0
 10 11  1  0
 11 12  1  0
 12 13  1  0
 12 14  1  0
 14 15  2  0
 14 16  1  0
 16 17  2  0
 17 18  1  0
 18 19  1  0
 18 20  2  0
 20 21  1  0
 21 22  2  0
 10  6  2  0
 22 16  1  0
 22  9  1  0
M  END
>  <supplier_code>  (1036) 
DB01205

>  <zinc_id>  (1036) 
ZINC000000001464

>  <catalog_short_name>  (1036) 
dbfda

$$$$

     RDKit          3D

 15 15  0  0  0  0  0  0  0  0999 V2000
    2.7398   -2.7852    0.3596 O   0  0  0  0  0  0  0  0  0  0  0  0
    2.5352   -1.8455    1.1639 N   0  0  0  0  0  0  0  0  0  0  0  0
    1.8609   -0.7204    0.6500 N   0  0  0  0  0  0  0  0  0  0  0  0
    2.6720    0.1590   -0.1887 C   0  0  0  0  0  0  0  0  0  0  0  0
    2.5150    1.5897    0.3130 C   0  0  0  0  0  0  0  0  0  0  0  0
    4.1628    2.2252    0.5622 Cl  0  0  0  0  0  0  0  0  0  0  0  0
    0.5098   -0.9386    0.2367 C   0  0  0  0  0  0  0  0  0  0  0  0
    0.2942   -1.9040   -0.5428 O   0  0  0  0  0  0  0  0  0  0  0  0
   -0.5392   -0.0202    0.4655 N   0  0  0  0  0  0  0  0  0  0  0  0
   -1.5330    0.2270   -0.5371 C   0  0  0  0  0  0  0  0  0  0  0  0
   -1.8516    1.6695   -0.7550 C   0  0  0  0  0  0  0  0  0  0  0  0
   -3.2088    2.0847   -0.2761 C   0  0  0  0  0  0  0  0  0  0  0  0
   -3.6053    1.1721    0.8529 C   0  0  0  0  0  0  0  0  0  0  0  0
   -3.8490   -0.2223    0.3424 C   0  0  0  0  0  0  0  0  0  0  0  0
   -2.7028   -0.6909   -0.5001 C   0  0  0  0  0  0  0  0  0  0  0  0
  1  2  2  0
  2  3  1  0
  3  4  1  0
  4  5  1  0
  5  6  1  0
  3  7  1  0
  7  8  2  0
  7  9  1  0
  9 10  1  0
 10 11  1  0
 11 12  1  0
 12 13  1  0
 13 14  1  0
 14 15  1  0
 15 10  1  0
M  END
>  <supplier_code>  (1037) 
DB01206

>  <zinc_id>  (1037) 
ZINC000003831006

>  <catalog_short_name>  (1037) 
dbfda

$$$$

     RDKit          3D

 21 22  0  0  0  0  0  0  0  0999 V2000
    5.0963    0.6365   -0.2447 C   0  0  0  0  0  0  0  0  0  0  0  0
    5.0056    0.5776   -0.4252 C   0  0  0  0  0  0  0  0  0  0  0  0
    5.7996   -0.5168   -1.0769 C   0  0  0  0  0  0  0  0  0  0  0  0
    5.0216    1.8665   -1.1924 C   0  0  0  0  0  0  0  0  0  0  0  0
    3.6490    0.1596   -0.2033 N   0  0  0  0  0  0  0  0  0  0  0  0
    3.5292   -1.0242    0.6217 C   0  0  0  0  0  0  0  0  0  0  0  0
    2.0448   -0.8062    1.3151 C   0  0  2  0  0  0  0  0  0  0  0  0
    1.7866   -2.3039    1.3829 O   0  0  0  0  0  0  0  0  0  0  0  0
    1.3018   -0.6802   -0.1544 C   0  0  0  0  0  0  0  0  0  0  0  0
    0.1891    0.1275    0.1777 O   0  0  0  0  0  0  0  0  0  0  0  0
   -0.9560    0.0274   -0.6094 C   0  0  0  0  0  0  0  0  0  0  0  0
   -0.8767   -0.1848   -1.9792 C   0  0  0  0  0  0  0  0  0  0  0  0
   -2.0028   -0.6940   -2.5954 C   0  0  0  0  0  0  0  0  0  0  0  0
   -3.1694   -0.8806   -1.8638 C   0  0  0  0  0  0  0  0  0  0  0  0
   -3.3186   -0.3225   -0.6151 C   0  0  0  0  0  0  0  0  0  0  0  0
   -2.1913    0.2731   -0.0739 C   0  0  0  0  0  0  0  0  0  0  0  0
   -2.3166    1.1665    1.1164 C   0  0  0  0  0  0  0  0  0  0  0  0
   -3.5649    2.0020    0.8576 C   0  0  0  0  0  0  0  0  0  0  0  0
   -4.7605    1.0669    0.9665 C   0  0  0  0  0  0  0  0  0  0  0  0
   -4.6194   -0.0007   -0.0433 C   0  0  0  0  0  0  0  0  0  0  0  0
   -5.6473   -0.4898   -0.5556 O   0  0  0  0  0  0  0  0  0  0  0  0
  1  2  1  0
  2  3  1  0
  2  4  1  0
  2  5  1  0
  5  6  1  0
  7  6  1  6
  7  8  1  0
  7  9  1  0
  9 10  1  0
 10 11  1  0
 11 12  2  0
 12 13  1  0
 13 14  2  0
 14 15  1  0
 15 16  2  0
 16 17  1  0
 17 18  1  0
 18 19  1  0
 19 20  1  0
 20 21  2  0
 16 11  1  0
 20 15  1  0
M  END
>  <supplier_code>  (1038) 
DB01210

>  <zinc_id>  (1038) 
ZINC000003830339

>  <catalog_short_name>  (1038) 
dbfda

$$$$

     RDKit          3D

 52 54  0  0  0  0  0  0  0  0999 V2000
   -1.3290    4.4669   -1.8284 C   0  0  0  0  0  0  0  0  0  0  0  0
   -1.2673    4.0119   -1.3992 C   0  0  0  0  0  0  0  0  0  0  0  0
   -2.1717    3.6371   -0.0721 C   0  0  1  0  0  0  0  0  0  0  0  0
   -1.1040    2.7241    0.5479 O   0  0  0  0  0  0  0  0  0  0  0  0
   -1.7820    1.5106    0.8385 C   0  0  0  0  0  0  0  0  0  0  0  0
   -1.1748    1.0070    1.8367 O   0  0  0  0  0  0  0  0  0  0  0  0
   -1.5444    0.8239   -0.5882 C   0  0  2  0  0  0  0  0  0  0  0  0
   -3.1430    0.7781   -0.8574 C   0  0  0  0  0  0  0  0  0  0  0  0
   -1.3135   -0.7686   -0.0072 C   0  0  1  0  0  0  0  0  0  0  0  0
   -2.1896   -1.3239   -1.0684 O   0  0  0  0  0  0  0  0  0  0  0  0
   -2.8272   -2.5881   -0.5208 C   0  0  1  0  0  0  0  0  0  0  0  0
   -3.7766   -1.7920    0.5916 C   0  0  0  0  0  0  0  0  0  0  0  0
   -5.1494   -2.3138    0.3852 C   0  0  1  0  0  0  0  0  0  0  0  0
   -5.8902   -2.5024    1.6887 C   0  0  0  0  0  0  0  0  0  0  0  0
   -5.9004   -1.7066   -0.5608 O   0  0  0  0  0  0  0  0  0  0  0  0
   -7.1404   -1.2632   -0.1124 C   0  0  0  0  0  0  0  0  0  0  0  0
   -4.9832   -3.8920    0.0035 C   0  0  1  0  0  0  0  0  0  0  0  0
   -6.4522   -4.0446   -0.3266 O   0  0  0  0  0  0  0  0  0  0  0  0
   -4.6385   -3.6866   -1.6718 C   0  0  2  0  0  0  0  0  0  0  0  0
   -3.2981   -4.6273   -1.5498 C   0  0  0  0  0  0  0  0  0  0  0  0
   -3.8888   -2.4019   -1.5927 O   0  0  0  0  0  0  0  0  0  0  0  0
   -0.0142   -1.0224   -1.0577 C   0  0  2  0  0  0  0  0  0  0  0  0
   -0.1187   -2.6081   -0.7793 C   0  0  0  0  0  0  0  0  0  0  0  0
    1.3041   -0.8691   -0.0009 C   0  0  1  0  0  0  0  0  0  0  0  0
    2.1093   -1.6847   -0.9780 O   0  0  0  0  0  0  0  0  0  0  0  0
    2.6268   -2.9271   -0.2798 C   0  0  2  0  0  0  0  0  0  0  0  0
    2.8727   -2.2010    0.9906 O   0  0  0  0  0  0  0  0  0  0  0  0
    3.7325   -3.0838    1.8675 C   0  0  2  0  0  0  0  0  0  0  0  0
    5.0007   -2.0097    1.6674 C   0  0  0  0  0  0  0  0  0  0  0  0
    4.1911   -4.2608    0.8734 C   0  0  0  0  0  0  0  0  0  0  0  0
    4.9190   -4.0235   -0.4977 C   0  0  2  0  0  0  0  0  0  0  0  0
    6.2671   -3.4227    0.0766 N   0  0  0  0  0  0  0  0  0  0  0  0
    7.1990   -3.5000   -1.0427 C   0  0  0  0  0  0  0  0  0  0  0  0
    6.7808   -4.5228    0.9081 C   0  0  0  0  0  0  0  0  0  0  0  0
    4.1972   -2.5304   -0.8891 C   0  0  1  0  0  0  0  0  0  0  0  0
    3.8035   -3.1064   -2.2156 O   0  0  0  0  0  0  0  0  0  0  0  0
    1.9271    0.5052   -0.6475 C   0  0  2  0  0  0  0  0  0  0  0  0
    1.6980    0.4598   -2.1179 C   0  0  0  0  0  0  0  0  0  0  0  0
    3.2639    0.4251   -0.2688 O   0  0  0  0  0  0  0  0  0  0  0  0
    3.4584    0.8069    1.0764 C   0  0  0  0  0  0  0  0  0  0  0  0
    1.4640    1.7231   -0.1045 C   0  0  0  0  0  0  0  0  0  0  0  0
    2.6429    2.8235    0.1327 C   0  0  1  0  0  0  0  0  0  0  0  0
    2.4307    3.6083   -1.2829 C   0  0  0  0  0  0  0  0  0  0  0  0
    1.7077    3.7706    1.0124 C   0  0  0  0  0  0  0  0  0  0  0  0
    1.9845    3.9237    2.1484 O   0  0  0  0  0  0  0  0  0  0  0  0
    0.7110    4.7516    0.2779 C   0  0  2  0  0  0  0  0  0  0  0  0
    1.5470    6.0710    0.7125 C   0  0  0  0  0  0  0  0  0  0  0  0
   -0.3889    4.6957    1.5974 C   0  0  1  0  0  0  0  0  0  0  0  0
   -0.3306    6.1566    1.9837 O   0  0  0  0  0  0  0  0  0  0  0  0
   -1.7088    4.9756    0.7158 C   0  0  1  0  0  0  0  0  0  0  0  0
   -1.6542    6.1401   -0.0914 C   0  0  0  0  0  0  0  0  0  0  0  0
   -2.6593    4.8870    1.7521 O   0  0  0  0  0  0  0  0  0  0  0  0
  1  2  1  0
  3  2  1  6
  3  4  1  0
  4  5  1  0
  5  6  2  0
  5  7  1  0
  7  8  1  6
  7  9  1  0
  9 10  1  6
 11 10  1  6
 11 12  1  0
 12 13  1  0
 13 14  1  1
 13 15  1  0
 15 16  1  0
 13 17  1  0
 17 18  1  6
 17 19  1  0
 19 20  1  1
 19 21  1  0
  9 22  1  0
 22 23  1  1
 22 24  1  0
 24 25  1  6
 26 25  1  6
 26 27  1  0
 27 28  1  0
 28 29  1  6
 28 30  1  0
 30 31  1  0
 31 32  1  1
 32 33  1  0
 32 34  1  0
 31 35  1  0
 35 36  1  6
 24 37  1  0
 37 38  1  6
 37 39  1  0
 39 40  1  0
 37 41  1  0
 41 42  1  0
 42 43  1  6
 42 44  1  0
 44 45  2  0
 44 46  1  0
 46 47  1  1
 46 48  1  0
 48 49  1  1
 48 50  1  0
 50 51  1  6
 50 52  1  0
 50  3  1  0
 21 11  1  0
 35 26  1  0
M  END
>  <supplier_code>  (1039) 
DB01211

>  <zinc_id>  (1039) 
ZINC000085534098

>  <catalog_short_name>  (1039) 
dbfda

$$$$

     RDKit          3D

 36 39  0  0  0  0  0  0  0  0999 V2000
   -5.2979    3.8787   -1.2627 C   0  0  0  0  0  0  0  0  0  0  0  0
   -5.3018    2.9500   -0.9334 O   0  0  0  0  0  0  0  0  0  0  0  0
   -6.1510    1.8790   -0.6980 N   0  0  0  0  0  0  0  0  0  0  0  0
   -5.5698    0.8502   -0.1515 C   0  0  0  0  0  0  0  0  0  0  0  0
   -4.2230    0.9313    0.4196 C   0  0  0  0  0  0  0  0  0  0  0  0
   -4.1044    1.4696    1.5620 O   0  0  0  0  0  0  0  0  0  0  0  0
   -3.0395    0.5975   -0.3144 N   0  0  0  0  0  0  0  0  0  0  0  0
   -2.0304    1.8372   -0.1768 C   0  0  2  0  0  0  0  0  0  0  0  0
   -0.8870    1.1995   -1.1511 C   0  0  0  0  0  0  0  0  0  0  0  0
   -0.7582    1.8195   -2.2570 O   0  0  0  0  0  0  0  0  0  0  0  0
    0.0076    1.3491   -0.0232 N   0  0  0  0  0  0  0  0  0  0  0  0
    1.3059    0.9203    0.4038 C   0  0  0  0  0  0  0  0  0  0  0  0
    2.4004    1.7848   -0.0547 C   0  0  0  0  0  0  0  0  0  0  0  0
    2.2819    2.4756   -1.0977 O   0  0  0  0  0  0  0  0  0  0  0  0
    3.2062    2.3463    0.9423 O   0  0  0  0  0  0  0  0  0  0  0  0
    1.5106   -0.1252    1.2023 C   0  0  0  0  0  0  0  0  0  0  0  0
    2.9345   -0.5794    1.3462 C   0  0  0  0  0  0  0  0  0  0  0  0
    3.6437   -0.5237   -0.3345 S   0  0  0  0  0  0  0  0  0  0  0  0
    5.3124   -1.1204   -0.3726 C   0  0  0  0  0  0  0  0  0  0  0  0
    5.6240   -2.3796    0.0167 N   0  0  0  0  0  0  0  0  0  0  0  0
    6.8520   -2.6825    0.4873 C   0  0  0  0  0  0  0  0  0  0  0  0
    7.0474   -3.5886    1.3521 O   0  0  0  0  0  0  0  0  0  0  0  0
    7.8362   -1.7272    0.3026 C   0  0  0  0  0  0  0  0  0  0  0  0
    8.9720   -1.7016    1.1155 O   0  0  0  0  0  0  0  0  0  0  0  0
    7.5427   -0.6022   -0.3557 N   0  0  0  0  0  0  0  0  0  0  0  0
    6.3192   -0.3076   -0.7473 N   0  0  0  0  0  0  0  0  0  0  0  0
    6.0191    1.0162   -1.2548 C   0  0  0  0  0  0  0  0  0  0  0  0
    0.5162   -1.2452    1.2602 C   0  0  0  0  0  0  0  0  0  0  0  0
   -1.1299   -0.7126    0.6758 S   0  0  0  0  0  0  0  0  0  0  0  0
   -1.0592    1.1606    1.0457 C   0  0  2  0  0  0  0  0  0  0  0  0
   -6.1238   -0.4971   -0.3478 C   0  0  0  0  0  0  0  0  0  0  0  0
   -5.8471   -1.2119   -1.5113 C   0  0  0  0  0  0  0  0  0  0  0  0
   -6.7110   -2.6605   -1.1771 S   0  0  0  0  0  0  0  0  0  0  0  0
   -7.1010   -2.3278    0.4610 C   0  0  0  0  0  0  0  0  0  0  0  0
   -7.7924   -3.1314    1.4272 N   0  0  0  0  0  0  0  0  0  0  0  0
   -6.2044   -1.3408    0.7042 N   0  0  0  0  0  0  0  0  0  0  0  0
  1  2  1  0
  2  3  1  0
  3  4  2  0
  4  5  1  0
  5  6  2  0
  5  7  1  0
  8  7  1  6
  8  9  1  0
  9 10  2  0
  9 11  1  0
 11 12  1  0
 12 13  1  0
 13 14  2  0
 13 15  1  0
 12 16  2  0
 16 17  1  0
 17 18  1  0
 18 19  1  0
 19 20  2  0
 20 21  1  0
 21 22  2  0
 21 23  1  0
 23 24  1  0
 23 25  2  0
 25 26  1  0
 26 27  1  0
 16 28  1  0
 28 29  1  0
 30 29  1  6
  4 31  1  0
 31 32  2  0
 32 33  1  0
 33 34  1  0
 34 35  1  0
 34 36  2  0
 30  8  1  0
 36 31  1  0
 30 11  1  0
 26 19  1  0
M  END
>  <supplier_code>  (1040) 
DB01212

>  <zinc_id>  (1040) 
ZINC000028467879

>  <catalog_short_name>  (1040) 
dbfda

$$$$

     RDKit          3D

  6  6  0  0  0  0  0  0  0  0999 V2000
    2.1851   -0.0079    0.1326 C   0  0  0  0  0  0  0  0  0  0  0  0
    0.7270   -0.0335   -0.2103 C   0  0  0  0  0  0  0  0  0  0  0  0
   -0.0852    1.0915   -0.1312 C   0  0  0  0  0  0  0  0  0  0  0  0
   -1.3118    0.6544    0.2404 N   0  0  0  0  0  0  0  0  0  0  0  0
   -1.3843   -0.6201   -0.1257 N   0  0  0  0  0  0  0  0  0  0  0  0
   -0.1309   -1.0845    0.0942 C   0  0  0  0  0  0  0  0  0  0  0  0
  1  2  1  0
  2  3  1  0
  3  4  2  0
  4  5  1  0
  5  6  1  0
  6  2  2  0
M  END
>  <supplier_code>  (1041) 
DB01213

>  <zinc_id>  (1041) 
ZINC000000897288

>  <catalog_short_name>  (1041) 
dbfda

$$$$

     RDKit          3D

 22 22  0  0  0  0  0  0  0  0999 V2000
   -6.4300    0.4748    0.3189 C   0  0  0  0  0  0  0  0  0  0  0  0
   -5.1670   -0.2164    0.6154 C   0  0  0  0  0  0  0  0  0  0  0  0
   -5.1409   -1.3583    1.1663 O   0  0  0  0  0  0  0  0  0  0  0  0
   -4.1355   -0.0210   -0.3078 O   0  0  0  0  0  0  0  0  0  0  0  0
   -2.8155   -0.3785   -0.0046 C   0  0  0  0  0  0  0  0  0  0  0  0
   -2.1453    0.1705    1.0846 C   0  0  0  0  0  0  0  0  0  0  0  0
   -2.9836    0.5974    2.2475 C   0  0  0  0  0  0  0  0  0  0  0  0
   -0.8133    0.5498    0.9596 C   0  0  0  0  0  0  0  0  0  0  0  0
   -0.1543    0.5260   -0.2646 C   0  0  0  0  0  0  0  0  0  0  0  0
    0.6100    1.6074   -0.7155 O   0  0  0  0  0  0  0  0  0  0  0  0
    1.8699    1.4378   -1.3415 C   0  0  0  0  0  0  0  0  0  0  0  0
    2.7833    1.1475    0.0425 C   0  0  2  0  0  0  0  0  0  0  0  0
    3.9899    1.9144   -0.5539 O   0  0  0  0  0  0  0  0  0  0  0  0
    3.3485   -0.3069   -0.5893 C   0  0  0  0  0  0  0  0  0  0  0  0
    4.2335   -0.7598    0.4728 N   0  0  0  0  0  0  0  0  0  0  0  0
    5.5888   -0.5006    0.0177 C   0  0  0  0  0  0  0  0  0  0  0  0
    6.2753    0.3963    1.0129 C   0  0  0  0  0  0  0  0  0  0  0  0
    6.3348   -1.8176   -0.1473 C   0  0  0  0  0  0  0  0  0  0  0  0
   -0.6898   -0.3661   -1.1884 C   0  0  0  0  0  0  0  0  0  0  0  0
    0.0075   -0.4903   -2.5073 C   0  0  0  0  0  0  0  0  0  0  0  0
   -1.9802   -0.8535   -1.0112 C   0  0  0  0  0  0  0  0  0  0  0  0
   -2.5859   -1.7529   -2.0086 C   0  0  0  0  0  0  0  0  0  0  0  0
  1  2  1  0
  2  3  2  0
  2  4  1  0
  4  5  1  0
  5  6  2  0
  6  7  1  0
  6  8  1  0
  8  9  2  0
  9 10  1  0
 10 11  1  0
 12 11  1  6
 12 13  1  0
 12 14  1  0
 14 15  1  0
 15 16  1  0
 16 17  1  0
 16 18  1  0
  9 19  1  0
 19 20  1  0
 19 21  2  0
 21 22  1  0
 21  5  1  0
M  END
>  <supplier_code>  (1042) 
DB01214

>  <zinc_id>  (1042) 
ZINC000000000494

>  <catalog_short_name>  (1042) 
dbfda

$$$$

     RDKit          3D

 22 22  0  0  0  0  0  0  0  0999 V2000
   -6.1659    0.7752    0.6595 C   0  0  0  0  0  0  0  0  0  0  0  0
   -5.1509   -0.0242    0.0634 C   0  0  0  0  0  0  0  0  0  0  0  0
   -5.4261   -1.0154   -0.6754 O   0  0  0  0  0  0  0  0  0  0  0  0
   -3.9439   -0.1454    0.7593 O   0  0  0  0  0  0  0  0  0  0  0  0
   -2.7976   -0.6515    0.1368 C   0  0  0  0  0  0  0  0  0  0  0  0
   -1.9561   -1.5471    0.7880 C   0  0  0  0  0  0  0  0  0  0  0  0
   -2.5514   -2.3486    1.8876 C   0  0  0  0  0  0  0  0  0  0  0  0
   -0.5754   -1.3870    0.7627 C   0  0  0  0  0  0  0  0  0  0  0  0
    0.0003   -0.4122   -0.0421 C   0  0  0  0  0  0  0  0  0  0  0  0
    1.1567    0.2452    0.2404 O   0  0  0  0  0  0  0  0  0  0  0  0
    1.8545    0.3518    1.4274 C   0  0  0  0  0  0  0  0  0  0  0  0
    3.4711    0.1435    1.0120 C   0  0  1  0  0  0  0  0  0  0  0  0
    3.1456   -1.0980    0.1468 O   0  0  0  0  0  0  0  0  0  0  0  0
    3.3319    1.1661   -0.3166 C   0  0  0  0  0  0  0  0  0  0  0  0
    4.3400    0.6395   -1.2210 N   0  0  0  0  0  0  0  0  0  0  0  0
    5.6383    1.1360   -0.8026 C   0  0  0  0  0  0  0  0  0  0  0  0
    6.5111   -0.0062   -0.3689 C   0  0  0  0  0  0  0  0  0  0  0  0
    5.5386    2.1841    0.2771 C   0  0  0  0  0  0  0  0  0  0  0  0
   -0.8356    0.1197   -1.0182 C   0  0  0  0  0  0  0  0  0  0  0  0
   -0.2463    1.0930   -1.9899 C   0  0  0  0  0  0  0  0  0  0  0  0
   -2.2175   -0.0109   -0.9528 C   0  0  0  0  0  0  0  0  0  0  0  0
   -3.1213    0.7924   -1.8230 C   0  0  0  0  0  0  0  0  0  0  0  0
  1  2  1  0
  2  3  2  0
  2  4  1  0
  4  5  1  0
  5  6  2  0
  6  7  1  0
  6  8  1  0
  8  9  2  0
  9 10  1  0
 10 11  1  0
 12 11  1  1
 12 13  1  0
 12 14  1  0
 14 15  1  0
 15 16  1  0
 16 17  1  0
 16 18  1  0
  9 19  1  0
 19 20  1  0
 19 21  2  0
 21 22  1  0
 21  5  1  0
M  END
>  <supplier_code>  (1043) 
DB01214

>  <zinc_id>  (1043) 
ZINC000000389149

>  <catalog_short_name>  (1043) 
dbfda

$$$$

     RDKit          3D

 21 24  0  0  0  0  0  0  0  0999 V2000
   -1.0449    4.4757    0.3982 Cl  0  0  0  0  0  0  0  0  0  0  0  0
   -0.1646    2.9512    0.4654 C   0  0  0  0  0  0  0  0  0  0  0  0
    1.0920    2.8599    1.0477 C   0  0  0  0  0  0  0  0  0  0  0  0
    1.9890    1.9579    0.4887 C   0  0  0  0  0  0  0  0  0  0  0  0
    1.4827    0.8548   -0.1816 C   0  0  0  0  0  0  0  0  0  0  0  0
    0.1274    0.8222   -0.4873 C   0  0  0  0  0  0  0  0  0  0  0  0
   -0.7046    1.8789   -0.2338 C   0  0  0  0  0  0  0  0  0  0  0  0
   -0.6915   -0.3155   -0.9265 C   0  0  0  0  0  0  0  0  0  0  0  0
   -2.0375   -0.4175   -0.3489 C   0  0  0  0  0  0  0  0  0  0  0  0
   -2.8310   -1.4368   -0.8622 C   0  0  0  0  0  0  0  0  0  0  0  0
   -3.9829   -1.8549   -0.2168 C   0  0  0  0  0  0  0  0  0  0  0  0
   -3.9977   -1.7233    1.1593 C   0  0  0  0  0  0  0  0  0  0  0  0
   -3.0636   -0.9193    1.7889 C   0  0  0  0  0  0  0  0  0  0  0  0
   -2.2960   -0.0934    0.9771 C   0  0  0  0  0  0  0  0  0  0  0  0
   -0.1741   -1.4231   -1.3712 N   0  0  0  0  0  0  0  0  0  0  0  0
    1.1664   -1.8054   -1.7222 C   0  0  0  0  0  0  0  0  0  0  0  0
    2.1752   -1.4310   -0.7100 C   0  0  0  0  0  0  0  0  0  0  0  0
    3.2381   -2.1834   -0.3984 N   0  0  0  0  0  0  0  0  0  0  0  0
    3.8497   -1.6373    0.6446 N   0  0  0  0  0  0  0  0  0  0  0  0
    3.4103   -0.3650    0.7191 C   0  0  0  0  0  0  0  0  0  0  0  0
    2.4576   -0.1947   -0.2299 N   0  0  0  0  0  0  0  0  0  0  0  0
  1  2  1  0
  2  3  2  0
  3  4  1  0
  4  5  2  0
  5  6  1  0
  6  7  2  0
  6  8  1  0
  8  9  1  0
  9 10  2  0
 10 11  1  0
 11 12  2  0
 12 13  1  0
 13 14  2  0
  8 15  2  0
 15 16  1  0
 16 17  1  0
 17 18  2  0
 18 19  1  0
 19 20  2  0
 20 21  1  0
  7  2  1  0
 14  9  1  0
 21 17  1  0
 21  5  1  0
M  END
>  <supplier_code>  (1044) 
DB01215

>  <zinc_id>  (1044) 
ZINC000000001370

>  <catalog_short_name>  (1044) 
dbfda

$$$$

     RDKit          3D

 27 30  0  0  0  0  0  0  0  0999 V2000
    5.2973   -2.1622   -0.0456 C   0  0  0  0  0  0  0  0  0  0  0  0
    5.6542   -0.8863    0.0766 C   0  0  0  0  0  0  0  0  0  0  0  0
    7.0014   -0.8326    0.7842 C   0  0  0  0  0  0  0  0  0  0  0  0
    5.8530   -0.1979   -1.2699 C   0  0  0  0  0  0  0  0  0  0  0  0
    4.6978   -0.0432    0.7879 N   0  0  0  0  0  0  0  0  0  0  0  0
    3.3157   -0.1562    0.4019 C   0  0  0  0  0  0  0  0  0  0  0  0
    2.8909   -1.3295    0.6321 O   0  0  0  0  0  0  0  0  0  0  0  0
    2.4013    1.0464    0.9628 C   0  0  1  0  0  0  0  0  0  0  0  0
    2.4142    1.8127   -0.4810 C   0  0  0  0  0  0  0  0  0  0  0  0
    1.0071    2.1117   -0.7837 C   0  0  0  0  0  0  0  0  0  0  0  0
    0.2042    1.7266    0.5630 C   0  0  1  0  0  0  0  0  0  0  0  0
   -1.0559    0.9345   -0.2268 C   0  0  2  0  0  0  0  0  0  0  0  0
   -1.9233    2.2438   -0.5578 C   0  0  0  0  0  0  0  0  0  0  0  0
   -3.0729    1.4896   -1.2306 C   0  0  0  0  0  0  0  0  0  0  0  0
   -4.0619    1.0188   -0.0071 C   0  0  1  0  0  0  0  0  0  0  0  0
   -4.8114   -0.0124   -0.9357 N   0  0  0  0  0  0  0  0  0  0  0  0
   -5.3021   -1.1794   -0.2734 C   0  0  0  0  0  0  0  0  0  0  0  0
   -5.7080   -2.1813   -0.9401 O   0  0  0  0  0  0  0  0  0  0  0  0
   -4.9164   -1.3827    1.1314 C   0  0  0  0  0  0  0  0  0  0  0  0
   -3.8732   -0.7117    1.6297 C   0  0  0  0  0  0  0  0  0  0  0  0
   -3.0407   -0.1167    0.5684 C   0  0  1  0  0  0  0  0  0  0  0  0
   -2.6060   -1.0059   -0.4697 C   0  0  0  0  0  0  0  0  0  0  0  0
   -1.8499    0.7176    1.2476 C   0  0  1  0  0  0  0  0  0  0  0  0
   -1.0124   -0.6260    1.6021 C   0  0  0  0  0  0  0  0  0  0  0  0
    0.4184   -0.3400    1.7485 C   0  0  0  0  0  0  0  0  0  0  0  0
    0.9976    0.3158    0.6132 C   0  0  2  0  0  0  0  0  0  0  0  0
    1.0809   -0.2537   -0.7250 C   0  0  0  0  0  0  0  0  0  0  0  0
  1  2  1  0
  2  3  1  0
  2  4  1  0
  2  5  1  0
  5  6  1  0
  6  7  2  0
  8  6  1  6
  8  9  1  0
  9 10  1  0
 11 10  1  6
 11 12  1  0
 12 13  1  6
 13 14  1  0
 15 14  1  6
 15 16  1  0
 16 17  1  0
 17 18  2  0
 17 19  1  0
 19 20  2  0
 20 21  1  0
 21 22  1  6
 21 23  1  0
 23 24  1  1
 24 25  1  0
 25 26  1  0
 26 27  1  6
 26  8  1  0
 26 11  1  0
 23 12  1  0
 21 15  1  0
M  END
>  <supplier_code>  (1045) 
DB01216

>  <zinc_id>  (1045) 
ZINC000003782599

>  <catalog_short_name>  (1045) 
dbfda

$$$$

     RDKit          3D

 22 23  0  0  0  0  0  0  0  0999 V2000
   -2.3193    2.0404    1.7116 C   0  0  0  0  0  0  0  0  0  0  0  0
   -1.5138    2.4463    0.4840 C   0  0  0  0  0  0  0  0  0  0  0  0
   -0.3815    3.3211    0.9936 C   0  0  0  0  0  0  0  0  0  0  0  0
   -2.3229    3.2351   -0.4202 C   0  0  0  0  0  0  0  0  0  0  0  0
   -3.0087    3.9053   -1.0408 N   0  0  0  0  0  0  0  0  0  0  0  0
   -0.9672    1.2176   -0.1737 C   0  0  0  0  0  0  0  0  0  0  0  0
    0.3905    0.9391   -0.1718 C   0  0  0  0  0  0  0  0  0  0  0  0
    0.8931   -0.3491   -0.1225 C   0  0  0  0  0  0  0  0  0  0  0  0
    2.0964   -0.7475    0.6279 C   0  0  0  0  0  0  0  0  0  0  0  0
    3.3286   -0.2663    0.0693 N   0  0  0  0  0  0  0  0  0  0  0  0
    3.6102    0.3989   -1.0495 C   0  0  0  0  0  0  0  0  0  0  0  0
    4.8075    0.9914   -0.8392 N   0  0  0  0  0  0  0  0  0  0  0  0
    5.4304    0.2878    0.1162 C   0  0  0  0  0  0  0  0  0  0  0  0
    4.4700   -0.3862    0.7491 N   0  0  0  0  0  0  0  0  0  0  0  0
   -0.0086   -1.3482   -0.4681 C   0  0  0  0  0  0  0  0  0  0  0  0
   -1.3798   -1.1458   -0.4884 C   0  0  0  0  0  0  0  0  0  0  0  0
   -2.3479   -2.2625   -0.2369 C   0  0  0  0  0  0  0  0  0  0  0  0
   -3.5196   -2.2261   -1.1697 C   0  0  0  0  0  0  0  0  0  0  0  0
   -2.8287   -2.1850    1.2091 C   0  0  0  0  0  0  0  0  0  0  0  0
   -1.5656   -3.5044   -0.3533 C   0  0  0  0  0  0  0  0  0  0  0  0
   -1.0462   -4.5354   -0.4620 N   0  0  0  0  0  0  0  0  0  0  0  0
   -1.8169    0.1734   -0.4672 C   0  0  0  0  0  0  0  0  0  0  0  0
  1  2  1  0
  2  3  1  0
  2  4  1  0
  4  5  3  0
  2  6  1  0
  6  7  2  0
  7  8  1  0
  8  9  1  0
  9 10  1  0
 10 11  1  0
 11 12  2  0
 12 13  1  0
 13 14  2  0
  8 15  2  0
 15 16  1  0
 16 17  1  0
 17 18  1  0
 17 19  1  0
 17 20  1  0
 20 21  3  0
 16 22  2  0
 22  6  1  0
 14 10  1  0
M  END
>  <supplier_code>  (1046) 
DB01217

>  <zinc_id>  (1046) 
ZINC000000000941

>  <catalog_short_name>  (1046) 
dbfda

$$$$

     RDKit          3D

 23 25  0  0  0  0  0  0  0  0999 V2000
   -6.6499   -1.6585    0.9199 O   0  0  0  0  0  0  0  0  0  0  0  0
   -6.0740   -0.6875    0.3663 C   0  0  0  0  0  0  0  0  0  0  0  0
   -4.6810   -0.6637   -0.1772 C   0  0  0  0  0  0  0  0  0  0  0  0
   -4.2027    0.6037    0.3371 N   0  0  0  0  0  0  0  0  0  0  0  0
   -2.9085    1.0062    0.6558 N   0  0  0  0  0  0  0  0  0  0  0  0
   -2.1037    1.3288   -0.2973 C   0  0  0  0  0  0  0  0  0  0  0  0
   -0.6543    1.1136   -0.2102 C   0  0  0  0  0  0  0  0  0  0  0  0
    0.2845    2.0675   -0.5873 C   0  0  0  0  0  0  0  0  0  0  0  0
    1.4577    1.3502   -0.7317 C   0  0  0  0  0  0  0  0  0  0  0  0
    1.1939    0.1306   -0.1193 C   0  0  0  0  0  0  0  0  0  0  0  0
    2.2549   -0.8464    0.1603 C   0  0  0  0  0  0  0  0  0  0  0  0
    3.0374   -0.7716    1.3075 C   0  0  0  0  0  0  0  0  0  0  0  0
    4.4128   -0.9654    1.2311 C   0  0  0  0  0  0  0  0  0  0  0  0
    5.0271   -1.3568    0.0466 C   0  0  0  0  0  0  0  0  0  0  0  0
    6.3070   -0.8291   -0.3250 N   0  0  0  0  0  0  0  0  0  0  0  0
    6.5833    0.3892   -0.2106 O   0  0  0  0  0  0  0  0  0  0  0  0
    7.0085   -1.5129   -1.2923 O   0  0  0  0  0  0  0  0  0  0  0  0
    4.1670   -1.9032   -0.8988 C   0  0  0  0  0  0  0  0  0  0  0  0
    2.8078   -1.6133   -0.8596 C   0  0  0  0  0  0  0  0  0  0  0  0
   -0.0880   -0.0779   -0.2725 O   0  0  0  0  0  0  0  0  0  0  0  0
   -5.3288    1.4789    0.2925 C   0  0  0  0  0  0  0  0  0  0  0  0
   -5.3452    2.7420    0.3029 O   0  0  0  0  0  0  0  0  0  0  0  0
   -6.5058    0.6755    0.3267 N   0  0  0  0  0  0  0  0  0  0  0  0
  1  2  2  0
  2  3  1  0
  3  4  1  0
  4  5  1  0
  5  6  2  0
  6  7  1  0
  7  8  2  0
  8  9  1  0
  9 10  2  0
 10 11  1  0
 11 12  2  0
 12 13  1  0
 13 14  2  0
 14 15  1  0
 15 16  2  0
 15 17  1  0
 14 18  1  0
 18 19  2  0
 10 20  1  0
  4 21  1  0
 21 22  2  0
 21 23  1  0
 23  2  1  0
 20  7  1  0
 19 11  1  0
M  CHG  2  15   1  17  -1
M  END
>  <supplier_code>  (1047) 
DB01219

>  <zinc_id>  (1047) 
ZINC000002568036

>  <catalog_short_name>  (1047) 
dbfda

$$$$

     RDKit          3D

 23 25  0  0  0  0  0  0  0  0999 V2000
    5.6156    2.0511    0.3003 O   0  0  0  0  0  0  0  0  0  0  0  0
    5.2566    0.8435    0.3491 C   0  0  0  0  0  0  0  0  0  0  0  0
    3.8430    0.4069    0.5730 C   0  0  0  0  0  0  0  0  0  0  0  0
    3.7886   -0.8423   -0.1382 N   0  0  0  0  0  0  0  0  0  0  0  0
    2.7786   -1.8246   -0.1618 N   0  0  0  0  0  0  0  0  0  0  0  0
    1.7742   -1.5359   -0.9367 C   0  0  0  0  0  0  0  0  0  0  0  0
    1.1054   -0.2678   -0.6124 C   0  0  0  0  0  0  0  0  0  0  0  0
    0.9923    0.8653   -1.4085 C   0  0  0  0  0  0  0  0  0  0  0  0
   -0.0935    1.5805   -0.9200 C   0  0  0  0  0  0  0  0  0  0  0  0
   -0.8242    0.6341   -0.2114 C   0  0  0  0  0  0  0  0  0  0  0  0
   -2.2134    0.7603    0.2522 C   0  0  0  0  0  0  0  0  0  0  0  0
   -2.6681   -0.1194    1.2187 C   0  0  0  0  0  0  0  0  0  0  0  0
   -4.0061   -0.4723    1.3348 C   0  0  0  0  0  0  0  0  0  0  0  0
   -4.9022    0.2942    0.6081 C   0  0  0  0  0  0  0  0  0  0  0  0
   -6.1924   -0.2555    0.3404 N   0  0  0  0  0  0  0  0  0  0  0  0
   -7.1590    0.5127    0.2162 O   0  0  0  0  0  0  0  0  0  0  0  0
   -6.2370   -1.4853   -0.2581 O   0  0  0  0  0  0  0  0  0  0  0  0
   -4.4595    1.3703   -0.1448 C   0  0  0  0  0  0  0  0  0  0  0  0
   -3.1097    1.5573   -0.4042 C   0  0  0  0  0  0  0  0  0  0  0  0
    0.0647   -0.2267    0.2005 O   0  0  0  0  0  0  0  0  0  0  0  0
    5.1323   -1.1779   -0.5060 C   0  0  0  0  0  0  0  0  0  0  0  0
    5.5528   -2.3335   -1.1732 O   0  0  0  0  0  0  0  0  0  0  0  0
    5.9609   -0.3350    0.0151 N   0  0  0  0  0  0  0  0  0  0  0  0
  1  2  2  0
  2  3  1  0
  3  4  1  0
  4  5  1  0
  5  6  2  0
  6  7  1  0
  7  8  2  0
  8  9  1  0
  9 10  2  0
 10 11  1  0
 11 12  2  0
 12 13  1  0
 13 14  2  0
 14 15  1  0
 15 16  2  0
 15 17  1  0
 14 18  1  0
 18 19  2  0
 10 20  1  0
  4 21  1  0
 21 22  1  0
 21 23  2  0
 23  2  1  0
 20  7  1  0
 19 11  1  0
M  CHG  2  15   1  17  -1
M  END
>  <supplier_code>  (1048) 
DB01219

>  <zinc_id>  (1048) 
ZINC000007997966

>  <catalog_short_name>  (1048) 
dbfda

$$$$

     RDKit          3D

 23 25  0  0  0  0  0  0  0  0999 V2000
   -6.3133   -0.1143    2.6265 O   0  0  0  0  0  0  0  0  0  0  0  0
   -5.5583   -0.0532    1.6325 C   0  0  0  0  0  0  0  0  0  0  0  0
   -4.2151   -0.6575    1.4074 C   0  0  0  0  0  0  0  0  0  0  0  0
   -4.1189   -0.5809   -0.0477 N   0  0  0  0  0  0  0  0  0  0  0  0
   -3.2831   -1.2780   -0.9161 N   0  0  0  0  0  0  0  0  0  0  0  0
   -2.0930   -1.5861   -0.5594 C   0  0  0  0  0  0  0  0  0  0  0  0
   -1.0186   -0.5998   -0.3892 C   0  0  0  0  0  0  0  0  0  0  0  0
   -0.7312    0.0654    0.7906 C   0  0  0  0  0  0  0  0  0  0  0  0
    0.5296    0.6254    0.6277 C   0  0  0  0  0  0  0  0  0  0  0  0
    0.9594    0.2296   -0.6320 C   0  0  0  0  0  0  0  0  0  0  0  0
    2.3786    0.0985   -0.9851 C   0  0  0  0  0  0  0  0  0  0  0  0
    3.1821    1.2098   -1.2039 C   0  0  0  0  0  0  0  0  0  0  0  0
    4.5509    1.1089   -0.9866 C   0  0  0  0  0  0  0  0  0  0  0  0
    5.0703    0.0126   -0.3098 C   0  0  0  0  0  0  0  0  0  0  0  0
    6.1343    0.2022    0.6315 N   0  0  0  0  0  0  0  0  0  0  0  0
    7.0014    1.0453    0.2878 O   0  0  0  0  0  0  0  0  0  0  0  0
    5.7254    0.2956    1.9515 O   0  0  0  0  0  0  0  0  0  0  0  0
    4.3316   -1.1603   -0.3337 C   0  0  0  0  0  0  0  0  0  0  0  0
    3.0388   -1.1151   -0.8361 C   0  0  0  0  0  0  0  0  0  0  0  0
   -0.0907   -0.2369   -1.2357 O   0  0  0  0  0  0  0  0  0  0  0  0
   -4.8857    0.5691   -0.4025 C   0  0  0  0  0  0  0  0  0  0  0  0
   -4.7780    1.2937   -1.5931 O   0  0  0  0  0  0  0  0  0  0  0  0
   -5.8165    0.7452    0.4756 N   0  0  0  0  0  0  0  0  0  0  0  0
  1  2  2  0
  2  3  1  0
  3  4  1  0
  4  5  1  0
  5  6  2  3
  6  7  1  0
  7  8  2  0
  8  9  1  0
  9 10  2  0
 10 11  1  0
 11 12  2  0
 12 13  1  0
 13 14  2  0
 14 15  1  0
 15 16  2  0
 15 17  1  0
 14 18  1  0
 18 19  2  0
 10 20  1  0
  4 21  1  0
 21 22  1  0
 21 23  2  0
 23  2  1  0
 20  7  1  0
 19 11  1  0
M  CHG  2  15   1  17  -1
M  END
>  <supplier_code>  (1049) 
DB01219

>  <zinc_id>  (1049) 
ZINC000252679615

>  <catalog_short_name>  (1049) 
dbfda

$$$$

     RDKit          3D

 57 62  0  0  0  0  0  0  0  0999 V2000
    3.6667   -4.1824    2.2299 C   0  0  0  0  0  0  0  0  0  0  0  0
    4.1558   -3.1013    1.6165 O   0  0  0  0  0  0  0  0  0  0  0  0
    4.3335   -3.4879    0.1620 C   0  0  1  0  0  0  0  0  0  0  0  0
    2.8985   -2.8536   -0.2493 C   0  0  0  0  0  0  0  0  0  0  0  0
    2.3488   -3.8720   -0.9243 C   0  0  0  0  0  0  0  0  0  0  0  0
    1.1721   -4.2724   -0.2693 O   0  0  0  0  0  0  0  0  0  0  0  0
    0.1254   -3.4315   -0.5124 C   0  0  1  0  0  0  0  0  0  0  0  0
    0.3666   -2.3220   -1.5038 C   0  0  0  0  0  0  0  0  0  0  0  0
   -0.9669   -4.2076   -1.0132 O   0  0  0  0  0  0  0  0  0  0  0  0
   -2.0341   -3.2982   -1.0175 C   0  0  0  0  0  0  0  0  0  0  0  0
   -1.8077   -2.3254   -0.0265 C   0  0  0  0  0  0  0  0  0  0  0  0
   -2.1479   -1.0125   -0.2575 C   0  0  0  0  0  0  0  0  0  0  0  0
   -2.5337   -0.0494    0.6718 C   0  0  0  0  0  0  0  0  0  0  0  0
   -2.6829    0.0948    2.0205 N   0  0  0  0  0  0  0  0  0  0  0  0
   -3.8468    0.7503    2.2619 C   0  0  0  0  0  0  0  0  0  0  0  0
   -4.7337    0.7188    3.3185 C   0  0  0  0  0  0  0  0  0  0  0  0
   -6.0741    0.9349    3.0184 C   0  0  0  0  0  0  0  0  0  0  0  0
   -7.1720    0.1370    3.6340 C   0  0  0  0  0  0  0  0  0  0  0  0
   -6.2632    1.7700    1.9233 C   0  0  0  0  0  0  0  0  0  0  0  0
   -5.4176    1.7228    0.8202 C   0  0  0  0  0  0  0  0  0  0  0  0
   -4.1640    1.2622    1.0445 N   0  0  0  0  0  0  0  0  0  0  0  0
   -3.0340    1.2251    0.2516 C   0  0  0  0  0  0  0  0  0  0  0  0
   -2.5767    1.5483   -0.9408 C   0  0  0  0  0  0  0  0  0  0  0  0
   -2.5176    0.5410   -1.9320 C   0  0  0  0  0  0  0  0  0  0  0  0
   -2.6845    0.7800   -3.2927 O   0  0  0  0  0  0  0  0  0  0  0  0
   -2.5822   -0.7997   -1.5785 C   0  0  0  0  0  0  0  0  0  0  0  0
   -3.3596   -1.7270   -2.2678 C   0  0  0  0  0  0  0  0  0  0  0  0
   -3.8201   -1.3784   -3.5333 O   0  0  0  0  0  0  0  0  0  0  0  0
   -3.0746   -3.0441   -1.9128 C   0  0  0  0  0  0  0  0  0  0  0  0
   -3.5476   -4.1453   -2.7673 C   0  0  0  0  0  0  0  0  0  0  0  0
   -1.8019    2.5968   -1.4742 N   0  0  0  0  0  0  0  0  0  0  0  0
   -2.1445    3.8769   -1.0319 C   0  0  0  0  0  0  0  0  0  0  0  0
   -2.5519    4.8479   -1.7588 O   0  0  0  0  0  0  0  0  0  0  0  0
   -2.4220    3.8253    0.4140 C   0  0  0  0  0  0  0  0  0  0  0  0
   -3.2425    4.9107    1.0622 C   0  0  0  0  0  0  0  0  0  0  0  0
   -1.3762    3.2622    0.8891 C   0  0  0  0  0  0  0  0  0  0  0  0
   -0.1100    3.2641    0.3703 C   0  0  0  0  0  0  0  0  0  0  0  0
    0.3133    4.1421   -0.4694 C   0  0  0  0  0  0  0  0  0  0  0  0
    1.8939    4.2077   -0.3389 C   0  0  2  0  0  0  0  0  0  0  0  0
    2.0063    5.1388   -1.6658 C   0  0  0  0  0  0  0  0  0  0  0  0
    2.2598    2.8042   -1.2465 C   0  0  2  0  0  0  0  0  0  0  0  0
    1.4632    1.8727   -0.3852 O   0  0  0  0  0  0  0  0  0  0  0  0
    3.7262    2.4879   -0.4524 C   0  0  1  0  0  0  0  0  0  0  0  0
    3.1555    2.6414    1.0408 C   0  0  0  0  0  0  0  0  0  0  0  0
    3.4519    0.8307   -0.6286 C   0  0  1  0  0  0  0  0  0  0  0  0
    3.7615    0.9233   -2.0989 O   0  0  0  0  0  0  0  0  0  0  0  0
    5.0185    0.2951   -0.2792 C   0  0  1  0  0  0  0  0  0  0  0  0
    5.2701    1.2211    1.0058 C   0  0  0  0  0  0  0  0  0  0  0  0
    4.2920   -0.9982    0.5424 C   0  0  2  0  0  0  0  0  0  0  0  0
    5.1759   -0.9849    1.7763 O   0  0  0  0  0  0  0  0  0  0  0  0
    6.5163   -1.0763    1.6967 C   0  0  0  0  0  0  0  0  0  0  0  0
    7.2987   -0.7494    2.9293 C   0  0  0  0  0  0  0  0  0  0  0  0
    7.0564   -1.2772    0.5813 O   0  0  0  0  0  0  0  0  0  0  0  0
    5.2793   -2.1241   -0.2273 C   0  0  2  0  0  0  0  0  0  0  0  0
    4.6280   -1.9477   -1.6778 C   0  0  0  0  0  0  0  0  0  0  0  0
   -0.5775   -2.8160    0.6226 C   0  0  0  0  0  0  0  0  0  0  0  0
   -0.3659   -3.1499    1.8300 O   0  0  0  0  0  0  0  0  0  0  0  0
  1  2  1  0
  3  2  1  1
  3  4  1  0
  4  5  2  0
  5  6  1  0
  6  7  1  0
  7  8  1  6
  7  9  1  0
  9 10  1  0
 10 11  2  0
 11 12  1  0
 12 13  2  0
 13 14  1  0
 14 15  2  0
 15 16  1  0
 16 17  2  0
 17 18  1  0
 17 19  1  0
 19 20  2  0
 20 21  1  0
 21 22  1  0
 22 23  2  0
 23 24  1  0
 24 25  1  0
 24 26  2  0
 26 27  1  0
 27 28  1  0
 27 29  2  0
 29 30  1  0
 23 31  1  0
 31 32  1  0
 32 33  2  0
 32 34  1  0
 34 35  1  0
 34 36  2  0
 36 37  1  0
 37 38  2  0
 38 39  1  0
 39 40  1  6
 39 41  1  0
 41 42  1  1
 41 43  1  0
 43 44  1  1
 43 45  1  0
 45 46  1  6
 45 47  1  0
 47 48  1  1
 47 49  1  0
 49 50  1  1
 50 51  1  0
 51 52  1  0
 51 53  2  0
 49 54  1  0
 54 55  1  6
 11 56  1  0
 56 57  2  0
 54  3  1  0
 56  7  1  0
 29 10  1  0
 26 12  1  0
 22 13  1  0
 21 15  1  0
M  END
>  <supplier_code>  (1050) 
DB01220

>  <zinc_id>  (1050) 
ZINC000169621200

>  <catalog_short_name>  (1050) 
dbfda

$$$$

     RDKit          3D

 16 17  0  0  0  0  0  0  0  0999 V2000
    0.6383   -1.5622   -1.4476 C   0  0  0  0  0  0  0  0  0  0  0  0
    1.0247   -1.3707   -0.9292 N   0  0  0  0  0  0  0  0  0  0  0  0
    0.6581   -0.2113   -0.1169 C   0  0  2  0  0  0  0  0  0  0  0  0
   -0.8246   -0.1358   -0.1515 C   0  0  0  0  0  0  0  0  0  0  0  0
   -1.5381   -1.1790    0.4210 C   0  0  0  0  0  0  0  0  0  0  0  0
   -2.8945   -1.2019    0.1750 C   0  0  0  0  0  0  0  0  0  0  0  0
   -3.5492   -0.0423   -0.1786 C   0  0  0  0  0  0  0  0  0  0  0  0
   -2.8085    1.0607   -0.5391 C   0  0  0  0  0  0  0  0  0  0  0  0
   -1.4294    1.0842   -0.3773 C   0  0  0  0  0  0  0  0  0  0  0  0
   -0.4476    2.3600   -1.0404 Cl  0  0  0  0  0  0  0  0  0  0  0  0
    1.2598    1.0626   -0.6399 C   0  0  0  0  0  0  0  0  0  0  0  0
    2.7582    0.9930   -0.5352 C   0  0  0  0  0  0  0  0  0  0  0  0
    3.2305   -0.1875    0.2666 C   0  0  0  0  0  0  0  0  0  0  0  0
    2.5288   -0.3302    1.5882 C   0  0  0  0  0  0  0  0  0  0  0  0
    1.0598   -0.3767    1.3016 C   0  0  0  0  0  0  0  0  0  0  0  0
    0.3337    0.0372    2.2036 O   0  0  0  0  0  0  0  0  0  0  0  0
  1  2  1  0
  3  2  1  6
  3  4  1  0
  4  5  2  0
  5  6  1  0
  6  7  2  0
  7  8  1  0
  8  9  2  0
  9 10  1  0
  3 11  1  0
 11 12  1  0
 12 13  1  0
 13 14  1  0
 14 15  1  0
 15 16  2  0
 15  3  1  0
  9  4  1  0
M  END
>  <supplier_code>  (1051) 
DB01221

>  <zinc_id>  (1051) 
ZINC000035999642

>  <catalog_short_name>  (1051) 
dbfda

$$$$

     RDKit          3D

 16 17  0  0  0  0  0  0  0  0999 V2000
   -0.0347   -2.5502   -0.8849 C   0  0  0  0  0  0  0  0  0  0  0  0
    0.2286   -2.0501    0.4028 N   0  0  0  0  0  0  0  0  0  0  0  0
    0.6138   -0.6764    0.2723 C   0  0  1  0  0  0  0  0  0  0  0  0
   -0.5639    0.0918   -0.1956 C   0  0  0  0  0  0  0  0  0  0  0  0
   -1.0102    0.0705   -1.5047 C   0  0  0  0  0  0  0  0  0  0  0  0
   -2.1353    0.8036   -1.8135 C   0  0  0  0  0  0  0  0  0  0  0  0
   -3.0152    1.2037   -0.8370 C   0  0  0  0  0  0  0  0  0  0  0  0
   -2.6918    0.9991    0.4781 C   0  0  0  0  0  0  0  0  0  0  0  0
   -1.5395    0.3218    0.7695 C   0  0  0  0  0  0  0  0  0  0  0  0
   -1.2995   -0.1769    2.4420 Cl  0  0  0  0  0  0  0  0  0  0  0  0
    1.0718   -0.0356    1.5576 C   0  0  0  0  0  0  0  0  0  0  0  0
    1.3562    1.4247    1.2380 C   0  0  0  0  0  0  0  0  0  0  0  0
    2.3966    1.5914    0.1708 C   0  0  0  0  0  0  0  0  0  0  0  0
    2.1089    0.8211   -1.0866 C   0  0  0  0  0  0  0  0  0  0  0  0
    1.7715   -0.5812   -0.6738 C   0  0  0  0  0  0  0  0  0  0  0  0
    2.7429   -1.2574   -0.3349 O   0  0  0  0  0  0  0  0  0  0  0  0
  1  2  1  0
  3  2  1  1
  3  4  1  0
  4  5  2  0
  5  6  1  0
  6  7  2  0
  7  8  1  0
  8  9  2  0
  9 10  1  0
  3 11  1  0
 11 12  1  0
 12 13  1  0
 13 14  1  0
 14 15  1  0
 15 16  2  0
 15  3  1  0
  9  4  1  0
M  END
>  <supplier_code>  (1052) 
DB01221

>  <zinc_id>  (1052) 
ZINC000036294079

>  <catalog_short_name>  (1052) 
dbfda

$$$$

     RDKit          3D

 31 35  0  0  0  0  0  0  0  0999 V2000
   -6.3764   -0.7325    0.2496 C   0  0  0  0  0  0  0  0  0  0  0  0
   -6.3616    0.0160    1.5583 C   0  0  0  0  0  0  0  0  0  0  0  0
   -4.9642    0.1011    2.1669 C   0  0  0  0  0  0  0  0  0  0  0  0
   -4.0661   -0.0845    0.7804 C   0  0  2  0  0  0  0  0  0  0  0  0
   -3.3458   -1.3427    1.2694 O   0  0  0  0  0  0  0  0  0  0  0  0
   -2.5099   -1.2295   -0.0038 C   0  0  2  0  0  0  0  0  0  0  0  0
   -1.1095   -1.7570    0.6621 C   0  0  0  0  0  0  0  0  0  0  0  0
   -0.3531   -0.4151    1.1037 C   0  0  1  0  0  0  0  0  0  0  0  0
    1.0739   -0.7739    0.2753 C   0  0  2  0  0  0  0  0  0  0  0  0
    1.7420   -1.4507    1.5716 C   0  0  0  0  0  0  0  0  0  0  0  0
    2.9599   -2.0866    0.9198 C   0  0  0  0  0  0  0  0  0  0  0  0
    3.4143   -1.1645   -0.1772 C   0  0  0  0  0  0  0  0  0  0  0  0
    4.5893   -1.4033   -0.7855 C   0  0  0  0  0  0  0  0  0  0  0  0
    5.7971   -0.6244   -0.4624 C   0  0  0  0  0  0  0  0  0  0  0  0
    6.8390   -0.5672   -1.1353 O   0  0  0  0  0  0  0  0  0  0  0  0
    5.5216    0.1722    0.7411 C   0  0  0  0  0  0  0  0  0  0  0  0
    4.2825    0.4902    1.1192 C   0  0  0  0  0  0  0  0  0  0  0  0
    3.2398    0.2430    0.0697 C   0  0  1  0  0  0  0  0  0  0  0  0
    3.6418    1.1320   -1.0328 C   0  0  0  0  0  0  0  0  0  0  0  0
    1.8368    0.6456    0.7149 C   0  0  1  0  0  0  0  0  0  0  0  0
    1.3496    1.6235   -0.5988 C   0  0  1  0  0  0  0  0  0  0  0  0
    1.3345    0.5218   -1.6364 O   0  0  0  0  0  0  0  0  0  0  0  0
   -0.2331    1.6182   -0.2103 C   0  0  0  0  0  0  0  0  0  0  0  0
   -0.8858    0.3786   -0.1861 C   0  0  1  0  0  0  0  0  0  0  0  0
   -0.7741   -0.5641   -1.3698 C   0  0  0  0  0  0  0  0  0  0  0  0
   -2.2319    0.3821    0.1709 C   0  0  1  0  0  0  0  0  0  0  0  0
   -2.9696    1.0073   -1.0033 C   0  0  0  0  0  0  0  0  0  0  0  0
   -3.7758    1.8922   -0.6940 O   0  0  0  0  0  0  0  0  0  0  0  0
   -2.1225    1.5932   -2.1111 C   0  0  0  0  0  0  0  0  0  0  0  0
   -2.6848    1.6931   -3.3018 O   0  0  0  0  0  0  0  0  0  0  0  0
   -2.8578    0.6861    1.3358 O   0  0  0  0  0  0  0  0  0  0  0  0
  1  2  1  0
  2  3  1  0
  4  3  1  1
  4  5  1  0
  6  5  1  1
  6  7  1  0
  8  7  1  6
  8  9  1  0
  9 10  1  1
 10 11  1  0
 11 12  1  0
 12 13  2  0
 13 14  1  0
 14 15  2  0
 14 16  1  0
 16 17  2  0
 17 18  1  0
 18 19  1  6
 20 18  1  6
 20 21  1  0
 21 22  1  6
 21 23  1  0
 23 24  1  0
 24 25  1  6
 24 26  1  0
 26 27  1  6
 27 28  2  0
 27 29  1  0
 29 30  1  0
 26 31  1  0
 31  4  1  0
 26  6  1  0
 24  8  1  0
 20  9  1  0
 18 12  1  0
M  END
>  <supplier_code>  (1053) 
DB01222

>  <zinc_id>  (1053) 
ZINC000003938751

>  <catalog_short_name>  (1053) 
dbfda

$$$$

     RDKit          3D

 31 35  0  0  0  0  0  0  0  0999 V2000
   -5.1520    1.9585    0.5130 C   0  0  0  0  0  0  0  0  0  0  0  0
   -5.2043    1.7765    1.2443 C   0  0  0  0  0  0  0  0  0  0  0  0
   -4.2845    0.7128    1.8345 C   0  0  0  0  0  0  0  0  0  0  0  0
   -2.8796    1.1373    1.0298 C   0  0  1  0  0  0  0  0  0  0  0  0
   -2.0819    0.1213    1.8208 O   0  0  0  0  0  0  0  0  0  0  0  0
   -2.4584   -1.1792    1.1889 C   0  0  2  0  0  0  0  0  0  0  0  0
   -0.9035   -1.7623    1.2139 C   0  0  0  0  0  0  0  0  0  0  0  0
   -0.2630   -0.3375    0.7955 C   0  0  1  0  0  0  0  0  0  0  0  0
    1.2026   -0.8998    0.1848 C   0  0  2  0  0  0  0  0  0  0  0  0
    1.8230   -0.9783    1.6626 C   0  0  0  0  0  0  0  0  0  0  0  0
    3.3109   -1.0652    1.5671 C   0  0  0  0  0  0  0  0  0  0  0  0
    3.7563    0.2333    0.9617 C   0  0  0  0  0  0  0  0  0  0  0  0
    5.0052    0.5882    1.2132 C   0  0  0  0  0  0  0  0  0  0  0  0
    5.6244    1.6455    0.4305 C   0  0  0  0  0  0  0  0  0  0  0  0
    6.5113    2.3512    1.0029 O   0  0  0  0  0  0  0  0  0  0  0  0
    4.8416    2.2147   -0.6603 C   0  0  0  0  0  0  0  0  0  0  0  0
    3.6543    1.7118   -0.9488 C   0  0  0  0  0  0  0  0  0  0  0  0
    3.1485    0.4557   -0.3952 C   0  0  1  0  0  0  0  0  0  0  0  0
    3.3983   -0.7679   -1.1258 C   0  0  0  0  0  0  0  0  0  0  0  0
    1.6174    0.7085    0.0129 C   0  0  1  0  0  0  0  0  0  0  0  0
    1.0270    0.9644   -1.5707 C   0  0  1  0  0  0  0  0  0  0  0  0
    1.2288   -0.4325   -2.1023 O   0  0  0  0  0  0  0  0  0  0  0  0
   -0.5628    0.7576   -1.2633 C   0  0  0  0  0  0  0  0  0  0  0  0
   -0.9539   -0.4529   -0.6594 C   0  0  1  0  0  0  0  0  0  0  0  0
   -0.5460   -1.7781   -1.2585 C   0  0  0  0  0  0  0  0  0  0  0  0
   -2.3292   -0.6155   -0.3461 C   0  0  1  0  0  0  0  0  0  0  0  0
   -3.0221   -1.8098   -0.9737 C   0  0  0  0  0  0  0  0  0  0  0  0
   -2.6442   -2.9567   -0.7062 O   0  0  0  0  0  0  0  0  0  0  0  0
   -4.5186   -1.8719   -1.0986 C   0  0  0  0  0  0  0  0  0  0  0  0
   -5.1035   -0.6857   -1.4293 O   0  0  0  0  0  0  0  0  0  0  0  0
   -3.2421    0.2560   -0.1485 O   0  0  0  0  0  0  0  0  0  0  0  0
  1  2  1  0
  2  3  1  0
  4  3  1  1
  4  5  1  0
  6  5  1  1
  6  7  1  0
  8  7  1  1
  8  9  1  0
  9 10  1  1
 10 11  1  0
 11 12  1  0
 12 13  2  0
 13 14  1  0
 14 15  2  0
 14 16  1  0
 16 17  2  0
 17 18  1  0
 18 19  1  6
 20 18  1  6
 20 21  1  0
 21 22  1  6
 21 23  1  0
 23 24  1  0
 24 25  1  6
 24 26  1  0
 26 27  1  6
 27 28  2  0
 27 29  1  0
 29 30  1  0
 26 31  1  0
 31  4  1  0
 26  6  1  0
 24  8  1  0
 20  9  1  0
 18 12  1  0
M  END
>  <supplier_code>  (1054) 
DB01222

>  <zinc_id>  (1054) 
ZINC000004097286

>  <catalog_short_name>  (1054) 
dbfda

$$$$

     RDKit          3D

 13 14  0  0  0  0  0  0  0  0999 V2000
    0.0550    2.7844    0.2306 C   0  0  0  0  0  0  0  0  0  0  0  0
   -0.1163    1.3392    0.1737 N   0  0  0  0  0  0  0  0  0  0  0  0
    1.0198    0.5994    0.2061 C   0  0  0  0  0  0  0  0  0  0  0  0
    2.2841    0.7689   -0.2384 N   0  0  0  0  0  0  0  0  0  0  0  0
    2.8542   -0.4113   -0.5213 C   0  0  0  0  0  0  0  0  0  0  0  0
    2.0254   -1.3289    0.0374 N   0  0  0  0  0  0  0  0  0  0  0  0
    0.8146   -0.7751    0.2640 C   0  0  0  0  0  0  0  0  0  0  0  0
   -0.4736   -1.2339    0.4437 C   0  0  0  0  0  0  0  0  0  0  0  0
   -0.6382   -2.4431    0.7317 O   0  0  0  0  0  0  0  0  0  0  0  0
   -1.5045   -0.5110   -0.0589 N   0  0  0  0  0  0  0  0  0  0  0  0
   -2.7806   -1.1294   -0.4081 C   0  0  0  0  0  0  0  0  0  0  0  0
   -1.2863    0.8107   -0.2620 C   0  0  0  0  0  0  0  0  0  0  0  0
   -2.2536    1.5302   -0.5986 O   0  0  0  0  0  0  0  0  0  0  0  0
  1  2  1  0
  2  3  1  0
  3  4  1  0
  4  5  2  0
  5  6  1  0
  6  7  1  0
  7  8  1  0
  8  9  2  0
  8 10  1  0
 10 11  1  0
 10 12  1  0
 12 13  2  0
 12  2  1  0
  7  3  2  0
M  END
>  <supplier_code>  (1055) 
DB01223

>  <zinc_id>  (1055) 
ZINC000018043251

>  <catalog_short_name>  (1055) 
dbfda

$$$$

     RDKit          3D

 27 30  0  0  0  0  0  0  0  0999 V2000
    5.9366    2.3500    0.3315 O   0  0  0  0  0  0  0  0  0  0  0  0
    6.2776    1.3240   -0.5489 C   0  0  0  0  0  0  0  0  0  0  0  0
    5.9199   -0.0270    0.0435 C   0  0  0  0  0  0  0  0  0  0  0  0
    6.1146   -0.9972   -0.9435 O   0  0  0  0  0  0  0  0  0  0  0  0
    5.2741   -2.0868   -0.7978 C   0  0  0  0  0  0  0  0  0  0  0  0
    4.0088   -1.7582   -0.0524 C   0  0  0  0  0  0  0  0  0  0  0  0
    2.8980   -1.6129   -0.9813 N   0  0  0  0  0  0  0  0  0  0  0  0
    1.7961   -2.3819   -0.4624 C   0  0  0  0  0  0  0  0  0  0  0  0
    0.4605   -1.9502   -1.0563 C   0  0  0  0  0  0  0  0  0  0  0  0
    0.2445   -0.5853   -0.6568 N   0  0  0  0  0  0  0  0  0  0  0  0
   -1.0528   -0.0327   -0.4024 C   0  0  0  0  0  0  0  0  0  0  0  0
   -1.8060    0.2543   -1.3976 N   0  0  0  0  0  0  0  0  0  0  0  0
   -3.1445    0.7103   -1.4668 C   0  0  0  0  0  0  0  0  0  0  0  0
   -3.8939    0.1574   -2.4817 C   0  0  0  0  0  0  0  0  0  0  0  0
   -5.2770    0.2795   -2.4803 C   0  0  0  0  0  0  0  0  0  0  0  0
   -5.8625    0.8663   -1.3662 C   0  0  0  0  0  0  0  0  0  0  0  0
   -5.0764    1.7856   -0.6848 C   0  0  0  0  0  0  0  0  0  0  0  0
   -3.6921    1.6762   -0.6358 C   0  0  0  0  0  0  0  0  0  0  0  0
   -3.0908    2.3686    0.9086 S   0  0  0  0  0  0  0  0  0  0  0  0
   -2.0667    1.1014    1.6650 C   0  0  0  0  0  0  0  0  0  0  0  0
   -2.4911    0.8592    2.9657 C   0  0  0  0  0  0  0  0  0  0  0  0
   -2.2292   -0.3779    3.5348 C   0  0  0  0  0  0  0  0  0  0  0  0
   -1.1498   -1.1235    3.0787 C   0  0  0  0  0  0  0  0  0  0  0  0
   -0.7503   -0.9179    1.7641 C   0  0  0  0  0  0  0  0  0  0  0  0
   -1.3422    0.0979    1.0319 C   0  0  0  0  0  0  0  0  0  0  0  0
    1.3957    0.2313   -0.3444 C   0  0  0  0  0  0  0  0  0  0  0  0
    2.5991   -0.2105   -1.1310 C   0  0  0  0  0  0  0  0  0  0  0  0
  1  2  1  0
  2  3  1  0
  3  4  1  0
  4  5  1  0
  5  6  1  0
  6  7  1  0
  7  8  1  0
  8  9  1  0
  9 10  1  0
 10 11  1  0
 11 12  2  0
 12 13  1  0
 13 14  2  0
 14 15  1  0
 15 16  2  0
 16 17  1  0
 17 18  2  0
 18 19  1  0
 19 20  1  0
 20 21  2  0
 21 22  1  0
 22 23  2  0
 23 24  1  0
 24 25  2  0
 10 26  1  0
 26 27  1  0
 27  7  1  0
 25 11  1  0
 18 13  1  0
 25 20  1  0
M  END
>  <supplier_code>  (1056) 
DB01224

>  <zinc_id>  (1056) 
ZINC000019632628

>  <catalog_short_name>  (1056) 
dbfda

$$$$

     RDKit          2D

 62 68  0  0  0  0  0  0  0  0999 V2000
    7.0741    5.6779    0.0000 C   0  0  0  0  0  0  0  0  0  0  0  0
    6.4382    4.3194    0.0000 C   0  0  0  0  0  0  0  0  0  0  0  0
    7.2968    3.0894    0.0000 O   0  0  0  0  0  0  0  0  0  0  0  0
    4.9437    4.1908    0.0000 O   0  0  0  0  0  0  0  0  0  0  0  0
    4.3079    2.8322    0.0000 C   0  0  0  0  0  0  0  0  0  0  0  0
    2.8094    2.8997    0.0000 C   0  0  0  0  0  0  0  0  0  0  0  0
    1.3773    3.3784    0.0000 C   0  0  0  0  0  0  0  0  0  0  0  0
    1.2487    4.8729    0.0000 C   0  0  0  0  0  0  0  0  0  0  0  0
    0.1473    2.5198    0.0000 C   0  0  0  0  0  0  0  0  0  0  0  0
   -1.2112    3.1556    0.0000 O   0  0  0  0  0  0  0  0  0  0  0  0
   -2.4412    2.2970    0.0000 C   0  0  0  0  0  0  0  0  0  0  0  0
   -2.3126    0.8025    0.0000 O   0  0  0  0  0  0  0  0  0  0  0  0
   -3.7997    2.9329    0.0000 C   0  0  0  0  0  0  0  0  0  0  0  0
   -3.9284    4.4273    0.0000 O   0  0  0  0  0  0  0  0  0  0  0  0
   -5.0297    2.0742    0.0000 C   0  0  0  0  0  0  0  0  0  0  0  0
   -4.9011    0.5798    0.0000 N   0  0  0  0  0  0  0  0  0  0  0  0
   -6.1310   -0.2789    0.0000 C   0  0  0  0  0  0  0  0  0  0  0  0
   -7.4896    0.3570    0.0000 O   0  0  0  0  0  0  0  0  0  0  0  0
   -6.0024   -1.7733    0.0000 C   0  0  0  0  0  0  0  0  0  0  0  0
   -7.2323   -2.6320    0.0000 C   0  0  0  0  0  0  0  0  0  0  0  0
   -7.1037   -4.1264    0.0000 C   0  0  0  0  0  0  0  0  0  0  0  0
   -5.7452   -4.7623    0.0000 C   0  0  0  0  0  0  0  0  0  0  0  0
   -4.5152   -3.9037    0.0000 C   0  0  0  0  0  0  0  0  0  0  0  0
   -4.6438   -2.4092    0.0000 C   0  0  0  0  0  0  0  0  0  0  0  0
   -6.3882    2.7101    0.0000 C   0  0  0  0  0  0  0  0  0  0  0  0
   -6.5169    4.2046    0.0000 C   0  0  0  0  0  0  0  0  0  0  0  0
   -7.8754    4.8404    0.0000 C   0  0  0  0  0  0  0  0  0  0  0  0
   -9.1054    3.9818    0.0000 C   0  0  0  0  0  0  0  0  0  0  0  0
   -8.9768    2.4873    0.0000 C   0  0  0  0  0  0  0  0  0  0  0  0
   -7.6182    1.8515    0.0000 C   0  0  0  0  0  0  0  0  0  0  0  0
    0.2760    1.0253    0.0000 C   0  0  0  0  0  0  0  0  0  0  0  0
    1.6345    0.3895    0.0000 C   0  0  0  0  0  0  0  0  0  0  0  0
    0.2242   -0.1216    0.0000 O   0  0  0  0  0  0  0  0  0  0  0  0
    2.6463   -0.7179    0.0000 C   0  0  0  0  0  0  0  0  0  0  0  0
    2.0105   -2.0765    0.0000 O   0  0  0  0  0  0  0  0  0  0  0  0
    0.5160   -2.2051    0.0000 C   0  0  0  0  0  0  0  0  0  0  0  0
   -0.3426   -0.9751    0.0000 O   0  0  0  0  0  0  0  0  0  0  0  0
   -0.1198   -3.5636    0.0000 C   0  0  0  0  0  0  0  0  0  0  0  0
   -1.6143   -3.6923    0.0000 C   0  0  0  0  0  0  0  0  0  0  0  0
   -2.2502   -5.0508    0.0000 C   0  0  0  0  0  0  0  0  0  0  0  0
   -1.3916   -6.2808    0.0000 C   0  0  0  0  0  0  0  0  0  0  0  0
    0.1029   -6.1521    0.0000 C   0  0  0  0  0  0  0  0  0  0  0  0
    0.7388   -4.7936    0.0000 C   0  0  0  0  0  0  0  0  0  0  0  0
    4.1448   -0.7855    0.0000 C   0  0  0  0  0  0  0  0  0  0  0  0
    4.4674   -2.2504    0.0000 C   0  0  0  0  0  0  0  0  0  0  0  0
    2.9689   -2.1828    0.0000 O   0  0  0  0  0  0  0  0  0  0  0  0
    2.1612   -3.4467    0.0000 C   0  0  0  0  0  0  0  0  0  0  0  0
    0.6627   -3.3792    0.0000 C   0  0  0  0  0  0  0  0  0  0  0  0
    2.8519   -4.7782    0.0000 O   0  0  0  0  0  0  0  0  0  0  0  0
    4.0143   -3.6803    0.0000 C   0  0  0  0  0  0  0  0  0  0  0  0
    5.4442   -4.1334    0.0000 O   0  0  0  0  0  0  0  0  0  0  0  0
    5.8973   -2.7034    0.0000 C   0  0  0  0  0  0  0  0  0  0  0  0
    7.0047   -1.6916    0.0000 C   0  0  0  0  0  0  0  0  0  0  0  0
    6.6821   -0.2267    0.0000 C   0  0  0  0  0  0  0  0  0  0  0  0
    7.7894    0.7851    0.0000 O   0  0  0  0  0  0  0  0  0  0  0  0
    5.2522    0.2264    0.0000 C   0  0  0  0  0  0  0  0  0  0  0  0
    6.4821    1.0850    0.0000 C   0  0  0  0  0  0  0  0  0  0  0  0
    5.3197    1.7248    0.0000 C   0  0  0  0  0  0  0  0  0  0  0  0
    6.7300    2.2359    0.0000 O   0  0  0  0  0  0  0  0  0  0  0  0
    1.7021    1.8879    0.0000 C   0  0  0  0  0  0  0  0  0  0  0  0
    0.7097    3.0127    0.0000 C   0  0  0  0  0  0  0  0  0  0  0  0
    0.6090    1.9182    0.0000 C   0  0  0  0  0  0  0  0  0  0  0  0
  1  2  1  0
  2  3  2  0
  2  4  1  0
  5  4  1  1
  5  6  1  0
  6  7  2  0
  7  8  1  0
  7  9  1  0
  9 10  1  6
 10 11  1  0
 11 12  2  0
 13 11  1  1
 13 14  1  0
 13 15  1  0
 15 16  1  1
 16 17  1  0
 17 18  2  0
 17 19  1  0
 19 20  2  0
 20 21  1  0
 21 22  2  0
 22 23  1  0
 23 24  2  0
 15 25  1  0
 25 26  2  0
 26 27  1  0
 27 28  2  0
 28 29  1  0
 29 30  2  0
  9 31  1  0
 31 32  1  0
 32 33  1  1
 32 34  1  0
 34 35  1  6
 35 36  1  0
 36 37  2  0
 36 38  1  0
 38 39  2  0
 39 40  1  0
 40 41  2  0
 41 42  1  0
 42 43  2  0
 44 34  1  1
 44 45  1  0
 45 46  1  6
 46 47  1  0
 47 48  1  0
 47 49  2  0
 45 50  1  0
 50 51  1  0
 52 51  1  1
 52 53  1  0
 53 54  1  0
 54 55  1  1
 54 56  1  0
 56 57  1  1
 56 58  1  0
 58 59  2  0
 32 60  1  0
 60 61  1  0
 60 62  1  0
 58  5  1  0
 60  6  1  0
 24 19  1  0
 30 25  1  0
 43 38  1  0
 56 44  1  0
 52 45  1  0
M  END
>  <supplier_code>  (1057) 
DB01229

>  <zinc_id>  (1057) 
ZINC000096006020

>  <catalog_short_name>  (1057) 
dbfda

$$$$

     RDKit          3D

 49 53  0  0  0  0  0  0  0  0999 V2000
   -6.1005   -0.8471    2.7150 C   0  0  0  0  0  0  0  0  0  0  0  0
   -6.4453   -1.2995    1.7807 C   0  0  0  0  0  0  0  0  0  0  0  0
   -7.9544   -1.1542    1.5747 C   0  0  0  0  0  0  0  0  0  0  0  0
   -6.1948   -2.8026    1.6888 C   0  0  0  0  0  0  0  0  0  0  0  0
   -5.8660   -0.7700    0.5481 N   0  0  0  0  0  0  0  0  0  0  0  0
   -4.7807    0.0723    0.5766 C   0  0  0  0  0  0  0  0  0  0  0  0
   -4.5193    0.6371    1.6860 O   0  0  0  0  0  0  0  0  0  0  0  0
   -4.5034    1.1025   -0.6610 C   0  0  2  0  0  0  0  0  0  0  0  0
   -5.7964    0.5870   -1.5888 C   0  0  0  0  0  0  0  0  0  0  0  0
   -5.5283    1.5988   -2.8430 C   0  0  2  0  0  0  0  0  0  0  0  0
   -6.8157    1.0277   -3.6747 C   0  0  0  0  0  0  0  0  0  0  0  0
   -6.3850    0.1987   -4.8045 C   0  0  0  0  0  0  0  0  0  0  0  0
   -6.0010   -1.1466   -4.1881 C   0  0  0  0  0  0  0  0  0  0  0  0
   -4.9197   -0.8243   -3.1737 C   0  0  0  0  0  0  0  0  0  0  0  0
   -4.3482    0.6339   -3.6606 C   0  0  2  0  0  0  0  0  0  0  0  0
   -3.2173    0.8032   -2.4985 C   0  0  0  0  0  0  0  0  0  0  0  0
   -3.5436    0.0377   -1.3795 N   0  0  0  0  0  0  0  0  0  0  0  0
   -2.4920    0.0806   -0.4212 C   0  0  0  0  0  0  0  0  0  0  0  0
   -1.3596   -0.9316   -1.0902 C   0  0  1  0  0  0  0  0  0  0  0  0
   -0.4465    0.2339   -1.4738 O   0  0  0  0  0  0  0  0  0  0  0  0
   -0.5575   -1.2188    0.4449 C   0  0  2  0  0  0  0  0  0  0  0  0
   -0.4591    0.3784    0.8470 C   0  0  0  0  0  0  0  0  0  0  0  0
   -1.0744    0.4014    2.1915 C   0  0  0  0  0  0  0  0  0  0  0  0
   -1.4859    1.5988    2.7538 C   0  0  0  0  0  0  0  0  0  0  0  0
   -2.4567    1.6357    3.7295 C   0  0  0  0  0  0  0  0  0  0  0  0
   -3.0088    0.4321    4.1073 C   0  0  0  0  0  0  0  0  0  0  0  0
   -2.3201   -0.7615    3.9271 C   0  0  0  0  0  0  0  0  0  0  0  0
   -1.3405   -0.7141    2.9473 C   0  0  0  0  0  0  0  0  0  0  0  0
    0.8769   -1.3278   -0.1934 N   0  0  0  0  0  0  0  0  0  0  0  0
    1.9840   -0.6608    0.3334 C   0  0  0  0  0  0  0  0  0  0  0  0
    1.6651    0.5596    0.4765 O   0  0  0  0  0  0  0  0  0  0  0  0
    2.7370   -1.3144    1.6420 C   0  0  2  0  0  0  0  0  0  0  0  0
    3.5175    0.1124    2.0535 C   0  0  0  0  0  0  0  0  0  0  0  0
    3.4103    0.1482    3.5468 C   0  0  0  0  0  0  0  0  0  0  0  0
    2.3236    0.9394    4.0471 N   0  0  0  0  0  0  0  0  0  0  0  0
    4.5150    0.3287    4.1467 O   0  0  0  0  0  0  0  0  0  0  0  0
    4.0177   -1.8776    0.8687 N   0  0  0  0  0  0  0  0  0  0  0  0
    4.4915   -1.1999   -0.2141 C   0  0  0  0  0  0  0  0  0  0  0  0
    3.6232   -0.9498   -1.0710 O   0  0  0  0  0  0  0  0  0  0  0  0
    5.8771   -0.9245   -0.6176 C   0  0  0  0  0  0  0  0  0  0  0  0
    6.9552   -1.6349   -0.1216 C   0  0  0  0  0  0  0  0  0  0  0  0
    8.2003   -1.1960   -0.5644 C   0  0  0  0  0  0  0  0  0  0  0  0
    8.3292   -0.0624   -1.3385 C   0  0  0  0  0  0  0  0  0  0  0  0
    9.3425    0.1283   -2.2620 C   0  0  0  0  0  0  0  0  0  0  0  0
    9.0971    0.9582   -3.3524 C   0  0  0  0  0  0  0  0  0  0  0  0
    8.2028    1.9904   -3.2346 C   0  0  0  0  0  0  0  0  0  0  0  0
    7.3572    1.9427   -2.1339 C   0  0  0  0  0  0  0  0  0  0  0  0
    7.2868    0.8405   -1.2932 C   0  0  0  0  0  0  0  0  0  0  0  0
    6.1107    0.4059   -0.7786 N   0  0  0  0  0  0  0  0  0  0  0  0
  1  2  1  0
  2  3  1  0
  2  4  1  0
  2  5  1  0
  5  6  1  0
  6  7  2  0
  8  6  1  1
  8  9  1  0
 10  9  1  1
 10 11  1  0
 11 12  1  0
 12 13  1  0
 13 14  1  0
 15 14  1  1
 15 16  1  0
 16 17  1  0
 17 18  1  0
 19 18  1  1
 19 20  1  0
 19 21  1  0
 21 22  1  1
 22 23  1  0
 23 24  2  0
 24 25  1  0
 25 26  2  0
 26 27  1  0
 27 28  2  0
 21 29  1  0
 29 30  1  0
 30 31  2  0
 32 30  1  6
 32 33  1  0
 33 34  1  0
 34 35  1  0
 34 36  2  0
 32 37  1  0
 37 38  1  0
 38 39  2  0
 38 40  1  0
 40 41  2  0
 41 42  1  0
 42 43  2  0
 43 44  1  0
 44 45  2  0
 45 46  1  0
 46 47  2  0
 47 48  1  0
 48 49  2  0
 17  8  1  0
 28 23  1  0
 49 40  1  0
 15 10  1  0
 48 43  1  0
M  END
>  <supplier_code>  (1058) 
DB01232

>  <zinc_id>  (1058) 
ZINC000003914596

>  <catalog_short_name>  (1058) 
dbfda

$$$$

     RDKit          3D

 49 53  0  0  0  0  0  0  0  0999 V2000
    6.9289    4.8927    1.4769 C   0  0  0  0  0  0  0  0  0  0  0  0
    6.4708    4.2341    0.9226 C   0  0  0  0  0  0  0  0  0  0  0  0
    5.4677    4.8801   -0.0313 C   0  0  0  0  0  0  0  0  0  0  0  0
    7.4602    3.5250   -0.0006 C   0  0  0  0  0  0  0  0  0  0  0  0
    5.6613    3.2321    1.6239 N   0  0  0  0  0  0  0  0  0  0  0  0
    4.9291    2.2285    0.8903 C   0  0  0  0  0  0  0  0  0  0  0  0
    5.2430    2.2210   -0.3106 O   0  0  0  0  0  0  0  0  0  0  0  0
    4.9074    0.8280    1.6974 C   0  0  2  0  0  0  0  0  0  0  0  0
    5.9226    0.0765    0.6304 C   0  0  0  0  0  0  0  0  0  0  0  0
    5.9735   -1.4169    1.2571 C   0  0  2  0  0  0  0  0  0  0  0  0
    6.9071   -1.9757    0.0541 C   0  0  0  0  0  0  0  0  0  0  0  0
    6.3536   -3.2765   -0.4088 C   0  0  0  0  0  0  0  0  0  0  0  0
    5.6046   -4.0465    0.6389 C   0  0  0  0  0  0  0  0  0  0  0  0
    4.4260   -3.2714    1.1916 C   0  0  0  0  0  0  0  0  0  0  0  0
    4.5424   -1.8344    0.4476 C   0  0  1  0  0  0  0  0  0  0  0  0
    3.6525   -1.0796    1.5733 C   0  0  0  0  0  0  0  0  0  0  0  0
    3.6014    0.2727    0.9967 N   0  0  0  0  0  0  0  0  0  0  0  0
    2.4888    0.8251    1.6866 C   0  0  0  0  0  0  0  0  0  0  0  0
    1.3000    1.2357    0.6341 C   0  0  1  0  0  0  0  0  0  0  0  0
    2.1958    1.2031   -0.5837 O   0  0  0  0  0  0  0  0  0  0  0  0
    0.6948   -0.3796    0.4576 C   0  0  2  0  0  0  0  0  0  0  0  0
    0.7011   -0.4098   -1.1731 C   0  0  0  0  0  0  0  0  0  0  0  0
    1.4370   -1.6111   -1.5943 C   0  0  0  0  0  0  0  0  0  0  0  0
    1.4016   -2.8253   -0.9429 C   0  0  0  0  0  0  0  0  0  0  0  0
    1.7448   -3.9538   -1.6471 C   0  0  0  0  0  0  0  0  0  0  0  0
    2.6990   -3.7859   -2.6422 C   0  0  0  0  0  0  0  0  0  0  0  0
    2.9905   -2.5186   -3.0986 C   0  0  0  0  0  0  0  0  0  0  0  0
    2.0838   -1.5408   -2.8003 C   0  0  0  0  0  0  0  0  0  0  0  0
   -0.7750    0.1312    0.5706 N   0  0  0  0  0  0  0  0  0  0  0  0
   -1.7667   -0.2169   -0.3579 C   0  0  0  0  0  0  0  0  0  0  0  0
   -1.4154   -0.7490   -1.4214 O   0  0  0  0  0  0  0  0  0  0  0  0
   -2.7154    1.0351   -0.7914 C   0  0  2  0  0  0  0  0  0  0  0  0
   -3.4300    1.0765    0.6970 C   0  0  0  0  0  0  0  0  0  0  0  0
   -3.3101    2.5228    1.0569 C   0  0  0  0  0  0  0  0  0  0  0  0
   -3.1918    3.5210    0.0434 N   0  0  0  0  0  0  0  0  0  0  0  0
   -2.6639    2.7636    2.1213 O   0  0  0  0  0  0  0  0  0  0  0  0
   -3.7905    0.1162   -1.4863 N   0  0  0  0  0  0  0  0  0  0  0  0
   -4.5904   -0.7287   -0.7638 C   0  0  0  0  0  0  0  0  0  0  0  0
   -4.1339   -1.1549    0.3377 O   0  0  0  0  0  0  0  0  0  0  0  0
   -5.9935   -0.9463   -1.1710 C   0  0  0  0  0  0  0  0  0  0  0  0
   -6.6258   -0.0515   -2.0251 C   0  0  0  0  0  0  0  0  0  0  0  0
   -7.8977    0.4453   -1.7713 C   0  0  0  0  0  0  0  0  0  0  0  0
   -8.5604    0.0903   -0.6217 C   0  0  0  0  0  0  0  0  0  0  0  0
   -9.2915    0.9795    0.1580 C   0  0  0  0  0  0  0  0  0  0  0  0
  -10.0871    0.3981    1.1393 C   0  0  0  0  0  0  0  0  0  0  0  0
   -9.9595   -0.9580    1.4163 C   0  0  0  0  0  0  0  0  0  0  0  0
   -8.7624   -1.5785    1.0789 C   0  0  0  0  0  0  0  0  0  0  0  0
   -8.0201   -0.9675    0.0809 C   0  0  0  0  0  0  0  0  0  0  0  0
   -6.8085   -1.4570   -0.2179 N   0  0  0  0  0  0  0  0  0  0  0  0
  1  2  1  0
  2  3  1  0
  2  4  1  0
  2  5  1  0
  5  6  1  0
  6  7  2  0
  8  6  1  6
  8  9  1  0
 10  9  1  6
 10 11  1  0
 11 12  1  0
 12 13  1  0
 13 14  1  0
 15 14  1  1
 15 16  1  0
 16 17  1  0
 17 18  1  0
 19 18  1  1
 19 20  1  0
 19 21  1  0
 21 22  1  6
 22 23  1  0
 23 24  2  0
 24 25  1  0
 25 26  2  0
 26 27  1  0
 27 28  2  0
 21 29  1  0
 29 30  1  0
 30 31  2  0
 32 30  1  1
 32 33  1  0
 33 34  1  0
 34 35  1  0
 34 36  2  0
 32 37  1  0
 37 38  1  0
 38 39  2  0
 38 40  1  0
 40 41  2  0
 41 42  1  0
 42 43  2  0
 43 44  1  0
 44 45  2  0
 45 46  1  0
 46 47  2  0
 47 48  1  0
 48 49  2  0
 17  8  1  0
 28 23  1  0
 49 40  1  0
 15 10  1  0
 48 43  1  0
M  END
>  <supplier_code>  (1059) 
DB01232

>  <zinc_id>  (1059) 
ZINC000026664090

>  <catalog_short_name>  (1059) 
dbfda

$$$$

     RDKit          3D

 49 53  0  0  0  0  0  0  0  0999 V2000
   -8.0070   -0.3141    1.1355 C   0  0  0  0  0  0  0  0  0  0  0  0
   -7.9503   -0.6426    1.1359 C   0  0  0  0  0  0  0  0  0  0  0  0
   -7.6755   -0.9892    2.5486 C   0  0  0  0  0  0  0  0  0  0  0  0
   -9.2568   -0.9469    0.5747 C   0  0  0  0  0  0  0  0  0  0  0  0
   -6.8323   -0.5459    0.2820 N   0  0  0  0  0  0  0  0  0  0  0  0
   -5.6387    0.1526    0.6662 C   0  0  0  0  0  0  0  0  0  0  0  0
   -5.8821    1.0203    1.5686 O   0  0  0  0  0  0  0  0  0  0  0  0
   -4.9644    1.0129   -0.5303 C   0  0  2  0  0  0  0  0  0  0  0  0
   -5.0598   -0.2257   -1.6095 C   0  0  0  0  0  0  0  0  0  0  0  0
   -3.9083    0.1425   -2.6885 C   0  0  1  0  0  0  0  0  0  0  0  0
   -5.0099    0.3161   -3.8684 C   0  0  0  0  0  0  0  0  0  0  0  0
   -4.6491    1.4955   -4.6900 C   0  0  0  0  0  0  0  0  0  0  0  0
   -3.1546    1.6184   -4.7443 C   0  0  0  0  0  0  0  0  0  0  0  0
   -2.6719    2.0732   -3.4017 C   0  0  0  0  0  0  0  0  0  0  0  0
   -3.8719    1.8031   -2.3458 C   0  0  2  0  0  0  0  0  0  0  0  0
   -2.8350    1.5833   -1.1187 C   0  0  0  0  0  0  0  0  0  0  0  0
   -3.4649    0.6336   -0.1902 N   0  0  0  0  0  0  0  0  0  0  0  0
   -3.2273    1.1990    1.0718 C   0  0  0  0  0  0  0  0  0  0  0  0
   -2.2244    0.2487    1.9505 C   0  0  1  0  0  0  0  0  0  0  0  0
   -3.2259   -0.8865    2.0089 O   0  0  0  0  0  0  0  0  0  0  0  0
   -1.3741   -0.4266    0.6087 C   0  0  2  0  0  0  0  0  0  0  0  0
   -1.2945   -1.9095    1.2705 C   0  0  0  0  0  0  0  0  0  0  0  0
   -0.7514   -1.8751    2.5915 C   0  0  0  0  0  0  0  0  0  0  0  0
   -0.3582   -3.1427    3.0228 C   0  0  0  0  0  0  0  0  0  0  0  0
    0.1222   -3.3987    4.2720 C   0  0  0  0  0  0  0  0  0  0  0  0
    0.4786   -2.3364    5.0866 C   0  0  0  0  0  0  0  0  0  0  0  0
    0.3770   -1.0602    4.5736 C   0  0  0  0  0  0  0  0  0  0  0  0
   -0.5005   -0.9154    3.5079 C   0  0  0  0  0  0  0  0  0  0  0  0
    0.0558   -0.0454    1.1209 N   0  0  0  0  0  0  0  0  0  0  0  0
    1.0890    0.1614    0.1972 C   0  0  0  0  0  0  0  0  0  0  0  0
    0.7647    0.6092   -0.9449 O   0  0  0  0  0  0  0  0  0  0  0  0
    2.1622   -1.0327   -0.0303 C   0  0  2  0  0  0  0  0  0  0  0  0
    2.7972   -0.9106    1.4838 C   0  0  0  0  0  0  0  0  0  0  0  0
    2.9158    0.5117    1.8024 C   0  0  0  0  0  0  0  0  0  0  0  0
    4.1098    1.2544    1.5191 N   0  0  0  0  0  0  0  0  0  0  0  0
    2.3841    0.8513    2.9063 O   0  0  0  0  0  0  0  0  0  0  0  0
    3.2616   -0.0756   -0.6427 N   0  0  0  0  0  0  0  0  0  0  0  0
    4.0721   -0.8960   -1.5004 C   0  0  0  0  0  0  0  0  0  0  0  0
    3.5692   -1.8354   -2.1906 O   0  0  0  0  0  0  0  0  0  0  0  0
    5.4567   -0.5769   -1.8234 C   0  0  0  0  0  0  0  0  0  0  0  0
    5.7819   -0.2167   -3.1141 C   0  0  0  0  0  0  0  0  0  0  0  0
    6.9682    0.4266   -3.3439 C   0  0  0  0  0  0  0  0  0  0  0  0
    7.8007    0.6933   -2.2899 C   0  0  0  0  0  0  0  0  0  0  0  0
    8.7892    1.6351   -2.4522 C   0  0  0  0  0  0  0  0  0  0  0  0
    9.5674    1.9374   -1.3689 C   0  0  0  0  0  0  0  0  0  0  0  0
    9.0705    1.7378   -0.0905 C   0  0  0  0  0  0  0  0  0  0  0  0
    8.1792    0.6849    0.0625 C   0  0  0  0  0  0  0  0  0  0  0  0
    7.5435    0.1561   -1.0397 C   0  0  0  0  0  0  0  0  0  0  0  0
    6.4723   -0.6695   -0.9495 N   0  0  0  0  0  0  0  0  0  0  0  0
  1  2  1  0
  2  3  1  0
  2  4  1  0
  2  5  1  0
  5  6  1  0
  6  7  2  0
  8  6  1  1
  8  9  1  0
 10  9  1  1
 10 11  1  0
 11 12  1  0
 12 13  1  0
 13 14  1  0
 15 14  1  6
 15 16  1  0
 16 17  1  0
 17 18  1  0
 19 18  1  6
 19 20  1  0
 19 21  1  0
 21 22  1  1
 22 23  1  0
 23 24  2  0
 24 25  1  0
 25 26  2  0
 26 27  1  0
 27 28  2  0
 21 29  1  0
 29 30  1  0
 30 31  2  0
 32 30  1  1
 32 33  1  0
 33 34  1  0
 34 35  1  0
 34 36  2  0
 32 37  1  0
 37 38  1  0
 38 39  2  0
 38 40  1  0
 40 41  2  0
 41 42  1  0
 42 43  2  0
 43 44  1  0
 44 45  2  0
 45 46  1  0
 46 47  2  0
 47 48  1  0
 48 49  2  0
 17  8  1  0
 28 23  1  0
 49 40  1  0
 15 10  1  0
 48 43  1  0
M  END
>  <supplier_code>  (1060) 
DB01232

>  <zinc_id>  (1060) 
ZINC000026985532

>  <catalog_short_name>  (1060) 
dbfda

$$$$

     RDKit          3D

 49 53  0  0  0  0  0  0  0  0999 V2000
   -7.9824    2.4320   -2.0050 C   0  0  0  0  0  0  0  0  0  0  0  0
   -7.9085    2.1342   -1.6556 C   0  0  0  0  0  0  0  0  0  0  0  0
   -7.5650    2.8903   -0.3777 C   0  0  0  0  0  0  0  0  0  0  0  0
   -9.2417    1.4614   -1.3404 C   0  0  0  0  0  0  0  0  0  0  0  0
   -6.9416    1.0450   -1.7461 N   0  0  0  0  0  0  0  0  0  0  0  0
   -5.6878    1.0032   -1.0577 C   0  0  0  0  0  0  0  0  0  0  0  0
   -5.3711    1.9898   -0.3884 O   0  0  0  0  0  0  0  0  0  0  0  0
   -5.3675   -0.4507   -0.4044 C   0  0  2  0  0  0  0  0  0  0  0  0
   -6.2316   -0.0827    0.9504 C   0  0  0  0  0  0  0  0  0  0  0  0
   -6.2151   -1.4379    1.8371 C   0  0  1  0  0  0  0  0  0  0  0  0
   -5.8088   -2.4728    0.6492 C   0  0  0  0  0  0  0  0  0  0  0  0
   -5.5354   -3.7920    1.2981 C   0  0  0  0  0  0  0  0  0  0  0  0
   -4.1983   -3.5573    1.9731 C   0  0  0  0  0  0  0  0  0  0  0  0
   -4.3736   -2.5626    3.0106 C   0  0  0  0  0  0  0  0  0  0  0  0
   -4.6463   -1.0735    2.4256 C   0  0  1  0  0  0  0  0  0  0  0  0
   -3.8527   -1.2816    1.0288 C   0  0  0  0  0  0  0  0  0  0  0  0
   -4.0022   -0.0261    0.2839 N   0  0  0  0  0  0  0  0  0  0  0  0
   -2.9865   -0.1183   -0.7684 C   0  0  0  0  0  0  0  0  0  0  0  0
   -1.6575   -0.2895    0.1951 C   0  0  1  0  0  0  0  0  0  0  0  0
   -1.7135   -1.8031    0.0830 O   0  0  0  0  0  0  0  0  0  0  0  0
   -0.5206   -0.2583   -1.1039 C   0  0  2  0  0  0  0  0  0  0  0  0
    0.5631   -1.1974   -0.3171 C   0  0  0  0  0  0  0  0  0  0  0  0
    0.4684   -0.9740    1.1165 C   0  0  0  0  0  0  0  0  0  0  0  0
    0.5676    0.2049    1.7957 C   0  0  0  0  0  0  0  0  0  0  0  0
    0.2061    0.3221    3.1089 C   0  0  0  0  0  0  0  0  0  0  0  0
    0.2161   -0.8083    3.9131 C   0  0  0  0  0  0  0  0  0  0  0  0
    0.2713   -2.0277    3.2500 C   0  0  0  0  0  0  0  0  0  0  0  0
    0.7055   -2.0828    1.9295 C   0  0  0  0  0  0  0  0  0  0  0  0
    0.2150    1.0547   -0.6571 N   0  0  0  0  0  0  0  0  0  0  0  0
    1.2938    1.3212   -1.5751 C   0  0  0  0  0  0  0  0  0  0  0  0
    1.6401    0.4941   -2.4515 O   0  0  0  0  0  0  0  0  0  0  0  0
    2.5076    2.1890   -0.9290 C   0  0  2  0  0  0  0  0  0  0  0  0
    3.3044    2.3938   -2.3664 C   0  0  0  0  0  0  0  0  0  0  0  0
    2.5287    3.4405   -3.0760 C   0  0  0  0  0  0  0  0  0  0  0  0
    2.4087    4.6856   -2.3777 N   0  0  0  0  0  0  0  0  0  0  0  0
    2.5287    3.5167   -4.3200 O   0  0  0  0  0  0  0  0  0  0  0  0
    3.3569    0.8925   -0.5973 N   0  0  0  0  0  0  0  0  0  0  0  0
    4.5854    1.1630    0.0906 C   0  0  0  0  0  0  0  0  0  0  0  0
    5.2606    2.1064   -0.4195 O   0  0  0  0  0  0  0  0  0  0  0  0
    5.3392   -0.0378    0.4781 C   0  0  0  0  0  0  0  0  0  0  0  0
    5.2635   -1.2021   -0.2774 C   0  0  0  0  0  0  0  0  0  0  0  0
    6.3874   -1.9893   -0.4969 C   0  0  0  0  0  0  0  0  0  0  0  0
    7.5405   -1.7113    0.2263 C   0  0  0  0  0  0  0  0  0  0  0  0
    8.7971   -1.9148   -0.3336 C   0  0  0  0  0  0  0  0  0  0  0  0
    9.9003   -1.2649    0.2083 C   0  0  0  0  0  0  0  0  0  0  0  0
    9.7664   -0.8273    1.4996 C   0  0  0  0  0  0  0  0  0  0  0  0
    8.5109   -0.6285    2.0609 C   0  0  0  0  0  0  0  0  0  0  0  0
    7.3792   -0.8347    1.2817 C   0  0  0  0  0  0  0  0  0  0  0  0
    6.2950   -0.0334    1.4161 N   0  0  0  0  0  0  0  0  0  0  0  0
  1  2  1  0
  2  3  1  0
  2  4  1  0
  2  5  1  0
  5  6  1  0
  6  7  2  0
  8  6  1  6
  8  9  1  0
 10  9  1  6
 10 11  1  0
 11 12  1  0
 12 13  1  0
 13 14  1  0
 15 14  1  1
 15 16  1  0
 16 17  1  0
 17 18  1  0
 19 18  1  6
 19 20  1  0
 19 21  1  0
 21 22  1  1
 22 23  1  0
 23 24  2  0
 24 25  1  0
 25 26  2  0
 26 27  1  0
 27 28  2  0
 21 29  1  0
 29 30  1  0
 30 31  2  0
 32 30  1  6
 32 33  1  0
 33 34  1  0
 34 35  1  0
 34 36  2  0
 32 37  1  0
 37 38  1  0
 38 39  2  0
 38 40  1  0
 40 41  2  0
 41 42  1  0
 42 43  2  0
 43 44  1  0
 44 45  2  0
 45 46  1  0
 46 47  2  0
 47 48  1  0
 48 49  2  0
 17  8  1  0
 28 23  1  0
 49 40  1  0
 15 10  1  0
 48 43  1  0
M  END
>  <supplier_code>  (1061) 
DB01232

>  <zinc_id>  (1061) 
ZINC000029416466

>  <catalog_short_name>  (1061) 
dbfda

$$$$

     RDKit          3D

 20 20  0  0  0  0  0  0  0  0999 V2000
    6.0840    1.3101    0.7054 C   0  0  0  0  0  0  0  0  0  0  0  0
    4.6018    1.5561    0.6545 C   0  0  0  0  0  0  0  0  0  0  0  0
    3.9042    0.3551    0.2698 N   0  0  0  0  0  0  0  0  0  0  0  0
    4.7224   -0.4625   -0.5877 C   0  0  0  0  0  0  0  0  0  0  0  0
    4.5572   -1.9137   -0.2115 C   0  0  0  0  0  0  0  0  0  0  0  0
    2.6383    0.7161   -0.3111 C   0  0  0  0  0  0  0  0  0  0  0  0
    2.1397   -0.2711   -1.3284 C   0  0  0  0  0  0  0  0  0  0  0  0
    0.7308   -0.5851   -1.1243 N   0  0  0  0  0  0  0  0  0  0  0  0
    0.0843   -0.2215    0.0765 C   0  0  0  0  0  0  0  0  0  0  0  0
    0.7118    0.5520    0.8548 O   0  0  0  0  0  0  0  0  0  0  0  0
   -1.3617   -0.3429    0.2412 C   0  0  0  0  0  0  0  0  0  0  0  0
   -1.9355   -0.0776    1.4630 C   0  0  0  0  0  0  0  0  0  0  0  0
   -3.3012    0.1366    1.5974 C   0  0  0  0  0  0  0  0  0  0  0  0
   -3.9271    1.2095    2.8474 Cl  0  0  0  0  0  0  0  0  0  0  0  0
   -4.1376   -0.4095    0.6378 C   0  0  0  0  0  0  0  0  0  0  0  0
   -5.5338   -0.2476    0.8384 N   0  0  0  0  0  0  0  0  0  0  0  0
   -3.5777   -0.6669   -0.6017 C   0  0  0  0  0  0  0  0  0  0  0  0
   -2.2063   -0.6450   -0.8184 C   0  0  0  0  0  0  0  0  0  0  0  0
   -1.7396   -0.4387   -2.1201 O   0  0  0  0  0  0  0  0  0  0  0  0
   -2.4541    0.4465   -2.9745 C   0  0  0  0  0  0  0  0  0  0  0  0
  1  2  1  0
  2  3  1  0
  3  4  1  0
  4  5  1  0
  3  6  1  0
  6  7  1  0
  7  8  1  0
  8  9  1  0
  9 10  2  0
  9 11  1  0
 11 12  2  0
 12 13  1  0
 13 14  1  0
 13 15  2  0
 15 16  1  0
 15 17  1  0
 17 18  2  0
 18 19  1  0
 19 20  1  0
 18 11  1  0
M  END
>  <supplier_code>  (1062) 
DB01233

>  <zinc_id>  (1062) 
ZINC000001530716

>  <catalog_short_name>  (1062) 
dbfda

$$$$

     RDKit          3D

 28 31  0  0  0  0  0  0  0  0999 V2000
    1.9870    1.7886    1.8477 C   0  0  0  0  0  0  0  0  0  0  0  0
    2.8786    1.6331    0.4890 C   0  0  2  0  0  0  0  0  0  0  0  0
    1.6678    1.6673   -0.6149 C   0  0  0  0  0  0  0  0  0  0  0  0
    0.7502    0.7683    0.3560 C   0  0  1  0  0  0  0  0  0  0  0  0
   -0.3167    0.2104   -0.8251 C   0  0  2  0  0  0  0  0  0  0  0  0
   -1.2426    1.5427   -0.8458 C   0  0  0  0  0  0  0  0  0  0  0  0
   -1.9499    0.9780   -2.0989 C   0  0  0  0  0  0  0  0  0  0  0  0
   -2.9330    0.0476   -1.4291 C   0  0  0  0  0  0  0  0  0  0  0  0
   -4.1994    0.4347   -1.5739 C   0  0  0  0  0  0  0  0  0  0  0  0
   -5.1267    0.5720   -0.4473 C   0  0  0  0  0  0  0  0  0  0  0  0
   -5.8283    1.6278   -0.2789 O   0  0  0  0  0  0  0  0  0  0  0  0
   -4.6023    0.1446    0.8491 C   0  0  0  0  0  0  0  0  0  0  0  0
   -3.4794   -0.5435    0.9236 C   0  0  0  0  0  0  0  0  0  0  0  0
   -2.5701   -0.7797   -0.2514 C   0  0  1  0  0  0  0  0  0  0  0  0
   -2.7966   -2.2710   -0.5178 C   0  0  0  0  0  0  0  0  0  0  0  0
   -1.2018   -0.5375    0.2741 C   0  0  2  0  0  0  0  0  0  0  0  0
   -1.1855    0.0612    1.4707 F   0  0  0  0  0  0  0  0  0  0  0  0
   -0.4679   -1.9957    0.4768 C   0  0  1  0  0  0  0  0  0  0  0  0
   -0.1782   -2.1931   -1.0037 O   0  0  0  0  0  0  0  0  0  0  0  0
    1.0381   -1.4999    0.8771 C   0  0  0  0  0  0  0  0  0  0  0  0
    1.6768   -0.5204    0.0757 C   0  0  1  0  0  0  0  0  0  0  0  0
    1.8295   -0.7687   -1.3681 C   0  0  0  0  0  0  0  0  0  0  0  0
    2.9219    0.0077    0.5735 C   0  0  2  0  0  0  0  0  0  0  0  0
    3.2592   -0.3555    1.8561 O   0  0  0  0  0  0  0  0  0  0  0  0
    4.1399   -0.1444   -0.2173 C   0  0  0  0  0  0  0  0  0  0  0  0
    4.2359   -0.2325   -1.4405 O   0  0  0  0  0  0  0  0  0  0  0  0
    5.3104    0.6133    0.3498 C   0  0  0  0  0  0  0  0  0  0  0  0
    6.3831   -0.2556    0.2618 O   0  0  0  0  0  0  0  0  0  0  0  0
  2  1  1  1
  2  3  1  0
  4  3  1  6
  4  5  1  0
  5  6  1  1
  6  7  1  0
  7  8  1  0
  8  9  2  0
  9 10  1  0
 10 11  2  0
 10 12  1  0
 12 13  2  0
 13 14  1  0
 14 15  1  6
 14 16  1  0
 16 17  1  1
 16 18  1  0
 18 19  1  6
 18 20  1  0
 20 21  1  0
 21 22  1  6
 21 23  1  0
 23 24  1  1
 23 25  1  0
 25 26  2  0
 25 27  1  0
 27 28  1  0
 23  2  1  0
 21  4  1  0
 16  5  1  0
 14  8  1  0
M  END
>  <supplier_code>  (1063) 
DB01234

>  <zinc_id>  (1063) 
ZINC000003875332

>  <catalog_short_name>  (1063) 
dbfda

$$$$

     RDKit          3D

 14 14  0  0  0  0  0  0  0  0999 V2000
   -1.8622   -1.2936   -0.6607 N   0  0  0  0  0  0  0  0  0  0  0  0
   -2.3464   -0.2271    0.4354 C   0  0  1  0  0  0  0  0  0  0  0  0
   -1.0432    0.7667    0.0969 C   0  0  0  0  0  0  0  0  0  0  0  0
    0.1143   -0.1534    0.3474 C   0  0  0  0  0  0  0  0  0  0  0  0
    0.5332   -0.3791    1.6543 C   0  0  0  0  0  0  0  0  0  0  0  0
    1.8779   -0.3182    2.0056 C   0  0  0  0  0  0  0  0  0  0  0  0
    2.8539   -0.1312    1.0334 C   0  0  0  0  0  0  0  0  0  0  0  0
    3.9312    0.7181    1.3076 O   0  0  0  0  0  0  0  0  0  0  0  0
    2.4525   -0.3366   -0.2816 C   0  0  0  0  0  0  0  0  0  0  0  0
    3.4566   -0.3349   -1.2438 O   0  0  0  0  0  0  0  0  0  0  0  0
    1.1034   -0.3099   -0.6173 C   0  0  0  0  0  0  0  0  0  0  0  0
   -3.2721    0.5608   -0.6702 C   0  0  0  0  0  0  0  0  0  0  0  0
   -3.5697    1.7061   -0.2112 O   0  0  0  0  0  0  0  0  0  0  0  0
   -4.2295   -0.2676   -1.2421 O   0  0  0  0  0  0  0  0  0  0  0  0
  2  1  1  6
  2  3  1  0
  3  4  1  0
  4  5  2  0
  5  6  1  0
  6  7  2  0
  7  8  1  0
  7  9  1  0
  9 10  1  0
  9 11  2  0
  2 12  1  0
 12 13  2  0
 12 14  1  0
 11  4  1  0
M  END
>  <supplier_code>  (1064) 
DB01235

>  <zinc_id>  (1064) 
ZINC000000895199

>  <catalog_short_name>  (1064) 
dbfda

$$$$

     RDKit          3D

 12 11  0  0  0  0  0  0  0  0999 V2000
    2.7430   -1.5880   -0.8042 F   0  0  0  0  0  0  0  0  0  0  0  0
    1.6034   -1.4219   -0.0219 C   0  0  0  0  0  0  0  0  0  0  0  0
    0.5897   -1.0378   -0.8687 O   0  0  0  0  0  0  0  0  0  0  0  0
   -0.2112   -0.0332   -0.4276 C   0  0  0  0  0  0  0  0  0  0  0  0
    0.4416    1.2221    0.0061 C   0  0  0  0  0  0  0  0  0  0  0  0
    1.7871    1.1284    0.2348 F   0  0  0  0  0  0  0  0  0  0  0  0
   -0.1279    1.7922    1.1405 F   0  0  0  0  0  0  0  0  0  0  0  0
    0.2730    2.1515   -1.0180 F   0  0  0  0  0  0  0  0  0  0  0  0
   -1.4550   -0.4231    0.2800 C   0  0  0  0  0  0  0  0  0  0  0  0
   -1.6699   -1.7804    0.0537 F   0  0  0  0  0  0  0  0  0  0  0  0
   -2.5722    0.2165   -0.2316 F   0  0  0  0  0  0  0  0  0  0  0  0
   -1.4015   -0.2263    1.6569 F   0  0  0  0  0  0  0  0  0  0  0  0
  1  2  1  0
  2  3  1  0
  3  4  1  0
  4  5  1  0
  5  6  1  0
  5  7  1  0
  5  8  1  0
  4  9  1  0
  9 10  1  0
  9 11  1  0
  9 12  1  0
M  END
>  <supplier_code>  (1065) 
DB01236

>  <zinc_id>  (1065) 
ZINC000001530810

>  <catalog_short_name>  (1065) 
dbfda

$$$$

     RDKit          3D

 30 33  0  0  0  0  0  0  0  0999 V2000
   -8.1536    0.8195   -2.6746 O   0  0  0  0  0  0  0  0  0  0  0  0
   -7.7975    0.2452   -1.6010 C   0  0  0  0  0  0  0  0  0  0  0  0
   -8.5754    0.3719   -0.3404 C   0  0  0  0  0  0  0  0  0  0  0  0
   -7.7155    0.7044    0.8459 C   0  0  0  0  0  0  0  0  0  0  0  0
   -6.2829    0.4281    0.6289 C   0  0  0  0  0  0  0  0  0  0  0  0
   -5.3512    0.9721    1.4836 C   0  0  0  0  0  0  0  0  0  0  0  0
   -4.0197    0.5805    1.4141 C   0  0  0  0  0  0  0  0  0  0  0  0
   -3.6412   -0.4784    0.5983 C   0  0  0  0  0  0  0  0  0  0  0  0
   -2.3116   -0.8776    0.4674 O   0  0  0  0  0  0  0  0  0  0  0  0
   -1.9824   -1.7103   -0.6390 C   0  0  0  0  0  0  0  0  0  0  0  0
   -0.4959   -2.0210   -0.5855 C   0  0  0  0  0  0  0  0  0  0  0  0
    0.1990   -0.9286   -1.3830 C   0  0  0  0  0  0  0  0  0  0  0  0
    0.7444    0.0759   -0.3784 C   0  0  0  0  0  0  0  0  0  0  0  0
    2.1666   -0.2038   -0.2109 N   0  0  0  0  0  0  0  0  0  0  0  0
    2.3860   -1.4592    0.4730 C   0  0  0  0  0  0  0  0  0  0  0  0
    3.8534   -1.5907    0.7724 C   0  0  0  0  0  0  0  0  0  0  0  0
    4.6828   -0.9904   -0.2694 N   0  0  0  0  0  0  0  0  0  0  0  0
    5.4445    0.1511    0.1426 C   0  0  0  0  0  0  0  0  0  0  0  0
    4.8721    1.0815    0.9998 C   0  0  0  0  0  0  0  0  0  0  0  0
    5.3393    2.3807    0.8947 C   0  0  0  0  0  0  0  0  0  0  0  0
    6.5187    2.6644    0.2307 C   0  0  0  0  0  0  0  0  0  0  0  0
    7.2270    1.6405   -0.3746 C   0  0  0  0  0  0  0  0  0  0  0  0
    8.9361    1.8968   -0.6406 Cl  0  0  0  0  0  0  0  0  0  0  0  0
    6.6171    0.4174   -0.5439 C   0  0  0  0  0  0  0  0  0  0  0  0
    7.6539   -0.9501   -0.9060 Cl  0  0  0  0  0  0  0  0  0  0  0  0
    4.0753   -0.9005   -1.5944 C   0  0  0  0  0  0  0  0  0  0  0  0
    2.7602   -0.1705   -1.5293 C   0  0  0  0  0  0  0  0  0  0  0  0
   -4.6423   -1.0664   -0.1516 C   0  0  0  0  0  0  0  0  0  0  0  0
   -5.8935   -0.5231   -0.3051 C   0  0  0  0  0  0  0  0  0  0  0  0
   -6.6139   -0.5594   -1.5428 N   0  0  0  0  0  0  0  0  0  0  0  0
  1  2  2  0
  2  3  1  0
  3  4  1  0
  4  5  1  0
  5  6  2  0
  6  7  1  0
  7  8  2  0
  8  9  1  0
  9 10  1  0
 10 11  1  0
 11 12  1  0
 12 13  1  0
 13 14  1  0
 14 15  1  0
 15 16  1  0
 16 17  1  0
 17 18  1  0
 18 19  2  0
 19 20  1  0
 20 21  2  0
 21 22  1  0
 22 23  1  0
 22 24  2  0
 24 25  1  0
 17 26  1  0
 26 27  1  0
  8 28  1  0
 28 29  2  0
 29 30  1  0
 30  2  1  0
 29  5  1  0
 27 14  1  0
 24 18  1  0
M  END
>  <supplier_code>  (1066) 
DB01238

>  <zinc_id>  (1066) 
ZINC000001851149

>  <catalog_short_name>  (1066) 
dbfda

$$$$

     RDKit          3D

 25 26  0  0  0  0  0  0  0  0999 V2000
    8.5092    0.2854   -0.6782 C   0  0  0  0  0  0  0  0  0  0  0  0
    7.1542    0.8087   -0.3057 C   0  0  0  0  0  0  0  0  0  0  0  0
    6.4587   -0.3959    0.3260 C   0  0  0  0  0  0  0  0  0  0  0  0
    4.9945    0.0360    0.3002 C   0  0  0  0  0  0  0  0  0  0  0  0
    4.3153   -1.1649   -0.3413 C   0  0  0  0  0  0  0  0  0  0  0  0
    3.0735   -1.1862    0.7462 C   0  0  2  0  0  0  0  0  0  0  0  0
    2.2254   -2.0323   -0.1968 O   0  0  0  0  0  0  0  0  0  0  0  0
    2.4142    0.1723    0.1767 C   0  0  0  0  0  0  0  0  0  0  0  0
    1.7672    1.0733    0.6644 C   0  0  0  0  0  0  0  0  0  0  0  0
    0.4727    1.0797    1.5983 C   0  0  1  0  0  0  0  0  0  0  0  0
   -0.3143    2.3577    0.8260 C   0  0  2  0  0  0  0  0  0  0  0  0
   -1.7475    1.9164    1.0381 O   0  0  0  0  0  0  0  0  0  0  0  0
   -0.1673    1.8256   -0.6577 C   0  0  0  0  0  0  0  0  0  0  0  0
   -0.3380    0.2636   -0.7453 C   0  0  2  0  0  0  0  0  0  0  0  0
   -1.8900    0.2481   -0.6977 O   0  0  0  0  0  0  0  0  0  0  0  0
   -2.0274   -0.9605   -0.0083 C   0  0  0  0  0  0  0  0  0  0  0  0
   -2.7727   -1.9985   -0.1546 C   0  0  0  0  0  0  0  0  0  0  0  0
   -3.8947   -1.9487   -1.1317 C   0  0  0  0  0  0  0  0  0  0  0  0
   -5.1455   -1.7849   -0.3066 C   0  0  0  0  0  0  0  0  0  0  0  0
   -5.7318   -0.4235   -0.6477 C   0  0  0  0  0  0  0  0  0  0  0  0
   -5.3267    0.5106    0.4283 C   0  0  0  0  0  0  0  0  0  0  0  0
   -5.0893    1.7026    0.1102 O   0  0  0  0  0  0  0  0  0  0  0  0
   -5.1233    0.1363    1.7004 O   0  0  0  0  0  0  0  0  0  0  0  0
   -1.6823   -0.2655    1.2834 C   0  0  0  0  0  0  0  0  0  0  0  0
   -0.1340   -0.2551    0.8440 C   0  0  2  0  0  0  0  0  0  0  0  0
  1  2  1  0
  2  3  1  0
  3  4  1  0
  4  5  1  0
  6  5  1  6
  6  7  1  0
  6  8  1  0
  8  9  2  0
 10  9  1  6
 10 11  1  0
 11 12  1  1
 11 13  1  0
 14 13  1  1
 14 15  1  0
 15 16  1  0
 16 17  2  0
 17 18  1  0
 18 19  1  0
 19 20  1  0
 20 21  1  0
 21 22  2  0
 21 23  1  0
 16 24  1  0
 25 24  1  1
 25 10  1  0
 25 14  1  0
M  END
>  <supplier_code>  (1067) 
DB01240

>  <zinc_id>  (1067) 
ZINC000003813078

>  <catalog_short_name>  (1067) 
dbfda

$$$$

     RDKit          3D

 25 26  0  0  0  0  0  0  0  0999 V2000
    6.5551    1.0079    0.6059 C   0  0  0  0  0  0  0  0  0  0  0  0
    6.3038    1.1348    0.7216 C   0  0  0  0  0  0  0  0  0  0  0  0
    5.3436    1.9165   -0.1552 C   0  0  0  0  0  0  0  0  0  0  0  0
    5.0531    0.9839   -1.3191 C   0  0  0  0  0  0  0  0  0  0  0  0
    5.2532   -0.4767   -0.9594 C   0  0  0  0  0  0  0  0  0  0  0  0
    4.2462   -0.6977    0.3664 C   0  0  2  0  0  0  0  0  0  0  0  0
    3.7581   -2.0532   -0.1899 O   0  0  0  0  0  0  0  0  0  0  0  0
    3.0001    0.0903   -0.3734 C   0  0  0  0  0  0  0  0  0  0  0  0
    2.0655    0.2283    0.5335 C   0  0  0  0  0  0  0  0  0  0  0  0
    0.7740    1.1024    0.1413 C   0  0  1  0  0  0  0  0  0  0  0  0
    0.6932    0.4385   -1.4398 C   0  0  2  0  0  0  0  0  0  0  0  0
   -0.3310    1.5237   -1.8481 O   0  0  0  0  0  0  0  0  0  0  0  0
   -0.5153   -0.6348   -1.1908 C   0  0  0  0  0  0  0  0  0  0  0  0
    0.2652   -1.3159    0.0853 C   0  0  2  0  0  0  0  0  0  0  0  0
   -1.0333   -2.0326    0.5494 O   0  0  0  0  0  0  0  0  0  0  0  0
   -2.0410   -1.1435    0.4385 C   0  0  0  0  0  0  0  0  0  0  0  0
   -3.3397   -1.4316    0.5160 C   0  0  0  0  0  0  0  0  0  0  0  0
   -4.3100   -0.7259   -0.3489 C   0  0  0  0  0  0  0  0  0  0  0  0
   -4.2901    0.7245    0.1201 C   0  0  0  0  0  0  0  0  0  0  0  0
   -5.5041    1.3688   -0.5202 C   0  0  0  0  0  0  0  0  0  0  0  0
   -6.5649    0.3186   -0.4826 C   0  0  0  0  0  0  0  0  0  0  0  0
   -6.6648   -0.3241   -1.5513 O   0  0  0  0  0  0  0  0  0  0  0  0
   -6.9159   -0.3186    0.6976 O   0  0  0  0  0  0  0  0  0  0  0  0
   -1.5989    0.2694    0.2088 C   0  0  0  0  0  0  0  0  0  0  0  0
   -0.2021    0.0468    1.0024 C   0  0  2  0  0  0  0  0  0  0  0  0
  1  2  1  0
  2  3  1  0
  3  4  1  0
  4  5  1  0
  6  5  1  6
  6  7  1  0
  6  8  1  0
  8  9  2  0
 10  9  1  1
 10 11  1  0
 11 12  1  6
 11 13  1  0
 14 13  1  6
 14 15  1  0
 15 16  1  0
 16 17  2  0
 17 18  1  0
 18 19  1  0
 19 20  1  0
 20 21  1  0
 21 22  2  0
 21 23  1  0
 16 24  1  0
 25 24  1  6
 25 10  1  0
 25 14  1  0
M  END
>  <supplier_code>  (1068) 
DB01240

>  <zinc_id>  (1068) 
ZINC000012495062

>  <catalog_short_name>  (1068) 
dbfda

$$$$

     RDKit          3D

 18 18  0  0  0  0  0  0  0  0999 V2000
   -4.2031    2.6143   -0.7514 C   0  0  0  0  0  0  0  0  0  0  0  0
   -3.8957    1.2173   -0.3293 C   0  0  0  0  0  0  0  0  0  0  0  0
   -4.8465    0.5928    0.4385 C   0  0  0  0  0  0  0  0  0  0  0  0
   -4.5586   -0.6285    0.9907 C   0  0  0  0  0  0  0  0  0  0  0  0
   -3.3467   -1.2577    0.7281 C   0  0  0  0  0  0  0  0  0  0  0  0
   -2.9795   -2.3424    1.6923 C   0  0  0  0  0  0  0  0  0  0  0  0
   -2.3594   -0.6444   -0.0367 C   0  0  0  0  0  0  0  0  0  0  0  0
   -1.0481   -0.9144    0.3394 O   0  0  0  0  0  0  0  0  0  0  0  0
    0.0478   -0.9080   -0.5420 C   0  0  0  0  0  0  0  0  0  0  0  0
    1.1905   -0.2281    0.2021 C   0  0  0  0  0  0  0  0  0  0  0  0
    2.3864    0.0074   -0.6698 C   0  0  0  0  0  0  0  0  0  0  0  0
    3.6312    0.0371    0.2096 C   0  0  0  0  0  0  0  0  0  0  0  0
    3.3768    0.7461    1.5162 C   0  0  0  0  0  0  0  0  0  0  0  0
    3.9524   -1.4114    0.5342 C   0  0  0  0  0  0  0  0  0  0  0  0
    4.7829    0.6665   -0.5014 C   0  0  0  0  0  0  0  0  0  0  0  0
    5.1630    1.8355   -0.2451 O   0  0  0  0  0  0  0  0  0  0  0  0
    5.3970    0.0138   -1.5600 O   0  0  0  0  0  0  0  0  0  0  0  0
   -2.6905    0.6042   -0.5546 C   0  0  0  0  0  0  0  0  0  0  0  0
  1  2  1  0
  2  3  2  0
  3  4  1  0
  4  5  2  0
  5  6  1  0
  5  7  1  0
  7  8  1  0
  8  9  1  0
  9 10  1  0
 10 11  1  0
 11 12  1  0
 12 13  1  0
 12 14  1  0
 12 15  1  0
 15 16  2  0
 15 17  1  0
  7 18  2  0
 18  2  1  0
M  END
>  <supplier_code>  (1069) 
DB01241

>  <zinc_id>  (1069) 
ZINC000001530641

>  <catalog_short_name>  (1069) 
dbfda

$$$$

     RDKit          3D

 22 24  0  0  0  0  0  0  0  0999 V2000
    4.9348    0.8241    0.3691 C   0  0  0  0  0  0  0  0  0  0  0  0
    4.2922   -0.3976   -0.0501 N   0  0  0  0  0  0  0  0  0  0  0  0
    4.9092   -1.5369    0.6072 C   0  0  0  0  0  0  0  0  0  0  0  0
    2.8617   -0.3610    0.2012 C   0  0  0  0  0  0  0  0  0  0  0  0
    2.0942   -1.0683   -0.8820 C   0  0  0  0  0  0  0  0  0  0  0  0
    0.9462   -0.2146   -1.3872 C   0  0  0  0  0  0  0  0  0  0  0  0
   -0.1245   -0.2076   -0.4256 N   0  0  0  0  0  0  0  0  0  0  0  0
   -0.8761   -1.4101   -0.2222 C   0  0  0  0  0  0  0  0  0  0  0  0
   -0.2310   -2.4820   -0.8074 C   0  0  0  0  0  0  0  0  0  0  0  0
   -0.8765   -3.7074   -0.6866 C   0  0  0  0  0  0  0  0  0  0  0  0
   -2.2431   -3.7209   -0.4457 C   0  0  0  0  0  0  0  0  0  0  0  0
   -2.8916   -2.5983    0.0545 C   0  0  0  0  0  0  0  0  0  0  0  0
   -2.0499   -1.5883    0.4993 C   0  0  0  0  0  0  0  0  0  0  0  0
   -2.8373   -0.4631    1.0922 C   0  0  0  0  0  0  0  0  0  0  0  0
   -1.9915    0.3910    2.0141 C   0  0  0  0  0  0  0  0  0  0  0  0
   -1.1112    1.3276    1.2632 C   0  0  0  0  0  0  0  0  0  0  0  0
   -1.3171    2.6640    1.5859 C   0  0  0  0  0  0  0  0  0  0  0  0
   -1.1811    3.6495    0.6152 C   0  0  0  0  0  0  0  0  0  0  0  0
   -0.7188    3.3496   -0.6604 C   0  0  0  0  0  0  0  0  0  0  0  0
   -1.1369    4.3300   -2.0550 Cl  0  0  0  0  0  0  0  0  0  0  0  0
   -0.0774    2.1214   -0.7872 C   0  0  0  0  0  0  0  0  0  0  0  0
   -0.3744    1.0988    0.1073 C   0  0  0  0  0  0  0  0  0  0  0  0
  1  2  1  0
  2  3  1  0
  2  4  1  0
  4  5  1  0
  5  6  1  0
  6  7  1  0
  7  8  1  0
  8  9  2  0
  9 10  1  0
 10 11  2  0
 11 12  1  0
 12 13  2  0
 13 14  1  0
 14 15  1  0
 15 16  1  0
 16 17  2  0
 17 18  1  0
 18 19  2  0
 19 20  1  0
 19 21  1  0
 21 22  2  0
 22  7  1  0
 13  8  1  0
 22 16  1  0
M  END
>  <supplier_code>  (1070) 
DB01242

>  <zinc_id>  (1070) 
ZINC000000020248

>  <catalog_short_name>  (1070) 
dbfda

$$$$

     RDKit          3D

 17 18  0  0  0  0  0  0  0  0999 V2000
    5.2887    1.7306    0.7827 C   0  0  0  0  0  0  0  0  0  0  0  0
    4.2836    0.7827    0.2062 C   0  0  0  0  0  0  0  0  0  0  0  0
    2.8985    0.8898    0.2575 C   0  0  0  0  0  0  0  0  0  0  0  0
    2.4759   -0.4345    0.2257 C   0  0  0  0  0  0  0  0  0  0  0  0
    1.0854   -0.8251    0.3006 C   0  0  0  0  0  0  0  0  0  0  0  0
    0.7626   -1.5774    1.2656 O   0  0  0  0  0  0  0  0  0  0  0  0
    0.0999   -0.4310   -0.6531 N   0  0  0  0  0  0  0  0  0  0  0  0
   -0.8919   -1.3680   -0.9957 N   0  0  0  0  0  0  0  0  0  0  0  0
   -2.0194   -0.6825   -1.5754 C   0  0  0  0  0  0  0  0  0  0  0  0
   -2.8021    0.0711   -0.5690 C   0  0  0  0  0  0  0  0  0  0  0  0
   -4.1046    0.4439   -0.8757 C   0  0  0  0  0  0  0  0  0  0  0  0
   -4.9589    0.8186    0.1230 C   0  0  0  0  0  0  0  0  0  0  0  0
   -4.5193    0.8581    1.4340 C   0  0  0  0  0  0  0  0  0  0  0  0
   -3.1633    0.8684    1.6736 C   0  0  0  0  0  0  0  0  0  0  0  0
   -2.3625    0.2647    0.7250 C   0  0  0  0  0  0  0  0  0  0  0  0
    3.4201   -1.0528   -0.5214 N   0  0  0  0  0  0  0  0  0  0  0  0
    4.5072   -0.3566   -0.3908 O   0  0  0  0  0  0  0  0  0  0  0  0
  1  2  1  0
  2  3  2  0
  3  4  1  0
  4  5  1  0
  5  6  2  0
  5  7  1  0
  7  8  1  0
  8  9  1  0
  9 10  1  0
 10 11  2  0
 11 12  1  0
 12 13  2  0
 13 14  1  0
 14 15  2  0
  4 16  2  0
 16 17  1  0
 17  2  1  0
 15 10  1  0
M  END
>  <supplier_code>  (1071) 
DB01247

>  <zinc_id>  (1071) 
ZINC000000001587

>  <catalog_short_name>  (1071) 
dbfda

$$$$

     RDKit          2D

 58 63  0  0  0  0  0  0  0  0999 V2000
    1.4725   -3.0929    0.0000 C   0  0  0  0  0  0  0  0  0  0  0  0
    2.9662   -2.9556    0.0000 C   0  0  0  0  0  0  0  0  0  0  0  0
    3.8319   -4.1806    0.0000 O   0  0  0  0  0  0  0  0  0  0  0  0
    3.5942   -1.5934    0.0000 O   0  0  0  0  0  0  0  0  0  0  0  0
    5.0879   -1.4562    0.0000 C   0  0  0  0  0  0  0  0  0  0  0  0
    4.8339   -2.9345    0.0000 C   0  0  0  0  0  0  0  0  0  0  0  0
    6.3122   -3.1885    0.0000 O   0  0  0  0  0  0  0  0  0  0  0  0
    6.5662   -1.7102    0.0000 C   0  0  0  0  0  0  0  0  0  0  0  0
    7.5254   -0.5569    0.0000 C   0  0  0  0  0  0  0  0  0  0  0  0
    7.0062    0.8504    0.0000 C   0  0  0  0  0  0  0  0  0  0  0  0
    7.9653    2.0037    0.0000 O   0  0  0  0  0  0  0  0  0  0  0  0
    5.5279    1.1044    0.0000 C   0  0  0  0  0  0  0  0  0  0  0  0
    6.6293    2.1226    0.0000 C   0  0  0  0  0  0  0  0  0  0  0  0
    5.3906    2.5981    0.0000 C   0  0  0  0  0  0  0  0  0  0  0  0
    6.7181    3.2965    0.0000 O   0  0  0  0  0  0  0  0  0  0  0  0
    4.2373    3.5573    0.0000 C   0  0  0  0  0  0  0  0  0  0  0  0
    4.6821    4.9898    0.0000 O   0  0  0  0  0  0  0  0  0  0  0  0
    2.7436    3.4200    0.0000 C   0  0  0  0  0  0  0  0  0  0  0  0
    1.2596    3.6990    0.0000 C   0  0  0  0  0  0  0  0  0  0  0  0
    0.9285    5.1620    0.0000 C   0  0  0  0  0  0  0  0  0  0  0  0
    0.1581    2.6808    0.0000 C   0  0  0  0  0  0  0  0  0  0  0  0
   -1.2744    3.1256    0.0000 O   0  0  0  0  0  0  0  0  0  0  0  0
   -2.3759    2.1074    0.0000 C   0  0  0  0  0  0  0  0  0  0  0  0
   -2.0448    0.6444    0.0000 O   0  0  0  0  0  0  0  0  0  0  0  0
   -3.8084    2.5522    0.0000 C   0  0  0  0  0  0  0  0  0  0  0  0
   -4.1395    4.0152    0.0000 O   0  0  0  0  0  0  0  0  0  0  0  0
   -4.9099    1.5340    0.0000 C   0  0  0  0  0  0  0  0  0  0  0  0
   -4.5788    0.0710    0.0000 N   0  0  0  0  0  0  0  0  0  0  0  0
   -5.6803   -0.9472    0.0000 C   0  0  0  0  0  0  0  0  0  0  0  0
   -7.1128   -0.5024    0.0000 O   0  0  0  0  0  0  0  0  0  0  0  0
   -5.3492   -2.4103    0.0000 O   0  0  0  0  0  0  0  0  0  0  0  0
   -6.4507   -3.4285    0.0000 C   0  0  0  0  0  0  0  0  0  0  0  0
   -5.4325   -4.5299    0.0000 C   0  0  0  0  0  0  0  0  0  0  0  0
   -7.4689   -2.3270    0.0000 C   0  0  0  0  0  0  0  0  0  0  0  0
   -7.5522   -4.4467    0.0000 C   0  0  0  0  0  0  0  0  0  0  0  0
   -6.3424    1.9788    0.0000 C   0  0  0  0  0  0  0  0  0  0  0  0
   -6.6735    3.4418    0.0000 C   0  0  0  0  0  0  0  0  0  0  0  0
   -8.1060    3.8866    0.0000 C   0  0  0  0  0  0  0  0  0  0  0  0
   -9.2075    2.8684    0.0000 C   0  0  0  0  0  0  0  0  0  0  0  0
   -8.8764    1.4054    0.0000 C   0  0  0  0  0  0  0  0  0  0  0  0
   -7.4439    0.9606    0.0000 C   0  0  0  0  0  0  0  0  0  0  0  0
    0.4892    1.2178    0.0000 C   0  0  0  0  0  0  0  0  0  0  0  0
    1.9217    0.7730    0.0000 C   0  0  0  0  0  0  0  0  0  0  0  0
    0.5943    0.0746    0.0000 O   0  0  0  0  0  0  0  0  0  0  0  0
    3.0750   -0.1861    0.0000 C   0  0  0  0  0  0  0  0  0  0  0  0
    2.6302   -1.6187    0.0000 O   0  0  0  0  0  0  0  0  0  0  0  0
    1.1672   -1.9497    0.0000 C   0  0  0  0  0  0  0  0  0  0  0  0
    0.1490   -0.8483    0.0000 O   0  0  0  0  0  0  0  0  0  0  0  0
    0.7224   -3.3823    0.0000 C   0  0  0  0  0  0  0  0  0  0  0  0
   -0.7406   -3.7133    0.0000 C   0  0  0  0  0  0  0  0  0  0  0  0
   -1.1854   -5.1459    0.0000 C   0  0  0  0  0  0  0  0  0  0  0  0
   -0.1672   -6.2473    0.0000 C   0  0  0  0  0  0  0  0  0  0  0  0
    1.2958   -5.9163    0.0000 C   0  0  0  0  0  0  0  0  0  0  0  0
    1.7406   -4.4837    0.0000 C   0  0  0  0  0  0  0  0  0  0  0  0
    4.5687   -0.0489    0.0000 C   0  0  0  0  0  0  0  0  0  0  0  0
    1.7845    2.2667    0.0000 C   0  0  0  0  0  0  0  0  0  0  0  0
    0.6975    2.1477    0.0000 C   0  0  0  0  0  0  0  0  0  0  0  0
    0.6481    3.2458    0.0000 C   0  0  0  0  0  0  0  0  0  0  0  0
  1  2  1  0
  2  3  2  0
  2  4  1  0
  5  4  1  6
  5  6  1  0
  6  7  1  0
  8  7  1  1
  8  9  1  0
  9 10  1  0
 10 11  1  1
 10 12  1  0
 12 13  1  1
 12 14  1  0
 14 15  2  0
 14 16  1  0
 16 17  1  1
 16 18  1  0
 18 19  2  0
 19 20  1  0
 19 21  1  0
 21 22  1  6
 22 23  1  0
 23 24  2  0
 25 23  1  1
 25 26  1  0
 25 27  1  0
 27 28  1  1
 28 29  1  0
 29 30  2  0
 29 31  1  0
 31 32  1  0
 32 33  1  0
 32 34  1  0
 32 35  1  0
 27 36  1  0
 36 37  2  0
 37 38  1  0
 38 39  2  0
 39 40  1  0
 40 41  2  0
 21 42  1  0
 42 43  1  0
 43 44  1  1
 43 45  1  0
 45 46  1  6
 46 47  1  0
 47 48  2  0
 47 49  1  0
 49 50  2  0
 50 51  1  0
 51 52  2  0
 52 53  1  0
 53 54  2  0
 55 45  1  1
 43 56  1  0
 56 57  1  0
 56 58  1  0
  8  5  1  0
 55 12  1  0
 55  5  1  0
 56 18  1  0
 41 36  1  0
 54 49  1  0
M  END
>  <supplier_code>  (1072) 
DB01248

>  <zinc_id>  (1072) 
ZINC000085537053

>  <catalog_short_name>  (1072) 
dbfda

$$$$

     RDKit          3D

 22 23  0  0  0  0  0  0  0  0999 V2000
    5.6919   -0.1586   -1.2119 O   0  0  0  0  0  0  0  0  0  0  0  0
    4.9498   -0.1030   -0.2029 C   0  0  0  0  0  0  0  0  0  0  0  0
    5.0233   -1.0014    0.8531 O   0  0  0  0  0  0  0  0  0  0  0  0
    3.7674    0.7620   -0.2490 C   0  0  0  0  0  0  0  0  0  0  0  0
    2.5228    0.2177   -0.5415 C   0  0  0  0  0  0  0  0  0  0  0  0
    1.4187    0.9373   -0.1518 C   0  0  0  0  0  0  0  0  0  0  0  0
    0.1863    0.3186    0.2376 N   0  0  0  0  0  0  0  0  0  0  0  0
   -0.0900   -0.8777   -0.0616 N   0  0  0  0  0  0  0  0  0  0  0  0
   -1.4616   -1.2332   -0.2294 C   0  0  0  0  0  0  0  0  0  0  0  0
   -1.8258   -2.5307   -0.5605 C   0  0  0  0  0  0  0  0  0  0  0  0
   -3.1123   -2.9233   -0.2125 C   0  0  0  0  0  0  0  0  0  0  0  0
   -4.0077   -2.0250    0.3442 C   0  0  0  0  0  0  0  0  0  0  0  0
   -5.1110   -2.3991    1.0818 O   0  0  0  0  0  0  0  0  0  0  0  0
   -3.7391   -0.6822    0.1317 C   0  0  0  0  0  0  0  0  0  0  0  0
   -4.6957    0.3703    0.4800 C   0  0  0  0  0  0  0  0  0  0  0  0
   -4.9991    1.2590   -0.3562 O   0  0  0  0  0  0  0  0  0  0  0  0
   -5.3609    0.2808    1.6878 O   0  0  0  0  0  0  0  0  0  0  0  0
   -2.4794   -0.2937   -0.2500 C   0  0  0  0  0  0  0  0  0  0  0  0
    1.5270    2.3056   -0.0873 C   0  0  0  0  0  0  0  0  0  0  0  0
    2.7742    2.9150   -0.0833 C   0  0  0  0  0  0  0  0  0  0  0  0
    3.9163    2.1388   -0.1763 C   0  0  0  0  0  0  0  0  0  0  0  0
    5.1048    2.7228   -0.6229 O   0  0  0  0  0  0  0  0  0  0  0  0
  1  2  2  0
  2  3  1  0
  2  4  1  0
  4  5  2  0
  5  6  1  0
  6  7  1  0
  7  8  2  0
  8  9  1  0
  9 10  2  0
 10 11  1  0
 11 12  2  0
 12 13  1  0
 12 14  1  0
 14 15  1  0
 15 16  2  0
 15 17  1  0
 14 18  2  0
  6 19  2  0
 19 20  1  0
 20 21  2  0
 21 22  1  0
 21  4  1  0
 18  9  1  0
M  END
>  <supplier_code>  (1073) 
DB01250

>  <zinc_id>  (1073) 
ZINC000003812865

>  <catalog_short_name>  (1073) 
dbfda

$$$$

     RDKit          3D

 33 36  0  0  0  0  0  0  0  0999 V2000
    8.1118    0.5735   -1.2901 C   0  0  0  0  0  0  0  0  0  0  0  0
    7.8479    0.2827    0.1507 C   0  0  0  0  0  0  0  0  0  0  0  0
    8.5527   -0.7060    0.8256 C   0  0  0  0  0  0  0  0  0  0  0  0
    8.0984   -1.1765    2.0513 C   0  0  0  0  0  0  0  0  0  0  0  0
    7.2454   -0.3314    2.7444 C   0  0  0  0  0  0  0  0  0  0  0  0
    6.5961    0.7060    2.0864 C   0  0  0  0  0  0  0  0  0  0  0  0
    5.4677    1.7702    2.9176 Cl  0  0  0  0  0  0  0  0  0  0  0  0
    6.7477    0.9095    0.7197 C   0  0  0  0  0  0  0  0  0  0  0  0
    5.5926    1.2617   -0.0538 N   0  0  0  0  0  0  0  0  0  0  0  0
    4.7633    0.2082   -0.4937 C   0  0  0  0  0  0  0  0  0  0  0  0
    5.3506   -0.8312   -0.9224 O   0  0  0  0  0  0  0  0  0  0  0  0
    3.2945    0.2748   -0.4754 C   0  0  0  0  0  0  0  0  0  0  0  0
    2.4628    0.4074    0.6322 C   0  0  0  0  0  0  0  0  0  0  0  0
    1.1934    0.5872    0.2787 N   0  0  0  0  0  0  0  0  0  0  0  0
    0.7678   -0.3603   -0.5919 C   0  0  0  0  0  0  0  0  0  0  0  0
   -0.4393   -1.1293   -0.5533 N   0  0  0  0  0  0  0  0  0  0  0  0
   -1.6824   -0.6555   -1.0208 C   0  0  0  0  0  0  0  0  0  0  0  0
   -2.8256   -1.1350   -0.3928 C   0  0  0  0  0  0  0  0  0  0  0  0
   -4.0078   -0.5054   -0.7195 C   0  0  0  0  0  0  0  0  0  0  0  0
   -5.0818   -0.3101    0.1756 N   0  0  0  0  0  0  0  0  0  0  0  0
   -6.1279   -1.3284    0.2184 C   0  0  0  0  0  0  0  0  0  0  0  0
   -7.3051   -0.8323   -0.5907 C   0  0  0  0  0  0  0  0  0  0  0  0
   -7.7729    0.4609   -0.1616 N   0  0  0  0  0  0  0  0  0  0  0  0
   -8.5265    0.4210    1.0655 C   0  0  0  0  0  0  0  0  0  0  0  0
   -7.8349   -0.3530    2.1534 C   0  0  0  0  0  0  0  0  0  0  0  0
   -8.7328   -0.9603    3.0264 O   0  0  0  0  0  0  0  0  0  0  0  0
   -6.7447    1.4696   -0.1747 C   0  0  0  0  0  0  0  0  0  0  0  0
   -5.4978    1.0361    0.5590 C   0  0  0  0  0  0  0  0  0  0  0  0
   -4.0234    0.1995   -1.8730 N   0  0  0  0  0  0  0  0  0  0  0  0
   -2.9279    0.4070   -2.6160 C   0  0  0  0  0  0  0  0  0  0  0  0
   -2.9285    1.2834   -3.8282 C   0  0  0  0  0  0  0  0  0  0  0  0
   -1.8376   -0.3445   -2.3311 N   0  0  0  0  0  0  0  0  0  0  0  0
    2.2041   -0.5531   -1.5158 S   0  0  0  0  0  0  0  0  0  0  0  0
  1  2  1  0
  2  3  2  0
  3  4  1  0
  4  5  2  0
  5  6  1  0
  6  7  1  0
  6  8  2  0
  8  9  1  0
  9 10  1  0
 10 11  2  0
 10 12  1  0
 12 13  2  0
 13 14  1  0
 14 15  2  0
 15 16  1  0
 16 17  1  0
 17 18  2  0
 18 19  1  0
 19 20  1  0
 20 21  1  0
 21 22  1  0
 22 23  1  0
 23 24  1  0
 24 25  1  0
 25 26  1  0
 23 27  1  0
 27 28  1  0
 19 29  2  0
 29 30  1  0
 30 31  1  0
 30 32  2  0
 15 33  1  0
  8  2  1  0
 33 12  1  0
 32 17  1  0
 28 20  1  0
M  END
>  <supplier_code>  (1074) 
DB01254

>  <zinc_id>  (1074) 
ZINC000003986735

>  <catalog_short_name>  (1074) 
dbfda

$$$$

     RDKit          3D

 19 19  0  0  0  0  0  0  0  0999 V2000
   -0.9836    1.6694    0.4430 C   0  0  0  0  0  0  0  0  0  0  0  0
   -1.3117    0.0670    0.1112 C   0  0  1  0  0  0  0  0  0  0  0  0
   -1.9957    0.4649   -1.3585 C   0  0  0  0  0  0  0  0  0  0  0  0
   -3.4280    0.4470   -0.9091 C   0  0  0  0  0  0  0  0  0  0  0  0
   -4.0724   -0.7850   -0.9029 C   0  0  0  0  0  0  0  0  0  0  0  0
   -5.1355   -1.0666   -0.0651 C   0  0  0  0  0  0  0  0  0  0  0  0
   -5.2579   -0.2618    1.0629 C   0  0  0  0  0  0  0  0  0  0  0  0
   -5.0256    1.0864    0.8072 C   0  0  0  0  0  0  0  0  0  0  0  0
   -3.8989    1.3506    0.0369 C   0  0  0  0  0  0  0  0  0  0  0  0
    0.1290   -0.1417   -0.5517 N   0  0  0  0  0  0  0  0  0  0  0  0
    1.0507   -0.1689    0.4847 C   0  0  0  0  0  0  0  0  0  0  0  0
    0.8301   -0.2768    1.7065 O   0  0  0  0  0  0  0  0  0  0  0  0
    2.5050   -0.8719    0.2005 C   0  0  1  0  0  0  0  0  0  0  0  0
    1.8544   -2.1208   -0.5750 N   0  0  0  0  0  0  0  0  0  0  0  0
    2.7103   -0.0313   -1.2355 C   0  0  0  0  0  0  0  0  0  0  0  0
    4.0055    0.7224   -1.0370 C   0  0  0  0  0  0  0  0  0  0  0  0
    4.8181    0.1708    0.1155 C   0  0  0  0  0  0  0  0  0  0  0  0
    6.0397   -0.5843   -0.3398 C   0  0  0  0  0  0  0  0  0  0  0  0
    7.1664    0.3306   -0.4878 N   0  0  0  0  0  0  0  0  0  0  0  0
  2  1  1  1
  2  3  1  0
  3  4  1  0
  4  5  2  0
  5  6  1  0
  6  7  2  0
  7  8  1  0
  8  9  2  0
  2 10  1  0
 10 11  1  0
 11 12  2  0
 13 11  1  1
 13 14  1  0
 13 15  1  0
 15 16  1  0
 16 17  1  0
 17 18  1  0
 18 19  1  0
  9  4  1  0
M  END
>  <supplier_code>  (1075) 
DB01255

>  <zinc_id>  (1075) 
ZINC000011680943

>  <catalog_short_name>  (1075) 
dbfda

$$$$

     RDKit          2D

 36 40  0  0  0  0  0  0  0  0999 V2000
   -4.0552    4.4944    0.0000 C   0  0  0  0  0  0  0  0  0  0  0  0
   -3.1161    3.3248    0.0000 C   0  0  0  0  0  0  0  0  0  0  0  0
   -3.6595    1.9267    0.0000 C   0  0  0  0  0  0  0  0  0  0  0  0
   -4.8693    2.8134    0.0000 C   0  0  0  0  0  0  0  0  0  0  0  0
   -2.1684    1.7637    0.0000 C   0  0  0  0  0  0  0  0  0  0  0  0
   -1.2292    0.5940    0.0000 C   0  0  0  0  0  0  0  0  0  0  0  0
    0.2108    1.0141    0.0000 O   0  0  0  0  0  0  0  0  0  0  0  0
    1.2945   -0.0230    0.0000 C   0  0  0  0  0  0  0  0  0  0  0  0
    0.9383   -1.4801    0.0000 O   0  0  0  0  0  0  0  0  0  0  0  0
    2.7345    0.3971    0.0000 C   0  0  0  0  0  0  0  0  0  0  0  0
    3.8183   -0.6400    0.0000 S   0  0  0  0  0  0  0  0  0  0  0  0
    5.2583   -0.2199    0.0000 C   0  0  0  0  0  0  0  0  0  0  0  0
    6.3420   -1.2570    0.0000 C   0  0  0  0  0  0  0  0  0  0  0  0
    7.7820   -0.8369    0.0000 C   0  0  0  0  0  0  0  0  0  0  0  0
    9.0217    0.0075    0.0000 C   0  0  0  0  0  0  0  0  0  0  0  0
    8.6017    1.4475    0.0000 C   0  0  0  0  0  0  0  0  0  0  0  0
    7.1024    1.4930    0.0000 C   0  0  0  0  0  0  0  0  0  0  0  0
    5.6145    1.2372    0.0000 C   0  0  0  0  0  0  0  0  0  0  0  0
    6.5958    0.0812    0.0000 N   0  0  0  0  0  0  0  0  0  0  0  0
    5.7992    0.0497    0.0000 C   0  0  0  0  0  0  0  0  0  0  0  0
   -1.3922   -0.8971    0.0000 C   0  0  0  0  0  0  0  0  0  0  0  0
   -0.0770   -1.6183    0.0000 C   0  0  0  0  0  0  0  0  0  0  0  0
   -2.5618   -1.8362    0.0000 C   0  0  0  0  0  0  0  0  0  0  0  0
   -2.2561   -3.3047    0.0000 C   0  0  0  0  0  0  0  0  0  0  0  0
   -0.8883   -3.9205    0.0000 O   0  0  0  0  0  0  0  0  0  0  0  0
   -3.5582   -4.0493    0.0000 C   0  0  0  0  0  0  0  0  0  0  0  0
   -4.6688   -3.0410    0.0000 C   0  0  0  0  0  0  0  0  0  0  0  0
   -4.0530   -1.6732    0.0000 C   0  0  0  0  0  0  0  0  0  0  0  0
   -4.3064   -0.1846    0.0000 C   0  0  0  0  0  0  0  0  0  0  0  0
   -3.2693    0.8991    0.0000 C   0  0  0  0  0  0  0  0  0  0  0  0
   -1.8123    0.5429    0.0000 C   0  0  0  0  0  0  0  0  0  0  0  0
   -0.7752    1.6267    0.0000 C   0  0  0  0  0  0  0  0  0  0  0  0
   -4.9921   -0.5036    0.0000 C   0  0  0  0  0  0  0  0  0  0  0  0
   -6.4321   -0.9236    0.0000 C   0  0  0  0  0  0  0  0  0  0  0  0
   -4.8291    0.9875    0.0000 C   0  0  0  0  0  0  0  0  0  0  0  0
   -6.1443    1.7087    0.0000 O   0  0  0  0  0  0  0  0  0  0  0  0
  1  2  2  0
  3  2  1  6
  3  4  1  0
  3  5  1  0
  5  6  1  0
  6  7  1  1
  7  8  1  0
  8  9  2  0
  8 10  1  0
 10 11  1  0
 11 12  1  0
 12 13  1  0
 14 13  1  6
 14 15  1  0
 15 16  1  0
 17 16  1  6
 17 18  1  0
 17 19  1  0
 19 20  1  0
  6 21  1  0
 21 22  1  6
 21 23  1  0
 23 24  1  6
 24 25  2  0
 24 26  1  0
 26 27  1  0
 28 27  1  6
 28 29  1  0
 29 30  1  0
 30 31  1  0
 31 32  1  1
 28 33  1  0
 33 34  1  1
 33 35  1  0
 35 36  1  6
 35  3  1  0
 18 12  1  0
 31 21  1  0
 19 14  1  0
 28 23  1  0
M  END
>  <supplier_code>  (1076) 
DB01256

>  <zinc_id>  (1076) 
ZINC000003931840

>  <catalog_short_name>  (1076) 
dbfda

$$$$

     RDKit          2D

 36 40  0  0  0  0  0  0  0  0999 V2000
   -4.0552    4.4944    0.0000 C   0  0  0  0  0  0  0  0  0  0  0  0
   -3.1161    3.3248    0.0000 C   0  0  0  0  0  0  0  0  0  0  0  0
   -3.6595    1.9267    0.0000 C   0  0  0  0  0  0  0  0  0  0  0  0
   -4.8693    2.8134    0.0000 C   0  0  0  0  0  0  0  0  0  0  0  0
   -2.1684    1.7637    0.0000 C   0  0  0  0  0  0  0  0  0  0  0  0
   -1.2292    0.5940    0.0000 C   0  0  0  0  0  0  0  0  0  0  0  0
    0.2108    1.0141    0.0000 O   0  0  0  0  0  0  0  0  0  0  0  0
    1.2945   -0.0230    0.0000 C   0  0  0  0  0  0  0  0  0  0  0  0
    0.9383   -1.4801    0.0000 O   0  0  0  0  0  0  0  0  0  0  0  0
    2.7345    0.3971    0.0000 C   0  0  0  0  0  0  0  0  0  0  0  0
    3.8183   -0.6400    0.0000 S   0  0  0  0  0  0  0  0  0  0  0  0
    5.2583   -0.2199    0.0000 C   0  0  0  0  0  0  0  0  0  0  0  0
    6.3420   -1.2570    0.0000 C   0  0  0  0  0  0  0  0  0  0  0  0
    7.7820   -0.8369    0.0000 C   0  0  0  0  0  0  0  0  0  0  0  0
    9.0217    0.0075    0.0000 C   0  0  0  0  0  0  0  0  0  0  0  0
    8.6017    1.4475    0.0000 C   0  0  0  0  0  0  0  0  0  0  0  0
    7.1024    1.4930    0.0000 C   0  0  0  0  0  0  0  0  0  0  0  0
    5.6145    1.2372    0.0000 C   0  0  0  0  0  0  0  0  0  0  0  0
    6.5958    0.0812    0.0000 N   0  0  0  0  0  0  0  0  0  0  0  0
    5.7992    0.0497    0.0000 C   0  0  0  0  0  0  0  0  0  0  0  0
   -1.3922   -0.8971    0.0000 C   0  0  0  0  0  0  0  0  0  0  0  0
   -0.0770   -1.6183    0.0000 C   0  0  0  0  0  0  0  0  0  0  0  0
   -2.5618   -1.8362    0.0000 C   0  0  0  0  0  0  0  0  0  0  0  0
   -2.2561   -3.3047    0.0000 C   0  0  0  0  0  0  0  0  0  0  0  0
   -0.8883   -3.9205    0.0000 O   0  0  0  0  0  0  0  0  0  0  0  0
   -3.5582   -4.0493    0.0000 C   0  0  0  0  0  0  0  0  0  0  0  0
   -4.6688   -3.0410    0.0000 C   0  0  0  0  0  0  0  0  0  0  0  0
   -4.0530   -1.6732    0.0000 C   0  0  0  0  0  0  0  0  0  0  0  0
   -4.3064   -0.1846    0.0000 C   0  0  0  0  0  0  0  0  0  0  0  0
   -3.2693    0.8991    0.0000 C   0  0  0  0  0  0  0  0  0  0  0  0
   -1.8123    0.5429    0.0000 C   0  0  0  0  0  0  0  0  0  0  0  0
   -0.7752    1.6267    0.0000 C   0  0  0  0  0  0  0  0  0  0  0  0
   -4.9921   -0.5036    0.0000 C   0  0  0  0  0  0  0  0  0  0  0  0
   -6.4321   -0.9236    0.0000 C   0  0  0  0  0  0  0  0  0  0  0  0
   -4.8291    0.9875    0.0000 C   0  0  0  0  0  0  0  0  0  0  0  0
   -6.1443    1.7087    0.0000 O   0  0  0  0  0  0  0  0  0  0  0  0
  1  2  2  0
  3  2  1  6
  3  4  1  0
  3  5  1  0
  5  6  1  0
  6  7  1  1
  7  8  1  0
  8  9  2  0
  8 10  1  0
 10 11  1  0
 12 11  1  1
 12 13  1  0
 14 13  1  6
 14 15  1  0
 15 16  1  0
 17 16  1  6
 17 18  1  0
 17 19  1  0
 19 20  1  0
  6 21  1  0
 21 22  1  6
 21 23  1  0
 23 24  1  6
 24 25  2  0
 24 26  1  0
 26 27  1  0
 28 27  1  6
 28 29  1  0
 29 30  1  0
 30 31  1  0
 31 32  1  1
 28 33  1  0
 33 34  1  1
 33 35  1  0
 35 36  1  6
 35  3  1  0
 18 12  1  0
 31 21  1  0
 19 14  1  0
 28 23  1  0
M  END
>  <supplier_code>  (1077) 
DB01256

>  <zinc_id>  (1077) 
ZINC000100013500

>  <catalog_short_name>  (1077) 
dbfda

$$$$

     RDKit          3D

 40 44  0  0  0  0  0  0  0  0999 V2000
   10.6776   -1.9192    0.5824 C   0  0  0  0  0  0  0  0  0  0  0  0
    9.4612   -0.6627    0.2999 S   0  0  0  0  0  0  0  0  0  0  0  0
    8.4350   -0.7951    1.4032 O   0  0  0  0  0  0  0  0  0  0  0  0
   10.0380    0.7178    0.3631 O   0  0  0  0  0  0  0  0  0  0  0  0
    8.7004   -0.9648   -1.2620 C   0  0  0  0  0  0  0  0  0  0  0  0
    7.7407    0.1082   -1.6819 C   0  0  0  0  0  0  0  0  0  0  0  0
    7.6475    1.2053   -0.7566 N   0  0  0  0  0  0  0  0  0  0  0  0
    6.3152    1.7832   -0.9210 C   0  0  0  0  0  0  0  0  0  0  0  0
    5.2808    0.7382   -0.6520 C   0  0  0  0  0  0  0  0  0  0  0  0
    5.5528   -0.5157   -0.1188 C   0  0  0  0  0  0  0  0  0  0  0  0
    4.4192   -1.2570   -0.4267 C   0  0  0  0  0  0  0  0  0  0  0  0
    3.4029   -0.3388   -0.6548 C   0  0  0  0  0  0  0  0  0  0  0  0
    1.9879   -0.5213   -0.3018 C   0  0  0  0  0  0  0  0  0  0  0  0
    1.5367   -1.7475    0.1242 C   0  0  0  0  0  0  0  0  0  0  0  0
    0.4987   -1.9048    1.0339 C   0  0  0  0  0  0  0  0  0  0  0  0
   -0.0418   -0.7484    1.5846 C   0  0  0  0  0  0  0  0  0  0  0  0
   -0.7955   -0.7493    2.6914 N   0  0  0  0  0  0  0  0  0  0  0  0
   -1.1046    0.4531    3.2324 C   0  0  0  0  0  0  0  0  0  0  0  0
   -1.1346    1.5643    2.4572 N   0  0  0  0  0  0  0  0  0  0  0  0
   -0.4479    1.6301    1.2903 C   0  0  0  0  0  0  0  0  0  0  0  0
   -0.9127    2.4961    0.2474 N   0  0  0  0  0  0  0  0  0  0  0  0
   -2.2299    2.2320   -0.2507 C   0  0  0  0  0  0  0  0  0  0  0  0
   -2.4389    2.0096   -1.6057 C   0  0  0  0  0  0  0  0  0  0  0  0
   -3.4307    1.1268   -2.0076 C   0  0  0  0  0  0  0  0  0  0  0  0
   -4.2857    0.5309   -1.0911 C   0  0  0  0  0  0  0  0  0  0  0  0
   -4.7622   -0.7639   -1.3091 O   0  0  0  0  0  0  0  0  0  0  0  0
   -5.6808   -1.0716   -2.3481 C   0  0  0  0  0  0  0  0  0  0  0  0
   -6.9977   -1.3267   -1.6851 C   0  0  0  0  0  0  0  0  0  0  0  0
   -7.1716   -2.5097   -0.9899 C   0  0  0  0  0  0  0  0  0  0  0  0
   -8.0867   -2.6440    0.0406 C   0  0  0  0  0  0  0  0  0  0  0  0
   -8.7100   -1.4785    0.4622 C   0  0  0  0  0  0  0  0  0  0  0  0
   -8.7646   -0.3468   -0.3423 C   0  0  0  0  0  0  0  0  0  0  0  0
   -9.1490    0.7973    0.2956 F   0  0  0  0  0  0  0  0  0  0  0  0
   -7.9138   -0.3250   -1.4408 C   0  0  0  0  0  0  0  0  0  0  0  0
   -4.3624    1.1385    0.1564 C   0  0  0  0  0  0  0  0  0  0  0  0
   -5.3242    0.3635    1.4118 Cl  0  0  0  0  0  0  0  0  0  0  0  0
   -3.2860    1.9072    0.5839 C   0  0  0  0  0  0  0  0  0  0  0  0
    0.1749    0.4470    0.9097 C   0  0  0  0  0  0  0  0  0  0  0  0
    1.1512    0.5646   -0.0728 C   0  0  0  0  0  0  0  0  0  0  0  0
    4.0104    0.7772   -0.9352 O   0  0  0  0  0  0  0  0  0  0  0  0
  1  2  1  0
  2  3  2  0
  2  4  2  0
  2  5  1  0
  5  6  1  0
  6  7  1  0
  7  8  1  0
  8  9  1  0
  9 10  2  0
 10 11  1  0
 11 12  2  0
 12 13  1  0
 13 14  2  0
 14 15  1  0
 15 16  2  0
 16 17  1  0
 17 18  2  0
 18 19  1  0
 19 20  2  0
 20 21  1  0
 21 22  1  0
 22 23  2  0
 23 24  1  0
 24 25  2  0
 25 26  1  0
 26 27  1  0
 27 28  1  0
 28 29  2  0
 29 30  1  0
 30 31  2  0
 31 32  1  0
 32 33  1  0
 32 34  2  0
 25 35  1  0
 35 36  1  0
 35 37  2  0
 20 38  1  0
 38 39  2  0
 12 40  1  0
 40  9  1  0
 39 13  1  0
 38 16  1  0
 37 22  1  0
 34 28  1  0
M  END
>  <supplier_code>  (1078) 
DB01259

>  <zinc_id>  (1078) 
ZINC000001550477

>  <catalog_short_name>  (1078) 
dbfda

$$$$

     RDKit          3D

 30 34  0  0  0  0  0  0  0  0999 V2000
   -3.4633    0.5703   -3.1285 C   0  0  0  0  0  0  0  0  0  0  0  0
   -3.5283    0.5319   -1.7087 C   0  0  0  0  0  0  0  0  0  0  0  0
   -4.9468    0.7742   -1.2935 C   0  0  0  0  0  0  0  0  0  0  0  0
   -2.6581    1.4537   -1.1614 O   0  0  0  0  0  0  0  0  0  0  0  0
   -2.9311    1.0508    0.3185 C   0  0  2  0  0  0  0  0  0  0  0  0
   -1.3596    1.4579    0.7708 C   0  0  0  0  0  0  0  0  0  0  0  0
   -0.6797    0.5822   -0.4332 C   0  0  1  0  0  0  0  0  0  0  0  0
    0.8101    0.4599    0.3944 C   0  0  2  0  0  0  0  0  0  0  0  0
    1.3356    1.8314   -0.2813 C   0  0  0  0  0  0  0  0  0  0  0  0
    2.6406    2.0042    0.4312 C   0  0  0  0  0  0  0  0  0  0  0  0
    3.2632    0.6449    0.5166 C   0  0  0  0  0  0  0  0  0  0  0  0
    4.5530    0.6688    0.8706 C   0  0  0  0  0  0  0  0  0  0  0  0
    5.5831   -0.0645    0.1168 C   0  0  0  0  0  0  0  0  0  0  0  0
    6.7604   -0.1988    0.5181 O   0  0  0  0  0  0  0  0  0  0  0  0
    5.1412   -0.4382   -1.2357 C   0  0  0  0  0  0  0  0  0  0  0  0
    3.8449   -0.2994   -1.5303 C   0  0  0  0  0  0  0  0  0  0  0  0
    2.9517   -0.4890   -0.3312 C   0  0  1  0  0  0  0  0  0  0  0  0
    3.3436   -1.7913    0.2069 C   0  0  0  0  0  0  0  0  0  0  0  0
    1.4462   -0.4492   -0.8821 C   0  0  1  0  0  0  0  0  0  0  0  0
    0.9961   -2.0089   -0.2388 C   0  0  1  0  0  0  0  0  0  0  0  0
    1.0593   -1.5735    1.2406 O   0  0  0  0  0  0  0  0  0  0  0  0
   -0.6401   -1.7765   -0.4279 C   0  0  0  0  0  0  0  0  0  0  0  0
   -1.2061   -0.7603    0.3465 C   0  0  1  0  0  0  0  0  0  0  0  0
   -1.0442   -0.5790    1.7912 C   0  0  0  0  0  0  0  0  0  0  0  0
   -2.5761   -0.5541    0.0037 C   0  0  1  0  0  0  0  0  0  0  0  0
   -3.6103   -1.2144    0.8644 C   0  0  0  0  0  0  0  0  0  0  0  0
   -4.5797   -1.7962    0.3774 O   0  0  0  0  0  0  0  0  0  0  0  0
   -3.6213   -1.1335    2.3414 C   0  0  0  0  0  0  0  0  0  0  0  0
   -3.8921    0.1286    2.8298 O   0  0  0  0  0  0  0  0  0  0  0  0
   -2.9920   -0.6540   -1.2860 O   0  0  0  0  0  0  0  0  0  0  0  0
  1  2  1  0
  2  3  1  0
  2  4  1  0
  5  4  1  6
  5  6  1  0
  7  6  1  1
  7  8  1  0
  8  9  1  6
  9 10  1  0
 10 11  1  0
 11 12  2  0
 12 13  1  0
 13 14  2  0
 13 15  1  0
 15 16  2  0
 16 17  1  0
 17 18  1  1
 19 17  1  1
 19 20  1  0
 20 21  1  1
 20 22  1  0
 22 23  1  0
 23 24  1  1
 23 25  1  0
 25 26  1  1
 26 27  2  0
 26 28  1  0
 28 29  1  0
 25 30  1  0
 30  2  1  0
 25  5  1  0
 23  7  1  0
 19  8  1  0
 17 11  1  0
M  END
>  <supplier_code>  (1079) 
DB01260

>  <zinc_id>  (1079) 
ZINC000004212851

>  <catalog_short_name>  (1079) 
dbfda

$$$$

     RDKit          3D

 28 30  0  0  0  0  0  0  0  0999 V2000
   -2.2214   -1.1291    0.9590 N   0  0  0  0  0  0  0  0  0  0  0  0
   -1.2207   -0.2350    0.1023 C   0  0  1  0  0  0  0  0  0  0  0  0
   -0.7006   -1.5627   -0.7500 C   0  0  0  0  0  0  0  0  0  0  0  0
    0.1499   -2.2225    0.2684 C   0  0  0  0  0  0  0  0  0  0  0  0
   -0.1035   -3.3441    0.7659 O   0  0  0  0  0  0  0  0  0  0  0  0
    1.5008   -1.7509    0.3580 N   0  0  0  0  0  0  0  0  0  0  0  0
    1.7762   -0.7899    1.3911 C   0  0  0  0  0  0  0  0  0  0  0  0
    3.1407   -0.1770    1.3187 C   0  0  0  0  0  0  0  0  0  0  0  0
    3.6287   -0.0076   -0.0221 N   0  0  0  0  0  0  0  0  0  0  0  0
    3.0307   -0.6279   -1.0425 C   0  0  0  0  0  0  0  0  0  0  0  0
    3.4749   -0.0182   -2.1449 N   0  0  0  0  0  0  0  0  0  0  0  0
    4.6261    0.5780   -1.8365 N   0  0  0  0  0  0  0  0  0  0  0  0
    4.6779    0.6738   -0.4850 C   0  0  0  0  0  0  0  0  0  0  0  0
    5.9084    1.1301    0.1949 C   0  0  0  0  0  0  0  0  0  0  0  0
    6.1893    2.4293   -0.2141 F   0  0  0  0  0  0  0  0  0  0  0  0
    5.8255    1.1245    1.5578 F   0  0  0  0  0  0  0  0  0  0  0  0
    6.9296    0.2837   -0.2273 F   0  0  0  0  0  0  0  0  0  0  0  0
    2.2726   -1.8961   -0.8570 C   0  0  0  0  0  0  0  0  0  0  0  0
   -2.3764    0.1003   -1.0410 C   0  0  0  0  0  0  0  0  0  0  0  0
   -3.5932    0.4514   -0.2868 C   0  0  0  0  0  0  0  0  0  0  0  0
   -3.9692    1.7775   -0.1374 C   0  0  0  0  0  0  0  0  0  0  0  0
   -5.2484    2.0579    0.3216 C   0  0  0  0  0  0  0  0  0  0  0  0
   -5.8332    3.2711    0.1436 F   0  0  0  0  0  0  0  0  0  0  0  0
   -6.0419    1.0144    0.7714 C   0  0  0  0  0  0  0  0  0  0  0  0
   -7.0135    1.3415    1.6646 F   0  0  0  0  0  0  0  0  0  0  0  0
   -5.7589   -0.2858    0.4163 C   0  0  0  0  0  0  0  0  0  0  0  0
   -4.5671   -0.5396   -0.2189 C   0  0  0  0  0  0  0  0  0  0  0  0
   -4.4833   -1.6472   -1.0129 F   0  0  0  0  0  0  0  0  0  0  0  0
  2  1  1  1
  2  3  1  0
  3  4  1  0
  4  5  2  0
  4  6  1  0
  6  7  1  0
  7  8  1  0
  8  9  1  0
  9 10  1  0
 10 11  2  0
 11 12  1  0
 12 13  2  0
 13 14  1  0
 14 15  1  0
 14 16  1  0
 14 17  1  0
 10 18  1  0
  2 19  1  0
 19 20  1  0
 20 21  2  0
 21 22  1  0
 22 23  1  0
 22 24  2  0
 24 25  1  0
 24 26  1  0
 26 27  2  0
 27 28  1  0
 18  6  1  0
 27 20  1  0
 13  9  1  0
M  END
>  <supplier_code>  (1080) 
DB01261

>  <zinc_id>  (1080) 
ZINC000001489478

>  <catalog_short_name>  (1080) 
dbfda

$$$$

     RDKit          3D

 16 17  0  0  0  0  0  0  0  0999 V2000
    4.6013    0.6427    0.0693 N   0  0  0  0  0  0  0  0  0  0  0  0
    3.4353   -0.1549    0.2849 C   0  0  0  0  0  0  0  0  0  0  0  0
    2.7808    0.0217    1.4608 N   0  0  0  0  0  0  0  0  0  0  0  0
    1.4362    0.1901    1.4209 C   0  0  0  0  0  0  0  0  0  0  0  0
    0.8588    0.1960    0.1823 N   0  0  0  0  0  0  0  0  0  0  0  0
   -0.6437    0.4772    0.5344 C   0  0  1  0  0  0  0  0  0  0  0  0
   -1.0293    1.2628   -0.8667 C   0  0  0  0  0  0  0  0  0  0  0  0
   -2.6322    1.0965   -0.5516 C   0  0  2  0  0  0  0  0  0  0  0  0
   -2.5843    2.1851    0.4933 O   0  0  0  0  0  0  0  0  0  0  0  0
   -2.4030   -0.0934    0.6746 C   0  0  1  0  0  0  0  0  0  0  0  0
   -3.6601   -1.0018    0.1731 C   0  0  0  0  0  0  0  0  0  0  0  0
   -3.3972   -1.6999   -0.8964 O   0  0  0  0  0  0  0  0  0  0  0  0
   -1.2789   -0.7735   -0.0974 O   0  0  0  0  0  0  0  0  0  0  0  0
    1.3030   -0.7065   -0.6061 C   0  0  0  0  0  0  0  0  0  0  0  0
    0.5464   -0.9855   -1.5595 O   0  0  0  0  0  0  0  0  0  0  0  0
    2.6670   -0.6568   -0.7160 N   0  0  0  0  0  0  0  0  0  0  0  0
  1  2  1  0
  2  3  1  0
  3  4  2  0
  4  5  1  0
  6  5  1  6
  6  7  1  0
  7  8  1  0
  8  9  1  1
  8 10  1  0
 10 11  1  6
 11 12  1  0
 10 13  1  0
  5 14  1  0
 14 15  2  0
 14 16  1  0
 16  2  2  0
 13  6  1  0
M  END
>  <supplier_code>  (1081) 
DB01262

>  <zinc_id>  (1081) 
ZINC000016929327

>  <catalog_short_name>  (1081) 
dbfda

$$$$

     RDKit          3D

 51 57  0  0  0  0  0  0  0  0999 V2000
   11.4997    1.7212    1.7221 C   0  0  0  0  0  0  0  0  0  0  0  0
   11.9629    1.0268    1.2495 C   0  0  0  0  0  0  0  0  0  0  0  0
   11.1044    0.3802   -0.0015 C   0  0  1  0  0  0  0  0  0  0  0  0
   10.9816   -1.1668    0.8081 C   0  0  2  0  0  0  0  0  0  0  0  0
   12.6399   -1.3262    0.8665 C   0  0  0  0  0  0  0  0  0  0  0  0
   10.9296   -1.9118   -0.5328 O   0  0  0  0  0  0  0  0  0  0  0  0
    9.7410    0.8864    0.6160 N   0  0  0  0  0  0  0  0  0  0  0  0
    9.4491    2.1512    0.2978 N   0  0  0  0  0  0  0  0  0  0  0  0
    8.1360    2.3069    0.5972 C   0  0  0  0  0  0  0  0  0  0  0  0
    7.5991    1.0766    0.6672 N   0  0  0  0  0  0  0  0  0  0  0  0
    6.2386    0.7138    0.4007 C   0  0  0  0  0  0  0  0  0  0  0  0
    5.4436    1.5189   -0.3609 C   0  0  0  0  0  0  0  0  0  0  0  0
    4.4626    0.9191   -1.1419 C   0  0  0  0  0  0  0  0  0  0  0  0
    3.9398   -0.3340   -0.8481 C   0  0  0  0  0  0  0  0  0  0  0  0
    2.6050   -0.7106   -1.2224 N   0  0  0  0  0  0  0  0  0  0  0  0
    1.9807   -1.7246   -0.3670 C   0  0  0  0  0  0  0  0  0  0  0  0
    1.7662   -1.1289    1.0214 C   0  0  0  0  0  0  0  0  0  0  0  0
    1.0284    0.1162    0.7995 N   0  0  0  0  0  0  0  0  0  0  0  0
   -0.3220   -0.0394    0.3335 C   0  0  0  0  0  0  0  0  0  0  0  0
   -0.7559   -1.2263   -0.2456 C   0  0  0  0  0  0  0  0  0  0  0  0
   -1.5958   -1.2332   -1.3472 C   0  0  0  0  0  0  0  0  0  0  0  0
   -2.2372   -0.0487   -1.6744 C   0  0  0  0  0  0  0  0  0  0  0  0
   -3.3637   -0.1846   -2.4853 O   0  0  0  0  0  0  0  0  0  0  0  0
   -4.4858   -0.8959   -1.9637 C   0  0  0  0  0  0  0  0  0  0  0  0
   -5.0291    0.2458   -0.8923 C   0  0  2  0  0  0  0  0  0  0  0  0
   -4.6064   -0.6910    0.4055 C   0  0  0  0  0  0  0  0  0  0  0  0
   -5.5924   -0.1352    1.2326 O   0  0  0  0  0  0  0  0  0  0  0  0
   -6.8008   -0.2790    0.5895 C   0  0  1  0  0  0  0  0  0  0  0  0
   -7.4869   -1.4739    1.2062 C   0  0  0  0  0  0  0  0  0  0  0  0
   -8.0264   -2.3750    0.1896 N   0  0  0  0  0  0  0  0  0  0  0  0
   -7.4706   -3.5983    0.0144 C   0  0  0  0  0  0  0  0  0  0  0  0
   -8.4056   -4.5025   -0.3238 N   0  0  0  0  0  0  0  0  0  0  0  0
   -9.5812   -3.8717   -0.2191 C   0  0  0  0  0  0  0  0  0  0  0  0
   -9.3337   -2.5811    0.0410 N   0  0  0  0  0  0  0  0  0  0  0  0
   -7.7227    0.8773    0.8029 C   0  0  0  0  0  0  0  0  0  0  0  0
   -9.0810    0.6474    0.8077 C   0  0  0  0  0  0  0  0  0  0  0  0
   -9.9242    1.6695    0.3875 C   0  0  0  0  0  0  0  0  0  0  0  0
   -9.4223    2.8696   -0.0978 C   0  0  0  0  0  0  0  0  0  0  0  0
  -10.1917    3.7863   -0.7184 F   0  0  0  0  0  0  0  0  0  0  0  0
   -8.0767    3.1586    0.0886 C   0  0  0  0  0  0  0  0  0  0  0  0
   -7.2475    2.1616    0.5607 C   0  0  0  0  0  0  0  0  0  0  0  0
   -6.0368    2.4333    1.1287 F   0  0  0  0  0  0  0  0  0  0  0  0
   -6.5517   -0.4030   -0.8796 C   0  0  0  0  0  0  0  0  0  0  0  0
   -2.1344    1.0606   -0.8589 C   0  0  0  0  0  0  0  0  0  0  0  0
   -1.1238    1.0571    0.0827 C   0  0  0  0  0  0  0  0  0  0  0  0
    1.7873    1.0755   -0.0125 C   0  0  0  0  0  0  0  0  0  0  0  0
    1.7069    0.4386   -1.4047 C   0  0  0  0  0  0  0  0  0  0  0  0
    4.6890   -1.0948    0.0409 C   0  0  0  0  0  0  0  0  0  0  0  0
    5.8201   -0.5771    0.6279 C   0  0  0  0  0  0  0  0  0  0  0  0
    8.6065    0.2220    0.3601 C   0  0  0  0  0  0  0  0  0  0  0  0
    8.4884   -1.0067    0.5405 O   0  0  0  0  0  0  0  0  0  0  0  0
  1  2  1  0
  3  2  1  1
  3  4  1  0
  4  5  1  1
  4  6  1  0
  3  7  1  0
  7  8  1  0
  8  9  2  0
  9 10  1  0
 10 11  1  0
 11 12  2  0
 12 13  1  0
 13 14  2  0
 14 15  1  0
 15 16  1  0
 16 17  1  0
 17 18  1  0
 18 19  1  0
 19 20  2  0
 20 21  1  0
 21 22  2  0
 22 23  1  0
 23 24  1  0
 25 24  1  6
 25 26  1  0
 26 27  1  0
 27 28  1  0
 28 29  1  1
 29 30  1  0
 30 31  1  0
 31 32  2  0
 32 33  1  0
 33 34  2  0
 28 35  1  0
 35 36  2  0
 36 37  1  0
 37 38  2  0
 38 39  1  0
 38 40  1  0
 40 41  2  0
 41 42  1  0
 28 43  1  0
 22 44  1  0
 44 45  2  0
 18 46  1  0
 46 47  1  0
 14 48  1  0
 48 49  2  0
 10 50  1  0
 50 51  2  0
 50  7  1  0
 49 11  1  0
 47 15  1  0
 45 19  1  0
 43 25  1  0
 34 30  1  0
 41 35  1  0
M  END
>  <supplier_code>  (1082) 
DB01263

>  <zinc_id>  (1082) 
ZINC000003938482

>  <catalog_short_name>  (1082) 
dbfda

$$$$

     RDKit          3D

 51 57  0  0  0  0  0  0  0  0999 V2000
   11.9575    1.8261    0.0077 C   0  0  0  0  0  0  0  0  0  0  0  0
   12.0228    0.5234    0.0960 C   0  0  0  0  0  0  0  0  0  0  0  0
   10.6659    0.0485   -0.7232 C   0  0  1  0  0  0  0  0  0  0  0  0
   10.9249   -1.6443   -0.3184 C   0  0  2  0  0  0  0  0  0  0  0  0
    9.2914   -1.9727   -0.2448 C   0  0  0  0  0  0  0  0  0  0  0  0
   11.0060   -1.3879    1.1901 O   0  0  0  0  0  0  0  0  0  0  0  0
    9.6552    0.3167    0.4540 N   0  0  0  0  0  0  0  0  0  0  0  0
    9.9039    0.8859    1.5776 N   0  0  0  0  0  0  0  0  0  0  0  0
    8.6938    1.0143    2.1772 C   0  0  0  0  0  0  0  0  0  0  0  0
    7.8481    1.2669    1.1663 N   0  0  0  0  0  0  0  0  0  0  0  0
    6.4227    1.2813    1.3109 C   0  0  0  0  0  0  0  0  0  0  0  0
    5.6869    2.2591    0.6552 C   0  0  0  0  0  0  0  0  0  0  0  0
    4.4355    2.0042    0.1215 C   0  0  0  0  0  0  0  0  0  0  0  0
    3.9909    0.6869    0.1148 C   0  0  0  0  0  0  0  0  0  0  0  0
    3.1281    0.2214   -0.9316 N   0  0  0  0  0  0  0  0  0  0  0  0
    2.6119   -1.1350   -0.7399 C   0  0  0  0  0  0  0  0  0  0  0  0
    1.8752   -1.0707    0.5940 C   0  0  0  0  0  0  0  0  0  0  0  0
    0.8210   -0.0779    0.4008 N   0  0  0  0  0  0  0  0  0  0  0  0
   -0.3065   -0.5417   -0.3520 C   0  0  0  0  0  0  0  0  0  0  0  0
   -1.1649   -1.5042    0.1670 C   0  0  0  0  0  0  0  0  0  0  0  0
   -2.4356   -1.5627   -0.3929 C   0  0  0  0  0  0  0  0  0  0  0  0
   -2.6978   -0.9862   -1.6289 C   0  0  0  0  0  0  0  0  0  0  0  0
   -3.9905   -0.5411   -1.9276 O   0  0  0  0  0  0  0  0  0  0  0  0
   -4.4786    0.5122   -1.1029 C   0  0  0  0  0  0  0  0  0  0  0  0
   -4.8632   -0.3209    0.2758 C   0  0  1  0  0  0  0  0  0  0  0  0
   -5.5384    1.0239    0.9654 C   0  0  0  0  0  0  0  0  0  0  0  0
   -6.4006    0.2545    1.7642 O   0  0  0  0  0  0  0  0  0  0  0  0
   -7.2304   -0.3202    0.7868 C   0  0  1  0  0  0  0  0  0  0  0  0
   -7.9459   -1.5299    1.3632 C   0  0  0  0  0  0  0  0  0  0  0  0
   -7.5626   -2.7290    0.6468 N   0  0  0  0  0  0  0  0  0  0  0  0
   -8.3946   -3.5451   -0.0249 C   0  0  0  0  0  0  0  0  0  0  0  0
   -7.8094   -4.7518   -0.0928 N   0  0  0  0  0  0  0  0  0  0  0  0
   -6.5606   -4.6661    0.4226 C   0  0  0  0  0  0  0  0  0  0  0  0
   -6.4039   -3.3701    0.7612 N   0  0  0  0  0  0  0  0  0  0  0  0
   -8.1828    0.7495    0.3863 C   0  0  0  0  0  0  0  0  0  0  0  0
   -8.8064    1.4848    1.3789 C   0  0  0  0  0  0  0  0  0  0  0  0
   -9.3256    2.7353    1.0640 C   0  0  0  0  0  0  0  0  0  0  0  0
   -9.0030    3.3300   -0.1467 C   0  0  0  0  0  0  0  0  0  0  0  0
   -8.9222    4.6914   -0.1530 F   0  0  0  0  0  0  0  0  0  0  0  0
   -8.4660    2.5512   -1.1636 C   0  0  0  0  0  0  0  0  0  0  0  0
   -8.1104    1.2303   -0.9168 C   0  0  0  0  0  0  0  0  0  0  0  0
   -8.0466    0.3013   -1.8910 F   0  0  0  0  0  0  0  0  0  0  0  0
   -6.3365   -0.7668   -0.3319 C   0  0  0  0  0  0  0  0  0  0  0  0
   -1.5941   -0.5655   -2.3538 C   0  0  0  0  0  0  0  0  0  0  0  0
   -0.3585   -0.4103   -1.7355 C   0  0  0  0  0  0  0  0  0  0  0  0
    1.2781    1.2666    0.0594 C   0  0  0  0  0  0  0  0  0  0  0  0
    2.0705    1.1881   -1.2429 C   0  0  0  0  0  0  0  0  0  0  0  0
    4.5159   -0.1315    1.0877 C   0  0  0  0  0  0  0  0  0  0  0  0
    5.7080    0.1732    1.7343 C   0  0  0  0  0  0  0  0  0  0  0  0
    8.4758    0.8435    0.0422 C   0  0  0  0  0  0  0  0  0  0  0  0
    7.9457    0.8610   -1.0847 O   0  0  0  0  0  0  0  0  0  0  0  0
  1  2  1  0
  3  2  1  1
  3  4  1  0
  4  5  1  1
  4  6  1  0
  3  7  1  0
  7  8  1  0
  8  9  2  0
  9 10  1  0
 10 11  1  0
 11 12  2  0
 12 13  1  0
 13 14  2  0
 14 15  1  0
 15 16  1  0
 16 17  1  0
 17 18  1  0
 18 19  1  0
 19 20  2  0
 20 21  1  0
 21 22  2  0
 22 23  1  0
 23 24  1  0
 25 24  1  6
 25 26  1  0
 26 27  1  0
 27 28  1  0
 28 29  1  1
 29 30  1  0
 30 31  1  0
 31 32  2  0
 32 33  1  0
 33 34  2  0
 28 35  1  0
 35 36  2  0
 36 37  1  0
 37 38  2  0
 38 39  1  0
 38 40  1  0
 40 41  2  0
 41 42  1  0
 28 43  1  0
 22 44  1  0
 44 45  2  0
 18 46  1  0
 46 47  1  0
 14 48  1  0
 48 49  2  0
 10 50  1  0
 50 51  2  0
 50  7  1  0
 49 11  1  0
 47 15  1  0
 45 19  1  0
 43 25  1  0
 34 30  1  0
 41 35  1  0
M  END
>  <supplier_code>  (1083) 
DB01263

>  <zinc_id>  (1083) 
ZINC000028639340

>  <catalog_short_name>  (1083) 
dbfda

$$$$

     RDKit          3D

 38 41  0  0  0  0  0  0  0  0999 V2000
   -1.8363    1.6571   -0.9975 C   0  0  0  0  0  0  0  0  0  0  0  0
   -2.0744    1.1863   -1.5057 C   0  0  0  0  0  0  0  0  0  0  0  0
   -2.0877    1.4419   -2.9977 C   0  0  0  0  0  0  0  0  0  0  0  0
   -2.7863   -0.1129   -1.1766 C   0  0  0  0  0  0  0  0  0  0  0  0
   -2.6038   -0.5295    0.1475 N   0  0  0  0  0  0  0  0  0  0  0  0
   -1.5254   -1.3314    0.5045 C   0  0  0  0  0  0  0  0  0  0  0  0
   -0.1840   -0.4046    0.6632 C   0  0  1  0  0  0  0  0  0  0  0  0
    0.4506   -1.3867    1.6153 O   0  0  0  0  0  0  0  0  0  0  0  0
    0.4864   -1.0559   -0.7855 C   0  0  2  0  0  0  0  0  0  0  0  0
    0.3535   -2.6308   -0.3780 C   0  0  0  0  0  0  0  0  0  0  0  0
    1.6242   -3.3041   -0.5514 C   0  0  0  0  0  0  0  0  0  0  0  0
    1.7086   -4.3620   -1.4350 C   0  0  0  0  0  0  0  0  0  0  0  0
    2.5946   -5.3987   -1.2633 C   0  0  0  0  0  0  0  0  0  0  0  0
    3.6506   -5.2279   -0.3804 C   0  0  0  0  0  0  0  0  0  0  0  0
    3.4448   -4.3551    0.6592 C   0  0  0  0  0  0  0  0  0  0  0  0
    2.4848   -3.3910    0.5385 C   0  0  0  0  0  0  0  0  0  0  0  0
    1.9828   -0.9433   -0.3883 N   0  0  0  0  0  0  0  0  0  0  0  0
    2.3274    0.3918   -0.2907 C   0  0  0  0  0  0  0  0  0  0  0  0
    2.3155    0.5202    0.9610 O   0  0  0  0  0  0  0  0  0  0  0  0
    3.2079    1.2945   -0.6958 O   0  0  0  0  0  0  0  0  0  0  0  0
    4.7082    1.0249   -0.5858 C   0  0  1  0  0  0  0  0  0  0  0  0
    5.0994    2.5663   -0.9482 C   0  0  0  0  0  0  0  0  0  0  0  0
    5.9670    2.9786   -0.0611 O   0  0  0  0  0  0  0  0  0  0  0  0
    6.4444    1.7633    0.7139 C   0  0  1  0  0  0  0  0  0  0  0  0
    6.4906    2.5268    2.0296 O   0  0  0  0  0  0  0  0  0  0  0  0
    5.4142    3.3312    2.0022 C   0  0  0  0  0  0  0  0  0  0  0  0
    4.2884    2.7436    1.2281 C   0  0  0  0  0  0  0  0  0  0  0  0
    4.8536    1.2568    1.0851 C   0  0  1  0  0  0  0  0  0  0  0  0
   -3.5102    0.2031    1.3623 S   0  0  0  0  0  0  0  0  0  0  0  0
   -3.5319   -0.7670    2.5250 O   0  0  0  0  0  0  0  0  0  0  0  0
   -2.7858    1.4712    1.7619 O   0  0  0  0  0  0  0  0  0  0  0  0
   -5.1431    0.5481    0.8861 C   0  0  0  0  0  0  0  0  0  0  0  0
   -5.3461    1.4440   -0.1569 C   0  0  0  0  0  0  0  0  0  0  0  0
   -6.5584    2.0650   -0.3243 C   0  0  0  0  0  0  0  0  0  0  0  0
   -7.5738    1.7486    0.5615 C   0  0  0  0  0  0  0  0  0  0  0  0
   -8.6229    2.6681    0.8382 N   0  0  0  0  0  0  0  0  0  0  0  0
   -7.4757    0.5087    1.1805 C   0  0  0  0  0  0  0  0  0  0  0  0
   -6.2518   -0.1394    1.3074 C   0  0  0  0  0  0  0  0  0  0  0  0
  1  2  1  0
  2  3  1  0
  2  4  1  0
  4  5  1  0
  5  6  1  0
  7  6  1  6
  7  8  1  0
  7  9  1  0
  9 10  1  1
 10 11  1  0
 11 12  2  0
 12 13  1  0
 13 14  2  0
 14 15  1  0
 15 16  2  0
  9 17  1  0
 17 18  1  0
 18 19  2  0
 18 20  1  0
 21 20  1  1
 21 22  1  0
 22 23  1  0
 24 23  1  6
 24 25  1  0
 25 26  1  0
 26 27  1  0
 28 27  1  6
  5 29  1  0
 29 30  2  0
 29 31  2  0
 29 32  1  0
 32 33  2  0
 33 34  1  0
 34 35  2  0
 35 36  1  0
 35 37  1  0
 37 38  2  0
 16 11  1  0
 28 21  1  0
 38 32  1  0
 28 24  1  0
M  END
>  <supplier_code>  (1084) 
DB01264

>  <zinc_id>  (1084) 
ZINC000003955219

>  <catalog_short_name>  (1084) 
dbfda

$$$$

     RDKit          3D

 17 18  0  0  0  0  0  0  0  0999 V2000
   -3.5466    1.7347    1.5043 C   0  0  0  0  0  0  0  0  0  0  0  0
   -2.7990    0.8841    0.9868 C   0  0  0  0  0  0  0  0  0  0  0  0
   -1.4204    0.9050    1.1727 C   0  0  0  0  0  0  0  0  0  0  0  0
   -0.6447    0.0484    0.4637 N   0  0  0  0  0  0  0  0  0  0  0  0
    0.8885    0.2749    0.7768 C   0  0  2  0  0  0  0  0  0  0  0  0
    1.0304    1.2477   -0.5442 C   0  0  0  0  0  0  0  0  0  0  0  0
    2.4974    0.7797   -1.0678 C   0  0  1  0  0  0  0  0  0  0  0  0
    3.1900    1.8791   -0.2969 O   0  0  0  0  0  0  0  0  0  0  0  0
    2.7497   -0.3290    0.2163 C   0  0  2  0  0  0  0  0  0  0  0  0
    3.4843   -1.3750   -0.8092 C   0  0  0  0  0  0  0  0  0  0  0  0
    4.7195   -0.7336   -0.9995 O   0  0  0  0  0  0  0  0  0  0  0  0
    1.3873   -0.9277   -0.0227 O   0  0  0  0  0  0  0  0  0  0  0  0
   -1.0918   -1.0314   -0.0732 C   0  0  0  0  0  0  0  0  0  0  0  0
   -0.3426   -2.0532   -0.1011 O   0  0  0  0  0  0  0  0  0  0  0  0
   -2.4370   -1.1655   -0.1840 N   0  0  0  0  0  0  0  0  0  0  0  0
   -3.2669   -0.1587    0.1907 C   0  0  0  0  0  0  0  0  0  0  0  0
   -4.3982    0.0204   -0.3572 O   0  0  0  0  0  0  0  0  0  0  0  0
  1  2  1  0
  2  3  2  0
  3  4  1  0
  5  4  1  6
  5  6  1  0
  6  7  1  0
  7  8  1  1
  7  9  1  0
  9 10  1  6
 10 11  1  0
  9 12  1  0
  4 13  1  0
 13 14  2  0
 13 15  1  0
 15 16  1  0
 16 17  2  0
 16  2  1  0
 12  5  1  0
M  END
>  <supplier_code>  (1085) 
DB01265

>  <zinc_id>  (1085) 
ZINC000000002159

>  <catalog_short_name>  (1085) 
dbfda

$$$$

     RDKit          3D

 31 35  0  0  0  0  0  0  0  0999 V2000
   -2.6307   -3.0128   -0.8933 C   0  0  0  0  0  0  0  0  0  0  0  0
   -3.2721   -1.9002   -0.5558 C   0  0  0  0  0  0  0  0  0  0  0  0
   -4.4312   -1.5096   -1.1427 N   0  0  0  0  0  0  0  0  0  0  0  0
   -4.8383   -0.2164   -1.0327 C   0  0  0  0  0  0  0  0  0  0  0  0
   -4.5621    0.3743    0.1274 N   0  0  0  0  0  0  0  0  0  0  0  0
   -3.4298    0.0684    0.7660 C   0  0  0  0  0  0  0  0  0  0  0  0
   -2.9260    0.8892    1.5880 O   0  0  0  0  0  0  0  0  0  0  0  0
   -2.7391   -1.0956    0.4457 C   0  0  0  0  0  0  0  0  0  0  0  0
   -1.2551   -1.0779    0.6542 C   0  0  0  0  0  0  0  0  0  0  0  0
   -0.6563   -0.5012   -0.5960 C   0  0  0  0  0  0  0  0  0  0  0  0
   -0.0179    0.7795   -0.3953 N   0  0  0  0  0  0  0  0  0  0  0  0
    0.9640    0.8999   -1.4734 C   0  0  0  0  0  0  0  0  0  0  0  0
    1.5606   -0.4964   -1.6163 C   0  0  0  0  0  0  0  0  0  0  0  0
    2.2990   -0.7807   -0.3291 C   0  0  0  0  0  0  0  0  0  0  0  0
    3.4259    0.1998   -0.2732 C   0  0  0  0  0  0  0  0  0  0  0  0
    3.4344    1.4883   -0.6941 N   0  0  0  0  0  0  0  0  0  0  0  0
    4.6605    1.9133   -0.7692 O   0  0  0  0  0  0  0  0  0  0  0  0
    5.4609    1.0319   -0.2097 C   0  0  0  0  0  0  0  0  0  0  0  0
    6.6524    1.2402    0.4432 C   0  0  0  0  0  0  0  0  0  0  0  0
    7.2049    0.2326    1.2222 C   0  0  0  0  0  0  0  0  0  0  0  0
    8.5489    0.2160    1.3783 F   0  0  0  0  0  0  0  0  0  0  0  0
    6.4375   -0.7974    1.6996 C   0  0  0  0  0  0  0  0  0  0  0  0
    5.1913   -0.9644    1.1087 C   0  0  0  0  0  0  0  0  0  0  0  0
    4.7135   -0.0803    0.1576 C   0  0  0  0  0  0  0  0  0  0  0  0
    1.4495   -0.5774    0.8939 C   0  0  0  0  0  0  0  0  0  0  0  0
    0.7382    0.7647    0.8553 C   0  0  0  0  0  0  0  0  0  0  0  0
   -5.4116    1.3991    0.7206 C   0  0  0  0  0  0  0  0  0  0  0  0
   -6.7346    0.7312    0.9582 C   0  0  0  0  0  0  0  0  0  0  0  0
   -6.9122   -0.4654    0.1527 C   0  0  0  0  0  0  0  0  0  0  0  0
   -6.4418   -0.1486   -1.4313 C   0  0  1  0  0  0  0  0  0  0  0  0
   -6.4827    1.3958   -1.2686 O   0  0  0  0  0  0  0  0  0  0  0  0
  1  2  1  0
  2  3  1  0
  3  4  2  0
  4  5  1  0
  5  6  1  0
  6  7  2  0
  6  8  1  0
  8  9  1  0
  9 10  1  0
 10 11  1  0
 11 12  1  0
 12 13  1  0
 13 14  1  0
 14 15  1  0
 15 16  2  0
 16 17  1  0
 17 18  1  0
 18 19  2  0
 19 20  1  0
 20 21  1  0
 20 22  2  0
 22 23  1  0
 23 24  2  0
 14 25  1  0
 25 26  1  0
  5 27  1  0
 27 28  1  0
 28 29  1  0
 29 30  1  0
 30 31  1  1
  8  2  2  0
 26 11  1  0
 30  4  1  0
 24 15  1  0
 24 18  1  0
M  END
>  <supplier_code>  (1086) 
DB01267

>  <zinc_id>  (1086) 
ZINC000001481956

>  <catalog_short_name>  (1086) 
dbfda

$$$$

     RDKit          3D

 31 35  0  0  0  0  0  0  0  0999 V2000
   -2.0425    0.8288   -2.5396 C   0  0  0  0  0  0  0  0  0  0  0  0
   -2.9025    0.5548   -1.5460 C   0  0  0  0  0  0  0  0  0  0  0  0
   -4.0811    1.1871   -1.3135 N   0  0  0  0  0  0  0  0  0  0  0  0
   -5.1021    0.5148   -0.7680 C   0  0  0  0  0  0  0  0  0  0  0  0
   -4.8690   -0.7093   -0.2214 N   0  0  0  0  0  0  0  0  0  0  0  0
   -3.6132   -1.1899   -0.0285 C   0  0  0  0  0  0  0  0  0  0  0  0
   -3.2993   -1.9420    0.9338 O   0  0  0  0  0  0  0  0  0  0  0  0
   -2.6318   -0.6036   -0.8209 C   0  0  0  0  0  0  0  0  0  0  0  0
   -1.2567   -0.6412   -0.2599 C   0  0  0  0  0  0  0  0  0  0  0  0
   -1.2257   -0.0257    1.1128 C   0  0  0  0  0  0  0  0  0  0  0  0
    0.0432   -0.3191    1.7193 N   0  0  0  0  0  0  0  0  0  0  0  0
    0.8189   -1.1501    0.8519 C   0  0  0  0  0  0  0  0  0  0  0  0
    1.3133   -0.2935   -0.3120 C   0  0  0  0  0  0  0  0  0  0  0  0
    2.3227    0.6152    0.2851 C   0  0  0  0  0  0  0  0  0  0  0  0
    3.5237   -0.2637    0.4413 C   0  0  0  0  0  0  0  0  0  0  0  0
    3.6928   -1.3593    1.1992 N   0  0  0  0  0  0  0  0  0  0  0  0
    4.8218   -1.8658    0.7675 O   0  0  0  0  0  0  0  0  0  0  0  0
    5.5976   -0.9132    0.2884 C   0  0  0  0  0  0  0  0  0  0  0  0
    6.7613   -0.8859   -0.4722 C   0  0  0  0  0  0  0  0  0  0  0  0
    7.3078    0.3722   -0.6981 C   0  0  0  0  0  0  0  0  0  0  0  0
    8.4225    0.3922   -1.4659 F   0  0  0  0  0  0  0  0  0  0  0  0
    6.5372    1.5182   -0.6859 C   0  0  0  0  0  0  0  0  0  0  0  0
    5.2691    1.4322   -0.1786 C   0  0  0  0  0  0  0  0  0  0  0  0
    4.7857    0.2126    0.2242 C   0  0  0  0  0  0  0  0  0  0  0  0
    2.0124    1.1704    1.6208 C   0  0  0  0  0  0  0  0  0  0  0  0
    0.6959    0.8486    2.2053 C   0  0  0  0  0  0  0  0  0  0  0  0
   -5.9504   -1.1883    0.6144 C   0  0  0  0  0  0  0  0  0  0  0  0
   -7.2662   -0.8311   -0.0089 C   0  0  0  0  0  0  0  0  0  0  0  0
   -7.4089    0.6064   -0.3777 C   0  0  0  0  0  0  0  0  0  0  0  0
   -6.0693    1.3742    0.2176 C   0  0  2  0  0  0  0  0  0  0  0  0
   -6.2072    2.5125   -0.7844 O   0  0  0  0  0  0  0  0  0  0  0  0
  1  2  1  0
  2  3  1  0
  3  4  2  0
  4  5  1  0
  5  6  1  0
  6  7  2  0
  6  8  1  0
  8  9  1  0
  9 10  1  0
 10 11  1  0
 11 12  1  0
 12 13  1  0
 13 14  1  0
 14 15  1  0
 15 16  2  0
 16 17  1  0
 17 18  1  0
 18 19  2  0
 19 20  1  0
 20 21  1  0
 20 22  2  0
 22 23  1  0
 23 24  2  0
 14 25  1  0
 25 26  1  0
  5 27  1  0
 27 28  1  0
 28 29  1  0
 29 30  1  0
 30 31  1  6
  8  2  2  0
 26 11  1  0
 30  4  1  0
 24 15  1  0
 24 18  1  0
M  END
>  <supplier_code>  (1087) 
DB01267

>  <zinc_id>  (1087) 
ZINC000004214700

>  <catalog_short_name>  (1087) 
dbfda

$$$$

     RDKit          3D

 29 31  0  0  0  0  0  0  0  0999 V2000
   -5.9233    1.6174    1.1422 C   0  0  0  0  0  0  0  0  0  0  0  0
   -5.6693    0.1156    1.0984 C   0  0  0  0  0  0  0  0  0  0  0  0
   -6.5765   -0.4608    0.1374 N   0  0  0  0  0  0  0  0  0  0  0  0
   -7.0923   -1.7452    0.5334 C   0  0  0  0  0  0  0  0  0  0  0  0
   -6.0022   -2.7596    0.7782 C   0  0  0  0  0  0  0  0  0  0  0  0
   -6.0763   -0.4310   -1.2134 C   0  0  0  0  0  0  0  0  0  0  0  0
   -4.7857   -1.1904   -1.3846 C   0  0  0  0  0  0  0  0  0  0  0  0
   -3.7316   -0.7167   -0.5217 N   0  0  0  0  0  0  0  0  0  0  0  0
   -2.8306    0.3231   -0.8619 C   0  0  0  0  0  0  0  0  0  0  0  0
   -3.0590    0.9317   -1.9512 O   0  0  0  0  0  0  0  0  0  0  0  0
   -1.5352    0.4543   -0.1815 C   0  0  0  0  0  0  0  0  0  0  0  0
   -1.1385    1.5614    0.5579 C   0  0  0  0  0  0  0  0  0  0  0  0
   -2.0730    2.3178    1.4492 C   0  0  0  0  0  0  0  0  0  0  0  0
    0.2070    1.5788    0.5656 N   0  0  0  0  0  0  0  0  0  0  0  0
    0.6939    0.3676    0.1978 C   0  0  0  0  0  0  0  0  0  0  0  0
    2.0489    0.2442   -0.3543 C   0  0  0  0  0  0  0  0  0  0  0  0
    3.0848    0.4541    0.4220 C   0  0  0  0  0  0  0  0  0  0  0  0
    3.0392    0.7106    1.8678 C   0  0  0  0  0  0  0  0  0  0  0  0
    2.0779    0.5068    2.6698 O   0  0  0  0  0  0  0  0  0  0  0  0
    4.3976    1.0398    2.1852 N   0  0  0  0  0  0  0  0  0  0  0  0
    5.2374    0.7417    1.0636 C   0  0  0  0  0  0  0  0  0  0  0  0
    6.6131    0.6149    0.9159 C   0  0  0  0  0  0  0  0  0  0  0  0
    7.1532   -0.4497    0.2048 C   0  0  0  0  0  0  0  0  0  0  0  0
    6.3575   -1.1414   -0.7005 C   0  0  0  0  0  0  0  0  0  0  0  0
    6.7349   -2.3611   -1.1812 F   0  0  0  0  0  0  0  0  0  0  0  0
    5.0753   -0.6466   -0.9064 C   0  0  0  0  0  0  0  0  0  0  0  0
    4.4737    0.1269    0.0788 C   0  0  0  0  0  0  0  0  0  0  0  0
   -0.3838   -0.2747   -0.3996 C   0  0  0  0  0  0  0  0  0  0  0  0
   -0.3171   -1.5294   -1.1998 C   0  0  0  0  0  0  0  0  0  0  0  0
  1  2  1  0
  2  3  1  0
  3  4  1  0
  4  5  1  0
  3  6  1  0
  6  7  1  0
  7  8  1  0
  8  9  1  0
  9 10  2  0
  9 11  1  0
 11 12  2  0
 12 13  1  0
 12 14  1  0
 14 15  1  0
 15 16  1  0
 16 17  2  0
 17 18  1  0
 18 19  2  0
 18 20  1  0
 20 21  1  0
 21 22  2  0
 22 23  1  0
 23 24  2  0
 24 25  1  0
 24 26  1  0
 26 27  2  0
 15 28  2  0
 28 29  1  0
 28 11  1  0
 27 17  1  0
 27 21  1  0
M  END
>  <supplier_code>  (1088) 
DB01268

>  <zinc_id>  (1088) 
ZINC000003964325

>  <catalog_short_name>  (1088) 
dbfda

$$$$

     RDKit          3D

 16 19  0  0  0  0  0  0  0  0999 V2000
    3.7388    0.8957   -0.3015 C   0  0  0  0  0  0  0  0  0  0  0  0
    3.9293   -0.4164   -0.0447 C   0  0  0  0  0  0  0  0  0  0  0  0
    2.8625   -1.1225    0.3759 N   0  0  0  0  0  0  0  0  0  0  0  0
    1.6576   -0.6633    0.0556 C   0  0  0  0  0  0  0  0  0  0  0  0
    0.5384   -1.1108    0.7514 C   0  0  0  0  0  0  0  0  0  0  0  0
   -0.6543   -0.4481    0.4989 C   0  0  0  0  0  0  0  0  0  0  0  0
   -0.8927    0.2669   -0.5935 C   0  0  0  0  0  0  0  0  0  0  0  0
    0.2738    0.7691   -1.1792 C   0  0  0  0  0  0  0  0  0  0  0  0
    1.5205    0.5616   -0.5911 C   0  0  0  0  0  0  0  0  0  0  0  0
    2.6112    1.2719   -0.8764 N   0  0  0  0  0  0  0  0  0  0  0  0
   -2.0142   -0.5120   -1.4469 C   0  0  1  0  0  0  0  0  0  0  0  0
   -2.6841   -1.3545   -0.2465 C   0  0  0  0  0  0  0  0  0  0  0  0
   -2.0811   -0.7886    1.1365 C   0  0  2  0  0  0  0  0  0  0  0  0
   -2.6553    0.7316    1.0419 C   0  0  0  0  0  0  0  0  0  0  0  0
   -2.9965    1.2507   -0.1087 N   0  0  0  0  0  0  0  0  0  0  0  0
   -3.1541    0.6687   -1.3397 C   0  0  0  0  0  0  0  0  0  0  0  0
  1  2  2  0
  2  3  1  0
  3  4  2  0
  4  5  1  0
  5  6  2  0
  6  7  1  0
  7  8  2  0
  8  9  1  0
  9 10  2  0
 11  7  1  1
 11 12  1  0
 12 13  1  0
 13 14  1  6
 14 15  1  0
 15 16  1  0
 10  1  1  0
 16 11  1  0
  9  4  1  0
 13  6  1  0
M  END
>  <supplier_code>  (1089) 
DB01273

>  <zinc_id>  (1089) 
ZINC000001481833

>  <catalog_short_name>  (1089) 
dbfda

$$$$

     RDKit          3D

 25 26  0  0  0  0  0  0  0  0999 V2000
    7.5850    0.0587    1.0057 C   0  0  0  0  0  0  0  0  0  0  0  0
    7.3147    0.0768    0.9395 O   0  0  0  0  0  0  0  0  0  0  0  0
    5.9604    0.0636    0.6329 C   0  0  0  0  0  0  0  0  0  0  0  0
    5.1129    0.8811    1.3213 C   0  0  0  0  0  0  0  0  0  0  0  0
    3.7487    0.7262    1.1605 C   0  0  0  0  0  0  0  0  0  0  0  0
    3.3199   -0.3175    0.3483 C   0  0  0  0  0  0  0  0  0  0  0  0
    1.8879   -0.5299    0.0537 C   0  0  0  0  0  0  0  0  0  0  0  0
    1.2962    0.9561   -0.3512 C   0  0  1  0  0  0  0  0  0  0  0  0
    2.5102    1.2182   -1.4380 C   0  0  0  0  0  0  0  0  0  0  0  0
    0.3571    0.3400   -1.4648 N   0  0  0  0  0  0  0  0  0  0  0  0
   -0.3621   -0.7316   -0.7740 C   0  0  0  0  0  0  0  0  0  0  0  0
   -1.0832    0.1882    0.4143 C   0  0  2  0  0  0  0  0  0  0  0  0
   -0.8676   -0.9066    1.4679 O   0  0  0  0  0  0  0  0  0  0  0  0
   -2.5697   -0.3511    0.0237 C   0  0  0  0  0  0  0  0  0  0  0  0
   -2.7473   -1.6790   -0.1286 C   0  0  0  0  0  0  0  0  0  0  0  0
   -4.0649   -2.1037   -0.2742 C   0  0  0  0  0  0  0  0  0  0  0  0
   -5.1145   -1.2691    0.0905 C   0  0  0  0  0  0  0  0  0  0  0  0
   -6.3790   -1.7793    0.4006 O   0  0  0  0  0  0  0  0  0  0  0  0
   -4.8651    0.0984    0.0687 C   0  0  0  0  0  0  0  0  0  0  0  0
   -5.9646    0.9873    0.0569 N   0  0  0  0  0  0  0  0  0  0  0  0
   -6.1388    1.8147   -1.0814 C   0  0  0  0  0  0  0  0  0  0  0  0
   -5.1427    2.4079   -1.5387 O   0  0  0  0  0  0  0  0  0  0  0  0
   -3.5628    0.5866    0.1060 C   0  0  0  0  0  0  0  0  0  0  0  0
    4.1984   -0.8418   -0.5934 C   0  0  0  0  0  0  0  0  0  0  0  0
    5.5711   -0.6804   -0.4464 C   0  0  0  0  0  0  0  0  0  0  0  0
  1  2  1  0
  2  3  1  0
  3  4  2  0
  4  5  1  0
  5  6  2  0
  6  7  1  0
  8  7  1  1
  8  9  1  0
  8 10  1  0
 10 11  1  0
 12 11  1  6
 12 13  1  0
 12 14  1  0
 14 15  2  0
 15 16  1  0
 16 17  2  0
 17 18  1  0
 17 19  1  0
 19 20  1  0
 20 21  1  0
 21 22  2  0
 19 23  2  0
  6 24  1  0
 24 25  2  0
 25  3  1  0
 23 14  1  0
M  END
>  <supplier_code>  (1090) 
DB01274

>  <zinc_id>  (1090) 
ZINC000002599970

>  <catalog_short_name>  (1090) 
dbfda

$$$$

     RDKit          3D

 12 13  0  0  0  0  0  0  0  0999 V2000
   -1.6521    2.3063   -0.8906 N   0  0  0  0  0  0  0  0  0  0  0  0
   -2.0893    1.3675    0.0612 N   0  0  0  0  0  0  0  0  0  0  0  0
   -1.3725    0.1440    0.2503 C   0  0  0  0  0  0  0  0  0  0  0  0
   -1.9727   -1.0631    0.1349 N   0  0  0  0  0  0  0  0  0  0  0  0
   -1.2463   -2.1644    0.1453 N   0  0  0  0  0  0  0  0  0  0  0  0
    0.0591   -2.1242   -0.1743 C   0  0  0  0  0  0  0  0  0  0  0  0
    0.7455   -0.9391   -0.0921 C   0  0  0  0  0  0  0  0  0  0  0  0
    2.0196   -0.7596   -0.6148 C   0  0  0  0  0  0  0  0  0  0  0  0
    2.6977    0.3904   -0.2493 C   0  0  0  0  0  0  0  0  0  0  0  0
    2.0923    1.3227    0.5722 C   0  0  0  0  0  0  0  0  0  0  0  0
    0.7024    1.3329    0.6058 C   0  0  0  0  0  0  0  0  0  0  0  0
    0.0162    0.1866    0.2517 C   0  0  0  0  0  0  0  0  0  0  0  0
  1  2  1  0
  2  3  1  0
  3  4  2  0
  4  5  1  0
  5  6  2  0
  6  7  1  0
  7  8  2  0
  8  9  1  0
  9 10  2  0
 10 11  1  0
 11 12  2  0
 12  3  1  0
 12  7  1  0
M  END
>  <supplier_code>  (1091) 
DB01275

>  <zinc_id>  (1091) 
ZINC000012360535

>  <catalog_short_name>  (1091) 
dbfda

$$$$

     RDKit          3D

 21 23  0  0  0  0  0  0  0  0999 V2000
   -4.1500    0.3467   -1.7138 C   0  0  0  0  0  0  0  0  0  0  0  0
   -4.0212    0.2038   -1.1879 O   0  0  0  0  0  0  0  0  0  0  0  0
   -3.1321    0.0769   -0.1222 C   0  0  0  0  0  0  0  0  0  0  0  0
   -3.4125    0.3955    1.1474 N   0  0  0  0  0  0  0  0  0  0  0  0
   -2.3647    0.5835    1.9957 C   0  0  0  0  0  0  0  0  0  0  0  0
   -2.6065    0.3542    3.3954 N   0  0  0  0  0  0  0  0  0  0  0  0
   -1.1052    0.7908    1.5171 N   0  0  0  0  0  0  0  0  0  0  0  0
   -0.7557    0.2362    0.3525 C   0  0  0  0  0  0  0  0  0  0  0  0
   -1.8246   -0.1815   -0.4418 C   0  0  0  0  0  0  0  0  0  0  0  0
   -1.3296   -1.0831   -1.2957 N   0  0  0  0  0  0  0  0  0  0  0  0
   -0.0437   -0.9006   -1.2848 C   0  0  0  0  0  0  0  0  0  0  0  0
    0.4101   -0.2350   -0.1787 N   0  0  0  0  0  0  0  0  0  0  0  0
    1.4003    0.9828   -0.5124 C   0  0  2  0  0  0  0  0  0  0  0  0
    2.2029    0.1693   -1.4007 O   0  0  0  0  0  0  0  0  0  0  0  0
    3.4119   -0.4607   -0.9286 C   0  0  2  0  0  0  0  0  0  0  0  0
    2.7021   -1.5713    0.0442 C   0  0  0  0  0  0  0  0  0  0  0  0
    2.9280   -2.8101   -0.3028 O   0  0  0  0  0  0  0  0  0  0  0  0
    3.8114    0.7159    0.2394 C   0  0  1  0  0  0  0  0  0  0  0  0
    3.5766    1.8278   -0.7534 O   0  0  0  0  0  0  0  0  0  0  0  0
    2.2978    0.9621    0.9384 C   0  0  2  0  0  0  0  0  0  0  0  0
    2.0049   -0.4034    1.4632 O   0  0  0  0  0  0  0  0  0  0  0  0
  1  2  1  0
  2  3  1  0
  3  4  2  0
  4  5  1  0
  5  6  1  0
  5  7  2  0
  7  8  1  0
  8  9  2  0
  9 10  1  0
 10 11  2  0
 11 12  1  0
 13 12  1  1
 13 14  1  0
 14 15  1  0
 15 16  1  1
 16 17  1  0
 15 18  1  0
 18 19  1  6
 18 20  1  0
 20 21  1  1
  9  3  1  0
 20 13  1  0
 12  8  1  0
M  END
>  <supplier_code>  (1092) 
DB01280

>  <zinc_id>  (1092) 
ZINC000003823492

>  <catalog_short_name>  (1092) 
dbfda

$$$$

     RDKit          3D

 39 41  0  0  0  0  0  0  0  0999 V2000
   -3.7798   -2.0608   -0.8716 C   0  0  0  0  0  0  0  0  0  0  0  0
   -3.4868   -1.8169    0.3886 C   0  0  0  0  0  0  0  0  0  0  0  0
   -3.5719   -3.1305    1.1587 C   0  0  0  0  0  0  0  0  0  0  0  0
   -2.0775   -1.3838    0.3777 C   0  0  0  0  0  0  0  0  0  0  0  0
   -1.6876   -0.2947    1.1389 N   0  0  0  0  0  0  0  0  0  0  0  0
   -0.3498    0.1371    0.9230 C   0  0  0  0  0  0  0  0  0  0  0  0
    0.2664   -0.9573   -0.1412 C   0  0  1  0  0  0  0  0  0  0  0  0
   -0.4859   -0.3661   -1.3078 O   0  0  0  0  0  0  0  0  0  0  0  0
   -0.1837    1.1787   -1.5967 P   0  0  0  0  0  0  0  0  0  0  0  0
   -0.0627    2.1561   -0.4807 O   0  0  0  0  0  0  0  0  0  0  0  0
   -1.5431    1.7358   -2.4801 O   0  0  0  0  0  0  0  0  0  0  0  0
    1.0991    1.5337   -2.6606 O   0  0  0  0  0  0  0  0  0  0  0  0
    1.6596   -0.0004   -0.4673 C   0  0  2  0  0  0  0  0  0  0  0  0
    2.1910   -1.0536   -1.5923 C   0  0  0  0  0  0  0  0  0  0  0  0
    2.4963   -2.3351   -1.0048 C   0  0  0  0  0  0  0  0  0  0  0  0
    1.5731   -3.2867   -0.5868 C   0  0  0  0  0  0  0  0  0  0  0  0
    2.0247   -4.3205    0.2075 C   0  0  0  0  0  0  0  0  0  0  0  0
    3.3200   -4.7388    0.0437 C   0  0  0  0  0  0  0  0  0  0  0  0
    4.1068   -4.1435   -0.9347 C   0  0  0  0  0  0  0  0  0  0  0  0
    3.7344   -2.8860   -1.3291 C   0  0  0  0  0  0  0  0  0  0  0  0
    2.4933   -0.6524    0.6897 N   0  0  0  0  0  0  0  0  0  0  0  0
    3.4483    0.2181    1.3075 C   0  0  0  0  0  0  0  0  0  0  0  0
    2.9380    1.2810    1.7451 O   0  0  0  0  0  0  0  0  0  0  0  0
    4.8318    0.0729    1.1758 O   0  0  0  0  0  0  0  0  0  0  0  0
    5.6272    1.2997    1.6802 C   0  0  1  0  0  0  0  0  0  0  0  0
    6.8353    1.0381    0.5850 C   0  0  0  0  0  0  0  0  0  0  0  0
    6.9500    2.3956   -0.0359 C   0  0  0  0  0  0  0  0  0  0  0  0
    5.9165    3.1746    0.4377 O   0  0  0  0  0  0  0  0  0  0  0  0
    4.8592    2.3172    0.6291 C   0  0  0  0  0  0  0  0  0  0  0  0
   -2.7943    0.8111    1.7049 S   0  0  0  0  0  0  0  0  0  0  0  0
   -3.1174    0.4691    3.1451 O   0  0  0  0  0  0  0  0  0  0  0  0
   -2.1384    2.1740    1.7689 O   0  0  0  0  0  0  0  0  0  0  0  0
   -4.2495    0.9951    0.7542 C   0  0  0  0  0  0  0  0  0  0  0  0
   -4.3755    2.0380   -0.1577 C   0  0  0  0  0  0  0  0  0  0  0  0
   -5.5983    2.4831   -0.6145 C   0  0  0  0  0  0  0  0  0  0  0  0
   -6.7489    1.7905   -0.2834 C   0  0  0  0  0  0  0  0  0  0  0  0
   -7.9924    2.4672   -0.4996 N   0  0  0  0  0  0  0  0  0  0  0  0
   -6.6785    1.0166    0.8648 C   0  0  0  0  0  0  0  0  0  0  0  0
   -5.4488    0.6438    1.3656 C   0  0  0  0  0  0  0  0  0  0  0  0
  1  2  1  0
  2  3  1  0
  2  4  1  0
  4  5  1  0
  5  6  1  0
  7  6  1  1
  7  8  1  0
  8  9  1  0
  9 10  2  0
  9 11  1  0
  9 12  1  0
  7 13  1  0
 13 14  1  6
 14 15  1  0
 15 16  2  0
 16 17  1  0
 17 18  2  0
 18 19  1  0
 19 20  2  0
 13 21  1  0
 21 22  1  0
 22 23  2  0
 22 24  1  0
 25 24  1  6
 25 26  1  0
 26 27  1  0
 27 28  1  0
 28 29  1  0
  5 30  1  0
 30 31  2  0
 30 32  2  0
 30 33  1  0
 33 34  2  0
 34 35  1  0
 35 36  2  0
 36 37  1  0
 36 38  1  0
 38 39  2  0
 20 15  1  0
 29 25  1  0
 39 33  1  0
M  END
>  <supplier_code>  (1093) 
DB01319

>  <zinc_id>  (1093) 
ZINC000003941829

>  <catalog_short_name>  (1093) 
dbfda

$$$$

     RDKit          3D

 25 27  0  0  0  0  0  0  0  0999 V2000
    0.7555   -2.3418    2.4788 O   0  0  0  0  0  0  0  0  0  0  0  0
    0.4739   -1.4220    1.6536 C   0  0  0  0  0  0  0  0  0  0  0  0
   -0.7892   -0.7517    1.6146 N   0  0  0  0  0  0  0  0  0  0  0  0
   -0.9399   -0.2114    0.2671 C   0  0  0  0  0  0  0  0  0  0  0  0
   -2.1145   -0.8168   -0.4313 C   0  0  0  0  0  0  0  0  0  0  0  0
   -2.5193   -2.1190   -0.1710 C   0  0  0  0  0  0  0  0  0  0  0  0
   -3.8584   -2.4887   -0.1663 C   0  0  0  0  0  0  0  0  0  0  0  0
   -4.8361   -1.5192   -0.3543 C   0  0  0  0  0  0  0  0  0  0  0  0
   -4.4240   -0.3853   -1.0438 C   0  0  0  0  0  0  0  0  0  0  0  0
   -3.0971    0.0177   -0.9503 C   0  0  0  0  0  0  0  0  0  0  0  0
   -1.0959    1.2524    0.3688 C   0  0  0  0  0  0  0  0  0  0  0  0
   -1.6571    1.7617    1.5278 C   0  0  0  0  0  0  0  0  0  0  0  0
   -2.0313    3.0807    1.5758 C   0  0  0  0  0  0  0  0  0  0  0  0
   -1.4269    3.9632    0.6956 C   0  0  0  0  0  0  0  0  0  0  0  0
   -1.1079    3.4513   -0.5555 C   0  0  0  0  0  0  0  0  0  0  0  0
   -1.0536    2.0766   -0.7414 C   0  0  0  0  0  0  0  0  0  0  0  0
    0.3359   -0.5209   -0.4170 C   0  0  0  0  0  0  0  0  0  0  0  0
    0.7114    0.0482   -1.4863 O   0  0  0  0  0  0  0  0  0  0  0  0
    1.2620   -0.8548    0.6236 N   0  0  0  0  0  0  0  0  0  0  0  0
    2.6974   -0.9567    0.5823 C   0  0  0  0  0  0  0  0  0  0  0  0
    3.2778   -0.2487   -0.4511 O   0  0  0  0  0  0  0  0  0  0  0  0
    4.9599   -0.2981   -0.2024 P   0  0  0  0  0  0  0  0  0  0  0  0
    5.3536   -1.7196    0.1370 O   0  0  0  0  0  0  0  0  0  0  0  0
    5.7811    0.2641   -1.5804 O   0  0  0  0  0  0  0  0  0  0  0  0
    5.3429    0.7388    1.0893 O   0  0  0  0  0  0  0  0  0  0  0  0
  1  2  2  0
  2  3  1  0
  3  4  1  0
  4  5  1  0
  5  6  2  0
  6  7  1  0
  7  8  2  0
  8  9  1  0
  9 10  2  0
  4 11  1  0
 11 12  2  0
 12 13  1  0
 13 14  2  0
 14 15  1  0
 15 16  2  0
  4 17  1  0
 17 18  2  0
 17 19  1  0
 19 20  1  0
 20 21  1  0
 21 22  1  0
 22 23  2  0
 22 24  1  0
 22 25  1  0
 19  2  1  0
 10  5  1  0
 16 11  1  0
M  END
>  <supplier_code>  (1094) 
DB01320

>  <zinc_id>  (1094) 
ZINC000001530922

>  <catalog_short_name>  (1094) 
dbfda

$$$$

     RDKit          3D

 29 32  0  0  0  0  0  0  0  0999 V2000
    6.1683    0.0092    2.7536 C   0  0  0  0  0  0  0  0  0  0  0  0
    5.6259   -0.0550    1.3822 C   0  0  0  0  0  0  0  0  0  0  0  0
    4.7109    0.7904    0.8441 N   0  0  0  0  0  0  0  0  0  0  0  0
    4.6645    0.6979   -0.4592 N   0  0  0  0  0  0  0  0  0  0  0  0
    4.4542   -0.5786   -0.8699 C   0  0  0  0  0  0  0  0  0  0  0  0
    4.2024   -1.0855   -2.5763 S   0  0  0  0  0  0  0  0  0  0  0  0
    2.4737   -1.3898   -2.9482 C   0  0  0  0  0  0  0  0  0  0  0  0
    1.5860   -1.1782   -1.7591 C   0  0  0  0  0  0  0  0  0  0  0  0
    1.2470    0.0849   -1.4994 C   0  0  0  0  0  0  0  0  0  0  0  0
    1.4854    1.1577   -2.4755 C   0  0  0  0  0  0  0  0  0  0  0  0
    0.8183    1.2385   -3.5514 O   0  0  0  0  0  0  0  0  0  0  0  0
    1.9410    2.3858   -1.9849 O   0  0  0  0  0  0  0  0  0  0  0  0
    0.5602    0.5013   -0.3128 N   0  0  0  0  0  0  0  0  0  0  0  0
   -0.7856    0.9238    0.0239 C   0  0  0  0  0  0  0  0  0  0  0  0
   -1.1982    2.1219   -0.1074 O   0  0  0  0  0  0  0  0  0  0  0  0
   -0.4422    0.4804    1.5620 C   0  0  1  0  0  0  0  0  0  0  0  0
   -1.6308   -0.5941    1.6659 N   0  0  0  0  0  0  0  0  0  0  0  0
   -2.9110   -0.0795    1.3699 C   0  0  0  0  0  0  0  0  0  0  0  0
   -3.1945    1.1013    1.7068 O   0  0  0  0  0  0  0  0  0  0  0  0
   -3.9923   -1.1162    1.4067 C   0  0  0  0  0  0  0  0  0  0  0  0
   -5.2781   -0.5670    1.0432 N   0  0  0  0  0  0  0  0  0  0  0  0
   -6.3301   -1.3762    0.7682 C   0  0  0  0  0  0  0  0  0  0  0  0
   -7.4428   -0.9179    1.3913 N   0  0  0  0  0  0  0  0  0  0  0  0
   -7.1390    0.3251    1.7377 N   0  0  0  0  0  0  0  0  0  0  0  0
   -5.8512    0.5522    1.4872 N   0  0  0  0  0  0  0  0  0  0  0  0
    0.6637   -0.5551    0.7777 C   0  0  1  0  0  0  0  0  0  0  0  0
   -0.4733   -1.7469   -0.1882 S   0  0  0  0  0  0  0  0  0  0  0  0
    0.6540   -2.3230   -1.4985 C   0  0  0  0  0  0  0  0  0  0  0  0
    5.4137   -1.3828    0.3104 S   0  0  0  0  0  0  0  0  0  0  0  0
  1  2  1  0
  2  3  2  0
  3  4  1  0
  4  5  2  0
  5  6  1  0
  6  7  1  0
  7  8  1  0
  8  9  2  0
  9 10  1  0
 10 11  2  0
 10 12  1  0
  9 13  1  0
 13 14  1  0
 14 15  2  0
 14 16  1  0
 16 17  1  6
 17 18  1  0
 18 19  2  0
 18 20  1  0
 20 21  1  0
 21 22  1  0
 22 23  2  0
 23 24  1  0
 24 25  2  0
 16 26  1  0
 26 27  1  6
 27 28  1  0
  5 29  1  0
 29  2  1  0
 28  8  1  0
 26 13  1  0
 25 21  1  0
M  END
>  <supplier_code>  (1095) 
DB01327

>  <zinc_id>  (1095) 
ZINC000003830405

>  <catalog_short_name>  (1095) 
dbfda

$$$$

     RDKit          3D

 36 39  0  0  0  0  0  0  0  0999 V2000
   -0.1281    2.6044    0.3101 C   0  0  0  0  0  0  0  0  0  0  0  0
   -0.2034    1.7428    1.3041 O   0  0  0  0  0  0  0  0  0  0  0  0
   -0.1373    0.4711    0.7265 C   0  0  1  0  0  0  0  0  0  0  0  0
    1.1243    0.2007    0.1490 N   0  0  0  0  0  0  0  0  0  0  0  0
    2.2368    0.2881    1.0263 C   0  0  0  0  0  0  0  0  0  0  0  0
    2.0404    0.1605    2.2758 O   0  0  0  0  0  0  0  0  0  0  0  0
    3.6399    0.2974    0.6342 C   0  0  0  0  0  0  0  0  0  0  0  0
    4.2972   -1.2752   -0.0172 S   0  0  0  0  0  0  0  0  0  0  0  0
    5.4452   -0.2254   -0.9310 C   0  0  0  0  0  0  0  0  0  0  0  0
    6.7167    0.0200   -0.6018 C   0  0  0  0  0  0  0  0  0  0  0  0
    7.8451   -0.4403   -1.3817 C   0  0  0  0  0  0  0  0  0  0  0  0
    8.2774   -1.8003   -1.3938 N   0  0  0  0  0  0  0  0  0  0  0  0
    8.3347    0.3247   -2.2398 O   0  0  0  0  0  0  0  0  0  0  0  0
    6.9910    0.6437    0.6980 C   0  0  0  0  0  0  0  0  0  0  0  0
    7.5005    0.0404    1.6629 O   0  0  0  0  0  0  0  0  0  0  0  0
    6.3182    1.8442    0.9442 O   0  0  0  0  0  0  0  0  0  0  0  0
    4.0816    0.9560   -0.9721 S   0  0  0  0  0  0  0  0  0  0  0  0
   -0.8278   -0.5980    1.4673 C   0  0  0  0  0  0  0  0  0  0  0  0
   -0.7438   -0.8530    2.7100 O   0  0  0  0  0  0  0  0  0  0  0  0
   -2.0419   -0.4992    0.7035 N   0  0  0  0  0  0  0  0  0  0  0  0
   -3.1431   -1.2638    0.1973 C   0  0  0  0  0  0  0  0  0  0  0  0
   -3.8422   -2.1014    1.1833 C   0  0  0  0  0  0  0  0  0  0  0  0
   -3.1825   -3.1010    1.6034 O   0  0  0  0  0  0  0  0  0  0  0  0
   -4.6885   -1.5341    2.1420 O   0  0  0  0  0  0  0  0  0  0  0  0
   -3.4101   -1.3440   -1.1088 C   0  0  0  0  0  0  0  0  0  0  0  0
   -4.6979   -2.0062   -1.4547 C   0  0  0  0  0  0  0  0  0  0  0  0
   -6.1389   -0.9871   -1.3046 S   0  0  0  0  0  0  0  0  0  0  0  0
   -5.8219    0.7264   -1.0092 C   0  0  0  0  0  0  0  0  0  0  0  0
   -5.1916    1.2670    0.0534 N   0  0  0  0  0  0  0  0  0  0  0  0
   -5.7239    2.4170    0.3932 N   0  0  0  0  0  0  0  0  0  0  0  0
   -6.4969    2.7438   -0.6422 N   0  0  0  0  0  0  0  0  0  0  0  0
   -6.6283    1.7193   -1.4579 N   0  0  0  0  0  0  0  0  0  0  0  0
   -7.4152    1.7596   -2.6661 C   0  0  0  0  0  0  0  0  0  0  0  0
   -2.3184   -1.5615   -2.1174 C   0  0  0  0  0  0  0  0  0  0  0  0
   -0.7252   -1.0527   -1.3779 S   0  0  0  0  0  0  0  0  0  0  0  0
   -1.3420    0.4162   -0.3018 C   0  0  2  0  0  0  0  0  0  0  0  0
  1  2  1  0
  3  2  1  1
  3  4  1  0
  4  5  1  0
  5  6  2  0
  5  7  1  0
  7  8  1  0
  8  9  1  0
  9 10  2  3
 10 11  1  0
 11 12  1  0
 11 13  2  0
 10 14  1  0
 14 15  2  0
 14 16  1  0
  9 17  1  0
  3 18  1  0
 18 19  2  0
 18 20  1  0
 20 21  1  0
 21 22  1  0
 22 23  2  0
 22 24  1  0
 21 25  2  0
 25 26  1  0
 26 27  1  0
 27 28  1  0
 28 29  2  0
 29 30  1  0
 30 31  2  0
 31 32  1  0
 32 33  1  0
 25 34  1  0
 34 35  1  0
 36 35  1  6
 36  3  1  0
 17  7  1  0
 36 20  1  0
 32 28  1  0
M  END
>  <supplier_code>  (1096) 
DB01330

>  <zinc_id>  (1096) 
ZINC000003830441

>  <catalog_short_name>  (1096) 
dbfda

$$$$

     RDKit          3D

 28 30  0  0  0  0  0  0  0  0999 V2000
    0.9303   -2.8858   -0.1219 C   0  0  0  0  0  0  0  0  0  0  0  0
    1.2771   -2.4055    0.0361 O   0  0  0  0  0  0  0  0  0  0  0  0
    1.0983   -1.0554   -0.2965 C   0  0  1  0  0  0  0  0  0  0  0  0
    2.2534   -0.2392   -0.3352 N   0  0  0  0  0  0  0  0  0  0  0  0
    2.8945    0.2797    0.8395 C   0  0  0  0  0  0  0  0  0  0  0  0
    2.1522    0.2791    1.8720 O   0  0  0  0  0  0  0  0  0  0  0  0
    4.3198   -0.0011    1.1776 C   0  0  0  0  0  0  0  0  0  0  0  0
    5.2730    0.7675    0.3335 C   0  0  0  0  0  0  0  0  0  0  0  0
    5.9663    1.9205    0.5904 C   0  0  0  0  0  0  0  0  0  0  0  0
    7.3166    1.7853    0.4509 C   0  0  0  0  0  0  0  0  0  0  0  0
    7.6489    1.1090   -0.7183 C   0  0  0  0  0  0  0  0  0  0  0  0
    6.3337    0.0036   -0.7810 S   0  0  0  0  0  0  0  0  0  0  0  0
    0.0739   -0.9575   -1.3370 C   0  0  0  0  0  0  0  0  0  0  0  0
    0.0477   -1.4484   -2.5090 O   0  0  0  0  0  0  0  0  0  0  0  0
   -1.0183   -0.9174   -0.4010 N   0  0  0  0  0  0  0  0  0  0  0  0
   -2.3421   -0.4265   -0.1794 C   0  0  0  0  0  0  0  0  0  0  0  0
   -3.3644   -1.3085   -0.6997 C   0  0  0  0  0  0  0  0  0  0  0  0
   -3.6913   -2.2966    0.0254 O   0  0  0  0  0  0  0  0  0  0  0  0
   -3.9012   -1.2547   -1.9622 O   0  0  0  0  0  0  0  0  0  0  0  0
   -2.5929    0.7064    0.4797 C   0  0  0  0  0  0  0  0  0  0  0  0
   -3.9570    0.9278    0.9807 C   0  0  0  0  0  0  0  0  0  0  0  0
   -4.9486    0.5837    0.0365 O   0  0  0  0  0  0  0  0  0  0  0  0
   -6.2618    0.5065    0.5073 C   0  0  0  0  0  0  0  0  0  0  0  0
   -7.2043   -0.1430   -0.3450 N   0  0  0  0  0  0  0  0  0  0  0  0
   -6.5634    0.7470    1.6998 O   0  0  0  0  0  0  0  0  0  0  0  0
   -1.7265    1.8789    0.1312 C   0  0  0  0  0  0  0  0  0  0  0  0
    0.0075    1.3550   -0.1121 S   0  0  0  0  0  0  0  0  0  0  0  0
   -0.0210   -0.4144    0.6377 C   0  0  2  0  0  0  0  0  0  0  0  0
  1  2  1  0
  3  2  1  1
  3  4  1  0
  4  5  1  0
  5  6  2  0
  5  7  1  0
  7  8  1  0
  8  9  2  0
  9 10  1  0
 10 11  2  0
 11 12  1  0
  3 13  1  0
 13 14  2  0
 13 15  1  0
 15 16  1  0
 16 17  1  0
 17 18  2  0
 17 19  1  0
 16 20  2  0
 20 21  1  0
 21 22  1  0
 22 23  1  0
 23 24  1  0
 23 25  2  0
 20 26  1  0
 26 27  1  0
 28 27  1  6
 28  3  1  0
 12  8  1  0
 28 15  1  0
M  END
>  <supplier_code>  (1097) 
DB01331

>  <zinc_id>  (1097) 
ZINC000003830449

>  <catalog_short_name>  (1097) 
dbfda

$$$$

     RDKit          3D

 41 46  0  0  0  0  0  0  0  0999 V2000
   -5.0079    3.9684   -1.1306 C   0  0  0  0  0  0  0  0  0  0  0  0
   -4.4600    3.1204   -0.1218 C   0  0  0  0  0  0  0  0  0  0  0  0
   -3.8596    3.6720    0.8489 O   0  0  0  0  0  0  0  0  0  0  0  0
   -4.1992    1.7935   -0.2803 O   0  0  0  0  0  0  0  0  0  0  0  0
   -3.8105    0.9817    0.9523 C   0  0  1  0  0  0  0  0  0  0  0  0
   -4.2304   -0.5553    0.2961 C   0  0  1  0  0  0  0  0  0  0  0  0
   -5.5585   -0.1671   -0.3979 N   0  0  0  0  0  0  0  0  0  0  0  0
   -5.4798    0.3430   -1.6546 C   0  0  0  0  0  0  0  0  0  0  0  0
   -6.4928    0.1555    0.5865 C   0  0  0  0  0  0  0  0  0  0  0  0
   -6.5657   -0.8912    1.6923 C   0  0  0  0  0  0  0  0  0  0  0  0
   -6.7996   -2.2861    1.2143 C   0  0  0  0  0  0  0  0  0  0  0  0
   -5.8241   -2.5832    0.0914 C   0  0  0  0  0  0  0  0  0  0  0  0
   -5.9926   -1.4951   -0.8588 C   0  0  0  0  0  0  0  0  0  0  0  0
   -3.2566   -0.3551   -1.0037 C   0  0  0  0  0  0  0  0  0  0  0  0
   -2.1820   -0.6904    0.1771 C   0  0  1  0  0  0  0  0  0  0  0  0
   -0.7961   -0.5085   -0.7515 C   0  0  2  0  0  0  0  0  0  0  0  0
   -0.5890   -2.0973   -0.8703 C   0  0  0  0  0  0  0  0  0  0  0  0
    0.8222   -2.3771   -1.2637 C   0  0  0  0  0  0  0  0  0  0  0  0
    1.7776   -2.0088    0.0128 C   0  0  1  0  0  0  0  0  0  0  0  0
    3.1334   -2.1344   -0.8651 C   0  0  0  0  0  0  0  0  0  0  0  0
    3.8400   -0.6756   -0.8597 C   0  0  2  0  0  0  0  0  0  0  0  0
    5.2458   -1.2682   -0.8686 O   0  0  0  0  0  0  0  0  0  0  0  0
    5.5785   -2.2695   -0.0232 C   0  0  0  0  0  0  0  0  0  0  0  0
    6.9819   -2.7933   -0.0730 C   0  0  0  0  0  0  0  0  0  0  0  0
    4.6856   -2.8074    0.6856 O   0  0  0  0  0  0  0  0  0  0  0  0
    3.8326   -0.5244    0.8486 C   0  0  1  0  0  0  0  0  0  0  0  0
    4.6799    0.7788    0.8873 N   0  0  0  0  0  0  0  0  0  0  0  0
    3.9994    1.7589    1.6895 C   0  0  0  0  0  0  0  0  0  0  0  0
    5.8674    0.4760    1.6869 C   0  0  0  0  0  0  0  0  0  0  0  0
    6.4590    1.8271    2.0326 C   0  0  0  0  0  0  0  0  0  0  0  0
    6.6954    2.5491    0.7111 C   0  0  0  0  0  0  0  0  0  0  0  0
    6.5050    1.5538   -0.4294 C   0  0  0  0  0  0  0  0  0  0  0  0
    5.0255    1.2325   -0.3938 C   0  0  0  0  0  0  0  0  0  0  0  0
    2.4202    0.2847    0.7746 C   0  0  0  0  0  0  0  0  0  0  0  0
    1.5253   -0.4100   -0.1533 C   0  0  1  0  0  0  0  0  0  0  0  0
    1.4072    0.0140   -1.5105 C   0  0  0  0  0  0  0  0  0  0  0  0
    0.1281   -0.4748    0.6584 C   0  0  1  0  0  0  0  0  0  0  0  0
    0.0019    1.1287    0.8617 C   0  0  0  0  0  0  0  0  0  0  0  0
   -1.3348    1.1720    1.6273 C   0  0  0  0  0  0  0  0  0  0  0  0
   -2.2499    0.8741    0.5361 C   0  0  2  0  0  0  0  0  0  0  0  0
   -1.9227    1.6890   -0.6388 C   0  0  0  0  0  0  0  0  0  0  0  0
  1  2  1  0
  2  3  2  0
  2  4  1  0
  5  4  1  6
  5  6  1  0
  6  7  1  6
  7  8  1  0
  7  9  1  0
  9 10  1  0
 10 11  1  0
 11 12  1  0
 12 13  1  0
  6 14  1  0
 15 14  1  6
 15 16  1  0
 16 17  1  6
 17 18  1  0
 19 18  1  6
 19 20  1  0
 20 21  1  0
 21 22  1  1
 22 23  1  0
 23 24  1  0
 23 25  2  0
 21 26  1  0
 26 27  1  6
 27 28  1  0
 27 29  1  0
 29 30  1  0
 30 31  1  0
 31 32  1  0
 32 33  1  0
 26 34  1  0
 34 35  1  0
 35 36  1  6
 35 37  1  0
 37 38  1  1
 38 39  1  0
 39 40  1  0
 40 41  1  6
 40  5  1  0
 13  7  1  0
 40 15  1  0
 37 16  1  0
 35 19  1  0
 33 27  1  0
M  CHG  2   7   1  27   1
M  END
>  <supplier_code>  (1098) 
DB01337

>  <zinc_id>  (1098) 
ZINC000004097383

>  <catalog_short_name>  (1098) 
dbfda

$$$$

     RDKit          3D

 40 45  0  0  0  0  0  0  0  0999 V2000
    5.1601   -3.3756    2.1002 C   0  0  0  0  0  0  0  0  0  0  0  0
    5.1162   -1.8932    1.9119 C   0  0  0  0  0  0  0  0  0  0  0  0
    5.4288   -1.2219    2.9419 O   0  0  0  0  0  0  0  0  0  0  0  0
    4.3397   -1.3501    0.9032 O   0  0  0  0  0  0  0  0  0  0  0  0
    3.6315   -0.0621    1.3140 C   0  0  1  0  0  0  0  0  0  0  0  0
    3.6402    0.6520   -0.2512 C   0  0  1  0  0  0  0  0  0  0  0  0
    5.0794    0.3233   -0.7183 N   0  0  0  0  0  0  0  0  0  0  0  0
    5.2707   -0.9329   -1.2616 C   0  0  0  0  0  0  0  0  0  0  0  0
    5.9829    0.9339    0.1362 C   0  0  0  0  0  0  0  0  0  0  0  0
    6.9076    1.9632   -0.3995 C   0  0  0  0  0  0  0  0  0  0  0  0
    7.2362    1.7655   -1.8492 C   0  0  0  0  0  0  0  0  0  0  0  0
    5.9466    1.7703   -2.5829 C   0  0  0  0  0  0  0  0  0  0  0  0
    4.8729    1.0595   -1.9784 C   0  0  0  0  0  0  0  0  0  0  0  0
    2.9284   -0.6576   -0.9339 C   0  0  0  0  0  0  0  0  0  0  0  0
    1.7533    0.1657   -0.1664 C   0  0  1  0  0  0  0  0  0  0  0  0
    0.4821   -0.8377   -0.5976 C   0  0  2  0  0  0  0  0  0  0  0  0
    0.3046    0.0241   -1.9406 C   0  0  0  0  0  0  0  0  0  0  0  0
   -1.0639   -0.0260   -2.3893 C   0  0  0  0  0  0  0  0  0  0  0  0
   -2.0499    0.7373   -1.3382 C   0  0  1  0  0  0  0  0  0  0  0  0
   -3.3338    0.0839   -2.0766 C   0  0  0  0  0  0  0  0  0  0  0  0
   -4.2944   -0.4847   -0.9046 C   0  0  2  0  0  0  0  0  0  0  0  0
   -5.5224    0.1761   -1.5443 O   0  0  0  0  0  0  0  0  0  0  0  0
   -6.4003   -0.8398   -1.9325 C   0  0  0  0  0  0  0  0  0  0  0  0
   -7.0004   -0.9680   -3.2751 C   0  0  0  0  0  0  0  0  0  0  0  0
   -6.7089   -1.6835   -1.0375 O   0  0  0  0  0  0  0  0  0  0  0  0
   -4.0063    0.8518    0.1222 C   0  0  1  0  0  0  0  0  0  0  0  0
   -5.1521    0.4154    1.0831 N   0  0  0  0  0  0  0  0  0  0  0  0
   -6.1875    1.3513    0.8083 C   0  0  0  0  0  0  0  0  0  0  0  0
   -6.3637    2.4814    1.7243 C   0  0  0  0  0  0  0  0  0  0  0  0
   -5.2592    2.8287    2.6386 C   0  0  0  0  0  0  0  0  0  0  0  0
   -4.2669    1.7495    2.9195 C   0  0  0  0  0  0  0  0  0  0  0  0
   -4.6776    0.4056    2.4159 C   0  0  0  0  0  0  0  0  0  0  0  0
   -2.8650   -0.0262    0.8891 C   0  0  0  0  0  0  0  0  0  0  0  0
   -1.8753   -0.3915   -0.1670 C   0  0  1  0  0  0  0  0  0  0  0  0
   -1.8304   -1.7005   -0.6960 C   0  0  0  0  0  0  0  0  0  0  0  0
   -0.4621    0.2372    0.3020 C   0  0  1  0  0  0  0  0  0  0  0  0
   -0.1880   -0.6302    1.6508 C   0  0  0  0  0  0  0  0  0  0  0  0
    1.1866   -0.1266    2.1183 C   0  0  0  0  0  0  0  0  0  0  0  0
    2.1359   -0.6744    1.1537 C   0  0  2  0  0  0  0  0  0  0  0  0
    2.1045   -2.0932    0.9075 C   0  0  0  0  0  0  0  0  0  0  0  0
  1  2  1  0
  2  3  2  0
  2  4  1  0
  5  4  1  6
  5  6  1  0
  6  7  1  6
  7  8  1  0
  7  9  1  0
  9 10  1  0
 10 11  1  0
 11 12  1  0
 12 13  1  0
  6 14  1  0
 15 14  1  6
 15 16  1  0
 16 17  1  6
 17 18  1  0
 19 18  1  6
 19 20  1  0
 20 21  1  0
 21 22  1  6
 22 23  1  0
 23 24  1  0
 23 25  2  0
 21 26  1  0
 26 27  1  1
 27 28  1  0
 28 29  1  0
 29 30  1  0
 30 31  1  0
 31 32  1  0
 26 33  1  0
 33 34  1  0
 34 35  1  6
 34 36  1  0
 36 37  1  1
 37 38  1  0
 38 39  1  0
 39 40  1  6
 39  5  1  0
 13  7  1  0
 39 15  1  0
 36 16  1  0
 34 19  1  0
 32 27  1  0
M  CHG  1   7   1
M  END
>  <supplier_code>  (1099) 
DB01339

>  <zinc_id>  (1099) 
ZINC000004097404

>  <catalog_short_name>  (1099) 
dbfda

$$$$

     RDKit          3D

 23 26  0  0  0  0  0  0  0  0999 V2000
   -4.4253    0.1331   -2.0625 C   0  0  0  0  0  0  0  0  0  0  0  0
   -4.0099    0.0505   -1.1020 C   0  0  0  0  0  0  0  0  0  0  0  0
   -3.5579    0.1372    0.2992 C   0  0  2  0  0  0  0  0  0  0  0  0
   -4.4978   -0.2732    1.2063 O   0  0  0  0  0  0  0  0  0  0  0  0
   -3.2221    1.6142    0.5400 C   0  0  0  0  0  0  0  0  0  0  0  0
   -1.8611    1.8214   -0.0737 C   0  0  0  0  0  0  0  0  0  0  0  0
   -1.6078    0.3847   -0.8055 C   0  0  1  0  0  0  0  0  0  0  0  0
   -0.0087    0.3192   -0.2485 C   0  0  2  0  0  0  0  0  0  0  0  0
    0.5183    1.0255   -1.5921 C   0  0  0  0  0  0  0  0  0  0  0  0
    1.6294    0.2729   -2.2002 C   0  0  0  0  0  0  0  0  0  0  0  0
    2.4407   -0.4111   -1.1410 C   0  0  0  0  0  0  0  0  0  0  0  0
    3.6249    0.1452   -0.7104 C   0  0  0  0  0  0  0  0  0  0  0  0
    3.9848    0.0295    0.6236 C   0  0  0  0  0  0  0  0  0  0  0  0
    4.9214    0.9390    1.1241 O   0  0  0  0  0  0  0  0  0  0  0  0
    4.8727    2.2900    0.7045 C   0  0  0  0  0  0  0  0  0  0  0  0
    3.2717   -0.8263    1.4521 C   0  0  0  0  0  0  0  0  0  0  0  0
    1.9962   -1.1974    1.0401 C   0  0  0  0  0  0  0  0  0  0  0  0
    1.7515   -1.2723   -0.2866 C   0  0  0  0  0  0  0  0  0  0  0  0
    0.2393   -1.2582   -0.8343 C   0  0  1  0  0  0  0  0  0  0  0  0
   -0.4036   -1.9654    0.4985 C   0  0  0  0  0  0  0  0  0  0  0  0
   -1.8974   -1.7930    0.2191 C   0  0  0  0  0  0  0  0  0  0  0  0
   -2.1852   -0.3914    0.5082 C   0  0  2  0  0  0  0  0  0  0  0  0
   -1.5741    0.2259    1.7035 C   0  0  0  0  0  0  0  0  0  0  0  0
  1  2  3  0
  3  2  1  6
  3  4  1  0
  3  5  1  0
  5  6  1  0
  7  6  1  1
  7  8  1  0
  8  9  1  6
  9 10  1  0
 10 11  1  0
 11 12  2  0
 12 13  1  0
 13 14  1  0
 14 15  1  0
 13 16  2  0
 16 17  1  0
 17 18  2  0
 19 18  1  1
 19 20  1  0
 20 21  1  0
 21 22  1  0
 22 23  1  1
 22  3  1  0
 22  7  1  0
 19  8  1  0
 18 11  1  0
M  END
>  <supplier_code>  (1100) 
DB01357

>  <zinc_id>  (1100) 
ZINC000003815424

>  <catalog_short_name>  (1100) 
dbfda

$$$$

     RDKit          3D

 34 34  0  0  0  0  0  0  0  0999 V2000
    0.2829    3.8078    0.0092 C   0  0  0  0  0  0  0  0  0  0  0  0
    0.1535    3.5861    0.0883 C   0  0  0  0  0  0  0  0  0  0  0  0
    0.9568    4.3239   -0.1794 O   0  0  0  0  0  0  0  0  0  0  0  0
   -0.8704    2.7424    0.2598 N   0  0  0  0  0  0  0  0  0  0  0  0
   -2.0759    3.4131    0.6935 C   0  0  0  0  0  0  0  0  0  0  0  0
   -2.9109    3.8081   -0.6758 C   0  0  2  0  0  0  0  0  0  0  0  0
   -1.6945    4.3589   -1.4005 O   0  0  0  0  0  0  0  0  0  0  0  0
   -3.3370    5.2930   -0.0954 C   0  0  0  0  0  0  0  0  0  0  0  0
   -2.2131    5.8871    0.3779 O   0  0  0  0  0  0  0  0  0  0  0  0
   -0.5692    1.3513    0.5042 C   0  0  0  0  0  0  0  0  0  0  0  0
   -1.3332    0.3060    0.0064 C   0  0  0  0  0  0  0  0  0  0  0  0
   -3.3800    0.5819    0.0508 I   0  0  0  0  0  0  0  0  0  0  0  0
   -0.8390   -0.9753   -0.1466 C   0  0  0  0  0  0  0  0  0  0  0  0
   -1.6907   -2.1666   -0.1546 C   0  0  0  0  0  0  0  0  0  0  0  0
   -1.3926   -3.2230    0.4633 O   0  0  0  0  0  0  0  0  0  0  0  0
   -3.0720   -1.9661   -0.4446 N   0  0  0  0  0  0  0  0  0  0  0  0
   -4.0111   -3.0625   -0.6014 C   0  0  0  0  0  0  0  0  0  0  0  0
   -3.2331   -4.3622    0.0584 C   0  0  2  0  0  0  0  0  0  0  0  0
   -3.4302   -5.1745   -1.2145 O   0  0  0  0  0  0  0  0  0  0  0  0
   -4.5933   -5.0063    0.7283 C   0  0  0  0  0  0  0  0  0  0  0  0
   -5.4568   -4.0257    1.0357 O   0  0  0  0  0  0  0  0  0  0  0  0
    0.5354   -1.1232   -0.1385 C   0  0  0  0  0  0  0  0  0  0  0  0
    1.3719   -2.8578   -0.9455 I   0  0  0  0  0  0  0  0  0  0  0  0
    1.3335   -0.1797    0.4851 C   0  0  0  0  0  0  0  0  0  0  0  0
    2.7930   -0.1870    0.3129 C   0  0  0  0  0  0  0  0  0  0  0  0
    3.3858    0.7055   -0.3670 O   0  0  0  0  0  0  0  0  0  0  0  0
    3.5727   -0.8540    1.3086 N   0  0  0  0  0  0  0  0  0  0  0  0
    5.0049   -0.8375    1.1402 C   0  0  0  0  0  0  0  0  0  0  0  0
    5.1316   -1.4336   -0.3970 C   0  0  2  0  0  0  0  0  0  0  0  0
    5.1412   -2.8724    0.0984 O   0  0  0  0  0  0  0  0  0  0  0  0
    6.7798   -1.3458   -0.4014 C   0  0  0  0  0  0  0  0  0  0  0  0
    7.2118   -1.7513    0.8146 O   0  0  0  0  0  0  0  0  0  0  0  0
    0.7376    0.9981    0.8320 C   0  0  0  0  0  0  0  0  0  0  0  0
    1.7110    2.2416    2.2286 I   0  0  0  0  0  0  0  0  0  0  0  0
  1  2  1  0
  2  3  2  0
  2  4  1  0
  4  5  1  0
  6  5  1  1
  6  7  1  0
  6  8  1  0
  8  9  1  0
  4 10  1  0
 10 11  2  0
 11 12  1  0
 11 13  1  0
 13 14  1  0
 14 15  2  0
 14 16  1  0
 16 17  1  0
 18 17  1  6
 18 19  1  0
 18 20  1  0
 20 21  1  0
 13 22  2  0
 22 23  1  0
 22 24  1  0
 24 25  1  0
 25 26  2  0
 25 27  1  0
 27 28  1  0
 29 28  1  1
 29 30  1  0
 29 31  1  0
 31 32  1  0
 24 33  2  0
 33 34  1  0
 33 10  1  0
M  END
>  <supplier_code>  (1101) 
DB01362

>  <zinc_id>  (1101) 
ZINC000003830943

>  <catalog_short_name>  (1101) 
dbfda

$$$$

     RDKit          3D

 34 34  0  0  0  0  0  0  0  0999 V2000
   -0.2583    4.5912   -0.1696 C   0  0  0  0  0  0  0  0  0  0  0  0
   -0.3649    4.0505   -0.7071 C   0  0  0  0  0  0  0  0  0  0  0  0
   -0.7333    4.6132   -1.7666 O   0  0  0  0  0  0  0  0  0  0  0  0
   -1.0887    2.8898   -0.2957 N   0  0  0  0  0  0  0  0  0  0  0  0
   -2.2420    3.1869    0.5506 C   0  0  0  0  0  0  0  0  0  0  0  0
   -1.9750    2.3129    1.9310 C   0  0  1  0  0  0  0  0  0  0  0  0
   -1.6291    3.5746    2.7140 O   0  0  0  0  0  0  0  0  0  0  0  0
   -3.5738    2.4006    2.3502 C   0  0  0  0  0  0  0  0  0  0  0  0
   -3.6007    2.6324    3.7045 O   0  0  0  0  0  0  0  0  0  0  0  0
   -0.6839    1.5675   -0.5561 C   0  0  0  0  0  0  0  0  0  0  0  0
   -1.6152    0.5421   -0.6646 C   0  0  0  0  0  0  0  0  0  0  0  0
   -3.4942    1.0010   -1.4624 I   0  0  0  0  0  0  0  0  0  0  0  0
   -1.1582   -0.7614   -0.5982 C   0  0  0  0  0  0  0  0  0  0  0  0
   -2.0245   -1.8851   -0.9774 C   0  0  0  0  0  0  0  0  0  0  0  0
   -1.4339   -2.8844   -1.4908 O   0  0  0  0  0  0  0  0  0  0  0  0
   -3.2191   -2.2146   -0.2724 N   0  0  0  0  0  0  0  0  0  0  0  0
   -3.4486   -3.5263    0.3205 C   0  0  0  0  0  0  0  0  0  0  0  0
   -3.2834   -4.5912   -0.9349 C   0  0  2  0  0  0  0  0  0  0  0  0
   -4.7878   -4.8298   -0.9924 O   0  0  0  0  0  0  0  0  0  0  0  0
   -3.0673   -5.8633    0.1035 C   0  0  0  0  0  0  0  0  0  0  0  0
   -1.6659   -5.8770    0.2170 O   0  0  0  0  0  0  0  0  0  0  0  0
    0.1590   -0.9775   -0.2100 C   0  0  0  0  0  0  0  0  0  0  0  0
    0.7732   -2.9670    0.0340 I   0  0  0  0  0  0  0  0  0  0  0  0
    1.1064    0.0307   -0.2964 C   0  0  0  0  0  0  0  0  0  0  0  0
    2.5281   -0.2569   -0.2385 C   0  0  0  0  0  0  0  0  0  0  0  0
    2.9285   -1.4249   -0.5275 O   0  0  0  0  0  0  0  0  0  0  0  0
    3.4825    0.7413    0.1376 N   0  0  0  0  0  0  0  0  0  0  0  0
    4.8181    0.5888   -0.4341 C   0  0  0  0  0  0  0  0  0  0  0  0
    5.7812    0.2489    0.8682 C   0  0  2  0  0  0  0  0  0  0  0  0
    6.8757    1.1778    0.3554 O   0  0  0  0  0  0  0  0  0  0  0  0
    6.4459   -1.0554    0.0948 C   0  0  0  0  0  0  0  0  0  0  0  0
    7.7486   -1.0769    0.6182 O   0  0  0  0  0  0  0  0  0  0  0  0
    0.6680    1.2860   -0.6991 C   0  0  0  0  0  0  0  0  0  0  0  0
    2.0326    2.7557   -1.2898 I   0  0  0  0  0  0  0  0  0  0  0  0
  1  2  1  0
  2  3  2  0
  2  4  1  0
  4  5  1  0
  6  5  1  6
  6  7  1  0
  6  8  1  0
  8  9  1  0
  4 10  1  0
 10 11  2  0
 11 12  1  0
 11 13  1  0
 13 14  1  0
 14 15  2  0
 14 16  1  0
 16 17  1  0
 18 17  1  1
 18 19  1  0
 18 20  1  0
 20 21  1  0
 13 22  2  0
 22 23  1  0
 22 24  1  0
 24 25  1  0
 25 26  2  0
 25 27  1  0
 27 28  1  0
 29 28  1  6
 29 30  1  0
 29 31  1  0
 31 32  1  0
 24 33  2  0
 33 34  1  0
 33 10  1  0
M  END
>  <supplier_code>  (1102) 
DB01362

>  <zinc_id>  (1102) 
ZINC000003830944

>  <catalog_short_name>  (1102) 
dbfda

$$$$

     RDKit          3D

 34 34  0  0  0  0  0  0  0  0999 V2000
   -1.3117    3.1579    1.2436 C   0  0  0  0  0  0  0  0  0  0  0  0
   -1.2655    3.1193    1.0797 C   0  0  0  0  0  0  0  0  0  0  0  0
   -1.1661    2.6991    2.1439 O   0  0  0  0  0  0  0  0  0  0  0  0
   -0.7280    2.8261   -0.1538 N   0  0  0  0  0  0  0  0  0  0  0  0
    0.1042    3.6021   -0.9959 C   0  0  0  0  0  0  0  0  0  0  0  0
   -0.5101    5.1320   -1.0481 C   0  0  2  0  0  0  0  0  0  0  0  0
   -0.3949    5.3133    0.4601 O   0  0  0  0  0  0  0  0  0  0  0  0
   -2.0919    4.6476   -0.9736 C   0  0  0  0  0  0  0  0  0  0  0  0
   -2.6523    5.7996   -0.3953 O   0  0  0  0  0  0  0  0  0  0  0  0
   -0.4682    1.4212   -0.2969 C   0  0  0  0  0  0  0  0  0  0  0  0
   -1.3903    0.4660    0.0813 C   0  0  0  0  0  0  0  0  0  0  0  0
   -3.4116    0.9741    0.1112 I   0  0  0  0  0  0  0  0  0  0  0  0
   -1.0409   -0.8176    0.4535 C   0  0  0  0  0  0  0  0  0  0  0  0
   -1.9402   -1.9488    0.2706 C   0  0  0  0  0  0  0  0  0  0  0  0
   -1.4635   -2.9445   -0.3543 O   0  0  0  0  0  0  0  0  0  0  0  0
   -3.2185   -2.0516    0.9049 N   0  0  0  0  0  0  0  0  0  0  0  0
   -3.6949   -3.3786    1.1082 C   0  0  0  0  0  0  0  0  0  0  0  0
   -4.9696   -3.6177    0.0875 C   0  0  1  0  0  0  0  0  0  0  0  0
   -4.5390   -2.5725   -0.9344 O   0  0  0  0  0  0  0  0  0  0  0  0
   -4.1690   -4.8123   -0.7266 C   0  0  0  0  0  0  0  0  0  0  0  0
   -3.8544   -5.7163    0.2862 O   0  0  0  0  0  0  0  0  0  0  0  0
    0.3036   -1.0119    0.7502 C   0  0  0  0  0  0  0  0  0  0  0  0
    0.8870   -2.7502    1.7404 I   0  0  0  0  0  0  0  0  0  0  0  0
    1.2984   -0.1192    0.3623 C   0  0  0  0  0  0  0  0  0  0  0  0
    2.6208   -0.6496    0.0075 C   0  0  0  0  0  0  0  0  0  0  0  0
    2.6898   -1.8513   -0.3971 O   0  0  0  0  0  0  0  0  0  0  0  0
    3.8441   -0.1348    0.5315 N   0  0  0  0  0  0  0  0  0  0  0  0
    4.8803   -1.0638    0.9687 C   0  0  0  0  0  0  0  0  0  0  0  0
    6.1312   -0.8128   -0.0790 C   0  0  2  0  0  0  0  0  0  0  0  0
    5.2328   -0.8850   -1.3045 O   0  0  0  0  0  0  0  0  0  0  0  0
    6.4716   -2.4254   -0.1633 C   0  0  0  0  0  0  0  0  0  0  0  0
    6.8751   -2.6822    1.1587 O   0  0  0  0  0  0  0  0  0  0  0  0
    0.8492    0.9834   -0.3386 C   0  0  0  0  0  0  0  0  0  0  0  0
    2.0923    2.1047   -1.6235 I   0  0  0  0  0  0  0  0  0  0  0  0
  1  2  1  0
  2  3  2  0
  2  4  1  0
  4  5  1  0
  6  5  1  1
  6  7  1  0
  6  8  1  0
  8  9  1  0
  4 10  1  0
 10 11  2  0
 11 12  1  0
 11 13  1  0
 13 14  1  0
 14 15  2  0
 14 16  1  0
 16 17  1  0
 18 17  1  1
 18 19  1  0
 18 20  1  0
 20 21  1  0
 13 22  2  0
 22 23  1  0
 22 24  1  0
 24 25  1  0
 25 26  2  0
 25 27  1  0
 27 28  1  0
 29 28  1  1
 29 30  1  0
 29 31  1  0
 31 32  1  0
 24 33  2  0
 33 34  1  0
 33 10  1  0
M  END
>  <supplier_code>  (1103) 
DB01362

>  <zinc_id>  (1103) 
ZINC000003830945

>  <catalog_short_name>  (1103) 
dbfda

$$$$

     RDKit          3D

 34 34  0  0  0  0  0  0  0  0999 V2000
   -0.9704   -3.2501   -2.5654 C   0  0  0  0  0  0  0  0  0  0  0  0
   -0.5273   -3.6730   -1.2089 C   0  0  0  0  0  0  0  0  0  0  0  0
   -0.0670   -4.8432   -1.0412 O   0  0  0  0  0  0  0  0  0  0  0  0
   -0.7565   -2.8746   -0.0489 N   0  0  0  0  0  0  0  0  0  0  0  0
   -1.3192   -3.5301    1.1245 C   0  0  0  0  0  0  0  0  0  0  0  0
   -2.9002   -3.8453    0.7007 C   0  0  1  0  0  0  0  0  0  0  0  0
   -2.7453   -5.3282    1.0653 O   0  0  0  0  0  0  0  0  0  0  0  0
   -3.4402   -3.4847    2.2369 C   0  0  0  0  0  0  0  0  0  0  0  0
   -4.7215   -2.9909    2.0322 O   0  0  0  0  0  0  0  0  0  0  0  0
   -0.2022   -1.5567    0.0386 C   0  0  0  0  0  0  0  0  0  0  0  0
   -1.0100   -0.5121   -0.3723 C   0  0  0  0  0  0  0  0  0  0  0  0
   -3.0272   -0.8045   -0.9378 I   0  0  0  0  0  0  0  0  0  0  0  0
   -0.4516    0.6843   -0.8043 C   0  0  0  0  0  0  0  0  0  0  0  0
   -1.2966    1.8017   -1.2423 C   0  0  0  0  0  0  0  0  0  0  0  0
   -1.9771    1.6799   -2.3039 O   0  0  0  0  0  0  0  0  0  0  0  0
   -1.7983    2.6490   -0.2090 N   0  0  0  0  0  0  0  0  0  0  0  0
   -3.1562    3.1857   -0.2639 C   0  0  0  0  0  0  0  0  0  0  0  0
   -2.9044    4.4281   -1.3486 C   0  0  1  0  0  0  0  0  0  0  0  0
   -4.0191    3.9230   -2.2751 O   0  0  0  0  0  0  0  0  0  0  0  0
   -3.9567    5.4427   -0.5475 C   0  0  0  0  0  0  0  0  0  0  0  0
   -5.0666    4.6892   -0.2666 O   0  0  0  0  0  0  0  0  0  0  0  0
    0.8249    0.9313   -0.3185 C   0  0  0  0  0  0  0  0  0  0  0  0
    1.7398    2.7673   -0.8300 I   0  0  0  0  0  0  0  0  0  0  0  0
    1.6927   -0.1265   -0.0632 C   0  0  0  0  0  0  0  0  0  0  0  0
    2.9456    0.1110    0.6633 C   0  0  0  0  0  0  0  0  0  0  0  0
    2.8608    0.7626    1.7339 O   0  0  0  0  0  0  0  0  0  0  0  0
    4.2472    0.0341    0.1042 N   0  0  0  0  0  0  0  0  0  0  0  0
    4.9727    1.2084   -0.1452 C   0  0  0  0  0  0  0  0  0  0  0  0
    6.2807    1.3004    0.8749 C   0  0  2  0  0  0  0  0  0  0  0  0
    5.6492    0.3988    1.9462 O   0  0  0  0  0  0  0  0  0  0  0  0
    5.6630    2.6904    1.5609 C   0  0  0  0  0  0  0  0  0  0  0  0
    5.7611    2.5337    2.9135 O   0  0  0  0  0  0  0  0  0  0  0  0
    1.1747   -1.3900    0.0276 C   0  0  0  0  0  0  0  0  0  0  0  0
    2.5015   -3.0119   -0.2301 I   0  0  0  0  0  0  0  0  0  0  0  0
  1  2  1  0
  2  3  2  0
  2  4  1  0
  4  5  1  0
  6  5  1  1
  6  7  1  0
  6  8  1  0
  8  9  1  0
  4 10  1  0
 10 11  2  0
 11 12  1  0
 11 13  1  0
 13 14  1  0
 14 15  2  0
 14 16  1  0
 16 17  1  0
 18 17  1  1
 18 19  1  0
 18 20  1  0
 20 21  1  0
 13 22  2  0
 22 23  1  0
 22 24  1  0
 24 25  1  0
 25 26  2  0
 25 27  1  0
 27 28  1  0
 29 28  1  6
 29 30  1  0
 29 31  1  0
 31 32  1  0
 24 33  2  0
 33 34  1  0
 33 10  1  0
M  END
>  <supplier_code>  (1104) 
DB01362

>  <zinc_id>  (1104) 
ZINC000003830946

>  <catalog_short_name>  (1104) 
dbfda

$$$$

     RDKit          3D

 34 34  0  0  0  0  0  0  0  0999 V2000
   -1.3285    3.3058   -0.7087 C   0  0  0  0  0  0  0  0  0  0  0  0
   -1.2921    3.1485   -0.5824 C   0  0  0  0  0  0  0  0  0  0  0  0
   -2.3441    3.1868   -0.0470 O   0  0  0  0  0  0  0  0  0  0  0  0
   -0.0586    2.6653   -0.2197 N   0  0  0  0  0  0  0  0  0  0  0  0
    0.7387    3.4559    0.6442 C   0  0  0  0  0  0  0  0  0  0  0  0
    1.1166    4.8688   -0.1185 C   0  0  1  0  0  0  0  0  0  0  0  0
    0.6453    4.4397   -1.5037 O   0  0  0  0  0  0  0  0  0  0  0  0
   -0.3439    5.5409    0.2646 C   0  0  0  0  0  0  0  0  0  0  0  0
   -0.5271    6.4948   -0.7350 O   0  0  0  0  0  0  0  0  0  0  0  0
    0.0697    1.2545   -0.0436 C   0  0  0  0  0  0  0  0  0  0  0  0
   -0.8005    0.4094   -0.6839 C   0  0  0  0  0  0  0  0  0  0  0  0
   -1.8697    1.0082   -2.3904 I   0  0  0  0  0  0  0  0  0  0  0  0
   -0.7702   -0.9530   -0.4179 C   0  0  0  0  0  0  0  0  0  0  0  0
   -1.9898   -1.7491   -0.5883 C   0  0  0  0  0  0  0  0  0  0  0  0
   -2.1762   -2.5196   -1.5575 O   0  0  0  0  0  0  0  0  0  0  0  0
   -2.5618   -2.2087    0.6471 N   0  0  0  0  0  0  0  0  0  0  0  0
   -3.9474   -2.6753    0.6785 C   0  0  0  0  0  0  0  0  0  0  0  0
   -4.7261   -1.2380    0.9238 C   0  0  1  0  0  0  0  0  0  0  0  0
   -4.7662   -0.9376   -0.5666 O   0  0  0  0  0  0  0  0  0  0  0  0
   -6.2303   -1.9213    0.9081 C   0  0  0  0  0  0  0  0  0  0  0  0
   -6.2159   -2.7877   -0.1619 O   0  0  0  0  0  0  0  0  0  0  0  0
    0.3564   -1.4788    0.2034 C   0  0  0  0  0  0  0  0  0  0  0  0
    0.7672   -3.5088   -0.2199 I   0  0  0  0  0  0  0  0  0  0  0  0
    1.3088   -0.6606    0.7873 C   0  0  0  0  0  0  0  0  0  0  0  0
    2.6954   -1.0941    0.8828 C   0  0  0  0  0  0  0  0  0  0  0  0
    3.5150   -0.3052    1.4233 O   0  0  0  0  0  0  0  0  0  0  0  0
    3.2051   -1.8988   -0.1596 N   0  0  0  0  0  0  0  0  0  0  0  0
    4.5190   -2.0172   -0.6235 C   0  0  0  0  0  0  0  0  0  0  0  0
    5.4504   -2.6543    0.5846 C   0  0  1  0  0  0  0  0  0  0  0  0
    4.2909   -3.2556    1.3738 O   0  0  0  0  0  0  0  0  0  0  0  0
    5.7220   -4.0579   -0.2487 C   0  0  0  0  0  0  0  0  0  0  0  0
    4.4619   -4.4435   -0.6814 O   0  0  0  0  0  0  0  0  0  0  0  0
    0.9585    0.6835    0.8583 C   0  0  0  0  0  0  0  0  0  0  0  0
    2.1278    1.9032    2.0784 I   0  0  0  0  0  0  0  0  0  0  0  0
  1  2  1  0
  2  3  2  0
  2  4  1  0
  4  5  1  0
  6  5  1  1
  6  7  1  0
  6  8  1  0
  8  9  1  0
  4 10  1  0
 10 11  2  0
 11 12  1  0
 11 13  1  0
 13 14  1  0
 14 15  2  0
 14 16  1  0
 16 17  1  0
 18 17  1  6
 18 19  1  0
 18 20  1  0
 20 21  1  0
 13 22  2  0
 22 23  1  0
 22 24  1  0
 24 25  1  0
 25 26  2  0
 25 27  1  0
 27 28  1  0
 29 28  1  6
 29 30  1  0
 29 31  1  0
 31 32  1  0
 24 33  2  0
 33 34  1  0
 33 10  1  0
M  END
>  <supplier_code>  (1105) 
DB01362

>  <zinc_id>  (1105) 
ZINC000008035377

>  <catalog_short_name>  (1105) 
dbfda

$$$$

     RDKit          3D

 34 34  0  0  0  0  0  0  0  0999 V2000
   -4.3250    0.0505   -1.9378 C   0  0  0  0  0  0  0  0  0  0  0  0
   -3.1949   -0.5302   -1.3625 C   0  0  0  0  0  0  0  0  0  0  0  0
   -2.4135   -1.1551   -2.1148 O   0  0  0  0  0  0  0  0  0  0  0  0
   -3.0252   -0.6015    0.0550 N   0  0  0  0  0  0  0  0  0  0  0  0
   -3.9336    0.1572    0.9173 C   0  0  0  0  0  0  0  0  0  0  0  0
   -5.3478   -0.7501    0.8494 C   0  0  2  0  0  0  0  0  0  0  0  0
   -5.9979    0.0998    1.9665 O   0  0  0  0  0  0  0  0  0  0  0  0
   -4.7583   -1.8456    1.9798 C   0  0  0  0  0  0  0  0  0  0  0  0
   -5.4163   -2.9893    1.4951 O   0  0  0  0  0  0  0  0  0  0  0  0
   -1.6521   -0.5643    0.4690 C   0  0  0  0  0  0  0  0  0  0  0  0
   -0.8934   -1.7211    0.5518 C   0  0  0  0  0  0  0  0  0  0  0  0
   -1.7076   -3.5848   -0.0454 I   0  0  0  0  0  0  0  0  0  0  0  0
    0.4923   -1.6498    0.6795 C   0  0  0  0  0  0  0  0  0  0  0  0
    1.3757   -2.6432    0.0535 C   0  0  0  0  0  0  0  0  0  0  0  0
    0.8023   -3.7577   -0.1580 O   0  0  0  0  0  0  0  0  0  0  0  0
    2.6488   -2.3871   -0.4723 N   0  0  0  0  0  0  0  0  0  0  0  0
    3.0794   -3.2401   -1.5085 C   0  0  0  0  0  0  0  0  0  0  0  0
    4.3740   -2.5140   -2.2889 C   0  0  1  0  0  0  0  0  0  0  0  0
    4.1186   -1.1026   -1.7005 O   0  0  0  0  0  0  0  0  0  0  0  0
    5.4124   -2.9105   -1.0254 C   0  0  0  0  0  0  0  0  0  0  0  0
    6.5784   -3.1945   -1.7585 O   0  0  0  0  0  0  0  0  0  0  0  0
    0.9631   -0.4016    1.0683 C   0  0  0  0  0  0  0  0  0  0  0  0
    2.9107   -0.3411    1.8211 I   0  0  0  0  0  0  0  0  0  0  0  0
    0.2471    0.7677    0.8803 C   0  0  0  0  0  0  0  0  0  0  0  0
    0.9824    2.0142    0.5991 C   0  0  0  0  0  0  0  0  0  0  0  0
    1.4442    2.0468   -0.5840 O   0  0  0  0  0  0  0  0  0  0  0  0
    0.4719    3.2680    1.0718 N   0  0  0  0  0  0  0  0  0  0  0  0
    0.6755    4.5181    0.3441 C   0  0  0  0  0  0  0  0  0  0  0  0
    2.0339    5.0894    1.1569 C   0  0  1  0  0  0  0  0  0  0  0  0
    2.9814    4.3522    0.1804 O   0  0  0  0  0  0  0  0  0  0  0  0
    2.0908    6.4988    0.2425 C   0  0  0  0  0  0  0  0  0  0  0  0
    1.8579    6.0947   -1.0457 O   0  0  0  0  0  0  0  0  0  0  0  0
   -1.0571    0.6833    0.4151 C   0  0  0  0  0  0  0  0  0  0  0  0
   -1.8180    2.2435   -0.7942 I   0  0  0  0  0  0  0  0  0  0  0  0
  1  2  1  0
  2  3  2  0
  2  4  1  0
  4  5  1  0
  6  5  1  1
  6  7  1  0
  6  8  1  0
  8  9  1  0
  4 10  1  0
 10 11  2  0
 11 12  1  0
 11 13  1  0
 13 14  1  0
 14 15  2  0
 14 16  1  0
 16 17  1  0
 18 17  1  1
 18 19  1  0
 18 20  1  0
 20 21  1  0
 13 22  2  0
 22 23  1  0
 22 24  1  0
 24 25  1  0
 25 26  2  0
 25 27  1  0
 27 28  1  0
 29 28  1  6
 29 30  1  0
 29 31  1  0
 31 32  1  0
 24 33  2  0
 33 34  1  0
 33 10  1  0
M  END
>  <supplier_code>  (1106) 
DB01362

>  <zinc_id>  (1106) 
ZINC000150339323

>  <catalog_short_name>  (1106) 
dbfda

$$$$

     RDKit          3D

 12 12  0  0  0  0  0  0  0  0999 V2000
   -2.5356   -0.3384    1.6972 C   0  0  0  0  0  0  0  0  0  0  0  0
   -1.6421   -0.7500    0.6703 N   0  0  0  0  0  0  0  0  0  0  0  0
   -2.1400    0.1484   -0.5062 C   0  0  1  0  0  0  0  0  0  0  0  0
   -1.6629    1.5631    0.1473 C   0  0  0  0  0  0  0  0  0  0  0  0
   -0.7574   -0.0197   -1.5245 C   0  0  2  0  0  0  0  0  0  0  0  0
   -0.8656   -1.5354   -1.4690 O   0  0  0  0  0  0  0  0  0  0  0  0
    0.3942   -0.0192   -0.4264 C   0  0  0  0  0  0  0  0  0  0  0  0
    0.4959    0.5396    0.7228 C   0  0  0  0  0  0  0  0  0  0  0  0
    1.5926    0.4013    1.5069 C   0  0  0  0  0  0  0  0  0  0  0  0
    2.7449   -0.0398    0.8703 C   0  0  0  0  0  0  0  0  0  0  0  0
    2.7977    0.0922   -0.5126 C   0  0  0  0  0  0  0  0  0  0  0  0
    1.5783   -0.0422   -1.1762 C   0  0  0  0  0  0  0  0  0  0  0  0
  1  2  1  0
  3  2  1  1
  3  4  1  0
  3  5  1  0
  5  6  1  1
  5  7  1  0
  7  8  2  0
  8  9  1  0
  9 10  2  0
 10 11  1  0
 11 12  2  0
 12  7  1  0
M  END
>  <supplier_code>  (1107) 
DB01364

>  <zinc_id>  (1107) 
ZINC000000074836

>  <catalog_short_name>  (1107) 
dbfda

$$$$

     RDKit          3D

 13 14  0  0  0  0  0  0  0  0999 V2000
    4.6618    1.1128   -0.4590 C   0  0  0  0  0  0  0  0  0  0  0  0
    3.6226    0.6122   -0.4106 C   0  0  0  0  0  0  0  0  0  0  0  0
    2.7404   -0.5645   -0.3122 C   0  0  0  0  0  0  0  0  0  0  0  0
    1.4375   -0.1998   -0.7990 N   0  0  0  0  0  0  0  0  0  0  0  0
    0.5337   -0.8681    0.3346 C   0  0  2  0  0  0  0  0  0  0  0  0
   -0.0308   -2.0227   -0.7229 C   0  0  0  0  0  0  0  0  0  0  0  0
   -1.4066   -2.1165   -0.0931 C   0  0  0  0  0  0  0  0  0  0  0  0
   -1.8098   -0.7048    0.1973 C   0  0  0  0  0  0  0  0  0  0  0  0
   -3.0433   -0.1123   -0.0458 C   0  0  0  0  0  0  0  0  0  0  0  0
   -3.1679    1.2724    0.0187 C   0  0  0  0  0  0  0  0  0  0  0  0
   -2.0222    2.0423    0.1906 C   0  0  0  0  0  0  0  0  0  0  0  0
   -0.7968    1.4309    0.4290 C   0  0  0  0  0  0  0  0  0  0  0  0
   -0.7186    0.1182   -0.0176 C   0  0  0  0  0  0  0  0  0  0  0  0
  1  2  3  0
  2  3  1  0
  3  4  1  0
  5  4  1  6
  5  6  1  0
  6  7  1  0
  7  8  1  0
  8  9  2  0
  9 10  1  0
 10 11  2  0
 11 12  1  0
 12 13  2  0
 13  5  1  0
 13  8  1  0
M  END
>  <supplier_code>  (1108) 
DB01367

>  <zinc_id>  (1108) 
ZINC000019875504

>  <catalog_short_name>  (1108) 
dbfda

$$$$

     RDKit          3D

 29 32  0  0  0  0  0  0  0  0999 V2000
    5.5715    2.6607    0.4831 C   0  0  0  0  0  0  0  0  0  0  0  0
    5.7221    1.2908    0.2634 C   0  0  0  0  0  0  0  0  0  0  0  0
    6.2551    0.5307    1.1286 O   0  0  0  0  0  0  0  0  0  0  0  0
    5.4117    0.6108   -0.9186 O   0  0  0  0  0  0  0  0  0  0  0  0
    4.7265   -0.6404   -0.8931 C   0  0  0  0  0  0  0  0  0  0  0  0
    3.2583   -0.4680   -1.1822 C   0  0  0  0  0  0  0  0  0  0  0  0
    3.0208    0.6458   -1.6580 O   0  0  0  0  0  0  0  0  0  0  0  0
    2.3685   -0.9651   -0.0694 C   0  0  1  0  0  0  0  0  0  0  0  0
    2.8814   -2.1916    0.3107 O   0  0  0  0  0  0  0  0  0  0  0  0
    2.6365    0.1209    0.9797 C   0  0  0  0  0  0  0  0  0  0  0  0
    1.4129    1.0152    0.7506 C   0  0  0  0  0  0  0  0  0  0  0  0
    0.4413   -0.2624    1.0402 C   0  0  1  0  0  0  0  0  0  0  0  0
   -0.9181    0.4563    0.3367 C   0  0  2  0  0  0  0  0  0  0  0  0
   -1.2059    1.3131    1.6655 C   0  0  0  0  0  0  0  0  0  0  0  0
   -2.6682    1.6860    1.6241 C   0  0  0  0  0  0  0  0  0  0  0  0
   -3.3127    1.1425    0.4072 C   0  0  0  0  0  0  0  0  0  0  0  0
   -4.3142    1.7568   -0.2250 C   0  0  0  0  0  0  0  0  0  0  0  0
   -5.3617    0.8461   -0.7136 C   0  0  0  0  0  0  0  0  0  0  0  0
   -6.0328    1.1308   -1.7283 O   0  0  0  0  0  0  0  0  0  0  0  0
   -5.6247   -0.3249    0.1692 C   0  0  0  0  0  0  0  0  0  0  0  0
   -4.3786   -1.0635    0.5544 C   0  0  0  0  0  0  0  0  0  0  0  0
   -3.1919   -0.3033    0.0297 C   0  0  1  0  0  0  0  0  0  0  0  0
   -3.0651   -0.5011   -1.4052 C   0  0  0  0  0  0  0  0  0  0  0  0
   -1.8873   -0.8434    0.8460 C   0  0  1  0  0  0  0  0  0  0  0  0
   -1.3377   -1.7967   -0.3323 C   0  0  0  0  0  0  0  0  0  0  0  0
   -2.1089   -2.7526   -0.4258 O   0  0  0  0  0  0  0  0  0  0  0  0
    0.1178   -2.1566   -0.2720 C   0  0  0  0  0  0  0  0  0  0  0  0
    0.9295   -0.9334   -0.3643 C   0  0  2  0  0  0  0  0  0  0  0  0
    0.6542   -0.0032   -1.4723 C   0  0  0  0  0  0  0  0  0  0  0  0
  1  2  1  0
  2  3  2  0
  2  4  1  0
  4  5  1  0
  5  6  1  0
  6  7  2  0
  8  6  1  6
  8  9  1  0
  8 10  1  0
 10 11  1  0
 12 11  1  6
 12 13  1  0
 13 14  1  1
 14 15  1  0
 15 16  1  0
 16 17  2  0
 17 18  1  0
 18 19  2  0
 18 20  1  0
 20 21  1  0
 21 22  1  0
 22 23  1  6
 22 24  1  0
 24 25  1  6
 25 26  2  0
 25 27  1  0
 27 28  1  0
 28 29  1  6
 28  8  1  0
 28 12  1  0
 24 13  1  0
 22 16  1  0
M  END
>  <supplier_code>  (1109) 
DB01380

>  <zinc_id>  (1109) 
ZINC000003875334

>  <catalog_short_name>  (1109) 
dbfda

$$$$

     RDKit          3D

  4  3  0  0  0  0  0  0  0  0999 V2000
   -0.2919    1.2586   -0.0486 O   0  0  0  0  0  0  0  0  0  0  0  0
    0.0038    0.0446    0.1286 C   0  0  0  0  0  0  0  0  0  0  0  0
    1.3091   -0.4259   -0.0329 O   0  0  0  0  0  0  0  0  0  0  0  0
   -1.0210   -0.8773   -0.0472 O   0  0  0  0  0  0  0  0  0  0  0  0
  1  2  2  0
  2  3  1  0
  2  4  1  0
M  END
>  <supplier_code>  (1110) 
DB01390

>  <zinc_id>  (1110) 
ZINC000006827693

>  <catalog_short_name>  (1110) 
dbfda

$$$$

     RDKit          3D

 29 31  0  0  0  0  0  0  0  0999 V2000
    4.0902    1.1019    1.9443 C   0  0  0  0  0  0  0  0  0  0  0  0
    4.2207    1.3575    0.8524 O   0  0  0  0  0  0  0  0  0  0  0  0
    3.2978    1.2482   -0.1968 C   0  0  0  0  0  0  0  0  0  0  0  0
    2.2048    2.1042   -0.2899 C   0  0  0  0  0  0  0  0  0  0  0  0
    1.0147    1.6202   -0.8246 C   0  0  0  0  0  0  0  0  0  0  0  0
    0.8252    0.2446   -0.6574 C   0  0  0  0  0  0  0  0  0  0  0  0
    1.8757   -0.6522   -0.7634 C   0  0  0  0  0  0  0  0  0  0  0  0
    1.8912   -1.9105   -0.1518 O   0  0  0  0  0  0  0  0  0  0  0  0
    2.6248   -2.2215    0.9973 C   0  0  0  0  0  0  0  0  0  0  0  0
    3.1224   -0.0234   -0.7382 C   0  0  0  0  0  0  0  0  0  0  0  0
    4.2694   -0.7008   -1.0958 O   0  0  0  0  0  0  0  0  0  0  0  0
    5.3869   -0.8996   -0.2770 C   0  0  0  0  0  0  0  0  0  0  0  0
   -0.3848   -0.5063   -0.2915 C   0  0  0  0  0  0  0  0  0  0  0  0
   -0.2518   -1.5444   -1.2187 C   0  0  0  0  0  0  0  0  0  0  0  0
   -1.0038   -2.7083   -1.0664 C   0  0  0  0  0  0  0  0  0  0  0  0
   -2.1690   -2.8841   -0.3277 C   0  0  0  0  0  0  0  0  0  0  0  0
   -2.4812   -4.1413    0.1453 O   0  0  0  0  0  0  0  0  0  0  0  0
   -1.8398   -4.7219    1.2777 C   0  0  0  0  0  0  0  0  0  0  0  0
   -3.0688   -1.8560   -0.0725 C   0  0  0  0  0  0  0  0  0  0  0  0
   -4.1125   -2.2298    0.5103 O   0  0  0  0  0  0  0  0  0  0  0  0
   -2.7940   -0.4915   -0.0434 C   0  0  0  0  0  0  0  0  0  0  0  0
   -1.5885    0.1834   -0.2433 C   0  0  0  0  0  0  0  0  0  0  0  0
   -1.9532    1.2998    0.8866 C   0  0  2  0  0  0  0  0  0  0  0  0
   -2.5151    2.2952   -0.2298 N   0  0  0  0  0  0  0  0  0  0  0  0
   -3.1206    3.4611    0.2832 C   0  0  0  0  0  0  0  0  0  0  0  0
   -4.4144    3.9489   -0.2519 C   0  0  0  0  0  0  0  0  0  0  0  0
   -2.5396    4.0656    1.2027 O   0  0  0  0  0  0  0  0  0  0  0  0
   -0.4684    2.0406    0.9445 C   0  0  0  0  0  0  0  0  0  0  0  0
   -0.1183    2.5201   -0.4077 C   0  0  0  0  0  0  0  0  0  0  0  0
  1  2  1  0
  2  3  1  0
  3  4  2  0
  4  5  1  0
  5  6  2  0
  6  7  1  0
  7  8  1  0
  8  9  1  0
  7 10  2  0
 10 11  1  0
 11 12  1  0
  6 13  1  0
 13 14  2  0
 14 15  1  0
 15 16  2  0
 16 17  1  0
 17 18  1  0
 16 19  1  0
 19 20  2  0
 19 21  1  0
 21 22  2  0
 22 23  1  0
 23 24  1  6
 24 25  1  0
 25 26  1  0
 25 27  2  0
 23 28  1  0
 28 29  1  0
 10  3  1  0
 22 13  1  0
 29  5  1  0
M  END
>  <supplier_code>  (1111) 
DB01394

>  <zinc_id>  (1111) 
ZINC000000607790

>  <catalog_short_name>  (1111) 
dbfda

$$$$

     RDKit          3D

 29 31  0  0  0  0  0  0  0  0999 V2000
    4.2218   -1.1291    2.2224 C   0  0  0  0  0  0  0  0  0  0  0  0
    4.2433   -1.7443    1.0238 O   0  0  0  0  0  0  0  0  0  0  0  0
    3.0523   -1.7919    0.2912 C   0  0  0  0  0  0  0  0  0  0  0  0
    1.9219   -2.4183    0.8042 C   0  0  0  0  0  0  0  0  0  0  0  0
    0.6684   -1.9389    0.5224 C   0  0  0  0  0  0  0  0  0  0  0  0
    0.6024   -0.6985   -0.1015 C   0  0  0  0  0  0  0  0  0  0  0  0
    1.6522   -0.1896   -0.8527 C   0  0  0  0  0  0  0  0  0  0  0  0
    1.2742    0.4128   -2.0580 O   0  0  0  0  0  0  0  0  0  0  0  0
    0.8338   -0.5154   -3.0477 C   0  0  0  0  0  0  0  0  0  0  0  0
    2.8529   -0.8788   -0.7379 C   0  0  0  0  0  0  0  0  0  0  0  0
    3.9240   -0.3641   -1.4266 O   0  0  0  0  0  0  0  0  0  0  0  0
    3.8877    0.8320   -2.1639 C   0  0  0  0  0  0  0  0  0  0  0  0
   -0.3791    0.3845    0.0433 C   0  0  0  0  0  0  0  0  0  0  0  0
    0.4134    1.5275    0.0908 C   0  0  0  0  0  0  0  0  0  0  0  0
    0.1009    2.8046    0.5427 C   0  0  0  0  0  0  0  0  0  0  0  0
   -1.1823    3.3229    0.6523 C   0  0  0  0  0  0  0  0  0  0  0  0
   -1.3231    4.6880    0.7114 O   0  0  0  0  0  0  0  0  0  0  0  0
   -0.3435    5.5857    0.2071 C   0  0  0  0  0  0  0  0  0  0  0  0
   -2.3877    2.6375    0.5629 C   0  0  0  0  0  0  0  0  0  0  0  0
   -3.3329    3.3505    0.1320 O   0  0  0  0  0  0  0  0  0  0  0  0
   -2.6170    1.2714    0.7032 C   0  0  0  0  0  0  0  0  0  0  0  0
   -1.6520    0.3274    0.4662 C   0  0  0  0  0  0  0  0  0  0  0  0
   -2.4426   -0.9905    1.0282 C   0  0  1  0  0  0  0  0  0  0  0  0
   -2.0026   -1.8680   -0.2459 N   0  0  0  0  0  0  0  0  0  0  0  0
   -3.1015   -2.5981   -0.8083 C   0  0  0  0  0  0  0  0  0  0  0  0
   -3.1377   -4.0851   -0.8861 C   0  0  0  0  0  0  0  0  0  0  0  0
   -4.1706   -1.9593   -1.0270 O   0  0  0  0  0  0  0  0  0  0  0  0
   -1.1526   -1.4408    1.9969 C   0  0  0  0  0  0  0  0  0  0  0  0
   -0.4240   -2.5344    1.3544 C   0  0  0  0  0  0  0  0  0  0  0  0
  1  2  1  0
  2  3  1  0
  3  4  2  0
  4  5  1  0
  5  6  2  0
  6  7  1  0
  7  8  1  0
  8  9  1  0
  7 10  2  0
 10 11  1  0
 11 12  1  0
  6 13  1  0
 13 14  2  0
 14 15  1  0
 15 16  2  0
 16 17  1  0
 17 18  1  0
 16 19  1  0
 19 20  2  0
 19 21  1  0
 21 22  2  0
 22 23  1  0
 23 24  1  6
 24 25  1  0
 25 26  1  0
 25 27  2  0
 23 28  1  0
 28 29  1  0
 10  3  1  0
 22 13  1  0
 29  5  1  0
M  END
>  <supplier_code>  (1112) 
DB01394

>  <zinc_id>  (1112) 
ZINC000000621853

>  <catalog_short_name>  (1112) 
dbfda

$$$$

     RDKit          2D

 27 33  0  0  0  0  0  0  0  0999 V2000
   -2.4159   -1.6614    0.0000 C   0  0  0  0  0  0  0  0  0  0  0  0
   -1.7882   -0.2990    0.0000 C   0  0  0  0  0  0  0  0  0  0  0  0
   -1.1012   -1.6325    0.0000 C   0  0  0  0  0  0  0  0  0  0  0  0
    0.3971   -1.7042    0.0000 C   0  0  0  0  0  0  0  0  0  0  0  0
    1.2084   -0.4425    0.0000 C   0  0  0  0  0  0  0  0  0  0  0  0
    0.5214    0.8909    0.0000 C   0  0  0  0  0  0  0  0  0  0  0  0
    1.3326    2.1526    0.0000 C   0  0  0  0  0  0  0  0  0  0  0  0
    2.1439    3.4142    0.0000 C   0  0  0  0  0  0  0  0  0  0  0  0
    2.8309    2.0808    0.0000 C   0  0  0  0  0  0  0  0  0  0  0  0
    3.5179    0.7474    0.0000 C   0  0  0  0  0  0  0  0  0  0  0  0
    5.0162    0.6756    0.0000 C   0  0  0  0  0  0  0  0  0  0  0  0
    5.7032   -0.6578    0.0000 C   0  0  0  0  0  0  0  0  0  0  0  0
    7.2015   -0.7296    0.0000 O   0  0  0  0  0  0  0  0  0  0  0  0
    4.8919   -1.9195    0.0000 C   0  0  0  0  0  0  0  0  0  0  0  0
    3.3937   -1.8477    0.0000 C   0  0  0  0  0  0  0  0  0  0  0  0
    2.7067   -0.5143    0.0000 C   0  0  0  0  0  0  0  0  0  0  0  0
    1.8954   -1.7760    0.0000 C   0  0  0  0  0  0  0  0  0  0  0  0
   -0.9769    0.9626    0.0000 C   0  0  0  0  0  0  0  0  0  0  0  0
   -1.9261    2.1241    0.0000 C   0  0  0  0  0  0  0  0  0  0  0  0
   -3.0961    3.0628    0.0000 C   0  0  0  0  0  0  0  0  0  0  0  0
   -3.3241    1.5802    0.0000 C   0  0  0  0  0  0  0  0  0  0  0  0
   -3.2388    0.0826    0.0000 C   0  0  0  0  0  0  0  0  0  0  0  0
   -3.1536   -1.4149    0.0000 C   0  0  0  0  0  0  0  0  0  0  0  0
   -4.5515   -1.9588    0.0000 C   0  0  0  0  0  0  0  0  0  0  0  0
   -5.5007   -0.7973    0.0000 C   0  0  0  0  0  0  0  0  0  0  0  0
   -6.9983   -0.8826    0.0000 O   0  0  0  0  0  0  0  0  0  0  0  0
   -4.6894    0.4643    0.0000 O   0  0  0  0  0  0  0  0  0  0  0  0
  2  1  1  1
  2  3  1  0
  3  4  1  0
  5  4  1  1
  5  6  1  0
  6  7  1  6
  7  8  1  1
  9  8  1  1
  9 10  1  0
 10 11  2  0
 11 12  1  0
 12 13  2  0
 12 14  1  0
 14 15  1  0
 15 16  1  0
 16 17  1  1
  6 18  1  0
 18 19  1  1
 19 20  1  1
 21 20  1  1
 21 22  1  0
 22 23  1  6
 23 24  1  0
 24 25  1  0
 25 26  2  0
 25 27  1  0
 18  2  1  0
 21 19  1  0
 27 22  1  0
 22  2  1  0
 16  5  1  0
  9  7  1  0
 16 10  1  0
M  END
>  <supplier_code>  (1113) 
DB01395

>  <zinc_id>  (1113) 
ZINC000003927200

>  <catalog_short_name>  (1113) 
dbfda

$$$$

     RDKit          3D

 10 10  0  0  0  0  0  0  0  0999 V2000
    2.2361    0.4464    0.7758 O   0  0  0  0  0  0  0  0  0  0  0  0
    1.7008   -0.2877   -0.1124 C   0  0  0  0  0  0  0  0  0  0  0  0
    2.2351   -1.5812   -0.1556 O   0  0  0  0  0  0  0  0  0  0  0  0
    0.2712   -0.1545   -0.4254 C   0  0  0  0  0  0  0  0  0  0  0  0
   -0.5674   -1.2500   -0.5972 C   0  0  0  0  0  0  0  0  0  0  0  0
   -1.8365   -1.2721   -0.0238 C   0  0  0  0  0  0  0  0  0  0  0  0
   -2.2678   -0.1710    0.7111 C   0  0  0  0  0  0  0  0  0  0  0  0
   -1.7104    1.0315    0.2912 C   0  0  0  0  0  0  0  0  0  0  0  0
   -0.4082    1.0385   -0.2022 C   0  0  0  0  0  0  0  0  0  0  0  0
    0.3469    2.2000   -0.2615 O   0  0  0  0  0  0  0  0  0  0  0  0
  1  2  2  0
  2  3  1  0
  2  4  1  0
  4  5  2  0
  5  6  1  0
  6  7  2  0
  7  8  1  0
  8  9  2  0
  9 10  1  0
  9  4  1  0
M  END
>  <supplier_code>  (1114) 
DB01397

>  <zinc_id>  (1114) 
ZINC000000001554

>  <catalog_short_name>  (1114) 
dbfda

$$$$

     RDKit          3D

 16 16  0  0  0  0  0  0  0  0999 V2000
    4.3373   -0.6388    1.1541 C   0  0  0  0  0  0  0  0  0  0  0  0
    3.8956    0.5615    0.4469 N   0  0  0  0  0  0  0  0  0  0  0  0
    4.8936    1.1710   -0.4287 C   0  0  0  0  0  0  0  0  0  0  0  0
    2.5627    0.4956   -0.0775 C   0  0  0  0  0  0  0  0  0  0  0  0
    2.3895   -0.4197   -0.9400 O   0  0  0  0  0  0  0  0  0  0  0  0
    1.4568    0.9135    0.6303 O   0  0  0  0  0  0  0  0  0  0  0  0
    0.2488    0.2457    0.6751 C   0  0  0  0  0  0  0  0  0  0  0  0
    0.1527   -1.0978    1.0189 C   0  0  0  0  0  0  0  0  0  0  0  0
   -0.7533   -1.8944    0.3675 C   0  0  0  0  0  0  0  0  0  0  0  0
   -1.8628   -1.3489   -0.2220 C   0  0  0  0  0  0  0  0  0  0  0  0
   -2.0261    0.0257   -0.1064 C   0  0  0  0  0  0  0  0  0  0  0  0
   -3.2575    0.5624   -0.5725 N   0  0  0  0  0  0  0  0  0  0  0  0
   -3.6148    1.7879    0.1051 C   0  0  0  0  0  0  0  0  0  0  0  0
   -3.1817    0.8553   -1.9999 C   0  0  0  0  0  0  0  0  0  0  0  0
   -4.2956   -0.4289   -0.3049 C   0  0  0  0  0  0  0  0  0  0  0  0
   -0.9452    0.8214    0.2541 C   0  0  0  0  0  0  0  0  0  0  0  0
  1  2  1  0
  2  3  1  0
  2  4  1  0
  4  5  2  0
  4  6  1  0
  6  7  1  0
  7  8  2  0
  8  9  1  0
  9 10  2  0
 10 11  1  0
 11 12  1  0
 12 13  1  0
 12 14  1  0
 12 15  1  0
 11 16  2  0
 16  7  1  0
M  CHG  1  12   1
M  END
>  <supplier_code>  (1115) 
DB01400

>  <zinc_id>  (1115) 
ZINC000000001792

>  <catalog_short_name>  (1115) 
dbfda

$$$$

     RDKit          3D

 25 29  0  0  0  0  0  0  0  0999 V2000
   -5.0489    2.0227   -0.2699 C   0  0  0  0  0  0  0  0  0  0  0  0
   -4.5978    0.9241   -0.3703 C   0  0  0  0  0  0  0  0  0  0  0  0
   -4.0523   -0.3994   -0.6055 C   0  0  2  0  0  0  0  0  0  0  0  0
   -4.7890   -1.0335   -1.6205 O   0  0  0  0  0  0  0  0  0  0  0  0
   -4.2463   -1.2840    0.6233 C   0  0  0  0  0  0  0  0  0  0  0  0
   -2.8437   -1.6698    1.0867 C   0  0  0  0  0  0  0  0  0  0  0  0
   -2.1801   -0.2129    0.7223 C   0  0  1  0  0  0  0  0  0  0  0  0
   -0.6265   -0.8788    0.4837 C   0  0  2  0  0  0  0  0  0  0  0  0
   -0.2524   -0.6995    2.0415 C   0  0  0  0  0  0  0  0  0  0  0  0
    1.1676   -1.1637    2.1141 C   0  0  0  0  0  0  0  0  0  0  0  0
    1.9841   -0.2972    1.2109 C   0  0  0  0  0  0  0  0  0  0  0  0
    3.2973   -0.5217    1.2635 C   0  0  0  0  0  0  0  0  0  0  0  0
    4.2335    0.4386    0.6751 C   0  0  0  0  0  0  0  0  0  0  0  0
    5.5444    0.4577    0.6090 O   0  0  0  0  0  0  0  0  0  0  0  0
    5.8642    1.2578   -0.3558 N   0  0  0  0  0  0  0  0  0  0  0  0
    4.8058    1.8897   -0.8606 C   0  0  0  0  0  0  0  0  0  0  0  0
    3.7063    1.2482   -0.3248 C   0  0  0  0  0  0  0  0  0  0  0  0
    2.2605    1.3069   -0.6340 C   0  0  0  0  0  0  0  0  0  0  0  0
    1.5068    0.1138   -0.1290 C   0  0  1  0  0  0  0  0  0  0  0  0
    1.4735   -1.0565   -1.0129 C   0  0  0  0  0  0  0  0  0  0  0  0
   -0.0202    0.6678    0.0916 C   0  0  1  0  0  0  0  0  0  0  0  0
   -0.4313    0.4647   -1.4892 C   0  0  0  0  0  0  0  0  0  0  0  0
   -1.9431    0.6782   -1.5275 C   0  0  0  0  0  0  0  0  0  0  0  0
   -2.5914   -0.4373   -0.8502 C   0  0  2  0  0  0  0  0  0  0  0  0
   -2.2211   -1.8159   -1.2188 C   0  0  0  0  0  0  0  0  0  0  0  0
  1  2  3  0
  3  2  1  1
  3  4  1  0
  3  5  1  0
  5  6  1  0
  7  6  1  1
  7  8  1  0
  8  9  1  1
  9 10  1  0
 10 11  1  0
 11 12  2  0
 12 13  1  0
 13 14  1  0
 14 15  1  0
 15 16  2  0
 16 17  1  0
 17 18  1  0
 18 19  1  0
 19 20  1  6
 19 21  1  0
 21 22  1  6
 22 23  1  0
 23 24  1  0
 24 25  1  6
 24  3  1  0
 24  7  1  0
 21  8  1  0
 19 11  1  0
 17 13  2  0
M  END
>  <supplier_code>  (1116) 
DB01406

>  <zinc_id>  (1116) 
ZINC000003881958

>  <catalog_short_name>  (1116) 
dbfda

$$$$

     RDKit          3D

 26 30  0  0  0  0  0  0  0  0999 V2000
    4.6027    1.3613    0.8333 C   0  0  0  0  0  0  0  0  0  0  0  0
    4.4176    0.6427    0.5241 N   0  0  0  0  0  0  0  0  0  0  0  0
    5.2566   -0.2444   -0.2667 C   0  0  0  0  0  0  0  0  0  0  0  0
    3.4048   -0.3590    1.2412 C   0  0  2  0  0  0  0  0  0  0  0  0
    2.4672   -0.4790    0.0472 C   0  0  0  0  0  0  0  0  0  0  0  0
    1.9546   -1.1963   -0.8652 C   0  0  0  0  0  0  0  0  0  0  0  0
    0.5632   -1.1489   -1.1688 O   0  0  0  0  0  0  0  0  0  0  0  0
   -0.5058   -1.3463   -0.3468 C   0  0  0  0  0  0  0  0  0  0  0  0
   -0.2728   -1.9115    0.7604 O   0  0  0  0  0  0  0  0  0  0  0  0
   -1.7363   -0.6561   -0.7184 C   0  0  0  0  0  0  0  0  0  0  0  0
   -1.8774   -0.8181   -2.1112 O   0  0  0  0  0  0  0  0  0  0  0  0
   -2.8434   -1.3965   -0.0307 C   0  0  0  0  0  0  0  0  0  0  0  0
   -3.6193   -0.9812    0.9838 C   0  0  0  0  0  0  0  0  0  0  0  0
   -4.7582   -1.6335    1.2289 C   0  0  0  0  0  0  0  0  0  0  0  0
   -5.0349   -2.7010    0.4236 C   0  0  0  0  0  0  0  0  0  0  0  0
   -3.6030   -2.8477   -0.5138 S   0  0  0  0  0  0  0  0  0  0  0  0
   -1.8326    0.7551   -0.3225 C   0  0  0  0  0  0  0  0  0  0  0  0
   -3.0776    1.3687   -0.4781 C   0  0  0  0  0  0  0  0  0  0  0  0
   -3.0790    2.5795    0.1998 C   0  0  0  0  0  0  0  0  0  0  0  0
   -2.0216    3.3511   -0.2663 C   0  0  0  0  0  0  0  0  0  0  0  0
   -0.8231    2.1340   -0.4717 S   0  0  0  0  0  0  0  0  0  0  0  0
    2.3313   -0.0234   -0.4140 C   0  0  0  0  0  0  0  0  0  0  0  0
    3.2824    1.1747   -0.4582 C   0  0  1  0  0  0  0  0  0  0  0  0
    2.7065    2.1376    0.8769 C   0  0  1  0  0  0  0  0  0  0  0  0
    1.3557    1.2372    1.2269 O   0  0  0  0  0  0  0  0  0  0  0  0
    2.7423    1.0011    2.1010 C   0  0  1  0  0  0  0  0  0  0  0  0
  1  2  1  0
  2  3  1  0
  2  4  1  0
  4  5  1  6
  5  6  1  0
  6  7  1  0
  7  8  1  0
  8  9  2  0
  8 10  1  0
 10 11  1  0
 10 12  1  0
 12 13  2  0
 13 14  1  0
 14 15  2  0
 15 16  1  0
 10 17  1  0
 17 18  2  0
 18 19  1  0
 19 20  2  0
 20 21  1  0
  6 22  1  0
 23 22  1  1
 23 24  1  0
 24 25  1  6
 26 25  1  6
 23  2  1  0
 26 24  1  0
 26  4  1  0
 16 12  1  0
 21 17  1  0
M  CHG  1   2   1
M  END
>  <supplier_code>  (1117) 
DB01409

>  <zinc_id>  (1117) 
ZINC000012503291

>  <catalog_short_name>  (1117) 
dbfda

$$$$

     RDKit          3D

 26 30  0  0  0  0  0  0  0  0999 V2000
    2.9474   -1.7244    1.0237 C   0  0  0  0  0  0  0  0  0  0  0  0
    3.5754   -0.5676    1.0208 N   0  0  0  0  0  0  0  0  0  0  0  0
    4.9143   -0.4462    1.3251 C   0  0  0  0  0  0  0  0  0  0  0  0
    3.2684    0.1717   -0.3163 C   0  0  2  0  0  0  0  0  0  0  0  0
    2.5462   -0.9682   -1.1101 C   0  0  0  0  0  0  0  0  0  0  0  0
    1.2820    0.1340   -0.8422 C   0  0  1  0  0  0  0  0  0  0  0  0
    0.3483   -0.8039   -0.0747 O   0  0  0  0  0  0  0  0  0  0  0  0
   -0.6087   -0.2160    0.7250 C   0  0  0  0  0  0  0  0  0  0  0  0
   -0.2524    0.9201    1.1840 O   0  0  0  0  0  0  0  0  0  0  0  0
   -2.0891   -0.2867    0.6191 C   0  0  0  0  0  0  0  0  0  0  0  0
   -2.4287   -0.3429    1.9929 O   0  0  0  0  0  0  0  0  0  0  0  0
   -2.6767    0.9857    0.0941 C   0  0  0  0  0  0  0  0  0  0  0  0
   -1.8662    2.0098   -0.3348 C   0  0  0  0  0  0  0  0  0  0  0  0
   -2.4440    3.1245   -0.7463 C   0  0  0  0  0  0  0  0  0  0  0  0
   -3.6989    3.3813   -0.2300 C   0  0  0  0  0  0  0  0  0  0  0  0
   -4.1694    1.7583    0.1007 S   0  0  0  0  0  0  0  0  0  0  0  0
   -2.6633   -1.4916    0.0455 C   0  0  0  0  0  0  0  0  0  0  0  0
   -3.5749   -1.4103   -1.0007 C   0  0  0  0  0  0  0  0  0  0  0  0
   -3.9168   -2.6293   -1.4974 C   0  0  0  0  0  0  0  0  0  0  0  0
   -4.2672   -3.5237   -0.4696 C   0  0  0  0  0  0  0  0  0  0  0  0
   -2.9732   -3.0784    0.5809 S   0  0  0  0  0  0  0  0  0  0  0  0
    1.8044    0.9413    0.5584 C   0  0  0  0  0  0  0  0  0  0  0  0
    3.1571    0.4506   -0.0584 C   0  0  1  0  0  0  0  0  0  0  0  0
    4.4485    1.5078    0.3480 C   0  0  2  0  0  0  0  0  0  0  0  0
    4.4172    1.8090   -1.2989 O   0  0  0  0  0  0  0  0  0  0  0  0
    4.9202    0.2950   -0.7688 C   0  0  2  0  0  0  0  0  0  0  0  0
  1  2  1  0
  2  3  1  0
  2  4  1  0
  4  5  1  6
  5  6  1  0
  6  7  1  1
  7  8  1  0
  8  9  2  0
  8 10  1  0
 10 11  1  0
 10 12  1  0
 12 13  2  0
 13 14  1  0
 14 15  2  0
 15 16  1  0
 10 17  1  0
 17 18  2  0
 18 19  1  0
 19 20  2  0
 20 21  1  0
  6 22  1  0
 23 22  1  1
 23 24  1  0
 24 25  1  6
 26 25  1  6
 23  2  1  0
 26 24  1  0
 26  4  1  0
 16 12  1  0
 21 17  1  0
M  CHG  1   2   1
M  END
>  <supplier_code>  (1118) 
DB01409

>  <zinc_id>  (1118) 
ZINC000100008319

>  <catalog_short_name>  (1118) 
dbfda

$$$$

     RDKit          3D

 39 44  0  0  0  0  0  0  0  0999 V2000
   -1.7788    5.6765    1.7428 C   0  0  0  0  0  0  0  0  0  0  0  0
   -2.1410    5.8814    0.3097 C   0  0  0  0  0  0  0  0  0  0  0  0
   -3.6333    6.1375    0.1340 C   0  0  0  0  0  0  0  0  0  0  0  0
   -1.8661    4.6263   -0.4573 C   0  0  0  0  0  0  0  0  0  0  0  0
   -1.9397    4.7410   -1.7042 O   0  0  0  0  0  0  0  0  0  0  0  0
   -1.9320    3.3640    0.0818 O   0  0  0  0  0  0  0  0  0  0  0  0
   -2.4915    2.3354   -0.6812 C   0  0  0  0  0  0  0  0  0  0  0  0
   -2.6138    1.0432    0.0035 C   0  0  0  0  0  0  0  0  0  0  0  0
   -3.7805    0.7510    0.2708 O   0  0  0  0  0  0  0  0  0  0  0  0
   -1.5542   -0.0216    0.0562 C   0  0  1  0  0  0  0  0  0  0  0  0
   -1.9421   -0.8382    1.0972 O   0  0  0  0  0  0  0  0  0  0  0  0
   -2.9852   -1.6788    0.3461 C   0  0  2  0  0  0  0  0  0  0  0  0
   -2.9917   -2.9058    1.4726 C   0  0  0  0  0  0  0  0  0  0  0  0
   -2.5532   -4.1525    0.7955 C   0  0  0  0  0  0  0  0  0  0  0  0
   -3.2860   -4.4449   -0.4817 C   0  0  0  0  0  0  0  0  0  0  0  0
   -4.6772   -4.8895   -0.1502 C   0  0  0  0  0  0  0  0  0  0  0  0
   -5.0661   -4.3397    1.1735 C   0  0  0  0  0  0  0  0  0  0  0  0
   -4.5148   -3.0289    1.5588 C   0  0  0  0  0  0  0  0  0  0  0  0
   -1.8184   -2.2474   -0.4699 O   0  0  0  0  0  0  0  0  0  0  0  0
   -1.9637   -0.9461   -1.2502 C   0  0  2  0  0  0  0  0  0  0  0  0
   -0.4420   -1.0918   -1.8626 C   0  0  0  0  0  0  0  0  0  0  0  0
    0.3401   -1.0435   -0.4553 C   0  0  1  0  0  0  0  0  0  0  0  0
    1.7194   -0.3228   -1.0900 C   0  0  2  0  0  0  0  0  0  0  0  0
    2.1956   -1.6536   -1.8517 C   0  0  0  0  0  0  0  0  0  0  0  0
    3.5396   -1.1022   -2.3235 C   0  0  0  0  0  0  0  0  0  0  0  0
    4.3601   -0.6157   -1.1711 C   0  0  0  0  0  0  0  0  0  0  0  0
    5.5676   -1.1603   -1.0789 C   0  0  0  0  0  0  0  0  0  0  0  0
    6.1424   -1.3963    0.2401 C   0  0  0  0  0  0  0  0  0  0  0  0
    7.3391   -1.8205    0.2696 O   0  0  0  0  0  0  0  0  0  0  0  0
    5.7311   -0.4868    1.2889 C   0  0  0  0  0  0  0  0  0  0  0  0
    4.7764    0.3437    0.9642 C   0  0  0  0  0  0  0  0  0  0  0  0
    3.7967    0.2565   -0.0836 C   0  0  1  0  0  0  0  0  0  0  0  0
    3.3723    1.4834   -0.7629 C   0  0  0  0  0  0  0  0  0  0  0  0
    2.5801   -0.7083    0.2969 C   0  0  1  0  0  0  0  0  0  0  0  0
    1.6816    0.2193    1.4179 C   0  0  1  0  0  0  0  0  0  0  0  0
    2.6671    1.3516    1.6112 O   0  0  0  0  0  0  0  0  0  0  0  0
    0.7775    1.1190    0.3965 C   0  0  0  0  0  0  0  0  0  0  0  0
   -0.2808    0.4328   -0.2030 C   0  0  2  0  0  0  0  0  0  0  0  0
   -0.3345    1.1325   -1.5760 C   0  0  0  0  0  0  0  0  0  0  0  0
  1  2  1  0
  2  3  1  0
  2  4  1  0
  4  5  2  0
  4  6  1  0
  6  7  1  0
  7  8  1  0
  8  9  2  0
 10  8  1  6
 10 11  1  0
 11 12  1  0
 12 13  1  1
 13 14  1  0
 14 15  1  0
 15 16  1  0
 16 17  1  0
 17 18  1  0
 12 19  1  0
 20 19  1  1
 20 21  1  0
 22 21  1  6
 22 23  1  0
 23 24  1  6
 24 25  1  0
 25 26  1  0
 26 27  2  0
 27 28  1  0
 28 29  2  0
 28 30  1  0
 30 31  2  0
 31 32  1  0
 32 33  1  6
 34 32  1  6
 34 35  1  0
 35 36  1  6
 35 37  1  0
 37 38  1  0
 38 39  1  6
 20 10  1  0
 38 22  1  0
 38 10  1  0
 18 13  1  0
 34 23  1  0
 32 26  1  0
M  END
>  <supplier_code>  (1119) 
DB01410

>  <zinc_id>  (1119) 
ZINC000003915154

>  <catalog_short_name>  (1119) 
dbfda

$$$$

     RDKit          3D

 39 44  0  0  0  0  0  0  0  0999 V2000
   -4.9713    5.0705   -0.8098 C   0  0  0  0  0  0  0  0  0  0  0  0
   -4.1191    5.1301   -0.2075 C   0  0  0  0  0  0  0  0  0  0  0  0
   -3.2787    6.3697   -0.0311 C   0  0  0  0  0  0  0  0  0  0  0  0
   -3.2070    3.9761   -0.3100 C   0  0  0  0  0  0  0  0  0  0  0  0
   -2.3197    4.0275   -1.2117 O   0  0  0  0  0  0  0  0  0  0  0  0
   -3.3045    2.9029    0.5889 O   0  0  0  0  0  0  0  0  0  0  0  0
   -2.2819    2.0187    0.4651 C   0  0  0  0  0  0  0  0  0  0  0  0
   -2.0900    0.8804    1.2755 C   0  0  0  0  0  0  0  0  0  0  0  0
   -2.3597    0.8818    2.4675 O   0  0  0  0  0  0  0  0  0  0  0  0
   -1.4187   -0.3503    0.7033 C   0  0  1  0  0  0  0  0  0  0  0  0
   -2.2370   -1.2942    1.1142 O   0  0  0  0  0  0  0  0  0  0  0  0
   -1.4768   -2.3990    0.3881 C   0  0  1  0  0  0  0  0  0  0  0  0
   -2.7803   -3.4246    0.5175 C   0  0  0  0  0  0  0  0  0  0  0  0
   -3.9486   -2.6968   -0.0270 C   0  0  0  0  0  0  0  0  0  0  0  0
   -5.1208   -3.5930   -0.0057 C   0  0  0  0  0  0  0  0  0  0  0  0
   -4.8980   -5.0239   -0.2739 C   0  0  0  0  0  0  0  0  0  0  0  0
   -3.5405   -5.5085   -0.5047 C   0  0  0  0  0  0  0  0  0  0  0  0
   -2.3874   -4.6556   -0.2041 C   0  0  0  0  0  0  0  0  0  0  0  0
   -1.8687   -1.9301   -0.9986 O   0  0  0  0  0  0  0  0  0  0  0  0
   -1.8999   -0.4302   -0.8579 C   0  0  2  0  0  0  0  0  0  0  0  0
   -0.4042   -0.2233   -1.5285 C   0  0  0  0  0  0  0  0  0  0  0  0
    0.4803   -1.1082   -0.5259 C   0  0  1  0  0  0  0  0  0  0  0  0
    1.8515   -0.1404   -0.6398 C   0  0  2  0  0  0  0  0  0  0  0  0
    2.4628   -0.8852   -1.9226 C   0  0  0  0  0  0  0  0  0  0  0  0
    3.6194    0.0789   -2.1774 C   0  0  0  0  0  0  0  0  0  0  0  0
    4.1067    0.6147   -0.8584 C   0  0  0  0  0  0  0  0  0  0  0  0
    5.2167    1.3640   -0.8006 C   0  0  0  0  0  0  0  0  0  0  0  0
    6.4474    0.8273   -0.1825 C   0  0  0  0  0  0  0  0  0  0  0  0
    7.4894    1.4854   -0.0267 O   0  0  0  0  0  0  0  0  0  0  0  0
    6.3746   -0.6452   -0.1317 C   0  0  0  0  0  0  0  0  0  0  0  0
    5.1894   -1.2745   -0.1017 C   0  0  0  0  0  0  0  0  0  0  0  0
    4.0932   -0.3165    0.2771 C   0  0  1  0  0  0  0  0  0  0  0  0
    4.5728    0.2437    1.5606 C   0  0  0  0  0  0  0  0  0  0  0  0
    2.7267   -1.1162    0.4025 C   0  0  1  0  0  0  0  0  0  0  0  0
    2.2767   -0.3435    1.8656 C   0  0  1  0  0  0  0  0  0  0  0  0
    2.2200    1.0644    1.3133 O   0  0  0  0  0  0  0  0  0  0  0  0
    0.6813   -0.6514    1.7963 C   0  0  0  0  0  0  0  0  0  0  0  0
   -0.0345   -0.1869    0.7016 C   0  0  2  0  0  0  0  0  0  0  0  0
    0.1386    1.2616    0.2235 C   0  0  0  0  0  0  0  0  0  0  0  0
  1  2  1  0
  2  3  1  0
  2  4  1  0
  4  5  2  0
  4  6  1  0
  6  7  1  0
  7  8  1  0
  8  9  2  0
 10  8  1  1
 10 11  1  0
 11 12  1  0
 12 13  1  1
 13 14  1  0
 14 15  1  0
 15 16  1  0
 16 17  1  0
 17 18  1  0
 12 19  1  0
 20 19  1  1
 20 21  1  0
 22 21  1  6
 22 23  1  0
 23 24  1  6
 24 25  1  0
 25 26  1  0
 26 27  2  0
 27 28  1  0
 28 29  2  0
 28 30  1  0
 30 31  2  0
 31 32  1  0
 32 33  1  1
 34 32  1  6
 34 35  1  0
 35 36  1  6
 35 37  1  0
 37 38  1  0
 38 39  1  6
 20 10  1  0
 38 22  1  0
 38 10  1  0
 18 13  1  0
 34 23  1  0
 32 26  1  0
M  END
>  <supplier_code>  (1120) 
DB01410

>  <zinc_id>  (1120) 
ZINC000014261579

>  <catalog_short_name>  (1120) 
dbfda

$$$$

     RDKit          3D

 32 35  0  0  0  0  0  0  0  0999 V2000
    1.4576    3.6997   -0.3719 C   0  0  0  0  0  0  0  0  0  0  0  0
    1.4745    2.7846   -0.4683 O   0  0  0  0  0  0  0  0  0  0  0  0
    2.1516    1.7251   -1.0299 N   0  0  0  0  0  0  0  0  0  0  0  0
    2.5343    0.7011   -0.3519 C   0  0  0  0  0  0  0  0  0  0  0  0
    2.0337    0.6205    1.0276 C   0  0  0  0  0  0  0  0  0  0  0  0
    2.9322    0.6709    1.9215 O   0  0  0  0  0  0  0  0  0  0  0  0
    0.7547    0.0583    1.3470 N   0  0  0  0  0  0  0  0  0  0  0  0
    0.8639   -0.9555    2.5736 C   0  0  2  0  0  0  0  0  0  0  0  0
    0.6173   -2.2277    1.5927 C   0  0  0  0  0  0  0  0  0  0  0  0
    1.5157   -2.8440    1.0092 O   0  0  0  0  0  0  0  0  0  0  0  0
   -0.6542   -1.5967    1.3473 N   0  0  0  0  0  0  0  0  0  0  0  0
   -1.4592   -1.0933    0.3198 C   0  0  0  0  0  0  0  0  0  0  0  0
   -1.1001   -1.3425   -1.0868 C   0  0  0  0  0  0  0  0  0  0  0  0
   -0.4970   -2.3848   -1.4099 O   0  0  0  0  0  0  0  0  0  0  0  0
   -1.0632   -0.2254   -1.9136 O   0  0  0  0  0  0  0  0  0  0  0  0
   -2.6763   -0.5870    0.4887 C   0  0  0  0  0  0  0  0  0  0  0  0
   -3.3476    0.0854   -0.6382 C   0  0  0  0  0  0  0  0  0  0  0  0
   -4.7450    0.3140   -0.3719 N   0  0  0  0  0  0  0  0  0  0  0  0
   -5.3392   -0.9152    0.1492 C   0  0  0  0  0  0  0  0  0  0  0  0
   -4.9730    1.3932    0.5535 C   0  0  0  0  0  0  0  0  0  0  0  0
   -5.0169    2.6188   -0.3307 C   0  0  0  0  0  0  0  0  0  0  0  0
   -5.8504    2.0994   -1.4904 C   0  0  0  0  0  0  0  0  0  0  0  0
   -5.4637    0.6366   -1.5891 C   0  0  0  0  0  0  0  0  0  0  0  0
   -3.0080   -0.0123    1.8019 C   0  0  0  0  0  0  0  0  0  0  0  0
   -1.4527    0.6342    2.5072 S   0  0  0  0  0  0  0  0  0  0  0  0
   -0.8072   -1.1424    2.7916 C   0  0  2  0  0  0  0  0  0  0  0  0
    3.7626   -0.0485   -0.6660 C   0  0  0  0  0  0  0  0  0  0  0  0
    3.7690   -1.3843   -1.0590 C   0  0  0  0  0  0  0  0  0  0  0  0
    5.4186   -1.7884   -0.7904 S   0  0  0  0  0  0  0  0  0  0  0  0
    5.9577   -0.2228   -0.3309 C   0  0  0  0  0  0  0  0  0  0  0  0
    7.2458    0.2137    0.1220 N   0  0  0  0  0  0  0  0  0  0  0  0
    4.9645    0.5154   -0.8844 N   0  0  0  0  0  0  0  0  0  0  0  0
  1  2  1  0
  2  3  1  0
  3  4  2  0
  4  5  1  0
  5  6  2  0
  5  7  1  0
  8  7  1  6
  8  9  1  0
  9 10  2  0
  9 11  1  0
 11 12  1  0
 12 13  1  0
 13 14  2  0
 13 15  1  0
 12 16  2  0
 16 17  1  0
 17 18  1  0
 18 19  1  0
 18 20  1  0
 20 21  1  0
 21 22  1  0
 22 23  1  0
 16 24  1  0
 24 25  1  0
 26 25  1  6
  4 27  1  0
 27 28  2  0
 28 29  1  0
 29 30  1  0
 30 31  1  0
 30 32  2  0
 26  8  1  0
 32 27  1  0
 26 11  1  0
 23 18  1  0
M  CHG  1  18   1
M  END
>  <supplier_code>  (1121) 
DB01413

>  <zinc_id>  (1121) 
ZINC000003871923

>  <catalog_short_name>  (1121) 
dbfda

$$$$

     RDKit          3D

 27 29  0  0  0  0  0  0  0  0999 V2000
   -2.7238    4.5210    0.9483 N   0  0  0  0  0  0  0  0  0  0  0  0
   -3.1260    3.1642    1.1437 C   0  0  0  0  0  0  0  0  0  0  0  0
   -2.7740    2.1027    0.3777 N   0  0  0  0  0  0  0  0  0  0  0  0
   -2.8821    0.9457    1.0492 C   0  0  0  0  0  0  0  0  0  0  0  0
   -2.0863   -0.2375    0.6603 C   0  0  0  0  0  0  0  0  0  0  0  0
   -2.7543   -1.3100    0.2202 C   0  0  0  0  0  0  0  0  0  0  0  0
   -2.3402   -2.0239   -1.0308 C   0  0  0  0  0  0  0  0  0  0  0  0
   -3.2686   -3.1260   -1.2947 C   0  0  0  0  0  0  0  0  0  0  0  0
   -4.1476   -2.9663   -2.1928 O   0  0  0  0  0  0  0  0  0  0  0  0
   -3.4723   -4.0508   -0.2954 O   0  0  0  0  0  0  0  0  0  0  0  0
   -0.7816   -0.0715    0.0063 C   0  0  0  0  0  0  0  0  0  0  0  0
   -0.8345    0.0248   -1.2568 O   0  0  0  0  0  0  0  0  0  0  0  0
    0.4453    0.1702    0.6412 N   0  0  0  0  0  0  0  0  0  0  0  0
    1.1310    1.4376   -0.0583 C   0  0  2  0  0  0  0  0  0  0  0  0
    1.8068    0.4967   -1.2005 C   0  0  0  0  0  0  0  0  0  0  0  0
    1.8101    0.7183   -2.4430 O   0  0  0  0  0  0  0  0  0  0  0  0
    2.7331    0.0402   -0.1996 N   0  0  0  0  0  0  0  0  0  0  0  0
    4.0068   -0.5901   -0.0898 C   0  0  0  0  0  0  0  0  0  0  0  0
    4.8003   -1.0005   -1.2566 C   0  0  0  0  0  0  0  0  0  0  0  0
    4.1243   -1.3900   -2.2498 O   0  0  0  0  0  0  0  0  0  0  0  0
    5.9761   -0.2936   -1.5306 O   0  0  0  0  0  0  0  0  0  0  0  0
    4.4665   -0.7331    1.1428 C   0  0  0  0  0  0  0  0  0  0  0  0
    3.5427   -0.8861    2.3107 C   0  0  0  0  0  0  0  0  0  0  0  0
    2.2871    0.4402    2.3220 S   0  0  0  0  0  0  0  0  0  0  0  0
    2.6617    1.2958    0.6587 C   0  0  2  0  0  0  0  0  0  0  0  0
   -4.1400    0.8347    1.6349 C   0  0  0  0  0  0  0  0  0  0  0  0
   -4.4605    2.4873    1.9827 S   0  0  0  0  0  0  0  0  0  0  0  0
  1  2  1  0
  2  3  2  0
  3  4  1  0
  4  5  1  0
  5  6  2  0
  6  7  1  0
  7  8  1  0
  8  9  2  0
  8 10  1  0
  5 11  1  0
 11 12  2  0
 11 13  1  0
 14 13  1  1
 14 15  1  0
 15 16  2  0
 15 17  1  0
 17 18  1  0
 18 19  1  0
 19 20  2  0
 19 21  1  0
 18 22  2  0
 22 23  1  0
 23 24  1  0
 25 24  1  1
  4 26  2  0
 26 27  1  0
 27  2  1  0
 25 14  1  0
 25 17  1  0
M  END
>  <supplier_code>  (1122) 
DB01415

>  <zinc_id>  (1122) 
ZINC000003871967

>  <catalog_short_name>  (1122) 
dbfda

$$$$

     RDKit          3D

 28 30  0  0  0  0  0  0  0  0999 V2000
    5.5503    1.1042    2.0046 C   0  0  0  0  0  0  0  0  0  0  0  0
    4.4187    1.8281    2.3608 O   0  0  0  0  0  0  0  0  0  0  0  0
    3.9393    2.6086    1.2948 C   0  0  0  0  0  0  0  0  0  0  0  0
    2.8102    1.8123    0.7065 C   0  0  0  0  0  0  0  0  0  0  0  0
    3.0780    0.9966   -0.3058 C   0  0  0  0  0  0  0  0  0  0  0  0
    4.3317    1.1020   -1.0654 C   0  0  0  0  0  0  0  0  0  0  0  0
    4.8142    0.1383   -1.7067 O   0  0  0  0  0  0  0  0  0  0  0  0
    4.5306    2.3628   -1.6431 O   0  0  0  0  0  0  0  0  0  0  0  0
    2.2021   -0.0143   -0.8021 N   0  0  0  0  0  0  0  0  0  0  0  0
    1.9168   -1.4249   -0.6309 C   0  0  0  0  0  0  0  0  0  0  0  0
    2.6536   -2.3728   -1.0481 O   0  0  0  0  0  0  0  0  0  0  0  0
    0.5307   -1.1335   -1.4040 C   0  0  1  0  0  0  0  0  0  0  0  0
   -0.4246   -1.6755   -0.2620 N   0  0  0  0  0  0  0  0  0  0  0  0
   -1.7454   -1.6737   -0.7594 C   0  0  0  0  0  0  0  0  0  0  0  0
   -1.9905   -1.9716   -1.9685 O   0  0  0  0  0  0  0  0  0  0  0  0
   -2.9435   -1.3228    0.0154 C   0  0  0  0  0  0  0  0  0  0  0  0
   -3.8416   -2.2689    0.0109 N   0  0  0  0  0  0  0  0  0  0  0  0
   -3.7728   -3.3401   -0.8666 O   0  0  0  0  0  0  0  0  0  0  0  0
   -4.1812   -4.6427   -0.5091 C   0  0  0  0  0  0  0  0  0  0  0  0
   -3.4475    0.0643   -0.0072 C   0  0  0  0  0  0  0  0  0  0  0  0
   -3.0508    0.9725   -0.9863 C   0  0  0  0  0  0  0  0  0  0  0  0
   -4.0839    2.2999   -0.6492 S   0  0  0  0  0  0  0  0  0  0  0  0
   -4.7979    1.6588    0.7749 C   0  0  0  0  0  0  0  0  0  0  0  0
   -5.7941    2.2516    1.6198 N   0  0  0  0  0  0  0  0  0  0  0  0
   -3.9146    0.6847    1.0735 N   0  0  0  0  0  0  0  0  0  0  0  0
    0.7424    0.4074   -0.7599 C   0  0  1  0  0  0  0  0  0  0  0  0
    0.6793    0.1252    1.1251 S   0  0  0  0  0  0  0  0  0  0  0  0
    1.7906    1.4236    1.7344 C   0  0  0  0  0  0  0  0  0  0  0  0
  1  2  1  0
  2  3  1  0
  3  4  1  0
  4  5  2  0
  5  6  1  0
  6  7  2  0
  6  8  1  0
  5  9  1  0
  9 10  1  0
 10 11  2  0
 10 12  1  0
 12 13  1  1
 13 14  1  0
 14 15  2  0
 14 16  1  0
 16 17  2  0
 17 18  1  0
 18 19  1  0
 16 20  1  0
 20 21  2  0
 21 22  1  0
 22 23  1  0
 23 24  1  0
 23 25  2  0
 12 26  1  0
 26 27  1  1
 27 28  1  0
 28  4  1  0
 26  9  1  0
 25 20  1  0
M  END
>  <supplier_code>  (1123) 
DB01416

>  <zinc_id>  (1123) 
ZINC000003830453

>  <catalog_short_name>  (1123) 
dbfda

$$$$

     RDKit          3D

 42 45  0  0  0  0  0  0  0  0999 V2000
    6.4695   -1.2893   -1.8475 N   0  0  0  0  0  0  0  0  0  0  0  0
    5.8161   -0.2857   -2.0878 C   0  0  0  0  0  0  0  0  0  0  0  0
    5.8460    0.1503   -0.5027 C   0  0  2  0  0  0  0  0  0  0  0  0
    4.5480   -0.5008   -0.1981 O   0  0  0  0  0  0  0  0  0  0  0  0
    4.5022   -0.6218    1.3137 C   0  0  2  0  0  0  0  0  0  0  0  0
    3.1403    0.0636    1.4039 O   0  0  0  0  0  0  0  0  0  0  0  0
    2.3418   -1.1873    1.6541 C   0  0  2  0  0  0  0  0  0  0  0  0
    2.7015   -1.8478    0.1186 C   0  0  1  0  0  0  0  0  0  0  0  0
    3.0541   -3.3656    0.6294 C   0  0  0  0  0  0  0  0  0  0  0  0
    2.8459   -4.0091   -0.6013 O   0  0  0  0  0  0  0  0  0  0  0  0
    1.2750   -2.1586   -0.2543 O   0  0  0  0  0  0  0  0  0  0  0  0
    1.3283   -0.6383   -0.4765 C   0  0  1  0  0  0  0  0  0  0  0  0
   -0.0094   -0.5216   -1.1398 O   0  0  0  0  0  0  0  0  0  0  0  0
   -1.0825   -1.0472   -0.2737 C   0  0  1  0  0  0  0  0  0  0  0  0
   -2.0740    0.3253   -0.1554 C   0  0  2  0  0  0  0  0  0  0  0  0
   -3.4690   -0.2634   -0.1245 O   0  0  0  0  0  0  0  0  0  0  0  0
   -3.6074   -0.2016    1.4055 C   0  0  1  0  0  0  0  0  0  0  0  0
   -3.9816    1.2281    1.6195 O   0  0  0  0  0  0  0  0  0  0  0  0
   -4.4267    1.8214    0.3650 C   0  0  2  0  0  0  0  0  0  0  0  0
   -4.7392    3.2291    1.1840 C   0  0  0  0  0  0  0  0  0  0  0  0
   -4.1787    4.2688    0.6007 O   0  0  0  0  0  0  0  0  0  0  0  0
   -6.1022    1.5143    0.4522 C   0  0  1  0  0  0  0  0  0  0  0  0
   -6.1065    0.6137   -0.7422 O   0  0  0  0  0  0  0  0  0  0  0  0
   -6.2883    0.3870    1.7095 C   0  0  2  0  0  0  0  0  0  0  0  0
   -5.5688    1.1906    2.7763 O   0  0  0  0  0  0  0  0  0  0  0  0
   -5.1741   -0.8782    1.5554 C   0  0  1  0  0  0  0  0  0  0  0  0
   -5.5572   -1.1949    0.0969 N   0  0  0  0  0  0  0  0  0  0  0  0
   -2.2550    1.0246   -1.7201 C   0  0  1  0  0  0  0  0  0  0  0  0
   -0.7408    1.1911   -2.0855 N   0  0  0  0  0  0  0  0  0  0  0  0
   -2.7822   -0.2873   -2.3919 C   0  0  0  0  0  0  0  0  0  0  0  0
   -1.8664   -1.4311   -2.9250 C   0  0  1  0  0  0  0  0  0  0  0  0
   -0.5123   -0.6971   -3.1293 N   0  0  0  0  0  0  0  0  0  0  0  0
   -1.5649   -2.1925   -1.4225 C   0  0  2  0  0  0  0  0  0  0  0  0
   -3.0186   -2.2009   -1.0801 O   0  0  0  0  0  0  0  0  0  0  0  0
    0.8132   -0.6090    1.1638 C   0  0  2  0  0  0  0  0  0  0  0  0
    1.0391    0.8603    1.2948 O   0  0  0  0  0  0  0  0  0  0  0  0
    5.4752    0.7770    1.5378 C   0  0  2  0  0  0  0  0  0  0  0  0
    4.8169    1.1624    2.8889 N   0  0  0  0  0  0  0  0  0  0  0  0
    4.5180    1.8991    0.7183 C   0  0  1  0  0  0  0  0  0  0  0  0
    5.5770    2.9290    0.9950 O   0  0  0  0  0  0  0  0  0  0  0  0
    5.1325    1.6577   -0.8539 C   0  0  2  0  0  0  0  0  0  0  0  0
    3.8650    1.1354   -1.4713 O   0  0  0  0  0  0  0  0  0  0  0  0
  1  2  1  0
  3  2  1  6
  3  4  1  0
  4  5  1  0
  5  6  1  1
  7  6  1  6
  7  8  1  0
  8  9  1  1
  9 10  1  0
  8 11  1  0
 11 12  1  0
 12 13  1  6
 14 13  1  6
 14 15  1  0
 15 16  1  6
 17 16  1  6
 17 18  1  0
 18 19  1  0
 19 20  1  1
 20 21  1  0
 19 22  1  0
 22 23  1  6
 22 24  1  0
 24 25  1  1
 24 26  1  0
 26 27  1  6
 15 28  1  0
 28 29  1  6
 28 30  1  0
 30 31  1  0
 31 32  1  1
 31 33  1  0
 33 34  1  1
 12 35  1  0
 35 36  1  1
  5 37  1  0
 37 38  1  1
 37 39  1  0
 39 40  1  1
 39 41  1  0
 41 42  1  6
 41  3  1  0
 35  7  1  0
 33 14  1  0
 26 17  1  0
M  END
>  <supplier_code>  (1124) 
DB01421

>  <zinc_id>  (1124) 
ZINC000060183170

>  <catalog_short_name>  (1124) 
dbfda

$$$$

     RDKit          3D

 17 18  0  0  0  0  0  0  0  0999 V2000
    5.1796    1.1323   -0.1314 C   0  0  0  0  0  0  0  0  0  0  0  0
    4.6498   -0.1128   -0.5159 O   0  0  0  0  0  0  0  0  0  0  0  0
    3.2766   -0.3515   -0.4049 C   0  0  0  0  0  0  0  0  0  0  0  0
    2.5217   -0.7381   -1.4928 C   0  0  0  0  0  0  0  0  0  0  0  0
    1.1389   -0.7994   -1.3812 C   0  0  0  0  0  0  0  0  0  0  0  0
    0.4604   -0.2713   -0.2905 C   0  0  0  0  0  0  0  0  0  0  0  0
   -0.8102   -0.8444    0.1727 C   0  0  0  0  0  0  0  0  0  0  0  0
   -0.7660   -2.0778    0.4668 O   0  0  0  0  0  0  0  0  0  0  0  0
   -2.0846   -0.1287    0.0396 C   0  0  0  0  0  0  0  0  0  0  0  0
   -2.2623    1.1521    0.5493 C   0  0  0  0  0  0  0  0  0  0  0  0
   -3.5220    1.7294    0.6499 C   0  0  0  0  0  0  0  0  0  0  0  0
   -4.6040    0.8847    0.7020 C   0  0  0  0  0  0  0  0  0  0  0  0
   -4.4965   -0.3777    0.1859 C   0  0  0  0  0  0  0  0  0  0  0  0
   -3.2346   -0.9104    0.0579 C   0  0  0  0  0  0  0  0  0  0  0  0
    1.2653    0.2945    0.6881 C   0  0  0  0  0  0  0  0  0  0  0  0
    0.6549    1.1568    1.6016 O   0  0  0  0  0  0  0  0  0  0  0  0
    2.6328    0.2623    0.6606 C   0  0  0  0  0  0  0  0  0  0  0  0
  1  2  1  0
  2  3  1  0
  3  4  2  0
  4  5  1  0
  5  6  2  0
  6  7  1  0
  7  8  2  0
  7  9  1  0
  9 10  2  0
 10 11  1  0
 11 12  2  0
 12 13  1  0
 13 14  2  0
  6 15  1  0
 15 16  1  0
 15 17  2  0
 17  3  1  0
 14  9  1  0
M  END
>  <supplier_code>  (1125) 
DB01428

>  <zinc_id>  (1125) 
ZINC000000136138

>  <catalog_short_name>  (1125) 
dbfda

$$$$

     RDKit          3D

 32 35  0  0  0  0  0  0  0  0999 V2000
   -1.7698    1.5987    2.5554 N   0  0  0  0  0  0  0  0  0  0  0  0
   -2.1679    1.2687    1.5322 C   0  0  0  0  0  0  0  0  0  0  0  0
   -2.5548    0.7662    0.2241 C   0  0  0  0  0  0  0  0  0  0  0  0
   -1.4299    0.9417   -0.7600 C   0  0  0  0  0  0  0  0  0  0  0  0
   -0.0745    1.0380   -0.0701 C   0  0  0  0  0  0  0  0  0  0  0  0
    0.5070   -0.2790   -0.1243 N   0  0  0  0  0  0  0  0  0  0  0  0
    1.2159   -0.6530    1.0646 C   0  0  0  0  0  0  0  0  0  0  0  0
    2.6411   -0.1826    1.1041 C   0  0  0  0  0  0  0  0  0  0  0  0
    3.3509   -0.4728   -0.1920 C   0  0  0  0  0  0  0  0  0  0  0  0
    3.5587   -1.9454   -0.3447 C   0  0  0  0  0  0  0  0  0  0  0  0
    2.5459   -2.6553   -0.5182 O   0  0  0  0  0  0  0  0  0  0  0  0
    4.8426   -2.4635   -0.3640 O   0  0  0  0  0  0  0  0  0  0  0  0
    4.6791    0.2094   -0.1724 C   0  0  0  0  0  0  0  0  0  0  0  0
    5.5057    0.2054   -1.2865 C   0  0  0  0  0  0  0  0  0  0  0  0
    6.8786    0.2352   -1.0772 C   0  0  0  0  0  0  0  0  0  0  0  0
    7.3890    0.3951    0.2051 C   0  0  0  0  0  0  0  0  0  0  0  0
    6.5092    0.9474    1.1283 C   0  0  0  0  0  0  0  0  0  0  0  0
    5.1370    0.9212    0.9135 C   0  0  0  0  0  0  0  0  0  0  0  0
    2.5889    0.0733   -1.3933 C   0  0  0  0  0  0  0  0  0  0  0  0
    1.2123   -0.5512   -1.3458 C   0  0  0  0  0  0  0  0  0  0  0  0
   -3.7309    1.4914   -0.3136 C   0  0  0  0  0  0  0  0  0  0  0  0
   -4.5814    2.2517    0.4441 C   0  0  0  0  0  0  0  0  0  0  0  0
   -5.5986    2.9427   -0.2026 C   0  0  0  0  0  0  0  0  0  0  0  0
   -6.0734    2.4562   -1.4135 C   0  0  0  0  0  0  0  0  0  0  0  0
   -5.2469    1.6647   -2.1998 C   0  0  0  0  0  0  0  0  0  0  0  0
   -4.1207    1.1611   -1.6057 C   0  0  0  0  0  0  0  0  0  0  0  0
   -2.9414   -0.6703    0.3807 C   0  0  0  0  0  0  0  0  0  0  0  0
   -3.9575   -0.9477    1.2621 C   0  0  0  0  0  0  0  0  0  0  0  0
   -4.5798   -2.1803    1.1254 C   0  0  0  0  0  0  0  0  0  0  0  0
   -4.2611   -3.0436    0.0859 C   0  0  0  0  0  0  0  0  0  0  0  0
   -3.0413   -2.8756   -0.5582 C   0  0  0  0  0  0  0  0  0  0  0  0
   -2.4321   -1.6479   -0.4350 C   0  0  0  0  0  0  0  0  0  0  0  0
  1  2  3  0
  2  3  1  0
  3  4  1  0
  4  5  1  0
  5  6  1  0
  6  7  1  0
  7  8  1  0
  8  9  1  0
  9 10  1  0
 10 11  2  0
 10 12  1  0
  9 13  1  0
 13 14  2  0
 14 15  1  0
 15 16  2  0
 16 17  1  0
 17 18  2  0
  9 19  1  0
 19 20  1  0
  3 21  1  0
 21 22  2  0
 22 23  1  0
 23 24  2  0
 24 25  1  0
 25 26  2  0
  3 27  1  0
 27 28  2  0
 28 29  1  0
 29 30  2  0
 30 31  1  0
 31 32  2  0
 20  6  1  0
 26 21  1  0
 32 27  1  0
 18 13  1  0
M  END
>  <supplier_code>  (1126) 
DB01501

>  <zinc_id>  (1126) 
ZINC000000601317

>  <catalog_short_name>  (1126) 
dbfda

$$$$

     RDKit          3D

 22 26  0  0  0  0  0  0  0  0999 V2000
    4.2187   -0.4212    0.9252 C   0  0  0  0  0  0  0  0  0  0  0  0
    3.8749   -0.2709   -0.4243 O   0  0  0  0  0  0  0  0  0  0  0  0
    2.5728   -0.4736   -0.8938 C   0  0  0  0  0  0  0  0  0  0  0  0
    2.2061   -1.6051   -1.6224 C   0  0  0  0  0  0  0  0  0  0  0  0
    0.8770   -2.0369   -1.6681 C   0  0  0  0  0  0  0  0  0  0  0  0
   -0.1148   -1.2780   -1.0704 C   0  0  0  0  0  0  0  0  0  0  0  0
    0.3729   -0.2695   -0.2855 C   0  0  0  0  0  0  0  0  0  0  0  0
    1.6065    0.2492   -0.1957 C   0  0  0  0  0  0  0  0  0  0  0  0
    1.4410    1.5343    0.1944 O   0  0  0  0  0  0  0  0  0  0  0  0
    0.2522    1.5996    1.1631 C   0  0  1  0  0  0  0  0  0  0  0  0
   -0.6806    2.7255    0.2391 C   0  0  1  0  0  0  0  0  0  0  0  0
    0.4585    3.7104    0.1783 O   0  0  0  0  0  0  0  0  0  0  0  0
   -0.3343    2.1096   -1.2357 C   0  0  0  0  0  0  0  0  0  0  0  0
   -1.3902    1.0608   -1.3849 C   0  0  0  0  0  0  0  0  0  0  0  0
   -1.9096    0.6891    0.1126 C   0  0  1  0  0  0  0  0  0  0  0  0
   -2.5117   -0.8113   -0.4215 C   0  0  1  0  0  0  0  0  0  0  0  0
   -1.2470   -1.8108   -0.2964 C   0  0  0  0  0  0  0  0  0  0  0  0
   -3.0180   -1.2005    1.0103 N   0  0  0  0  0  0  0  0  0  0  0  0
   -3.0998   -2.6246    1.0606 C   0  0  0  0  0  0  0  0  0  0  0  0
   -2.2822   -0.6256    2.0243 C   0  0  0  0  0  0  0  0  0  0  0  0
   -0.8072   -0.4985    1.9190 C   0  0  0  0  0  0  0  0  0  0  0  0
   -0.4852    0.2479    0.6716 C   0  0  1  0  0  0  0  0  0  0  0  0
  1  2  1  0
  2  3  1  0
  3  4  2  0
  4  5  1  0
  5  6  2  0
  6  7  1  0
  7  8  2  0
  8  9  1  0
 10  9  1  6
 10 11  1  0
 11 12  1  6
 11 13  1  0
 13 14  1  0
 15 14  1  6
 15 16  1  0
 16 17  1  1
 16 18  1  0
 18 19  1  0
 18 20  1  0
 20 21  1  0
 22 21  1  1
  8  3  1  0
 22 10  1  0
 17  6  1  0
 22  7  1  0
 22 15  1  0
M  END
>  <supplier_code>  (1127) 
DB01551

>  <zinc_id>  (1127) 
ZINC000004215736

>  <catalog_short_name>  (1127) 
dbfda

$$$$

     RDKit          3D

  9  8  0  0  0  0  0  0  0  0999 V2000
   -1.5749   -1.9645    0.2223 O   0  0  0  0  0  0  0  0  0  0  0  0
   -1.3820   -0.2948   -0.1688 Si  0  0  0  0  0  4  0  0  0  0  0  0
   -1.5758    0.6847    1.2136 O   0  0  0  0  0  0  0  0  0  0  0  0
   -2.6703    0.0896   -1.2513 O   0  0  0  0  0  0  0  0  0  0  0  0
    0.0714    0.0073   -1.0016 O   0  0  0  0  0  0  0  0  0  0  0  0
    1.3985    0.2932    0.0155 Si  0  0  0  0  0  4  0  0  0  0  0  0
    1.5887    1.9648    0.4013 O   0  0  0  0  0  0  0  0  0  0  0  0
    2.8139   -0.1256   -0.8813 O   0  0  0  0  0  0  0  0  0  0  0  0
    1.3306   -0.6548    1.4504 O   0  0  0  0  0  0  0  0  0  0  0  0
  1  2  1  0
  2  3  1  0
  2  4  1  0
  2  5  1  0
  5  6  1  0
  6  7  1  0
  6  8  1  0
  6  9  1  0
M  END
>  <supplier_code>  (1128) 
DB01575

>  <zinc_id>  (1128) 
ZINC000247316127

>  <catalog_short_name>  (1128) 
dbfda

$$$$

     RDKit          3D

 10 10  0  0  0  0  0  0  0  0999 V2000
    3.3836    0.0931   -0.3593 C   0  0  0  0  0  0  0  0  0  0  0  0
    1.8197    0.5767   -0.2594 C   0  0  2  0  0  0  0  0  0  0  0  0
    1.9188    0.8036    1.2938 N   0  0  0  0  0  0  0  0  0  0  0  0
    1.2778   -0.9620   -0.0656 C   0  0  0  0  0  0  0  0  0  0  0  0
   -0.2107   -0.8292   -0.2018 C   0  0  0  0  0  0  0  0  0  0  0  0
   -1.0682   -0.9621    0.8805 C   0  0  0  0  0  0  0  0  0  0  0  0
   -2.1547   -0.1048    1.0226 C   0  0  0  0  0  0  0  0  0  0  0  0
   -2.2447    0.9732    0.1443 C   0  0  0  0  0  0  0  0  0  0  0  0
   -1.9342    0.5955   -1.1625 C   0  0  0  0  0  0  0  0  0  0  0  0
   -0.7873   -0.1840   -1.2926 C   0  0  0  0  0  0  0  0  0  0  0  0
  2  1  1  6
  2  3  1  0
  2  4  1  0
  4  5  1  0
  5  6  2  0
  6  7  1  0
  7  8  2  0
  8  9  1  0
  9 10  2  0
 10  5  1  0
M  END
>  <supplier_code>  (1129) 
DB01576

>  <zinc_id>  (1129) 
ZINC000006021033

>  <catalog_short_name>  (1129) 
dbfda

$$$$

     RDKit          3D

 11 11  0  0  0  0  0  0  0  0999 V2000
    3.3315   -0.8951    0.5630 C   0  0  0  0  0  0  0  0  0  0  0  0
    3.0733    0.3003    0.0242 N   0  0  0  0  0  0  0  0  0  0  0  0
    1.7081    0.7911    0.7006 C   0  0  1  0  0  0  0  0  0  0  0  0
    1.1743    1.4108   -0.7561 C   0  0  0  0  0  0  0  0  0  0  0  0
    0.9800   -0.6831    0.4090 C   0  0  0  0  0  0  0  0  0  0  0  0
   -0.4053   -0.3398    0.0350 C   0  0  0  0  0  0  0  0  0  0  0  0
   -1.0964   -1.3170   -0.6471 C   0  0  0  0  0  0  0  0  0  0  0  0
   -2.4381   -1.1636   -0.9645 C   0  0  0  0  0  0  0  0  0  0  0  0
   -2.9627    0.0965   -0.8276 C   0  0  0  0  0  0  0  0  0  0  0  0
   -2.2477    1.0833   -0.1789 C   0  0  0  0  0  0  0  0  0  0  0  0
   -1.1171    0.7166    0.5299 C   0  0  0  0  0  0  0  0  0  0  0  0
  1  2  1  0
  3  2  1  6
  3  4  1  0
  3  5  1  0
  5  6  1  0
  6  7  2  0
  7  8  1  0
  8  9  2  0
  9 10  1  0
 10 11  2  0
 11  6  1  0
M  END
>  <supplier_code>  (1130) 
DB01577

>  <zinc_id>  (1130) 
ZINC000006021043

>  <catalog_short_name>  (1130) 
dbfda

$$$$

     RDKit          3D

 14 15  0  0  0  0  0  0  0  0999 V2000
   -1.0549    1.9751   -0.3502 C   0  0  0  0  0  0  0  0  0  0  0  0
   -1.3132    0.5735    0.4761 C   0  0  2  0  0  0  0  0  0  0  0  0
   -0.4672   -0.3662   -0.7357 C   0  0  1  0  0  0  0  0  0  0  0  0
    0.9813    0.0752   -0.1159 C   0  0  0  0  0  0  0  0  0  0  0  0
    1.4917    1.0149   -1.0158 C   0  0  0  0  0  0  0  0  0  0  0  0
    2.8480    1.0530   -1.3267 C   0  0  0  0  0  0  0  0  0  0  0  0
    3.6985    0.1012   -0.7748 C   0  0  0  0  0  0  0  0  0  0  0  0
    3.1819   -0.5800    0.3220 C   0  0  0  0  0  0  0  0  0  0  0  0
    1.8499   -0.9489    0.1588 C   0  0  0  0  0  0  0  0  0  0  0  0
   -0.5734   -1.6237    0.1405 O   0  0  0  0  0  0  0  0  0  0  0  0
   -1.9347   -1.9629    0.0713 C   0  0  0  0  0  0  0  0  0  0  0  0
   -2.7106   -0.9796   -0.7575 C   0  0  0  0  0  0  0  0  0  0  0  0
   -2.7137    0.2838   -0.1677 N   0  0  0  0  0  0  0  0  0  0  0  0
   -3.2835    1.3846   -0.7469 C   0  0  0  0  0  0  0  0  0  0  0  0
  2  1  1  6
  2  3  1  0
  3  4  1  1
  4  5  2  0
  5  6  1  0
  6  7  2  0
  7  8  1  0
  8  9  2  0
  3 10  1  0
 10 11  1  0
 11 12  1  0
 12 13  1  0
 13 14  1  0
 13  2  1  0
  9  4  1  0
M  END
>  <supplier_code>  (1131) 
DB01579

>  <zinc_id>  (1131) 
ZINC000022010375

>  <catalog_short_name>  (1131) 
dbfda

$$$$

     RDKit          3D

 14 15  0  0  0  0  0  0  0  0999 V2000
    0.9335    1.9695    0.7782 C   0  0  0  0  0  0  0  0  0  0  0  0
    1.6827    0.5740    1.1886 C   0  0  1  0  0  0  0  0  0  0  0  0
    0.2308   -0.2561    1.6916 C   0  0  1  0  0  0  0  0  0  0  0  0
   -0.6398    0.1428    0.3743 C   0  0  0  0  0  0  0  0  0  0  0  0
   -1.3243   -0.8973   -0.2290 C   0  0  0  0  0  0  0  0  0  0  0  0
   -2.6794   -0.9256   -0.4611 C   0  0  0  0  0  0  0  0  0  0  0  0
   -3.3419    0.2925   -0.3932 C   0  0  0  0  0  0  0  0  0  0  0  0
   -2.7343    1.3632    0.2003 C   0  0  0  0  0  0  0  0  0  0  0  0
   -1.5421    1.1144    0.8250 C   0  0  0  0  0  0  0  0  0  0  0  0
    0.6844   -1.6027    1.1325 O   0  0  0  0  0  0  0  0  0  0  0  0
    2.0372   -1.6762    1.2747 C   0  0  0  0  0  0  0  0  0  0  0  0
    2.5928   -1.1026   -0.0326 C   0  0  0  0  0  0  0  0  0  0  0  0
    1.6749    0.0180   -0.2820 N   0  0  0  0  0  0  0  0  0  0  0  0
    2.4256    0.9862   -1.0227 C   0  0  0  0  0  0  0  0  0  0  0  0
  2  1  1  6
  2  3  1  0
  3  4  1  6
  4  5  2  0
  5  6  1  0
  6  7  2  0
  7  8  1  0
  8  9  2  0
  3 10  1  0
 10 11  1  0
 11 12  1  0
 12 13  1  0
 13 14  1  0
 13  2  1  0
  9  4  1  0
M  END
>  <supplier_code>  (1132) 
DB01579

>  <zinc_id>  (1132) 
ZINC000022010379

>  <catalog_short_name>  (1132) 
dbfda

$$$$

     RDKit          3D

 14 15  0  0  0  0  0  0  0  0999 V2000
   -1.0824   -1.7196   -0.5958 C   0  0  0  0  0  0  0  0  0  0  0  0
   -0.9165   -0.1592   -1.0211 C   0  0  2  0  0  0  0  0  0  0  0  0
   -0.5354    0.5136    0.5197 C   0  0  2  0  0  0  0  0  0  0  0  0
    1.0046    0.0601    0.5041 C   0  0  0  0  0  0  0  0  0  0  0  0
    1.4514   -0.9619   -0.2131 C   0  0  0  0  0  0  0  0  0  0  0  0
    2.8300   -1.0499   -0.3861 C   0  0  0  0  0  0  0  0  0  0  0  0
    3.4935    0.1663   -0.5068 C   0  0  0  0  0  0  0  0  0  0  0  0
    3.0390    1.2922    0.1701 C   0  0  0  0  0  0  0  0  0  0  0  0
    1.8084    1.1514    0.8017 C   0  0  0  0  0  0  0  0  0  0  0  0
   -0.9488   -0.6669    1.3677 O   0  0  0  0  0  0  0  0  0  0  0  0
   -2.3430   -0.5318    1.4930 C   0  0  0  0  0  0  0  0  0  0  0  0
   -2.8073    0.4148    0.4323 C   0  0  0  0  0  0  0  0  0  0  0  0
   -2.4409    0.1323   -0.8881 N   0  0  0  0  0  0  0  0  0  0  0  0
   -2.5524    1.3585   -1.6777 C   0  0  0  0  0  0  0  0  0  0  0  0
  2  1  1  1
  2  3  1  0
  3  4  1  6
  4  5  2  0
  5  6  1  0
  6  7  2  0
  7  8  1  0
  8  9  2  0
  3 10  1  0
 10 11  1  0
 11 12  1  0
 12 13  1  0
 13 14  1  0
 13  2  1  0
  9  4  1  0
M  END
>  <supplier_code>  (1133) 
DB01579

>  <zinc_id>  (1133) 
ZINC000022010382

>  <catalog_short_name>  (1133) 
dbfda

$$$$

     RDKit          3D

 14 15  0  0  0  0  0  0  0  0999 V2000
   -1.4703    1.6946   -1.1535 C   0  0  0  0  0  0  0  0  0  0  0  0
   -1.2487    0.0726   -0.9726 C   0  0  1  0  0  0  0  0  0  0  0  0
   -0.5887    0.3112    0.6406 C   0  0  2  0  0  0  0  0  0  0  0  0
    0.9395    0.3295    0.0424 C   0  0  0  0  0  0  0  0  0  0  0  0
    1.6292    1.4787    0.3284 C   0  0  0  0  0  0  0  0  0  0  0  0
    3.0148    1.3902    0.2487 C   0  0  0  0  0  0  0  0  0  0  0  0
    3.6113    0.1388    0.1291 C   0  0  0  0  0  0  0  0  0  0  0  0
    2.8736   -0.8182   -0.5579 C   0  0  0  0  0  0  0  0  0  0  0  0
    1.4900   -0.7953   -0.4049 C   0  0  0  0  0  0  0  0  0  0  0  0
   -0.5517   -1.1901    0.9805 O   0  0  0  0  0  0  0  0  0  0  0  0
   -1.2981   -1.8865    0.1372 C   0  0  0  0  0  0  0  0  0  0  0  0
   -2.7371   -1.4807    0.0491 C   0  0  0  0  0  0  0  0  0  0  0  0
   -2.7197   -0.1139   -0.4324 N   0  0  0  0  0  0  0  0  0  0  0  0
   -2.9442    0.8691    0.5649 C   0  0  0  0  0  0  0  0  0  0  0  0
  2  1  1  6
  2  3  1  0
  3  4  1  6
  4  5  2  0
  5  6  1  0
  6  7  2  0
  7  8  1  0
  8  9  2  0
  3 10  1  0
 10 11  1  0
 11 12  1  0
 12 13  1  0
 13 14  1  0
 13  2  1  0
  9  4  1  0
M  END
>  <supplier_code>  (1134) 
DB01579

>  <zinc_id>  (1134) 
ZINC000022010387

>  <catalog_short_name>  (1134) 
dbfda

$$$$

     RDKit          3D

 28 31  0  0  0  0  0  0  0  0999 V2000
    2.6378   -2.1906   -0.0772 C   0  0  0  0  0  0  0  0  0  0  0  0
    3.6484   -0.9531   -0.2879 C   0  0  2  0  0  0  0  0  0  0  0  0
    3.9645   -0.9865    1.3094 C   0  0  0  0  0  0  0  0  0  0  0  0
    4.7700    0.1691    1.6579 C   0  0  0  0  0  0  0  0  0  0  0  0
    5.6998    0.4680    0.5918 C   0  0  0  0  0  0  0  0  0  0  0  0
    6.1378   -0.4020   -0.2190 O   0  0  0  0  0  0  0  0  0  0  0  0
    6.4884    1.5968    0.8795 O   0  0  0  0  0  0  0  0  0  0  0  0
    2.6201    0.3871   -0.0965 C   0  0  1  0  0  0  0  0  0  0  0  0
    2.5198    0.7249   -1.6792 C   0  0  0  0  0  0  0  0  0  0  0  0
    1.0758    1.2020   -1.8557 C   0  0  0  0  0  0  0  0  0  0  0  0
    0.4891    1.1404   -0.3519 C   0  0  1  0  0  0  0  0  0  0  0  0
   -0.9633    0.3564   -0.6307 C   0  0  2  0  0  0  0  0  0  0  0  0
   -1.9476    1.6862   -0.8745 C   0  0  1  0  0  0  0  0  0  0  0  0
   -1.6280    1.7250   -2.3580 O   0  0  0  0  0  0  0  0  0  0  0  0
   -3.2624    0.7577   -1.1329 C   0  0  0  0  0  0  0  0  0  0  0  0
   -3.0359   -0.6581   -0.3574 C   0  0  2  0  0  0  0  0  0  0  0  0
   -4.6574   -0.8274   -0.2974 C   0  0  0  0  0  0  0  0  0  0  0  0
   -4.9710   -1.0926    1.2861 C   0  0  2  0  0  0  0  0  0  0  0  0
   -6.4635   -1.2195    1.0283 O   0  0  0  0  0  0  0  0  0  0  0  0
   -5.0774    0.5350    1.5561 C   0  0  0  0  0  0  0  0  0  0  0  0
   -3.7056    1.1080    1.3563 C   0  0  0  0  0  0  0  0  0  0  0  0
   -2.7922    0.0043    1.0889 C   0  0  1  0  0  0  0  0  0  0  0  0
   -2.6777   -0.9923    2.1802 C   0  0  0  0  0  0  0  0  0  0  0  0
   -1.2607    0.5025    1.0191 C   0  0  1  0  0  0  0  0  0  0  0  0
   -0.5741   -0.9555    1.2683 C   0  0  0  0  0  0  0  0  0  0  0  0
    0.8822   -0.7331    1.1949 C   0  0  0  0  0  0  0  0  0  0  0  0
    1.1859   -0.3181   -0.1407 C   0  0  2  0  0  0  0  0  0  0  0  0
    0.8971   -1.0342   -1.3422 C   0  0  0  0  0  0  0  0  0  0  0  0
  2  1  1  1
  2  3  1  0
  3  4  1  0
  4  5  1  0
  5  6  2  0
  5  7  1  0
  2  8  1  0
  8  9  1  6
  9 10  1  0
 11 10  1  6
 11 12  1  0
 12 13  1  6
 13 14  1  6
 13 15  1  0
 16 15  1  6
 16 17  1  0
 17 18  1  0
 18 19  1  6
 18 20  1  0
 20 21  1  0
 21 22  1  0
 22 23  1  1
 22 24  1  0
 24 25  1  1
 25 26  1  0
 26 27  1  0
 27 28  1  6
 27  8  1  0
 27 11  1  0
 24 12  1  0
 22 16  1  0
M  END
>  <supplier_code>  (1135) 
DB01586

>  <zinc_id>  (1135) 
ZINC000003914809

>  <catalog_short_name>  (1135) 
dbfda

$$$$

     RDKit          3D

 25 27  0  0  0  0  0  0  0  0999 V2000
   -3.5228    0.5575    1.6160 F   0  0  0  0  0  0  0  0  0  0  0  0
   -3.5974   -0.1292    0.4386 C   0  0  0  0  0  0  0  0  0  0  0  0
   -4.8029   -0.7726    0.1892 C   0  0  0  0  0  0  0  0  0  0  0  0
   -4.8071   -1.9560   -0.5381 C   0  0  0  0  0  0  0  0  0  0  0  0
   -3.7638   -2.1213   -1.4253 C   0  0  0  0  0  0  0  0  0  0  0  0
   -2.6697   -1.2664   -1.3863 C   0  0  0  0  0  0  0  0  0  0  0  0
   -2.4656   -0.3950   -0.3224 C   0  0  0  0  0  0  0  0  0  0  0  0
   -1.1617   -0.2932    0.3484 C   0  0  0  0  0  0  0  0  0  0  0  0
   -0.9191   -1.0670    1.3417 N   0  0  0  0  0  0  0  0  0  0  0  0
    0.1623   -1.0400    2.3160 C   0  0  0  0  0  0  0  0  0  0  0  0
    1.4947   -0.9384    1.6892 C   0  0  0  0  0  0  0  0  0  0  0  0
    2.6946   -1.6186    2.5773 S   0  0  0  0  0  0  0  0  0  0  0  0
    1.9437   -0.1254    0.5974 N   0  0  0  0  0  0  0  0  0  0  0  0
    3.3527    0.1278    0.4550 C   0  0  0  0  0  0  0  0  0  0  0  0
    4.0516   -0.8461   -0.4484 C   0  0  0  0  0  0  0  0  0  0  0  0
    3.9313   -0.3579   -1.7456 F   0  0  0  0  0  0  0  0  0  0  0  0
    5.3951   -0.9350   -0.1682 F   0  0  0  0  0  0  0  0  0  0  0  0
    3.4591   -2.0962   -0.4568 F   0  0  0  0  0  0  0  0  0  0  0  0
    1.0899    0.6917   -0.2014 C   0  0  0  0  0  0  0  0  0  0  0  0
    1.7421    1.7290   -0.8438 C   0  0  0  0  0  0  0  0  0  0  0  0
    1.0442    2.8780   -1.1979 C   0  0  0  0  0  0  0  0  0  0  0  0
   -0.3374    2.9616   -1.0751 C   0  0  0  0  0  0  0  0  0  0  0  0
   -1.0130    4.5408   -0.6904 Cl  0  0  0  0  0  0  0  0  0  0  0  0
   -1.0061    1.7810   -0.7758 C   0  0  0  0  0  0  0  0  0  0  0  0
   -0.2945    0.6908   -0.2933 C   0  0  0  0  0  0  0  0  0  0  0  0
  1  2  1  0
  2  3  2  0
  3  4  1  0
  4  5  2  0
  5  6  1  0
  6  7  2  0
  7  8  1  0
  8  9  2  0
  9 10  1  0
 10 11  1  0
 11 12  2  0
 11 13  1  0
 13 14  1  0
 14 15  1  0
 15 16  1  0
 15 17  1  0
 15 18  1  0
 13 19  1  0
 19 20  2  0
 20 21  1  0
 21 22  2  0
 22 23  1  0
 22 24  1  0
 24 25  2  0
  7  2  1  0
 25  8  1  0
 25 19  1  0
M  END
>  <supplier_code>  (1136) 
DB01589

>  <zinc_id>  (1136) 
ZINC000000538266

>  <catalog_short_name>  (1136) 
dbfda

$$$$

     RDKit          3D

 68 71  0  0  0  0  0  0  0  0999 V2000
    7.2321    3.2198   -2.5464 C   0  0  0  0  0  0  0  0  0  0  0  0
    7.8628    2.8532   -2.4002 O   0  0  0  0  0  0  0  0  0  0  0  0
    7.5757    1.6530   -1.5346 C   0  0  2  0  0  0  0  0  0  0  0  0
    6.1221    2.2502   -1.0705 C   0  0  0  0  0  0  0  0  0  0  0  0
    5.8050    0.8245   -0.3313 C   0  0  2  0  0  0  0  0  0  0  0  0
    4.3197    1.2976    0.1051 C   0  0  0  0  0  0  0  0  0  0  0  0
    3.7252    0.0957    0.9997 C   0  0  2  0  0  0  0  0  0  0  0  0
    4.7575   -1.0922    0.6089 C   0  0  0  0  0  0  0  0  0  0  0  0
    2.6236   -0.4015   -0.2238 C   0  0  2  0  0  0  0  0  0  0  0  0
    1.4910    0.6103    0.3765 C   0  0  0  0  0  0  0  0  0  0  0  0
    1.2143    1.6594   -0.5894 C   0  0  0  0  0  0  0  0  0  0  0  0
    1.7917    2.0539   -1.5296 O   0  0  0  0  0  0  0  0  0  0  0  0
   -0.1737    2.3477   -0.1581 C   0  0  2  0  0  0  0  0  0  0  0  0
   -0.8067    2.2640   -1.6680 C   0  0  0  0  0  0  0  0  0  0  0  0
    0.3315    3.8611   -0.3902 C   0  0  0  0  0  0  0  0  0  0  0  0
   -0.5875    4.8092   -0.1950 C   0  0  0  0  0  0  0  0  0  0  0  0
   -0.1322    6.1559    0.1801 C   0  0  0  0  0  0  0  0  0  0  0  0
   -2.0039    4.3046    0.3863 C   0  0  1  0  0  0  0  0  0  0  0  0
   -1.6549    4.7031    1.8010 O   0  0  0  0  0  0  0  0  0  0  0  0
   -2.7731    5.8224    0.1024 C   0  0  1  0  0  0  0  0  0  0  0  0
   -3.0600    5.4572   -1.3358 O   0  0  0  0  0  0  0  0  0  0  0  0
   -2.8679    6.6707   -2.0245 C   0  0  0  0  0  0  0  0  0  0  0  0
   -4.1917    5.3072    0.6494 C   0  0  0  0  0  0  0  0  0  0  0  0
   -4.4897    5.5956    1.7569 O   0  0  0  0  0  0  0  0  0  0  0  0
   -4.6579    3.9066    0.0434 C   0  0  1  0  0  0  0  0  0  0  0  0
   -4.2240    3.0721    1.3826 C   0  0  0  0  0  0  0  0  0  0  0  0
   -6.2019    4.1145    0.5444 C   0  0  0  0  0  0  0  0  0  0  0  0
   -6.6386    2.5887    0.9136 C   0  0  1  0  0  0  0  0  0  0  0  0
   -8.2248    2.9804    0.9779 C   0  0  0  0  0  0  0  0  0  0  0  0
   -6.7378    2.1369   -0.6234 C   0  0  0  0  0  0  0  0  0  0  0  0
   -6.0283    1.0614   -0.9049 C   0  0  0  0  0  0  0  0  0  0  0  0
   -6.0450    0.0489    0.1632 C   0  0  0  0  0  0  0  0  0  0  0  0
   -7.1983   -0.5054    0.3660 C   0  0  0  0  0  0  0  0  0  0  0  0
   -7.1439   -1.9095    0.8041 C   0  0  0  0  0  0  0  0  0  0  0  0
   -6.3077   -2.4496    1.5786 C   0  0  0  0  0  0  0  0  0  0  0  0
   -6.5465   -2.8830    3.0048 C   0  0  0  0  0  0  0  0  0  0  0  0
   -5.1187   -3.4175    1.0550 C   0  0  1  0  0  0  0  0  0  0  0  0
   -4.9022   -2.6360   -0.2303 O   0  0  0  0  0  0  0  0  0  0  0  0
   -5.3979   -3.4089   -1.2529 C   0  0  0  0  0  0  0  0  0  0  0  0
   -4.0823   -2.4665    1.8992 C   0  0  0  0  0  0  0  0  0  0  0  0
   -2.6501   -3.2524    1.8267 C   0  0  1  0  0  0  0  0  0  0  0  0
   -3.2704   -4.7695    1.9474 C   0  0  0  0  0  0  0  0  0  0  0  0
   -3.0802   -5.5226    0.7778 C   0  0  0  0  0  0  0  0  0  0  0  0
   -1.5749   -5.5411    0.1826 C   0  0  2  0  0  0  0  0  0  0  0  0
   -0.8934   -5.7623    1.6508 C   0  0  0  0  0  0  0  0  0  0  0  0
   -1.3080   -3.9128    0.0482 C   0  0  2  0  0  0  0  0  0  0  0  0
   -0.6587   -3.4977    1.0968 O   0  0  0  0  0  0  0  0  0  0  0  0
   -2.5854   -3.3221    0.3023 O   0  0  0  0  0  0  0  0  0  0  0  0
   -1.1443   -3.8973   -1.3671 C   0  0  0  0  0  0  0  0  0  0  0  0
   -2.1975   -4.2218   -2.0295 O   0  0  0  0  0  0  0  0  0  0  0  0
    0.0594   -4.5857   -1.9047 C   0  0  0  0  0  0  0  0  0  0  0  0
    0.0286   -5.2382   -2.9983 O   0  0  0  0  0  0  0  0  0  0  0  0
    1.2215   -4.5095   -1.0428 N   0  0  0  0  0  0  0  0  0  0  0  0
    2.3476   -5.2487   -1.3287 C   0  0  0  0  0  0  0  0  0  0  0  0
    3.6487   -4.5569   -1.5822 C   0  0  0  0  0  0  0  0  0  0  0  0
    3.2500   -3.3014   -2.1793 C   0  0  0  0  0  0  0  0  0  0  0  0
    2.0479   -2.6049   -2.0486 C   0  0  0  0  0  0  0  0  0  0  0  0
    1.1753   -2.9719   -0.7027 C   0  0  2  0  0  0  0  0  0  0  0  0
    2.5225   -2.8385    0.1967 C   0  0  0  0  0  0  0  0  0  0  0  0
    2.6492   -3.6400    1.1286 O   0  0  0  0  0  0  0  0  0  0  0  0
    2.2073   -1.5508    0.6909 O   0  0  0  0  0  0  0  0  0  0  0  0
    6.5202    1.3187    1.0415 C   0  0  0  0  0  0  0  0  0  0  0  0
    7.3396    2.4536    0.8678 C   0  0  0  0  0  0  0  0  0  0  0  0
    8.5133    2.3188   -0.2507 C   0  0  1  0  0  0  0  0  0  0  0  0
    8.9050    0.9308    0.1878 O   0  0  0  0  0  0  0  0  0  0  0  0
    9.1176    0.9335    1.5255 C   0  0  0  0  0  0  0  0  0  0  0  0
   10.0644    1.9337    2.0606 C   0  0  0  0  0  0  0  0  0  0  0  0
   11.0896    2.3011    1.2122 O   0  0  0  0  0  0  0  0  0  0  0  0
  1  2  1  0
  3  2  1  6
  3  4  1  0
  4  5  1  0
  5  6  1  1
  7  6  1  6
  7  8  1  0
  7  9  1  0
  9 10  1  1
 10 11  1  0
 11 12  2  0
 11 13  1  0
 13 14  1  6
 13 15  1  0
 15 16  2  0
 16 17  1  0
 16 18  1  0
 18 19  1  1
 18 20  1  0
 20 21  1  6
 21 22  1  0
 20 23  1  0
 23 24  2  0
 23 25  1  0
 25 26  1  1
 25 27  1  0
 27 28  1  0
 28 29  1  6
 28 30  1  0
 30 31  2  0
 31 32  1  0
 32 33  2  0
 33 34  1  0
 34 35  2  0
 35 36  1  0
 35 37  1  0
 37 38  1  6
 38 39  1  0
 37 40  1  0
 41 40  1  6
 41 42  1  0
 42 43  1  0
 43 44  1  0
 44 45  1  1
 44 46  1  0
 46 47  1  1
 46 48  1  0
 46 49  1  0
 49 50  2  0
 49 51  1  0
 51 52  2  0
 51 53  1  0
 53 54  1  0
 54 55  1  0
 55 56  1  0
 56 57  1  0
 58 57  1  6
 58 59  1  0
 59 60  2  0
 59 61  1  0
  5 62  1  0
 62 63  1  0
 63 64  1  0
 64 65  1  1
 65 66  1  0
 66 67  1  0
 67 68  1  0
 64  3  1  0
 61  9  1  0
 48 41  1  0
 58 53  1  0
M  END
>  <supplier_code>  (1137) 
DB01590

>  <zinc_id>  (1137) 
ZINC000169621230

>  <catalog_short_name>  (1137) 
dbfda

$$$$

     RDKit          3D

 68 71  0  0  0  0  0  0  0  0999 V2000
    6.9832    1.2294    2.2594 C   0  0  0  0  0  0  0  0  0  0  0  0
    6.5471    0.8936    1.5965 O   0  0  0  0  0  0  0  0  0  0  0  0
    7.0807    1.5642    0.3500 C   0  0  2  0  0  0  0  0  0  0  0  0
    6.0941    1.0319   -0.8129 C   0  0  0  0  0  0  0  0  0  0  0  0
    5.1247   -0.1853   -0.4529 C   0  0  2  0  0  0  0  0  0  0  0  0
    4.3679    0.6094    0.7684 C   0  0  0  0  0  0  0  0  0  0  0  0
    3.1973    1.2578   -0.1550 C   0  0  2  0  0  0  0  0  0  0  0  0
    3.0639    2.5389    0.8150 C   0  0  0  0  0  0  0  0  0  0  0  0
    1.8872    0.4371    0.6087 C   0  0  1  0  0  0  0  0  0  0  0  0
    0.9522    0.5528   -0.7360 C   0  0  0  0  0  0  0  0  0  0  0  0
    0.6351    2.0049   -0.8894 C   0  0  0  0  0  0  0  0  0  0  0  0
    1.1363    2.5766   -1.7888 O   0  0  0  0  0  0  0  0  0  0  0  0
   -0.8137    2.4873   -0.3688 C   0  0  2  0  0  0  0  0  0  0  0  0
   -1.3587    2.8932   -1.8663 C   0  0  0  0  0  0  0  0  0  0  0  0
   -0.3010    3.9544    0.0144 C   0  0  0  0  0  0  0  0  0  0  0  0
   -0.7343    5.0606   -0.3144 C   0  0  0  0  0  0  0  0  0  0  0  0
    0.3260    6.1365   -0.4718 C   0  0  0  0  0  0  0  0  0  0  0  0
   -1.9057    5.8543    0.4672 C   0  0  1  0  0  0  0  0  0  0  0  0
   -2.3969    6.4007   -0.8529 O   0  0  0  0  0  0  0  0  0  0  0  0
   -2.9659    4.4943    0.4516 C   0  0  1  0  0  0  0  0  0  0  0  0
   -2.9783    4.4767    1.9635 O   0  0  0  0  0  0  0  0  0  0  0  0
   -3.3947    3.2232    2.3515 C   0  0  0  0  0  0  0  0  0  0  0  0
   -4.3482    5.3319    0.4052 C   0  0  0  0  0  0  0  0  0  0  0  0
   -4.5869    6.0128   -0.5178 O   0  0  0  0  0  0  0  0  0  0  0  0
   -5.3758    4.1446    0.7815 C   0  0  1  0  0  0  0  0  0  0  0  0
   -6.3223    5.1370    1.6771 C   0  0  0  0  0  0  0  0  0  0  0  0
   -6.3560    4.2937   -0.5128 C   0  0  0  0  0  0  0  0  0  0  0  0
   -6.5144    2.7591   -1.0482 C   0  0  1  0  0  0  0  0  0  0  0  0
   -4.9006    2.5341   -1.1881 C   0  0  0  0  0  0  0  0  0  0  0  0
   -6.5683    2.0870    0.4120 C   0  0  0  0  0  0  0  0  0  0  0  0
   -7.1109    0.8834    0.2951 C   0  0  0  0  0  0  0  0  0  0  0  0
   -6.2780   -0.0269   -0.5107 C   0  0  0  0  0  0  0  0  0  0  0  0
   -5.2255   -0.4396    0.1977 C   0  0  0  0  0  0  0  0  0  0  0  0
   -5.3662   -1.7889    0.6727 C   0  0  0  0  0  0  0  0  0  0  0  0
   -5.9670   -2.7954    0.2540 C   0  0  0  0  0  0  0  0  0  0  0  0
   -7.0010   -3.4973    1.1007 C   0  0  0  0  0  0  0  0  0  0  0  0
   -5.1057   -4.0754   -0.2773 C   0  0  1  0  0  0  0  0  0  0  0  0
   -4.3171   -3.2387   -1.2816 O   0  0  0  0  0  0  0  0  0  0  0  0
   -4.4107   -4.1123   -2.3820 C   0  0  0  0  0  0  0  0  0  0  0  0
   -4.0364   -4.0186    0.9721 C   0  0  0  0  0  0  0  0  0  0  0  0
   -3.0136   -2.7856    0.6009 C   0  0  1  0  0  0  0  0  0  0  0  0
   -2.2381   -3.0697    2.0316 C   0  0  0  0  0  0  0  0  0  0  0  0
   -2.0592   -4.4502    2.2851 C   0  0  0  0  0  0  0  0  0  0  0  0
   -1.5715   -5.3127    0.9919 C   0  0  2  0  0  0  0  0  0  0  0  0
   -0.1184   -5.6284    1.6653 C   0  0  0  0  0  0  0  0  0  0  0  0
   -1.0628   -4.0408    0.0652 C   0  0  2  0  0  0  0  0  0  0  0  0
   -0.5221   -3.3816    0.9525 O   0  0  0  0  0  0  0  0  0  0  0  0
   -2.2148   -3.6437   -0.3526 O   0  0  0  0  0  0  0  0  0  0  0  0
   -0.3864   -4.7102   -1.0307 C   0  0  0  0  0  0  0  0  0  0  0  0
   -1.0771   -5.5072   -1.7208 O   0  0  0  0  0  0  0  0  0  0  0  0
    1.0776   -4.6634   -1.2323 C   0  0  0  0  0  0  0  0  0  0  0  0
    1.6171   -5.7620   -1.5839 O   0  0  0  0  0  0  0  0  0  0  0  0
    1.7253   -3.9019   -0.2211 N   0  0  0  0  0  0  0  0  0  0  0  0
    3.0481   -4.1818    0.1406 C   0  0  0  0  0  0  0  0  0  0  0  0
    4.0394   -3.4507   -0.6687 C   0  0  0  0  0  0  0  0  0  0  0  0
    3.4325   -2.4096   -1.4646 C   0  0  0  0  0  0  0  0  0  0  0  0
    2.0768   -2.1689   -1.6631 C   0  0  0  0  0  0  0  0  0  0  0  0
    1.1640   -2.4347   -0.3126 C   0  0  2  0  0  0  0  0  0  0  0  0
    2.2193   -1.9244    0.8167 C   0  0  0  0  0  0  0  0  0  0  0  0
    2.0963   -2.4921    1.9510 O   0  0  0  0  0  0  0  0  0  0  0  0
    2.6312   -0.8541    0.3295 O   0  0  0  0  0  0  0  0  0  0  0  0
    6.2173   -1.0279    0.4287 C   0  0  0  0  0  0  0  0  0  0  0  0
    7.4100   -0.8414   -0.3780 C   0  0  0  0  0  0  0  0  0  0  0  0
    8.3421    0.3778    0.1639 C   0  0  1  0  0  0  0  0  0  0  0  0
    8.5948    0.8713   -1.2411 O   0  0  0  0  0  0  0  0  0  0  0  0
    8.7134    2.2430   -1.1729 C   0  0  0  0  0  0  0  0  0  0  0  0
    9.6239    2.5689   -0.0209 C   0  0  0  0  0  0  0  0  0  0  0  0
    9.4798    3.8987    0.3302 O   0  0  0  0  0  0  0  0  0  0  0  0
  1  2  1  0
  3  2  1  1
  3  4  1  0
  4  5  1  0
  5  6  1  1
  7  6  1  1
  7  8  1  0
  7  9  1  0
  9 10  1  6
 10 11  1  0
 11 12  2  0
 11 13  1  0
 13 14  1  6
 13 15  1  0
 15 16  2  0
 16 17  1  0
 16 18  1  0
 18 19  1  6
 18 20  1  0
 20 21  1  1
 21 22  1  0
 20 23  1  0
 23 24  2  0
 23 25  1  0
 25 26  1  1
 25 27  1  0
 27 28  1  0
 28 29  1  6
 28 30  1  0
 30 31  2  0
 31 32  1  0
 32 33  2  0
 33 34  1  0
 34 35  2  0
 35 36  1  0
 35 37  1  0
 37 38  1  6
 38 39  1  0
 37 40  1  0
 41 40  1  1
 41 42  1  0
 42 43  1  0
 43 44  1  0
 44 45  1  1
 44 46  1  0
 46 47  1  1
 46 48  1  0
 46 49  1  0
 49 50  2  0
 49 51  1  0
 51 52  2  0
 51 53  1  0
 53 54  1  0
 54 55  1  0
 55 56  1  0
 56 57  1  0
 58 57  1  6
 58 59  1  0
 59 60  2  0
 59 61  1  0
  5 62  1  0
 62 63  1  0
 63 64  1  0
 64 65  1  6
 65 66  1  0
 66 67  1  0
 67 68  1  0
 64  3  1  0
 61  9  1  0
 48 41  1  0
 58 53  1  0
M  END
>  <supplier_code>  (1138) 
DB01590

>  <zinc_id>  (1138) 
ZINC000169621231

>  <catalog_short_name>  (1138) 
dbfda

$$$$

     RDKit          3D

 68 71  0  0  0  0  0  0  0  0999 V2000
    5.6686   -1.4360    1.7065 C   0  0  0  0  0  0  0  0  0  0  0  0
    5.8027   -0.8096    0.8184 O   0  0  0  0  0  0  0  0  0  0  0  0
    5.9449    0.6464    1.2057 C   0  0  2  0  0  0  0  0  0  0  0  0
    5.6556    1.4007   -0.1853 C   0  0  0  0  0  0  0  0  0  0  0  0
    5.8612    0.5616   -1.5283 C   0  0  2  0  0  0  0  0  0  0  0  0
    4.5276   -0.3639   -1.2797 C   0  0  0  0  0  0  0  0  0  0  0  0
    3.5264    0.8409   -1.6957 C   0  0  1  0  0  0  0  0  0  0  0  0
    3.2003    0.2294   -3.1576 C   0  0  0  0  0  0  0  0  0  0  0  0
    2.0775    0.2296   -1.0297 C   0  0  2  0  0  0  0  0  0  0  0  0
    1.9192    1.6519   -0.2162 C   0  0  0  0  0  0  0  0  0  0  0  0
    1.6670    2.6612   -1.2970 C   0  0  0  0  0  0  0  0  0  0  0  0
    2.3240    3.6619   -1.2194 O   0  0  0  0  0  0  0  0  0  0  0  0
    0.1210    2.7938   -1.7220 C   0  0  2  0  0  0  0  0  0  0  0  0
    0.4452    3.8185   -2.9597 C   0  0  0  0  0  0  0  0  0  0  0  0
   -0.1544    3.9652   -0.6649 C   0  0  0  0  0  0  0  0  0  0  0  0
   -0.9511    4.9039   -0.8481 C   0  0  0  0  0  0  0  0  0  0  0  0
   -0.8133    6.1556   -0.0360 C   0  0  0  0  0  0  0  0  0  0  0  0
   -2.1985    4.8494   -1.8559 C   0  0  1  0  0  0  0  0  0  0  0  0
   -2.5002    3.4012   -1.5463 O   0  0  0  0  0  0  0  0  0  0  0  0
   -3.2937    5.3736   -0.6304 C   0  0  1  0  0  0  0  0  0  0  0  0
   -3.4320    6.7345   -1.2702 O   0  0  0  0  0  0  0  0  0  0  0  0
   -3.8490    7.4786   -0.1535 C   0  0  0  0  0  0  0  0  0  0  0  0
   -4.5463    4.7448   -1.4096 C   0  0  0  0  0  0  0  0  0  0  0  0
   -4.7770    5.0552   -2.5172 O   0  0  0  0  0  0  0  0  0  0  0  0
   -5.7771    4.4940   -0.4101 C   0  0  2  0  0  0  0  0  0  0  0  0
   -4.8545    3.7326    0.7063 C   0  0  0  0  0  0  0  0  0  0  0  0
   -6.2636    3.1818   -1.2464 C   0  0  0  0  0  0  0  0  0  0  0  0
   -5.8782    1.9146   -0.3070 C   0  0  2  0  0  0  0  0  0  0  0  0
   -4.5581    1.5775   -1.2158 C   0  0  0  0  0  0  0  0  0  0  0  0
   -6.8092    0.9094   -1.1389 C   0  0  0  0  0  0  0  0  0  0  0  0
   -6.4007   -0.3269   -1.2319 C   0  0  0  0  0  0  0  0  0  0  0  0
   -6.6009   -1.3167   -0.1648 C   0  0  0  0  0  0  0  0  0  0  0  0
   -6.2810   -0.8505    1.0447 C   0  0  0  0  0  0  0  0  0  0  0  0
   -4.9077   -1.0477    1.5340 C   0  0  0  0  0  0  0  0  0  0  0  0
   -4.0680   -1.9190    1.0390 C   0  0  0  0  0  0  0  0  0  0  0  0
   -2.7145   -1.3467    0.6734 C   0  0  0  0  0  0  0  0  0  0  0  0
   -3.6293   -3.1371    2.0221 C   0  0  1  0  0  0  0  0  0  0  0  0
   -5.0037   -3.2675    2.6612 O   0  0  0  0  0  0  0  0  0  0  0  0
   -4.9766   -4.5357    3.2460 C   0  0  0  0  0  0  0  0  0  0  0  0
   -4.0169   -4.2731    0.8960 C   0  0  0  0  0  0  0  0  0  0  0  0
   -2.8029   -4.0587   -0.1949 C   0  0  2  0  0  0  0  0  0  0  0  0
   -3.0203   -5.5941   -0.7541 C   0  0  0  0  0  0  0  0  0  0  0  0
   -1.7934   -5.9821   -1.4795 C   0  0  0  0  0  0  0  0  0  0  0  0
   -0.6419   -6.1352   -0.3400 C   0  0  1  0  0  0  0  0  0  0  0  0
    0.5754   -6.1102   -1.4241 C   0  0  0  0  0  0  0  0  0  0  0  0
   -0.5332   -4.5349    0.0534 C   0  0  1  0  0  0  0  0  0  0  0  0
   -0.5268   -4.0527   -1.1440 O   0  0  0  0  0  0  0  0  0  0  0  0
   -1.7362   -4.4919    0.7896 O   0  0  0  0  0  0  0  0  0  0  0  0
    0.5149   -4.6822    1.0482 C   0  0  0  0  0  0  0  0  0  0  0  0
    0.7608   -5.7885    1.6517 O   0  0  0  0  0  0  0  0  0  0  0  0
    0.8191   -3.5988    2.0061 C   0  0  0  0  0  0  0  0  0  0  0  0
    1.0826   -3.7593    3.2188 O   0  0  0  0  0  0  0  0  0  0  0  0
    0.5367   -2.2920    1.5898 N   0  0  0  0  0  0  0  0  0  0  0  0
    0.6133   -1.0933    2.3318 C   0  0  0  0  0  0  0  0  0  0  0  0
   -0.6990   -0.3475    2.1123 C   0  0  0  0  0  0  0  0  0  0  0  0
   -1.1054   -0.7059    0.6843 C   0  0  0  0  0  0  0  0  0  0  0  0
    0.1439   -0.7400   -0.1097 C   0  0  0  0  0  0  0  0  0  0  0  0
    0.8222   -2.2246    0.0422 C   0  0  1  0  0  0  0  0  0  0  0  0
    2.3360   -1.7384    0.2918 C   0  0  0  0  0  0  0  0  0  0  0  0
    3.0709   -2.6890    0.6989 O   0  0  0  0  0  0  0  0  0  0  0  0
    2.6860   -0.4700    0.1791 O   0  0  0  0  0  0  0  0  0  0  0  0
    6.9752   -0.5254   -1.0171 C   0  0  0  0  0  0  0  0  0  0  0  0
    7.8775    0.4275   -0.4504 C   0  0  0  0  0  0  0  0  0  0  0  0
    7.6785    0.6872    1.1369 C   0  0  1  0  0  0  0  0  0  0  0  0
    7.6671    2.1850    0.9334 O   0  0  0  0  0  0  0  0  0  0  0  0
    8.7967    2.7038    1.4873 C   0  0  0  0  0  0  0  0  0  0  0  0
    9.8222    1.6155    1.6067 C   0  0  0  0  0  0  0  0  0  0  0  0
   10.5939    1.6583    0.4358 O   0  0  0  0  0  0  0  0  0  0  0  0
  1  2  1  0
  3  2  1  6
  3  4  1  0
  4  5  1  0
  5  6  1  1
  7  6  1  1
  7  8  1  0
  7  9  1  0
  9 10  1  1
 10 11  1  0
 11 12  2  0
 11 13  1  0
 13 14  1  6
 13 15  1  0
 15 16  2  0
 16 17  1  0
 16 18  1  0
 18 19  1  1
 18 20  1  0
 20 21  1  6
 21 22  1  0
 20 23  1  0
 23 24  2  0
 23 25  1  0
 25 26  1  1
 25 27  1  0
 27 28  1  0
 28 29  1  6
 28 30  1  0
 30 31  2  0
 31 32  1  0
 32 33  2  0
 33 34  1  0
 34 35  2  0
 35 36  1  0
 35 37  1  0
 37 38  1  1
 38 39  1  0
 37 40  1  0
 41 40  1  1
 41 42  1  0
 42 43  1  0
 43 44  1  0
 44 45  1  6
 44 46  1  0
 46 47  1  6
 46 48  1  0
 46 49  1  0
 49 50  2  0
 49 51  1  0
 51 52  2  0
 51 53  1  0
 53 54  1  0
 54 55  1  0
 55 56  1  0
 56 57  1  0
 58 57  1  6
 58 59  1  0
 59 60  2  0
 59 61  1  0
  5 62  1  0
 62 63  1  0
 63 64  1  0
 64 65  1  6
 65 66  1  0
 66 67  1  0
 67 68  1  0
 64  3  1  0
 61  9  1  0
 48 41  1  0
 58 53  1  0
M  END
>  <supplier_code>  (1139) 
DB01590

>  <zinc_id>  (1139) 
ZINC000169677008

>  <catalog_short_name>  (1139) 
dbfda

$$$$

     RDKit          3D

 27 31  0  0  0  0  0  0  0  0999 V2000
    0.8802    0.3728    1.4958 O   0  0  0  0  0  0  0  0  0  0  0  0
    0.6849    0.7078    0.5933 C   0  0  0  0  0  0  0  0  0  0  0  0
    1.8626    0.9924   -0.1065 O   0  0  0  0  0  0  0  0  0  0  0  0
    3.0820    1.2281    0.8438 C   0  0  1  0  0  0  0  0  0  0  0  0
    3.2505   -0.4123    1.1129 C   0  0  0  0  0  0  0  0  0  0  0  0
    4.6593   -0.6741    1.0218 N   0  0  0  0  0  0  0  0  0  0  0  0
    4.8683   -1.0311   -0.3843 C   0  0  0  0  0  0  0  0  0  0  0  0
    3.9487   -0.0689   -1.1376 C   0  0  0  0  0  0  0  0  0  0  0  0
    4.1383    1.2436   -0.4488 C   0  0  0  0  0  0  0  0  0  0  0  0
    5.4794    1.4018    0.2192 C   0  0  0  0  0  0  0  0  0  0  0  0
    5.4702    0.4586    1.4141 C   0  0  0  0  0  0  0  0  0  0  0  0
   -0.3848    0.0885   -0.1489 N   0  0  0  0  0  0  0  0  0  0  0  0
    0.0782   -1.0716   -0.8712 C   0  0  0  0  0  0  0  0  0  0  0  0
   -0.1553   -2.3402   -0.0984 C   0  0  0  0  0  0  0  0  0  0  0  0
   -1.6418   -2.4517    0.0531 C   0  0  0  0  0  0  0  0  0  0  0  0
   -2.3176   -3.5874   -0.3830 C   0  0  0  0  0  0  0  0  0  0  0  0
   -3.6169   -3.4827   -0.8692 C   0  0  0  0  0  0  0  0  0  0  0  0
   -4.3471   -2.3562   -0.5078 C   0  0  0  0  0  0  0  0  0  0  0  0
   -3.6910   -1.3919    0.2523 C   0  0  0  0  0  0  0  0  0  0  0  0
   -2.3418   -1.2511   -0.0805 C   0  0  0  0  0  0  0  0  0  0  0  0
   -1.5696   -0.1795    0.8994 C   0  0  2  0  0  0  0  0  0  0  0  0
   -2.4684    1.0660    0.3129 C   0  0  0  0  0  0  0  0  0  0  0  0
   -3.6354    1.1756    1.0691 C   0  0  0  0  0  0  0  0  0  0  0  0
   -4.3811    2.3462    1.0038 C   0  0  0  0  0  0  0  0  0  0  0  0
   -3.7324    3.4993    0.5780 C   0  0  0  0  0  0  0  0  0  0  0  0
   -2.3586    3.4691    0.3728 C   0  0  0  0  0  0  0  0  0  0  0  0
   -1.7608    2.2488    0.2231 C   0  0  0  0  0  0  0  0  0  0  0  0
  1  2  2  0
  2  3  1  0
  4  3  1  6
  4  5  1  0
  5  6  1  0
  6  7  1  0
  7  8  1  0
  8  9  1  0
  9 10  1  0
 10 11  1  0
  2 12  1  0
 12 13  1  0
 13 14  1  0
 14 15  1  0
 15 16  2  0
 16 17  1  0
 17 18  2  0
 18 19  1  0
 19 20  2  0
 20 21  1  0
 21 22  1  6
 22 23  2  0
 23 24  1  0
 24 25  2  0
 25 26  1  0
 26 27  2  0
  9  4  1  0
 21 12  1  0
 27 22  1  0
 11  6  1  0
 20 15  1  0
M  END
>  <supplier_code>  (1140) 
DB01591

>  <zinc_id>  (1140) 
ZINC000003936683

>  <catalog_short_name>  (1140) 
dbfda

$$$$

     RDKit          3D

 24 24  0  0  0  0  0  0  0  0999 V2000
   -6.0952    1.7440   -0.6230 C   0  0  0  0  0  0  0  0  0  0  0  0
   -5.4898    1.4846   -0.2652 C   0  0  0  0  0  0  0  0  0  0  0  0
   -4.5256    2.2769    0.4451 C   0  0  0  0  0  0  0  0  0  0  0  0
   -5.8103    0.0821    0.5971 C   0  0  0  0  0  0  0  0  0  0  0  0
   -5.0214    0.0013   -0.8848 C   0  0  2  0  0  0  0  0  0  0  0  0
   -3.4969   -0.0146   -0.2090 C   0  0  0  0  0  0  0  0  0  0  0  0
   -2.7782    0.8878   -0.7238 O   0  0  0  0  0  0  0  0  0  0  0  0
   -2.8819   -1.3014   -0.4135 N   0  0  0  0  0  0  0  0  0  0  0  0
   -1.8243   -1.4851    0.5302 C   0  0  0  0  0  0  0  0  0  0  0  0
   -0.5646   -1.3170    0.2501 C   0  0  0  0  0  0  0  0  0  0  0  0
   -0.1292   -1.3679   -1.1686 C   0  0  0  0  0  0  0  0  0  0  0  0
    1.3725   -1.0929   -1.1113 C   0  0  0  0  0  0  0  0  0  0  0  0
    1.6118   -0.0648   -0.0120 C   0  0  0  0  0  0  0  0  0  0  0  0
    2.4869    1.0728   -0.4827 C   0  0  0  0  0  0  0  0  0  0  0  0
    3.7025    1.3835    0.8354 S   0  0  0  0  0  0  0  0  0  0  0  0
    4.8758    0.0240    0.8917 C   0  0  0  0  0  0  0  0  0  0  0  0
    5.3694   -0.1423   -0.6867 C   0  0  2  0  0  0  0  0  0  0  0  0
    6.5892   -1.0760   -0.2628 N   0  0  0  0  0  0  0  0  0  0  0  0
    6.2742    1.2105   -0.6359 C   0  0  0  0  0  0  0  0  0  0  0  0
    6.9985    1.3531    0.3526 O   0  0  0  0  0  0  0  0  0  0  0  0
    5.6303    2.3072   -1.2134 O   0  0  0  0  0  0  0  0  0  0  0  0
   -2.1895   -1.8114    1.9113 C   0  0  0  0  0  0  0  0  0  0  0  0
   -1.8804   -0.9834    2.8106 O   0  0  0  0  0  0  0  0  0  0  0  0
   -2.2240   -3.1710    2.2330 O   0  0  0  0  0  0  0  0  0  0  0  0
  1  2  1  0
  2  3  1  0
  2  4  1  0
  4  5  1  0
  5  6  1  1
  6  7  2  0
  6  8  1  0
  8  9  1  0
  9 10  2  0
 10 11  1  0
 11 12  1  0
 12 13  1  0
 13 14  1  0
 14 15  1  0
 15 16  1  0
 17 16  1  1
 17 18  1  0
 17 19  1  0
 19 20  2  0
 19 21  1  0
  9 22  1  0
 22 23  2  0
 22 24  1  0
  5  2  1  0
M  END
>  <supplier_code>  (1141) 
DB01597

>  <zinc_id>  (1141) 
ZINC000004095696

>  <catalog_short_name>  (1141) 
dbfda

$$$$

     RDKit          3D

 20 21  0  0  0  0  0  0  0  0999 V2000
   -2.9744    1.4522    2.5513 C   0  0  0  0  0  0  0  0  0  0  0  0
   -3.6191    0.3752    1.4990 C   0  0  1  0  0  0  0  0  0  0  0  0
   -4.8305    1.2548    1.3016 O   0  0  0  0  0  0  0  0  0  0  0  0
   -2.8804    1.0202    0.0938 C   0  0  1  0  0  0  0  0  0  0  0  0
   -1.4654    1.1814    0.7462 C   0  0  0  0  0  0  0  0  0  0  0  0
   -0.8838    2.1897    1.1505 O   0  0  0  0  0  0  0  0  0  0  0  0
   -1.1385   -0.2143    0.6053 N   0  0  0  0  0  0  0  0  0  0  0  0
   -0.1923   -1.1182   -0.0133 C   0  0  0  0  0  0  0  0  0  0  0  0
    0.7180   -1.8694    0.8181 C   0  0  0  0  0  0  0  0  0  0  0  0
    1.9194   -1.5363    1.0534 O   0  0  0  0  0  0  0  0  0  0  0  0
    0.3751   -3.0372    1.5139 O   0  0  0  0  0  0  0  0  0  0  0  0
   -0.2682   -1.0291   -1.3481 C   0  0  0  0  0  0  0  0  0  0  0  0
    1.0131   -1.4804   -2.4755 S   0  0  0  0  0  0  0  0  0  0  0  0
    2.6192   -0.8615   -2.2280 C   0  0  0  0  0  0  0  0  0  0  0  0
    2.8269    0.5294   -1.7179 C   0  0  0  0  0  0  0  0  0  0  0  0
    3.3722    0.3789   -0.3824 N   0  0  0  0  0  0  0  0  0  0  0  0
    4.5543    1.0234    0.0535 C   0  0  0  0  0  0  0  0  0  0  0  0
    4.5655    2.2864   -0.2607 N   0  0  0  0  0  0  0  0  0  0  0  0
   -1.3818   -0.0368   -1.6017 C   0  0  0  0  0  0  0  0  0  0  0  0
   -2.3293   -0.5084   -0.3513 C   0  0  2  0  0  0  0  0  0  0  0  0
  2  1  1  1
  2  3  1  0
  2  4  1  0
  4  5  1  1
  5  6  2  0
  5  7  1  0
  7  8  1  0
  8  9  1  0
  9 10  2  0
  9 11  1  0
  8 12  2  0
 12 13  1  0
 13 14  1  0
 14 15  1  0
 15 16  1  0
 16 17  1  0
 17 18  2  0
 12 19  1  0
 20 19  1  6
 20  4  1  0
 20  7  1  0
M  END
>  <supplier_code>  (1142) 
DB01598

>  <zinc_id>  (1142) 
ZINC000004097225

>  <catalog_short_name>  (1142) 
dbfda

$$$$

     RDKit          3D

 46 49  0  0  0  0  0  0  0  0999 V2000
    5.5142   -1.1177    0.6244 C   0  0  0  0  0  0  0  0  0  0  0  0
    6.3155   -0.3483    0.0230 C   0  0  0  0  0  0  0  0  0  0  0  0
    7.1001   -0.7752   -1.0433 C   0  0  0  0  0  0  0  0  0  0  0  0
    8.1660   -0.0353   -1.5188 C   0  0  0  0  0  0  0  0  0  0  0  0
    8.3740    1.2424   -1.0334 C   0  0  0  0  0  0  0  0  0  0  0  0
    7.4228    1.8012   -0.1988 C   0  0  0  0  0  0  0  0  0  0  0  0
    7.6865    3.1517    0.3027 C   0  0  0  0  0  0  0  0  0  0  0  0
    6.3819    1.0171    0.2840 C   0  0  0  0  0  0  0  0  0  0  0  0
    5.4737    1.5751    1.1880 O   0  0  0  0  0  0  0  0  0  0  0  0
    4.7880    2.7771    0.9734 C   0  0  0  0  0  0  0  0  0  0  0  0
    3.3441    2.5148    0.7001 C   0  0  0  0  0  0  0  0  0  0  0  0
    2.5916    3.5098    0.5755 O   0  0  0  0  0  0  0  0  0  0  0  0
    2.7524    1.2761    1.0055 N   0  0  0  0  0  0  0  0  0  0  0  0
    1.4363    1.0087    0.2133 C   0  0  1  0  0  0  0  0  0  0  0  0
    2.2049    0.2732   -1.0107 C   0  0  0  0  0  0  0  0  0  0  0  0
    2.1535   -1.1662   -0.9144 C   0  0  0  0  0  0  0  0  0  0  0  0
    3.2134   -1.7584   -0.2311 C   0  0  0  0  0  0  0  0  0  0  0  0
    3.6548   -3.0401   -0.5088 C   0  0  0  0  0  0  0  0  0  0  0  0
    2.8008   -3.8530   -1.2436 C   0  0  0  0  0  0  0  0  0  0  0  0
    1.8327   -3.2798   -2.0521 C   0  0  0  0  0  0  0  0  0  0  0  0
    1.7666   -1.8906   -2.0418 C   0  0  0  0  0  0  0  0  0  0  0  0
    1.1352   -0.4056    1.1405 C   0  0  1  0  0  0  0  0  0  0  0  0
    0.5278    0.4262    2.2438 O   0  0  0  0  0  0  0  0  0  0  0  0
   -0.2202   -0.6686    0.2770 C   0  0  0  0  0  0  0  0  0  0  0  0
   -1.4576   -0.2173    1.2326 C   0  0  2  0  0  0  0  0  0  0  0  0
   -2.0603   -1.7334    1.2825 C   0  0  0  0  0  0  0  0  0  0  0  0
   -2.4767   -2.1829   -0.0189 C   0  0  0  0  0  0  0  0  0  0  0  0
   -1.8988   -2.0179   -1.2462 C   0  0  0  0  0  0  0  0  0  0  0  0
   -2.3096   -2.6032   -2.4090 C   0  0  0  0  0  0  0  0  0  0  0  0
   -3.1974   -3.6655   -2.3030 C   0  0  0  0  0  0  0  0  0  0  0  0
   -3.5702   -4.0833   -1.0353 C   0  0  0  0  0  0  0  0  0  0  0  0
   -3.2331   -3.3519    0.0714 C   0  0  0  0  0  0  0  0  0  0  0  0
   -2.3206    0.2292   -0.0040 N   0  0  0  0  0  0  0  0  0  0  0  0
   -3.4288    0.9948    0.3233 C   0  0  0  0  0  0  0  0  0  0  0  0
   -3.3781    1.8997    1.1367 O   0  0  0  0  0  0  0  0  0  0  0  0
   -4.7543    0.7890   -0.5671 C   0  0  2  0  0  0  0  0  0  0  0  0
   -4.9000    2.3942   -0.9028 C   0  0  0  0  0  0  0  0  0  0  0  0
   -3.5337    2.8656   -1.3123 C   0  0  0  0  0  0  0  0  0  0  0  0
   -5.7169    2.2979   -2.1916 C   0  0  0  0  0  0  0  0  0  0  0  0
   -5.6725    0.7739    0.7074 N   0  0  0  0  0  0  0  0  0  0  0  0
   -6.1240   -0.5937    0.9543 C   0  0  0  0  0  0  0  0  0  0  0  0
   -7.5882   -0.6309    0.5426 C   0  0  0  0  0  0  0  0  0  0  0  0
   -8.4341    0.3123    1.3459 C   0  0  0  0  0  0  0  0  0  0  0  0
   -7.7184    1.5246    1.7352 N   0  0  0  0  0  0  0  0  0  0  0  0
   -6.5512    1.8098    0.9583 C   0  0  0  0  0  0  0  0  0  0  0  0
   -6.0925    2.9547    0.7703 O   0  0  0  0  0  0  0  0  0  0  0  0
  1  2  1  0
  2  3  2  0
  3  4  1  0
  4  5  2  0
  5  6  1  0
  6  7  1  0
  6  8  2  0
  8  9  1  0
  9 10  1  0
 10 11  1  0
 11 12  2  0
 11 13  1  0
 14 13  1  1
 14 15  1  0
 15 16  1  0
 16 17  2  0
 17 18  1  0
 18 19  2  0
 19 20  1  0
 20 21  2  0
 14 22  1  0
 22 23  1  1
 22 24  1  0
 25 24  1  6
 25 26  1  0
 26 27  1  0
 27 28  2  0
 28 29  1  0
 29 30  2  0
 30 31  1  0
 31 32  2  0
 25 33  1  0
 33 34  1  0
 34 35  2  0
 36 34  1  1
 36 37  1  0
 37 38  1  0
 37 39  1  0
 36 40  1  0
 40 41  1  0
 41 42  1  0
 42 43  1  0
 43 44  1  0
 44 45  1  0
 45 46  2  0
  8  2  1  0
 21 16  1  0
 32 27  1  0
 45 40  1  0
M  END
>  <supplier_code>  (1143) 
DB01601

>  <zinc_id>  (1143) 
ZINC000003951740

>  <catalog_short_name>  (1143) 
dbfda

$$$$

     RDKit          3D

 20 22  0  0  0  0  0  0  0  0999 V2000
    0.8508    2.0280   -0.0008 C   0  0  0  0  0  0  0  0  0  0  0  0
    0.2448    0.6598    0.0315 C   0  0  2  0  0  0  0  0  0  0  0  0
    1.1156   -0.3970   -0.5677 C   0  0  0  0  0  0  0  0  0  0  0  0
    2.5391   -0.2143   -0.2884 N   0  0  0  0  0  0  0  0  0  0  0  0
    3.2272   -1.2269    0.2986 C   0  0  0  0  0  0  0  0  0  0  0  0
    4.4564   -1.3349   -0.3316 C   0  0  0  0  0  0  0  0  0  0  0  0
    4.6258   -0.1353   -0.9389 N   0  0  0  0  0  0  0  0  0  0  0  0
    3.3955    0.2673   -1.1905 N   0  0  0  0  0  0  0  0  0  0  0  0
   -0.9838    0.7053   -1.1086 C   0  0  2  0  0  0  0  0  0  0  0  0
   -1.9867    1.6165   -0.1684 C   0  0  0  0  0  0  0  0  0  0  0  0
   -3.1276    1.4775   -0.7214 O   0  0  0  0  0  0  0  0  0  0  0  0
   -1.5218    2.9324   -0.2982 O   0  0  0  0  0  0  0  0  0  0  0  0
   -1.5459   -0.7005   -0.6446 N   0  0  0  0  0  0  0  0  0  0  0  0
   -2.2563   -1.8793   -0.5263 C   0  0  0  0  0  0  0  0  0  0  0  0
   -3.1963   -2.3404   -1.2457 O   0  0  0  0  0  0  0  0  0  0  0  0
   -1.9798   -1.9701    0.9491 C   0  0  0  0  0  0  0  0  0  0  0  0
   -2.2073   -0.3917    0.7066 C   0  0  1  0  0  0  0  0  0  0  0  0
   -0.5758    0.2208    1.4543 S   0  0  0  0  0  0  0  0  0  0  0  0
   -1.0355    1.4332    2.2200 O   0  0  0  0  0  0  0  0  0  0  0  0
   -0.0383   -0.7504    2.3709 O   0  0  0  0  0  0  0  0  0  0  0  0
  2  1  1  1
  2  3  1  0
  3  4  1  0
  4  5  1  0
  5  6  2  0
  6  7  1  0
  7  8  2  0
  2  9  1  0
  9 10  1  1
 10 11  2  0
 10 12  1  0
  9 13  1  0
 13 14  1  0
 14 15  2  0
 14 16  1  0
 17 16  1  1
 17 18  1  0
 18 19  2  0
 18 20  2  0
 18  2  1  0
  8  4  1  0
 17 13  1  0
M  END
>  <supplier_code>  (1144) 
DB01606

>  <zinc_id>  (1144) 
ZINC000003787060

>  <catalog_short_name>  (1144) 
dbfda

$$$$

     RDKit          3D

 28 31  0  0  0  0  0  0  0  0999 V2000
    5.2482   -0.0477    0.8595 O   0  0  0  0  0  0  0  0  0  0  0  0
    5.2283   -1.1207    0.1824 C   0  0  0  0  0  0  0  0  0  0  0  0
    6.1691   -2.0701    0.5936 O   0  0  0  0  0  0  0  0  0  0  0  0
    3.8893   -1.5773   -0.2154 C   0  0  0  0  0  0  0  0  0  0  0  0
    3.2742   -1.0981   -1.3658 C   0  0  0  0  0  0  0  0  0  0  0  0
    1.8909   -1.0280   -1.4815 C   0  0  0  0  0  0  0  0  0  0  0  0
    1.1519   -1.1045   -0.3067 C   0  0  0  0  0  0  0  0  0  0  0  0
   -0.1096   -0.4748   -0.1494 N   0  0  0  0  0  0  0  0  0  0  0  0
   -1.2592   -1.0323    0.2271 N   0  0  0  0  0  0  0  0  0  0  0  0
   -2.2243   -0.2492   -0.3140 C   0  0  0  0  0  0  0  0  0  0  0  0
   -3.6434   -0.5711   -0.1095 C   0  0  0  0  0  0  0  0  0  0  0  0
   -4.1931   -0.1331    1.0895 C   0  0  0  0  0  0  0  0  0  0  0  0
   -5.3687   -0.6985    1.5614 C   0  0  0  0  0  0  0  0  0  0  0  0
   -5.9830   -1.6674    0.7807 C   0  0  0  0  0  0  0  0  0  0  0  0
   -5.2953   -2.2801   -0.2496 C   0  0  0  0  0  0  0  0  0  0  0  0
   -4.0170   -1.8449   -0.5210 C   0  0  0  0  0  0  0  0  0  0  0  0
   -3.1208   -2.6963   -1.1723 O   0  0  0  0  0  0  0  0  0  0  0  0
   -1.6554    0.9608   -0.4821 N   0  0  0  0  0  0  0  0  0  0  0  0
   -0.3177    0.8568   -0.2912 C   0  0  0  0  0  0  0  0  0  0  0  0
    0.6198    1.9251    0.0784 C   0  0  0  0  0  0  0  0  0  0  0  0
    1.3881    2.4738   -0.9315 C   0  0  0  0  0  0  0  0  0  0  0  0
    2.0701    3.6700   -0.7455 C   0  0  0  0  0  0  0  0  0  0  0  0
    1.4859    4.5903    0.1041 C   0  0  0  0  0  0  0  0  0  0  0  0
    0.7226    4.0694    1.1403 C   0  0  0  0  0  0  0  0  0  0  0  0
    0.2715    2.7557    1.1346 C   0  0  0  0  0  0  0  0  0  0  0  0
   -0.9079    2.5131    1.8459 O   0  0  0  0  0  0  0  0  0  0  0  0
    1.6531   -1.9881    0.6419 C   0  0  0  0  0  0  0  0  0  0  0  0
    3.0324   -2.1329    0.7266 C   0  0  0  0  0  0  0  0  0  0  0  0
  1  2  2  0
  2  3  1  0
  2  4  1  0
  4  5  2  0
  5  6  1  0
  6  7  2  0
  7  8  1  0
  8  9  1  0
  9 10  2  0
 10 11  1  0
 11 12  2  0
 12 13  1  0
 13 14  2  0
 14 15  1  0
 15 16  2  0
 16 17  1  0
 10 18  1  0
 18 19  2  0
 19 20  1  0
 20 21  2  0
 21 22  1  0
 22 23  2  0
 23 24  1  0
 24 25  2  0
 25 26  1  0
  7 27  1  0
 27 28  2  0
 28  4  1  0
 19  8  1  0
 25 20  1  0
 16 11  1  0
M  END
>  <supplier_code>  (1145) 
DB01609

>  <zinc_id>  (1145) 
ZINC000001481815

>  <catalog_short_name>  (1145) 
dbfda

$$$$

     RDKit          3D

 25 26  0  0  0  0  0  0  0  0999 V2000
    4.4889    2.1641   -0.6654 C   0  0  0  0  0  0  0  0  0  0  0  0
    5.4333    1.1626   -0.4184 C   0  0  0  0  0  0  0  0  0  0  0  0
    6.6425    1.7960    0.1906 C   0  0  0  0  0  0  0  0  0  0  0  0
    4.8361    0.3160    0.8604 C   0  0  2  0  0  0  0  0  0  0  0  0
    5.8301   -0.8828    0.6182 N   0  0  0  0  0  0  0  0  0  0  0  0
    3.6700   -0.3664   -0.0190 C   0  0  0  0  0  0  0  0  0  0  0  0
    3.9868   -0.8260   -1.1358 O   0  0  0  0  0  0  0  0  0  0  0  0
    2.5145    0.4070    0.1457 O   0  0  0  0  0  0  0  0  0  0  0  0
    1.5987    0.5978   -0.8989 C   0  0  0  0  0  0  0  0  0  0  0  0
    1.4941   -0.8517   -1.6788 C   0  0  1  0  0  0  0  0  0  0  0  0
    1.2601   -1.6853   -0.2731 C   0  0  0  0  0  0  0  0  0  0  0  0
    1.3665   -3.0247   -0.6355 O   0  0  0  0  0  0  0  0  0  0  0  0
    0.0048   -0.7341   -1.9276 O   0  0  0  0  0  0  0  0  0  0  0  0
   -0.5690    0.1353   -1.0832 C   0  0  0  0  0  0  0  0  0  0  0  0
   -1.7487   -0.3338   -0.4083 N   0  0  0  0  0  0  0  0  0  0  0  0
   -1.6890   -1.2122    0.6237 C   0  0  0  0  0  0  0  0  0  0  0  0
   -2.9238   -1.7059    0.7243 N   0  0  0  0  0  0  0  0  0  0  0  0
   -3.7338   -0.6866    0.3751 C   0  0  0  0  0  0  0  0  0  0  0  0
   -2.9973    0.1318   -0.4399 C   0  0  0  0  0  0  0  0  0  0  0  0
   -3.4764    1.3385   -0.7945 N   0  0  0  0  0  0  0  0  0  0  0  0
   -4.7135    1.6996   -0.3791 C   0  0  0  0  0  0  0  0  0  0  0  0
   -5.2304    2.9638   -0.7362 N   0  0  0  0  0  0  0  0  0  0  0  0
   -5.4545    0.9257    0.4503 N   0  0  0  0  0  0  0  0  0  0  0  0
   -4.9757   -0.2761    0.8447 C   0  0  0  0  0  0  0  0  0  0  0  0
   -5.6144   -1.0526    1.5947 O   0  0  0  0  0  0  0  0  0  0  0  0
  1  2  1  0
  2  3  1  0
  4  2  1  6
  4  5  1  0
  4  6  1  0
  6  7  2  0
  6  8  1  0
  8  9  1  0
 10  9  1  1
 10 11  1  0
 11 12  1  0
 10 13  1  0
 13 14  1  0
 14 15  1  0
 15 16  1  0
 16 17  2  0
 17 18  1  0
 18 19  2  0
 19 20  1  0
 20 21  2  0
 21 22  1  0
 21 23  1  0
 23 24  1  0
 24 25  2  0
 19 15  1  0
 24 18  1  0
M  END
>  <supplier_code>  (1146) 
DB01610

>  <zinc_id>  (1146) 
ZINC000001543916

>  <catalog_short_name>  (1146) 
dbfda

$$$$

     RDKit          3D

 25 26  0  0  0  0  0  0  0  0999 V2000
    6.2628    0.8053   -0.9638 C   0  0  0  0  0  0  0  0  0  0  0  0
    5.5057    0.3763   -0.8786 C   0  0  0  0  0  0  0  0  0  0  0  0
    4.8114    1.5217   -0.1494 C   0  0  0  0  0  0  0  0  0  0  0  0
    5.7843   -0.7735    0.2677 C   0  0  2  0  0  0  0  0  0  0  0  0
    5.6552   -1.9461   -0.7829 N   0  0  0  0  0  0  0  0  0  0  0  0
    4.2393   -0.8733    0.7131 C   0  0  0  0  0  0  0  0  0  0  0  0
    4.1761   -1.4847    1.8233 O   0  0  0  0  0  0  0  0  0  0  0  0
    3.2648   -0.9116   -0.2120 O   0  0  0  0  0  0  0  0  0  0  0  0
    1.9821   -1.4538    0.1177 C   0  0  0  0  0  0  0  0  0  0  0  0
    0.9393   -0.5999   -0.8411 C   0  0  2  0  0  0  0  0  0  0  0  0
    1.2010    0.8263   -0.0624 C   0  0  0  0  0  0  0  0  0  0  0  0
    1.5733    0.6016    1.2131 O   0  0  0  0  0  0  0  0  0  0  0  0
   -0.2569   -0.9954    0.0028 O   0  0  0  0  0  0  0  0  0  0  0  0
   -0.7498    0.0003    0.6984 C   0  0  0  0  0  0  0  0  0  0  0  0
   -1.8266    0.7858    0.2326 N   0  0  0  0  0  0  0  0  0  0  0  0
   -2.0187    2.0813    0.5856 C   0  0  0  0  0  0  0  0  0  0  0  0
   -3.2662    2.4191    0.2653 N   0  0  0  0  0  0  0  0  0  0  0  0
   -3.9359    1.3473   -0.1988 C   0  0  0  0  0  0  0  0  0  0  0  0
   -3.0200    0.3223   -0.1405 C   0  0  0  0  0  0  0  0  0  0  0  0
   -3.4404   -0.9481   -0.2639 N   0  0  0  0  0  0  0  0  0  0  0  0
   -4.7505   -1.2520   -0.2905 C   0  0  0  0  0  0  0  0  0  0  0  0
   -5.1955   -2.5898   -0.0912 N   0  0  0  0  0  0  0  0  0  0  0  0
   -5.5832   -0.2457   -0.5859 N   0  0  0  0  0  0  0  0  0  0  0  0
   -5.2538    1.0496   -0.4752 C   0  0  0  0  0  0  0  0  0  0  0  0
   -6.0979    1.9368   -0.1474 O   0  0  0  0  0  0  0  0  0  0  0  0
  1  2  1  0
  2  3  1  0
  4  2  1  6
  4  5  1  0
  4  6  1  0
  6  7  2  0
  6  8  1  0
  8  9  1  0
 10  9  1  1
 10 11  1  0
 11 12  1  0
 10 13  1  0
 13 14  1  0
 14 15  1  0
 15 16  1  0
 16 17  2  0
 17 18  1  0
 18 19  2  0
 19 20  1  0
 20 21  2  0
 21 22  1  0
 21 23  1  0
 23 24  1  0
 24 25  2  0
 19 15  1  0
 24 18  1  0
M  END
>  <supplier_code>  (1147) 
DB01610

>  <zinc_id>  (1147) 
ZINC000001995484

>  <catalog_short_name>  (1147) 
dbfda

$$$$

     RDKit          3D

 23 24  0  0  0  0  0  0  0  0999 V2000
    3.3812   -2.2012   -0.1130 C   0  0  0  0  0  0  0  0  0  0  0  0
    3.8199   -1.1761    0.2261 C   0  0  0  0  0  0  0  0  0  0  0  0
    4.2026   -0.3101   -0.8595 N   0  0  0  0  0  0  0  0  0  0  0  0
    5.2092    0.6368   -0.3829 C   0  0  0  0  0  0  0  0  0  0  0  0
    6.2535   -0.2013    0.3325 C   0  0  0  0  0  0  0  0  0  0  0  0
    7.3114    0.5480    0.8102 O   0  0  0  0  0  0  0  0  0  0  0  0
    3.0833    0.4739   -1.3408 C   0  0  0  0  0  0  0  0  0  0  0  0
    1.7553   -0.0473   -0.9279 C   0  0  0  0  0  0  0  0  0  0  0  0
    1.3308    0.2118    0.4616 C   0  0  0  0  0  0  0  0  0  0  0  0
    0.2944    1.5189    0.4095 C   0  0  1  0  0  0  0  0  0  0  0  0
    1.3841    2.4095   -0.4888 C   0  0  0  0  0  0  0  0  0  0  0  0
   -0.4299    0.9853   -0.9130 N   0  0  0  0  0  0  0  0  0  0  0  0
   -1.8441    1.0862   -0.8449 C   0  0  0  0  0  0  0  0  0  0  0  0
   -2.4414    2.3338   -0.7096 C   0  0  0  0  0  0  0  0  0  0  0  0
   -3.7140    2.4118   -0.1561 C   0  0  0  0  0  0  0  0  0  0  0  0
   -4.1520    1.3943    0.6268 N   0  0  0  0  0  0  0  0  0  0  0  0
   -3.7319    0.1628    0.3259 C   0  0  0  0  0  0  0  0  0  0  0  0
   -4.3814   -0.9711    0.7761 C   0  0  0  0  0  0  0  0  0  0  0  0
   -4.1387   -2.2164    0.2125 C   0  0  0  0  0  0  0  0  0  0  0  0
   -5.3827   -3.4614    0.2353 Cl  0  0  0  0  0  0  0  0  0  0  0  0
   -3.0269   -2.3212   -0.6056 C   0  0  0  0  0  0  0  0  0  0  0  0
   -2.1614   -1.2636   -0.7764 C   0  0  0  0  0  0  0  0  0  0  0  0
   -2.6212   -0.0035   -0.4725 C   0  0  0  0  0  0  0  0  0  0  0  0
  1  2  1  0
  2  3  1  0
  3  4  1  0
  4  5  1  0
  5  6  1  0
  3  7  1  0
  7  8  1  0
  8  9  1  0
 10  9  1  6
 10 11  1  0
 10 12  1  0
 12 13  1  0
 13 14  2  0
 14 15  1  0
 15 16  2  0
 16 17  1  0
 17 18  2  0
 18 19  1  0
 19 20  1  0
 19 21  2  0
 21 22  1  0
 22 23  2  0
 23 13  1  0
 23 17  1  0
M  END
>  <supplier_code>  (1148) 
DB01611

>  <zinc_id>  (1148) 
ZINC000001530652

>  <catalog_short_name>  (1148) 
dbfda

$$$$

     RDKit          3D

 23 24  0  0  0  0  0  0  0  0999 V2000
    3.7413    3.2974   -0.2391 C   0  0  0  0  0  0  0  0  0  0  0  0
    4.4623    2.2450   -0.5776 C   0  0  0  0  0  0  0  0  0  0  0  0
    4.2996    1.0171    0.1667 N   0  0  0  0  0  0  0  0  0  0  0  0
    5.3085    0.0961   -0.3548 C   0  0  0  0  0  0  0  0  0  0  0  0
    5.0748   -1.2494    0.3244 C   0  0  0  0  0  0  0  0  0  0  0  0
    6.3159   -1.8757    0.4332 O   0  0  0  0  0  0  0  0  0  0  0  0
    3.0235    0.4060   -0.0999 C   0  0  0  0  0  0  0  0  0  0  0  0
    1.8553    1.1964    0.4226 C   0  0  0  0  0  0  0  0  0  0  0  0
    0.5811    0.7954   -0.3006 C   0  0  0  0  0  0  0  0  0  0  0  0
    0.9334   -0.7093   -0.9321 C   0  0  2  0  0  0  0  0  0  0  0  0
    1.0158   -0.0866   -2.4782 C   0  0  0  0  0  0  0  0  0  0  0  0
   -0.6188   -1.0454   -1.1080 N   0  0  0  0  0  0  0  0  0  0  0  0
   -1.3091   -1.1074    0.1458 C   0  0  0  0  0  0  0  0  0  0  0  0
   -0.6669   -1.2858    1.3523 C   0  0  0  0  0  0  0  0  0  0  0  0
   -1.2976   -0.8565    2.5139 C   0  0  0  0  0  0  0  0  0  0  0  0
   -2.5106   -0.2836    2.4809 N   0  0  0  0  0  0  0  0  0  0  0  0
   -3.2089   -0.2038    1.3219 C   0  0  0  0  0  0  0  0  0  0  0  0
   -4.4935    0.3158    1.2711 C   0  0  0  0  0  0  0  0  0  0  0  0
   -5.2398    0.1712    0.1133 C   0  0  0  0  0  0  0  0  0  0  0  0
   -6.6165    1.2115   -0.2003 Cl  0  0  0  0  0  0  0  0  0  0  0  0
   -4.6941   -0.5392   -0.9260 C   0  0  0  0  0  0  0  0  0  0  0  0
   -3.3456   -0.8377   -0.9875 C   0  0  0  0  0  0  0  0  0  0  0  0
   -2.6102   -0.6713    0.1753 C   0  0  0  0  0  0  0  0  0  0  0  0
  1  2  1  0
  2  3  1  0
  3  4  1  0
  4  5  1  0
  5  6  1  0
  3  7  1  0
  7  8  1  0
  8  9  1  0
 10  9  1  1
 10 11  1  0
 10 12  1  0
 12 13  1  0
 13 14  2  0
 14 15  1  0
 15 16  2  0
 16 17  1  0
 17 18  2  0
 18 19  1  0
 19 20  1  0
 19 21  2  0
 21 22  1  0
 22 23  2  0
 23 13  1  0
 23 17  1  0
M  END
>  <supplier_code>  (1149) 
DB01611

>  <zinc_id>  (1149) 
ZINC000001530654

>  <catalog_short_name>  (1149) 
dbfda

$$$$

     RDKit          3D

 20 22  0  0  0  0  0  0  0  0999 V2000
   -2.7329    2.7248   -0.0749 C   0  0  0  0  0  0  0  0  0  0  0  0
   -3.3343    2.0803    0.6505 C   0  0  0  0  0  0  0  0  0  0  0  0
   -3.0715    0.6197    0.4899 C   0  0  0  0  0  0  0  0  0  0  0  0
   -3.9425   -0.3411    0.0052 C   0  0  0  0  0  0  0  0  0  0  0  0
   -5.3442   -0.1212   -0.4487 C   0  0  0  0  0  0  0  0  0  0  0  0
   -3.2545   -1.5035   -0.0606 N   0  0  0  0  0  0  0  0  0  0  0  0
   -1.9304   -1.2610    0.0619 C   0  0  0  0  0  0  0  0  0  0  0  0
   -1.8556   -0.0315    0.6688 C   0  0  0  0  0  0  0  0  0  0  0  0
   -0.5697    0.5893    0.9200 C   0  0  0  0  0  0  0  0  0  0  0  0
   -0.5089    1.4566    1.8208 O   0  0  0  0  0  0  0  0  0  0  0  0
    0.6906   -0.4444    0.9301 C   0  0  2  0  0  0  0  0  0  0  0  0
    1.7335    0.7635    0.4705 C   0  0  0  0  0  0  0  0  0  0  0  0
    2.6756    0.1110   -0.4024 N   0  0  0  0  0  0  0  0  0  0  0  0
    3.7928    1.0047   -0.5309 C   0  0  0  0  0  0  0  0  0  0  0  0
    5.0788    0.3182   -0.8819 C   0  0  0  0  0  0  0  0  0  0  0  0
    5.4182   -0.7166   -0.0435 O   0  0  0  0  0  0  0  0  0  0  0  0
    4.3834   -1.2299    0.7039 C   0  0  0  0  0  0  0  0  0  0  0  0
    3.0483   -1.2090    0.0277 C   0  0  0  0  0  0  0  0  0  0  0  0
    0.4053   -0.8823   -0.6481 C   0  0  0  0  0  0  0  0  0  0  0  0
   -0.6819   -1.9277   -0.4122 C   0  0  0  0  0  0  0  0  0  0  0  0
  1  2  1  0
  2  3  1  0
  3  4  2  0
  4  5  1  0
  4  6  1  0
  6  7  1  0
  7  8  2  0
  8  9  1  0
  9 10  2  0
  9 11  1  0
 11 12  1  6
 12 13  1  0
 13 14  1  0
 14 15  1  0
 15 16  1  0
 16 17  1  0
 17 18  1  0
 11 19  1  0
 19 20  1  0
  8  3  1  0
 18 13  1  0
 20  7  1  0
M  END
>  <supplier_code>  (1150) 
DB01618

>  <zinc_id>  (1150) 
ZINC000022002214

>  <catalog_short_name>  (1150) 
dbfda

$$$$

     RDKit          3D

 20 22  0  0  0  0  0  0  0  0999 V2000
   -3.5529   -1.6197    1.7123 C   0  0  0  0  0  0  0  0  0  0  0  0
   -3.7798   -1.0955    0.4850 C   0  0  0  0  0  0  0  0  0  0  0  0
   -2.9993    0.0902    0.0988 C   0  0  0  0  0  0  0  0  0  0  0  0
   -3.4199    1.3748   -0.2277 C   0  0  0  0  0  0  0  0  0  0  0  0
   -4.5708    1.9990    0.4968 C   0  0  0  0  0  0  0  0  0  0  0  0
   -2.3630    1.9853   -0.8203 N   0  0  0  0  0  0  0  0  0  0  0  0
   -1.3445    1.1457   -0.9800 C   0  0  0  0  0  0  0  0  0  0  0  0
   -1.6619    0.0457   -0.1917 C   0  0  0  0  0  0  0  0  0  0  0  0
   -0.6337   -0.8721    0.3235 C   0  0  0  0  0  0  0  0  0  0  0  0
   -0.8108   -2.0632    0.1564 O   0  0  0  0  0  0  0  0  0  0  0  0
    0.8058   -0.2034   -0.0293 C   0  0  1  0  0  0  0  0  0  0  0  0
    1.6488   -1.6372    0.0133 C   0  0  0  0  0  0  0  0  0  0  0  0
    3.0190   -1.1685   -0.1137 N   0  0  0  0  0  0  0  0  0  0  0  0
    3.6556   -1.0276    1.1793 C   0  0  0  0  0  0  0  0  0  0  0  0
    4.8461   -0.1199    1.1139 C   0  0  0  0  0  0  0  0  0  0  0  0
    4.5116    1.1803    0.7940 O   0  0  0  0  0  0  0  0  0  0  0  0
    3.2050    1.1916    0.3093 C   0  0  0  0  0  0  0  0  0  0  0  0
    3.0901    0.1289   -0.7599 C   0  0  0  0  0  0  0  0  0  0  0  0
    0.5217   -0.3402   -1.6638 C   0  0  0  0  0  0  0  0  0  0  0  0
   -0.1672    1.0060   -1.8961 C   0  0  0  0  0  0  0  0  0  0  0  0
  1  2  1  0
  2  3  1  0
  3  4  2  0
  4  5  1  0
  4  6  1  0
  6  7  1  0
  7  8  2  0
  8  9  1  0
  9 10  2  0
  9 11  1  0
 11 12  1  1
 12 13  1  0
 13 14  1  0
 14 15  1  0
 15 16  1  0
 16 17  1  0
 17 18  1  0
 11 19  1  0
 19 20  1  0
  8  3  1  0
 18 13  1  0
 20  7  1  0
M  END
>  <supplier_code>  (1151) 
DB01618

>  <zinc_id>  (1151) 
ZINC000022002218

>  <catalog_short_name>  (1151) 
dbfda

$$$$

     RDKit          3D

 18 19  0  0  0  0  0  0  0  0999 V2000
    3.5560   -0.4521    1.4601 C   0  0  0  0  0  0  0  0  0  0  0  0
    3.0849   -0.6059    0.5366 N   0  0  0  0  0  0  0  0  0  0  0  0
    3.8090   -1.0463   -0.6251 C   0  0  0  0  0  0  0  0  0  0  0  0
    1.6708   -0.5130    0.3721 C   0  0  0  0  0  0  0  0  0  0  0  0
    1.4107   -0.1565   -1.0341 C   0  0  0  0  0  0  0  0  0  0  0  0
   -0.2021    0.0721   -1.2389 C   0  0  1  0  0  0  0  0  0  0  0  0
   -0.6321   -1.0718   -0.1748 C   0  0  0  0  0  0  0  0  0  0  0  0
   -0.2649   -2.3520   -0.5794 C   0  0  0  0  0  0  0  0  0  0  0  0
   -1.0586   -3.4310   -0.2059 C   0  0  0  0  0  0  0  0  0  0  0  0
   -2.4364   -3.2521   -0.1711 C   0  0  0  0  0  0  0  0  0  0  0  0
   -2.8709   -1.9831    0.1259 C   0  0  0  0  0  0  0  0  0  0  0  0
   -1.9502   -0.9647    0.2555 C   0  0  0  0  0  0  0  0  0  0  0  0
   -0.2805    1.2605   -0.1404 C   0  0  0  0  0  0  0  0  0  0  0  0
   -1.5994    1.6891   -0.0130 C   0  0  0  0  0  0  0  0  0  0  0  0
   -1.9714    2.9904    0.1694 C   0  0  0  0  0  0  0  0  0  0  0  0
   -1.0609    3.9772   -0.1109 C   0  0  0  0  0  0  0  0  0  0  0  0
    0.2265    3.5633   -0.4156 C   0  0  0  0  0  0  0  0  0  0  0  0
    0.5693    2.2759   -0.4439 N   0  0  0  0  0  0  0  0  0  0  0  0
  1  2  1  0
  2  3  1  0
  2  4  1  0
  4  5  1  0
  6  5  1  1
  6  7  1  0
  7  8  2  0
  8  9  1  0
  9 10  2  0
 10 11  1  0
 11 12  2  0
  6 13  1  0
 13 14  2  0
 14 15  1  0
 15 16  2  0
 16 17  1  0
 17 18  2  0
 12  7  1  0
 18 13  1  0
M  END
>  <supplier_code>  (1152) 
DB01620

>  <zinc_id>  (1152) 
ZINC000000000607

>  <catalog_short_name>  (1152) 
dbfda

$$$$

     RDKit          3D

 18 19  0  0  0  0  0  0  0  0999 V2000
    3.9176   -0.6143   -0.3403 C   0  0  0  0  0  0  0  0  0  0  0  0
    3.3395   -1.3835   -0.6243 N   0  0  0  0  0  0  0  0  0  0  0  0
    3.5386   -2.6746    0.0306 C   0  0  0  0  0  0  0  0  0  0  0  0
    1.9569   -1.2215   -1.0172 C   0  0  0  0  0  0  0  0  0  0  0  0
    1.2304   -0.6492    0.1950 C   0  0  0  0  0  0  0  0  0  0  0  0
   -0.1607   -0.0266   -0.4811 C   0  0  2  0  0  0  0  0  0  0  0  0
   -0.1093    1.2984    0.4808 C   0  0  0  0  0  0  0  0  0  0  0  0
    1.0806    1.9832    0.2336 C   0  0  0  0  0  0  0  0  0  0  0  0
    1.1498    3.3462    0.1157 C   0  0  0  0  0  0  0  0  0  0  0  0
   -0.0114    4.0855    0.1458 C   0  0  0  0  0  0  0  0  0  0  0  0
   -1.1185    3.4412    0.6887 C   0  0  0  0  0  0  0  0  0  0  0  0
   -1.2340    2.1067    0.3124 C   0  0  0  0  0  0  0  0  0  0  0  0
   -1.0884   -0.8412    0.5943 C   0  0  0  0  0  0  0  0  0  0  0  0
   -2.3553   -0.3201    0.7267 C   0  0  0  0  0  0  0  0  0  0  0  0
   -3.4634   -1.1073    0.9404 C   0  0  0  0  0  0  0  0  0  0  0  0
   -3.4400   -2.3563    0.3305 C   0  0  0  0  0  0  0  0  0  0  0  0
   -2.1740   -2.9190    0.2176 C   0  0  0  0  0  0  0  0  0  0  0  0
   -1.0584   -2.1475    0.2234 N   0  0  0  0  0  0  0  0  0  0  0  0
  1  2  1  0
  2  3  1  0
  2  4  1  0
  4  5  1  0
  6  5  1  1
  6  7  1  0
  7  8  2  0
  8  9  1  0
  9 10  2  0
 10 11  1  0
 11 12  2  0
  6 13  1  0
 13 14  2  0
 14 15  1  0
 15 16  2  0
 16 17  1  0
 17 18  2  0
 12  7  1  0
 18 13  1  0
M  END
>  <supplier_code>  (1153) 
DB01620

>  <zinc_id>  (1153) 
ZINC000000508068

>  <catalog_short_name>  (1153) 
dbfda

$$$$

     RDKit          3D

 30 33  0  0  0  0  0  0  0  0999 V2000
   -3.2602    3.9052   -0.7164 C   0  0  0  0  0  0  0  0  0  0  0  0
   -2.8834    4.2332    0.6358 N   0  0  0  0  0  0  0  0  0  0  0  0
   -1.7392    5.1149    0.5803 C   0  0  0  0  0  0  0  0  0  0  0  0
   -2.4991    2.7560    1.4594 S   0  0  0  0  0  0  0  0  0  0  0  0
   -3.6127    2.5255    2.4558 O   0  0  0  0  0  0  0  0  0  0  0  0
   -1.2114    2.8948    2.1983 O   0  0  0  0  0  0  0  0  0  0  0  0
   -2.4417    1.4341    0.3366 C   0  0  0  0  0  0  0  0  0  0  0  0
   -3.6597    0.9337   -0.1063 C   0  0  0  0  0  0  0  0  0  0  0  0
   -3.7471   -0.2506   -0.8270 C   0  0  0  0  0  0  0  0  0  0  0  0
   -2.5481   -0.7496   -1.3023 C   0  0  0  0  0  0  0  0  0  0  0  0
   -1.3836   -0.4642   -0.5989 C   0  0  0  0  0  0  0  0  0  0  0  0
   -1.2633    0.8099   -0.0556 C   0  0  0  0  0  0  0  0  0  0  0  0
   -0.2954   -1.4433   -0.5005 C   0  0  0  0  0  0  0  0  0  0  0  0
    0.9360   -1.0308   -0.2038 C   0  0  0  0  0  0  0  0  0  0  0  0
    1.1964    0.4423   -0.2334 C   0  0  0  0  0  0  0  0  0  0  0  0
    2.3398    0.7068   -1.1971 C   0  0  0  0  0  0  0  0  0  0  0  0
    3.5894    0.2955   -0.5723 N   0  0  0  0  0  0  0  0  0  0  0  0
    3.6570    0.8089    0.7773 C   0  0  0  0  0  0  0  0  0  0  0  0
    4.9549    0.3271    1.3933 C   0  0  0  0  0  0  0  0  0  0  0  0
    6.1030    0.7450    0.6096 N   0  0  0  0  0  0  0  0  0  0  0  0
    6.0923    2.1889    0.3914 C   0  0  0  0  0  0  0  0  0  0  0  0
    5.9765    0.1355   -0.7096 C   0  0  0  0  0  0  0  0  0  0  0  0
    4.7267    0.7236   -1.3524 C   0  0  0  0  0  0  0  0  0  0  0  0
   -0.5392   -2.8900   -0.4826 C   0  0  0  0  0  0  0  0  0  0  0  0
    0.1850   -3.7474    0.3386 C   0  0  0  0  0  0  0  0  0  0  0  0
   -0.3407   -4.9545    0.7834 C   0  0  0  0  0  0  0  0  0  0  0  0
   -1.6894   -5.1819    0.5376 C   0  0  0  0  0  0  0  0  0  0  0  0
   -2.3607   -4.4579   -0.4356 C   0  0  0  0  0  0  0  0  0  0  0  0
   -1.6508   -3.4592   -1.0920 C   0  0  0  0  0  0  0  0  0  0  0  0
   -2.6315   -2.3515   -2.1115 S   0  0  0  0  0  0  0  0  0  0  0  0
  1  2  1  0
  2  3  1  0
  2  4  1  0
  4  5  2  0
  4  6  2  0
  4  7  1  0
  7  8  2  0
  8  9  1  0
  9 10  2  0
 10 11  1  0
 11 12  2  0
 11 13  1  0
 13 14  2  0
 14 15  1  0
 15 16  1  0
 16 17  1  0
 17 18  1  0
 18 19  1  0
 19 20  1  0
 20 21  1  0
 20 22  1  0
 22 23  1  0
 13 24  1  0
 24 25  2  0
 25 26  1  0
 26 27  2  0
 27 28  1  0
 28 29  2  0
 29 30  1  0
 12  7  1  0
 23 17  1  0
 29 24  1  0
 30 10  1  0
M  END
>  <supplier_code>  (1154) 
DB01623

>  <zinc_id>  (1154) 
ZINC000030690433

>  <catalog_short_name>  (1154) 
dbfda

$$$$

     RDKit          3D

 27 28  0  0  0  0  0  0  0  0999 V2000
    5.7364    1.8808    0.7167 C   0  0  0  0  0  0  0  0  0  0  0  0
    5.4744    1.7854    0.1608 C   0  0  0  0  0  0  0  0  0  0  0  0
    5.1261    1.0806   -1.2395 C   0  0  0  0  0  0  0  0  0  0  0  0
    4.1670   -0.1910   -0.9361 C   0  0  2  0  0  0  0  0  0  0  0  0
    2.8743    0.6164   -0.3719 C   0  0  0  0  0  0  0  0  0  0  0  0
    2.5935   -0.1873    1.0350 C   0  0  1  0  0  0  0  0  0  0  0  0
    1.2036   -0.9337    0.6467 C   0  0  0  0  0  0  0  0  0  0  0  0
    1.0868   -2.1411    1.0138 O   0  0  0  0  0  0  0  0  0  0  0  0
    0.1274   -0.1539    1.1473 N   0  0  0  0  0  0  0  0  0  0  0  0
   -1.3250   -0.6909    1.4999 C   0  0  2  0  0  0  0  0  0  0  0  0
   -1.0065   -2.2415    0.9281 C   0  0  1  0  0  0  0  0  0  0  0  0
   -2.3959   -2.9874    1.4478 C   0  0  0  0  0  0  0  0  0  0  0  0
   -1.4593   -2.1401   -0.4827 O   0  0  0  0  0  0  0  0  0  0  0  0
   -1.8146    0.3037    0.2301 C   0  0  1  0  0  0  0  0  0  0  0  0
   -2.5042   -0.5121   -0.7444 O   0  0  0  0  0  0  0  0  0  0  0  0
   -2.1644    0.6749   -1.6069 C   0  0  2  0  0  0  0  0  0  0  0  0
   -1.9775    2.2021   -0.5129 S   0  0  0  0  0  0  0  0  0  0  0  0
   -0.8365    3.3315   -0.4786 C   0  0  0  0  0  0  0  0  0  0  0  0
   -3.8244    0.8449   -1.7593 C   0  0  2  0  0  0  0  0  0  0  0  0
   -3.8756    2.3330   -2.1504 O   0  0  0  0  0  0  0  0  0  0  0  0
   -4.3358    1.2047   -0.1895 C   0  0  1  0  0  0  0  0  0  0  0  0
   -5.1120   -0.1214   -0.3806 O   0  0  0  0  0  0  0  0  0  0  0  0
   -3.2817    0.6893    1.0149 C   0  0  1  0  0  0  0  0  0  0  0  0
   -3.8013   -0.7101    1.1591 O   0  0  0  0  0  0  0  0  0  0  0  0
    3.5175   -1.4040    0.6926 N   0  0  0  0  0  0  0  0  0  0  0  0
    3.1061   -2.0207   -0.5260 C   0  0  0  0  0  0  0  0  0  0  0  0
    4.7016   -0.5121    0.5701 C   0  0  0  0  0  0  0  0  0  0  0  0
  1  2  1  0
  2  3  1  0
  4  3  1  6
  4  5  1  0
  5  6  1  0
  6  7  1  6
  7  8  2  0
  7  9  1  0
 10  9  1  6
 10 11  1  0
 11 12  1  1
 11 13  1  0
 10 14  1  0
 14 15  1  6
 15 16  1  0
 16 17  1  1
 17 18  1  0
 16 19  1  0
 19 20  1  6
 19 21  1  0
 21 22  1  1
 21 23  1  0
 23 24  1  6
  6 25  1  0
 25 26  1  0
 25 27  1  0
 27  4  1  0
 23 14  1  0
M  END
>  <supplier_code>  (1155) 
DB01627

>  <zinc_id>  (1155) 
ZINC000003982483

>  <catalog_short_name>  (1155) 
dbfda

$$$$

     RDKit          3D

 27 28  0  0  0  0  0  0  0  0999 V2000
   -5.2027    3.0391    0.3171 C   0  0  0  0  0  0  0  0  0  0  0  0
   -5.4849    1.9342   -0.6247 C   0  0  0  0  0  0  0  0  0  0  0  0
   -5.9771    0.6864    0.0223 C   0  0  0  0  0  0  0  0  0  0  0  0
   -4.8327    0.2650    1.1425 C   0  0  2  0  0  0  0  0  0  0  0  0
   -3.5651    0.5994    0.1377 C   0  0  0  0  0  0  0  0  0  0  0  0
   -2.6851   -0.5773    0.9220 C   0  0  2  0  0  0  0  0  0  0  0  0
   -1.6348   -0.7256   -0.3292 C   0  0  0  0  0  0  0  0  0  0  0  0
   -1.4567   -1.8813   -0.7462 O   0  0  0  0  0  0  0  0  0  0  0  0
   -0.3968   -0.0264   -0.1842 N   0  0  0  0  0  0  0  0  0  0  0  0
    0.9022   -0.7727   -0.6342 C   0  0  2  0  0  0  0  0  0  0  0  0
    0.6316   -2.0434    0.4939 C   0  0  1  0  0  0  0  0  0  0  0  0
    2.0096   -2.8805    0.0574 C   0  0  0  0  0  0  0  0  0  0  0  0
    1.3082   -1.4052    1.7062 O   0  0  0  0  0  0  0  0  0  0  0  0
    1.8591    0.2488    0.3654 C   0  0  1  0  0  0  0  0  0  0  0  0
    3.0860   -0.5751    0.3782 O   0  0  0  0  0  0  0  0  0  0  0  0
    3.6647    0.4101    1.3542 C   0  0  2  0  0  0  0  0  0  0  0  0
    3.0013    2.1683    0.9180 S   0  0  0  0  0  0  0  0  0  0  0  0
    4.0170    3.4116    1.5621 C   0  0  0  0  0  0  0  0  0  0  0  0
    4.8898    0.3599    0.1870 C   0  0  2  0  0  0  0  0  0  0  0  0
    5.4494    1.7504    0.5064 O   0  0  0  0  0  0  0  0  0  0  0  0
    4.0677    0.8583   -1.2532 C   0  0  1  0  0  0  0  0  0  0  0  0
    3.8312   -0.5948   -1.7006 O   0  0  0  0  0  0  0  0  0  0  0  0
    2.4215    1.2582   -0.9202 C   0  0  1  0  0  0  0  0  0  0  0  0
    1.8979    0.3964   -2.0742 O   0  0  0  0  0  0  0  0  0  0  0  0
   -3.6482   -1.7119    0.3498 N   0  0  0  0  0  0  0  0  0  0  0  0
   -3.2385   -2.8903    1.1197 C   0  0  0  0  0  0  0  0  0  0  0  0
   -4.9147   -1.3016    0.6666 C   0  0  0  0  0  0  0  0  0  0  0  0
  1  2  1  0
  2  3  1  0
  4  3  1  6
  4  5  1  0
  5  6  1  0
  6  7  1  6
  7  8  2  0
  7  9  1  0
 10  9  1  1
 10 11  1  0
 11 12  1  6
 11 13  1  0
 10 14  1  0
 14 15  1  6
 15 16  1  0
 16 17  1  6
 17 18  1  0
 16 19  1  0
 19 20  1  1
 19 21  1  0
 21 22  1  6
 21 23  1  0
 23 24  1  6
  6 25  1  0
 25 26  1  0
 25 27  1  0
 27  4  1  0
 23 14  1  0
M  END
>  <supplier_code>  (1156) 
DB01627

>  <zinc_id>  (1156) 
ZINC000004097283

>  <catalog_short_name>  (1156) 
dbfda

$$$$

     RDKit          3D

 12 11  0  0  0  0  0  0  0  0999 V2000
    3.4337   -0.0176   -0.1683 O   0  0  0  0  0  0  0  0  0  0  0  0
    2.8812   -0.2431   -0.3149 C   0  0  0  0  0  0  0  0  0  0  0  0
    1.6421    0.5134    0.4745 C   0  0  1  0  0  0  0  0  0  0  0  0
    2.0287    1.8560   -0.1265 O   0  0  0  0  0  0  0  0  0  0  0  0
    0.4574    0.2466   -0.7572 C   0  0  1  0  0  0  0  0  0  0  0  0
    0.9342   -1.1215   -1.1583 O   0  0  0  0  0  0  0  0  0  0  0  0
   -0.6813   -0.2513    0.4378 C   0  0  2  0  0  0  0  0  0  0  0  0
   -0.4534   -1.7332    0.3318 O   0  0  0  0  0  0  0  0  0  0  0  0
   -1.9624   -0.1561   -0.7212 C   0  0  1  0  0  0  0  0  0  0  0  0
   -2.5559   -1.5229   -0.4159 O   0  0  0  0  0  0  0  0  0  0  0  0
   -2.9650    0.5394    0.3903 C   0  0  0  0  0  0  0  0  0  0  0  0
   -2.7594    1.8904    0.3273 O   0  0  0  0  0  0  0  0  0  0  0  0
  1  2  1  0
  3  2  1  6
  3  4  1  0
  3  5  1  0
  5  6  1  6
  5  7  1  0
  7  8  1  6
  7  9  1  0
  9 10  1  1
  9 11  1  0
 11 12  1  0
M  END
>  <supplier_code>  (1157) 
DB01638

>  <zinc_id>  (1157) 
ZINC000018279893

>  <catalog_short_name>  (1157) 
dbfda

$$$$

     RDKit          3D

 26 28  0  0  0  0  0  0  0  0999 V2000
    1.4417    2.0414   -0.8164 O   0  0  0  0  0  0  0  0  0  0  0  0
    1.3421    1.0787    0.0029 C   0  0  0  0  0  0  0  0  0  0  0  0
    2.5311    0.7213    0.6818 N   0  0  0  0  0  0  0  0  0  0  0  0
    3.8325    0.8358    0.0940 C   0  0  0  0  0  0  0  0  0  0  0  0
    4.2503   -0.2643   -0.6449 C   0  0  0  0  0  0  0  0  0  0  0  0
    3.1138   -0.8558   -1.8528 Cl  0  0  0  0  0  0  0  0  0  0  0  0
    5.5843   -0.6211   -0.7531 C   0  0  0  0  0  0  0  0  0  0  0  0
    6.4666   -0.1192    0.1451 N   0  0  0  0  0  0  0  0  0  0  0  0
    6.1388    0.9986    0.8378 C   0  0  0  0  0  0  0  0  0  0  0  0
    4.8324    1.4650    0.8261 C   0  0  0  0  0  0  0  0  0  0  0  0
    4.3647    2.9524    1.6390 Cl  0  0  0  0  0  0  0  0  0  0  0  0
    0.0965    0.3404    0.1226 C   0  0  0  0  0  0  0  0  0  0  0  0
    0.0707   -0.9605    0.6112 C   0  0  0  0  0  0  0  0  0  0  0  0
   -1.0144   -1.7184    0.1878 C   0  0  0  0  0  0  0  0  0  0  0  0
   -2.2122   -1.1045   -0.1577 C   0  0  0  0  0  0  0  0  0  0  0  0
   -3.3915   -1.8117    0.0943 O   0  0  0  0  0  0  0  0  0  0  0  0
   -3.3721   -3.1530    0.5329 C   0  0  0  0  0  0  0  0  0  0  0  0
   -2.9133   -3.9907   -0.4489 F   0  0  0  0  0  0  0  0  0  0  0  0
   -2.6755   -3.3341    1.7000 F   0  0  0  0  0  0  0  0  0  0  0  0
   -2.2978    0.2804   -0.2335 C   0  0  0  0  0  0  0  0  0  0  0  0
   -3.4591    0.9455    0.1719 O   0  0  0  0  0  0  0  0  0  0  0  0
   -4.5436    1.2022   -0.6836 C   0  0  0  0  0  0  0  0  0  0  0  0
   -5.7497    1.4768    0.2048 C   0  0  0  0  0  0  0  0  0  0  0  0
   -5.5036    2.0724    1.5601 C   0  0  0  0  0  0  0  0  0  0  0  0
   -5.8550    0.5822    1.4685 C   0  0  0  0  0  0  0  0  0  0  0  0
   -1.0776    0.9402   -0.3128 C   0  0  0  0  0  0  0  0  0  0  0  0
  1  2  2  0
  2  3  1  0
  3  4  1  0
  4  5  2  0
  5  6  1  0
  5  7  1  0
  7  8  2  0
  8  9  1  0
  9 10  2  0
 10 11  1  0
  2 12  1  0
 12 13  2  0
 13 14  1  0
 14 15  2  0
 15 16  1  0
 16 17  1  0
 17 18  1  0
 17 19  1  0
 15 20  1  0
 20 21  1  0
 21 22  1  0
 22 23  1  0
 23 24  1  0
 24 25  1  0
 20 26  2  0
 10  4  1  0
 26 12  1  0
 25 23  1  0
M  END
>  <supplier_code>  (1158) 
DB01656

>  <zinc_id>  (1158) 
ZINC000000592419

>  <catalog_short_name>  (1158) 
dbfda

$$$$

     RDKit          3D

 21 24  0  0  0  0  0  0  0  0999 V2000
   -2.1517    1.0813    0.8432 C   0  0  0  0  0  0  0  0  0  0  0  0
   -2.6560   -0.2442    0.3988 C   0  0  2  0  0  0  0  0  0  0  0  0
   -2.1482   -1.2641    1.3097 C   0  0  0  0  0  0  0  0  0  0  0  0
   -0.6949   -0.8785    1.5594 C   0  0  0  0  0  0  0  0  0  0  0  0
    0.1548   -1.1199    0.1994 C   0  0  1  0  0  0  0  0  0  0  0  0
   -0.5465    0.1904   -0.6036 C   0  0  1  0  0  0  0  0  0  0  0  0
    0.1980   -0.1671   -1.9798 C   0  0  0  0  0  0  0  0  0  0  0  0
    1.5410    0.4266   -1.6456 C   0  0  0  0  0  0  0  0  0  0  0  0
    1.7829    0.7338   -0.3614 C   0  0  0  0  0  0  0  0  0  0  0  0
    3.0386    1.4795   -0.0086 C   0  0  0  0  0  0  0  0  0  0  0  0
    4.2374    0.3961   -0.3414 C   0  0  1  0  0  0  0  0  0  0  0  0
    5.2485    1.1941    0.4630 O   0  0  0  0  0  0  0  0  0  0  0  0
    3.8429   -0.5205    0.9720 C   0  0  0  0  0  0  0  0  0  0  0  0
    2.6121   -1.2686    0.5498 C   0  0  0  0  0  0  0  0  0  0  0  0
    1.4521   -0.2760    0.6496 C   0  0  2  0  0  0  0  0  0  0  0  0
    1.4234    0.1481    2.0402 C   0  0  0  0  0  0  0  0  0  0  0  0
   -1.8995   -0.7434   -0.9427 C   0  0  2  0  0  0  0  0  0  0  0  0
   -2.6837    0.3958   -1.7907 C   0  0  0  0  0  0  0  0  0  0  0  0
   -4.0033   -0.3366   -1.5102 C   0  0  0  0  0  0  0  0  0  0  0  0
   -4.0325   -0.1208   -0.0074 C   0  0  0  0  0  0  0  0  0  0  0  0
   -4.7155    0.8942    0.2064 O   0  0  0  0  0  0  0  0  0  0  0  0
  2  1  1  1
  2  3  1  0
  3  4  1  0
  5  4  1  1
  5  6  1  0
  6  7  1  6
  7  8  1  0
  8  9  2  0
  9 10  1  0
 10 11  1  0
 11 12  1  1
 11 13  1  0
 13 14  1  0
 14 15  1  0
 15 16  1  1
  6 17  1  0
 17 18  1  6
 18 19  1  0
 19 20  1  0
 20 21  2  0
 17  2  1  0
 20  2  1  0
 15  5  1  0
 15  9  1  0
M  END
>  <supplier_code>  (1159) 
DB01708

>  <zinc_id>  (1159) 
ZINC000003807917

>  <catalog_short_name>  (1159) 
dbfda

$$$$

     RDKit          3D

 11 12  0  0  0  0  0  0  0  0999 V2000
    0.7572   -1.6539   -0.2169 C   0  0  0  0  0  0  0  0  0  0  0  0
    0.8499   -0.4302    0.0976 C   0  0  0  0  0  0  0  0  0  0  0  0
    2.1627    0.0558    0.6192 C   0  0  0  0  0  0  0  0  0  0  0  0
    0.7603    0.3492   -1.3505 C   0  0  2  0  0  0  0  0  0  0  0  0
    0.6879    1.8330   -0.6351 C   0  0  0  0  0  0  0  0  0  0  0  0
   -0.2809    1.6046    0.4610 C   0  0  0  0  0  0  0  0  0  0  0  0
   -0.3511    0.1548    0.7518 C   0  0  2  0  0  0  0  0  0  0  0  0
   -0.5650   -0.2676    2.1286 C   0  0  0  0  0  0  0  0  0  0  0  0
   -1.2879   -0.4214   -0.2642 C   0  0  0  0  0  0  0  0  0  0  0  0
   -1.8558   -1.4677   -0.1100 O   0  0  0  0  0  0  0  0  0  0  0  0
   -0.8774    0.2431   -1.4815 C   0  0  0  0  0  0  0  0  0  0  0  0
  1  2  1  0
  2  3  1  0
  2  4  1  0
  4  5  1  1
  5  6  1  0
  6  7  1  0
  7  8  1  1
  7  9  1  0
  9 10  2  0
  9 11  1  0
  7  2  1  0
 11  4  1  0
M  END
>  <supplier_code>  (1160) 
DB01744

>  <zinc_id>  (1160) 
ZINC000000967520

>  <catalog_short_name>  (1160) 
dbfda

$$$$

     RDKit          3D

 11 12  0  0  0  0  0  0  0  0999 V2000
    0.9727   -0.2847   -0.0943 C   0  0  0  0  0  0  0  0  0  0  0  0
    0.9186   -0.0867    0.3508 C   0  0  0  0  0  0  0  0  0  0  0  0
    2.2676   -0.1395    0.6053 C   0  0  0  0  0  0  0  0  0  0  0  0
   -0.0287   -1.0359    1.2588 C   0  0  1  0  0  0  0  0  0  0  0  0
   -1.1125    0.1129    1.6804 C   0  0  0  0  0  0  0  0  0  0  0  0
   -0.8483    1.2509    0.8289 C   0  0  0  0  0  0  0  0  0  0  0  0
   -0.0248    0.7343   -0.2911 C   0  0  1  0  0  0  0  0  0  0  0  0
    0.4171    1.7929   -1.2021 C   0  0  0  0  0  0  0  0  0  0  0  0
   -0.8449   -0.3530   -0.9335 C   0  0  0  0  0  0  0  0  0  0  0  0
   -0.8212   -0.4795   -2.1612 O   0  0  0  0  0  0  0  0  0  0  0  0
   -0.8956   -1.5117   -0.0421 C   0  0  0  0  0  0  0  0  0  0  0  0
  1  2  1  0
  2  3  1  0
  2  4  1  0
  4  5  1  1
  5  6  1  0
  6  7  1  0
  7  8  1  6
  7  9  1  0
  9 10  2  0
  9 11  1  0
  7  2  1  0
 11  4  1  0
M  END
>  <supplier_code>  (1161) 
DB01744

>  <zinc_id>  (1161) 
ZINC000000967521

>  <catalog_short_name>  (1161) 
dbfda

$$$$

     RDKit          3D

 48 50  0  0  0  0  0  0  0  0999 V2000
    6.3316    2.5896    1.8248 C   0  0  0  0  0  0  0  0  0  0  0  0
    6.6551    1.1647    2.1557 C   0  0  0  0  0  0  0  0  0  0  0  0
    6.6679    0.2963    0.9797 N   0  0  0  0  0  0  0  0  0  0  0  0
    7.9655   -0.3748    1.0590 C   0  0  0  0  0  0  0  0  0  0  0  0
    7.8342   -1.7187    1.7209 C   0  0  0  0  0  0  0  0  0  0  0  0
    5.6641   -0.7085    1.1537 C   0  0  0  0  0  0  0  0  0  0  0  0
    5.3155   -1.4761   -0.0976 C   0  0  0  0  0  0  0  0  0  0  0  0
    4.1439   -0.5060   -0.9898 S   0  0  0  0  0  0  0  0  0  0  0  0
    5.2285    0.1635   -1.8345 O   0  0  0  0  0  0  0  0  0  0  0  0
    3.5431    0.4798   -0.1135 O   0  0  0  0  0  0  0  0  0  0  0  0
    2.9928   -1.4631   -2.0634 C   0  0  2  0  0  0  0  0  0  0  0  0
    3.1108   -0.6058   -3.3771 C   0  0  0  0  0  0  0  0  0  0  0  0
    3.1595    0.6275   -2.5339 C   0  0  0  0  0  0  0  0  0  0  0  0
    1.8653    0.6346   -1.8190 N   0  0  0  0  0  0  0  0  0  0  0  0
    1.0905    1.4067   -2.7780 C   0  0  0  0  0  0  0  0  0  0  0  0
    1.6136    2.3313   -3.4874 O   0  0  0  0  0  0  0  0  0  0  0  0
   -0.2362    1.0977   -3.1976 C   0  0  0  0  0  0  0  0  0  0  0  0
   -1.2051    1.4183   -4.1482 C   0  0  0  0  0  0  0  0  0  0  0  0
   -2.3122    1.3311   -3.4123 O   0  0  0  0  0  0  0  0  0  0  0  0
   -1.9765    1.0171   -2.1620 C   0  0  0  0  0  0  0  0  0  0  0  0
   -0.8472    0.2719   -2.3825 N   0  0  0  0  0  0  0  0  0  0  0  0
   -2.0593    1.9674   -0.9945 C   0  0  0  0  0  0  0  0  0  0  0  0
   -3.3327    2.6912   -0.9763 C   0  0  0  0  0  0  0  0  0  0  0  0
   -3.8487    2.8582   -2.0825 O   0  0  0  0  0  0  0  0  0  0  0  0
   -4.0472    3.3256    0.1309 C   0  0  0  0  0  0  0  0  0  0  0  0
   -4.3253    2.1800    1.2831 C   0  0  2  0  0  0  0  0  0  0  0  0
   -2.8264    1.9435    1.3540 O   0  0  0  0  0  0  0  0  0  0  0  0
   -4.6678    1.0477    0.1552 C   0  0  0  0  0  0  0  0  0  0  0  0
   -5.9950    0.8878    0.2641 C   0  0  0  0  0  0  0  0  0  0  0  0
   -6.9798    1.0198   -0.8436 C   0  0  0  0  0  0  0  0  0  0  0  0
   -6.3612    0.5209    1.6475 C   0  0  0  0  0  0  0  0  0  0  0  0
   -5.2865    0.0440    2.3152 C   0  0  0  0  0  0  0  0  0  0  0  0
   -4.7307   -1.0128    1.6270 C   0  0  0  0  0  0  0  0  0  0  0  0
   -4.1365   -2.2165    1.8453 N   0  0  0  0  0  0  0  0  0  0  0  0
   -3.5797   -2.6203    3.0833 C   0  0  0  0  0  0  0  0  0  0  0  0
   -3.9935   -3.4838    3.8586 O   0  0  0  0  0  0  0  0  0  0  0  0
   -2.4946   -1.6538    3.3315 C   0  0  0  0  0  0  0  0  0  0  0  0
   -2.2023   -1.0711    2.1526 C   0  0  0  0  0  0  0  0  0  0  0  0
   -1.5413   -2.1875    1.2382 C   0  0  1  0  0  0  0  0  0  0  0  0
   -2.2310   -1.9827   -0.2186 C   0  0  0  0  0  0  0  0  0  0  0  0
   -0.4083   -0.9694    0.7542 C   0  0  1  0  0  0  0  0  0  0  0  0
    0.2116   -0.8906    2.2718 C   0  0  0  0  0  0  0  0  0  0  0  0
    0.6515   -2.2614    2.6369 C   0  0  0  0  0  0  0  0  0  0  0  0
    1.3186    0.1096    2.1906 C   0  0  0  0  0  0  0  0  0  0  0  0
    0.5714   -1.9904    0.2264 O   0  0  0  0  0  0  0  0  0  0  0  0
    1.7067   -1.1981   -0.1354 C   0  0  0  0  0  0  0  0  0  0  0  0
    2.5402   -2.1642    0.0785 O   0  0  0  0  0  0  0  0  0  0  0  0
    1.4432   -0.8704   -1.6911 C   0  0  2  0  0  0  0  0  0  0  0  0
  1  2  1  0
  2  3  1  0
  3  4  1  0
  4  5  1  0
  3  6  1  0
  6  7  1  0
  7  8  1  0
  8  9  2  0
  8 10  2  0
 11  8  1  1
 11 12  1  0
 12 13  1  0
 13 14  1  0
 14 15  1  0
 15 16  2  0
 15 17  1  0
 17 18  2  0
 18 19  1  0
 19 20  1  0
 20 21  2  0
 20 22  1  0
 22 23  1  0
 23 24  2  0
 23 25  1  0
 25 26  1  0
 26 27  1  6
 26 28  1  0
 28 29  2  0
 29 30  1  0
 29 31  1  0
 31 32  2  0
 32 33  1  0
 33 34  1  0
 34 35  1  0
 35 36  2  0
 35 37  1  0
 37 38  2  0
 38 39  1  0
 39 40  1  6
 39 41  1  0
 41 42  1  1
 42 43  1  0
 42 44  1  0
 41 45  1  0
 45 46  1  0
 46 47  2  0
 48 46  1  1
 48 11  1  0
 48 14  1  0
 21 17  1  0
M  END
>  <supplier_code>  (1162) 
DB01764

>  <zinc_id>  (1162) 
ZINC000053683271

>  <catalog_short_name>  (1162) 
dbfda

$$$$

     RDKit          3D

 48 50  0  0  0  0  0  0  0  0999 V2000
    8.6250    0.4869   -1.5671 C   0  0  0  0  0  0  0  0  0  0  0  0
    8.1682    0.3365   -0.9832 C   0  0  0  0  0  0  0  0  0  0  0  0
    7.2095    0.0896    0.0360 N   0  0  0  0  0  0  0  0  0  0  0  0
    7.7773   -0.9624    0.8792 C   0  0  0  0  0  0  0  0  0  0  0  0
    8.4685   -2.0109    0.0735 C   0  0  0  0  0  0  0  0  0  0  0  0
    5.9269   -0.3352   -0.4375 C   0  0  0  0  0  0  0  0  0  0  0  0
    4.9052    0.7390   -0.5898 C   0  0  0  0  0  0  0  0  0  0  0  0
    4.0999    1.2706    0.8231 S   0  0  0  0  0  0  0  0  0  0  0  0
    3.6538    2.6499    0.9300 O   0  0  0  0  0  0  0  0  0  0  0  0
    5.2219    1.2586    1.8657 O   0  0  0  0  0  0  0  0  0  0  0  0
    2.9690    0.0590    1.6126 C   0  0  2  0  0  0  0  0  0  0  0  0
    3.2210   -1.1713    0.6502 C   0  0  0  0  0  0  0  0  0  0  0  0
    2.6971   -0.7609   -0.6641 C   0  0  0  0  0  0  0  0  0  0  0  0
    1.8723    0.3745   -0.5011 N   0  0  0  0  0  0  0  0  0  0  0  0
    1.7141    1.6338   -1.1772 C   0  0  0  0  0  0  0  0  0  0  0  0
    1.9965    1.6576   -2.4143 O   0  0  0  0  0  0  0  0  0  0  0  0
    0.6775    2.6060   -0.7966 C   0  0  0  0  0  0  0  0  0  0  0  0
   -0.0904    3.5447   -1.4518 C   0  0  0  0  0  0  0  0  0  0  0  0
   -1.0116    3.9384   -0.5838 O   0  0  0  0  0  0  0  0  0  0  0  0
   -1.1634    2.9906    0.3274 C   0  0  0  0  0  0  0  0  0  0  0  0
    0.1233    2.5524    0.4420 N   0  0  0  0  0  0  0  0  0  0  0  0
   -2.2222    2.2104    0.9581 C   0  0  0  0  0  0  0  0  0  0  0  0
   -3.6154    2.6034    0.6606 C   0  0  0  0  0  0  0  0  0  0  0  0
   -3.7109    3.7243    0.1556 O   0  0  0  0  0  0  0  0  0  0  0  0
   -4.6318    2.1988    1.6163 C   0  0  0  0  0  0  0  0  0  0  0  0
   -5.5327    0.9259    1.1025 C   0  0  2  0  0  0  0  0  0  0  0  0
   -5.0624    0.1339    2.3237 O   0  0  0  0  0  0  0  0  0  0  0  0
   -4.3613    0.4330    0.0810 C   0  0  0  0  0  0  0  0  0  0  0  0
   -4.9810    0.4340   -1.1096 C   0  0  0  0  0  0  0  0  0  0  0  0
   -4.5608    1.1845   -2.3066 C   0  0  0  0  0  0  0  0  0  0  0  0
   -6.1335   -0.4929   -1.0637 C   0  0  0  0  0  0  0  0  0  0  0  0
   -5.9827   -1.3329   -0.0138 C   0  0  0  0  0  0  0  0  0  0  0  0
   -4.7517   -2.0421   -0.3018 C   0  0  0  0  0  0  0  0  0  0  0  0
   -4.0618   -2.8372    0.6313 N   0  0  0  0  0  0  0  0  0  0  0  0
   -3.7694   -4.1029   -0.0032 C   0  0  0  0  0  0  0  0  0  0  0  0
   -4.2965   -5.1979    0.3121 O   0  0  0  0  0  0  0  0  0  0  0  0
   -3.0744   -3.8631   -1.2854 C   0  0  0  0  0  0  0  0  0  0  0  0
   -2.4089   -2.6923   -1.3195 C   0  0  0  0  0  0  0  0  0  0  0  0
   -1.6007   -2.5931    0.0505 C   0  0  1  0  0  0  0  0  0  0  0  0
   -0.6918   -3.8970   -0.2924 C   0  0  0  0  0  0  0  0  0  0  0  0
   -0.3053   -1.6083   -0.4963 C   0  0  1  0  0  0  0  0  0  0  0  0
   -1.2269   -0.6097   -1.3689 C   0  0  0  0  0  0  0  0  0  0  0  0
   -2.1588    0.1366   -0.6744 C   0  0  0  0  0  0  0  0  0  0  0  0
   -1.0025   -0.7505   -2.7727 C   0  0  0  0  0  0  0  0  0  0  0  0
   -0.4001   -0.8590    0.8355 O   0  0  0  0  0  0  0  0  0  0  0  0
    0.9394   -1.0611    1.2356 C   0  0  0  0  0  0  0  0  0  0  0  0
    1.1009   -1.4459    2.4423 O   0  0  0  0  0  0  0  0  0  0  0  0
    1.4414    0.4533    0.9968 C   0  0  1  0  0  0  0  0  0  0  0  0
  1  2  1  0
  2  3  1  0
  3  4  1  0
  4  5  1  0
  3  6  1  0
  6  7  1  0
  7  8  1  0
  8  9  2  0
  8 10  2  0
 11  8  1  6
 11 12  1  0
 12 13  1  0
 13 14  1  0
 14 15  1  0
 15 16  2  0
 15 17  1  0
 17 18  2  0
 18 19  1  0
 19 20  1  0
 20 21  2  0
 20 22  1  0
 22 23  1  0
 23 24  2  0
 23 25  1  0
 25 26  1  0
 26 27  1  1
 26 28  1  0
 28 29  2  0
 29 30  1  0
 29 31  1  0
 31 32  2  0
 32 33  1  0
 33 34  1  0
 34 35  1  0
 35 36  2  0
 35 37  1  0
 37 38  2  0
 38 39  1  0
 39 40  1  6
 39 41  1  0
 41 42  1  6
 42 43  1  0
 42 44  1  0
 41 45  1  0
 45 46  1  0
 46 47  2  0
 48 46  1  6
 48 11  1  0
 48 14  1  0
 21 17  1  0
M  END
>  <supplier_code>  (1163) 
DB01764

>  <zinc_id>  (1163) 
ZINC000054053579

>  <catalog_short_name>  (1163) 
dbfda

$$$$

     RDKit          3D

 48 50  0  0  0  0  0  0  0  0999 V2000
   -7.4463    2.4255    1.8901 C   0  0  0  0  0  0  0  0  0  0  0  0
   -7.3183    2.0493    1.3582 C   0  0  0  0  0  0  0  0  0  0  0  0
   -7.4206    1.4324    0.0616 N   0  0  0  0  0  0  0  0  0  0  0  0
   -8.6999    1.8577   -0.5057 C   0  0  0  0  0  0  0  0  0  0  0  0
   -9.8672    1.2462    0.2151 C   0  0  0  0  0  0  0  0  0  0  0  0
   -6.4240    1.9235   -0.8699 C   0  0  0  0  0  0  0  0  0  0  0  0
   -5.5982    0.8040   -1.4788 C   0  0  0  0  0  0  0  0  0  0  0  0
   -4.2068    0.3898   -0.4047 S   0  0  0  0  0  0  0  0  0  0  0  0
   -4.6948   -0.7426    0.3478 O   0  0  0  0  0  0  0  0  0  0  0  0
   -3.9756    1.6578    0.2828 O   0  0  0  0  0  0  0  0  0  0  0  0
   -2.9070    0.0076   -1.6500 C   0  0  2  0  0  0  0  0  0  0  0  0
   -2.9964   -1.5690   -1.6604 C   0  0  0  0  0  0  0  0  0  0  0  0
   -2.6596   -1.9760   -0.3028 C   0  0  0  0  0  0  0  0  0  0  0  0
   -1.8709   -0.9963    0.2852 N   0  0  0  0  0  0  0  0  0  0  0  0
   -1.9558   -0.3840    1.5890 C   0  0  0  0  0  0  0  0  0  0  0  0
   -2.1318   -1.2424    2.5103 O   0  0  0  0  0  0  0  0  0  0  0  0
   -1.1182    0.7515    1.9989 C   0  0  0  0  0  0  0  0  0  0  0  0
   -0.2174    0.9961    3.0297 C   0  0  0  0  0  0  0  0  0  0  0  0
    0.7235    1.8102    2.5750 O   0  0  0  0  0  0  0  0  0  0  0  0
    0.5675    2.0147    1.2907 C   0  0  0  0  0  0  0  0  0  0  0  0
   -0.6744    1.5693    1.0209 N   0  0  0  0  0  0  0  0  0  0  0  0
    1.2238    2.7480    0.1957 C   0  0  0  0  0  0  0  0  0  0  0  0
    2.6290    3.1257    0.4854 C   0  0  0  0  0  0  0  0  0  0  0  0
    2.7749    4.2723    0.9082 O   0  0  0  0  0  0  0  0  0  0  0  0
    3.6781    2.6404   -0.4730 C   0  0  0  0  0  0  0  0  0  0  0  0
    5.0022    2.4649    0.5233 C   0  0  2  0  0  0  0  0  0  0  0  0
    5.9936    2.3739   -0.6196 O   0  0  0  0  0  0  0  0  0  0  0  0
    4.7165    0.9186    0.9215 C   0  0  0  0  0  0  0  0  0  0  0  0
    5.9181    0.4280    1.2400 C   0  0  0  0  0  0  0  0  0  0  0  0
    6.3944   -0.0563    2.5281 C   0  0  0  0  0  0  0  0  0  0  0  0
    6.4604    0.0899   -0.0899 C   0  0  0  0  0  0  0  0  0  0  0  0
    5.4302    0.1526   -0.9537 C   0  0  0  0  0  0  0  0  0  0  0  0
    4.4698   -0.9399   -0.8035 C   0  0  0  0  0  0  0  0  0  0  0  0
    4.1747   -1.5429   -2.1106 N   0  0  0  0  0  0  0  0  0  0  0  0
    4.5242   -2.9355   -2.1662 C   0  0  0  0  0  0  0  0  0  0  0  0
    5.4322   -3.4181   -2.8845 O   0  0  0  0  0  0  0  0  0  0  0  0
    3.9148   -3.6761   -1.0449 C   0  0  0  0  0  0  0  0  0  0  0  0
    2.8929   -3.0184   -0.4778 C   0  0  0  0  0  0  0  0  0  0  0  0
    1.9111   -2.5778   -1.6532 C   0  0  1  0  0  0  0  0  0  0  0  0
    1.4485   -4.1066   -1.9319 C   0  0  0  0  0  0  0  0  0  0  0  0
    0.4673   -2.3099   -0.7521 C   0  0  1  0  0  0  0  0  0  0  0  0
    1.1341   -2.2301    0.7080 C   0  0  0  0  0  0  0  0  0  0  0  0
    1.7498   -1.2053    1.2708 C   0  0  0  0  0  0  0  0  0  0  0  0
    0.8740   -3.5019    1.3666 C   0  0  0  0  0  0  0  0  0  0  0  0
    0.5577   -0.8306   -1.1356 O   0  0  0  0  0  0  0  0  0  0  0  0
   -0.6803   -0.7866   -1.8236 C   0  0  0  0  0  0  0  0  0  0  0  0
   -0.7208   -0.2109   -2.9617 O   0  0  0  0  0  0  0  0  0  0  0  0
   -1.4795    0.1077   -0.7448 C   0  0  1  0  0  0  0  0  0  0  0  0
  1  2  1  0
  2  3  1  0
  3  4  1  0
  4  5  1  0
  3  6  1  0
  6  7  1  0
  7  8  1  0
  8  9  2  0
  8 10  2  0
 11  8  1  1
 11 12  1  0
 12 13  1  0
 13 14  1  0
 14 15  1  0
 15 16  2  0
 15 17  1  0
 17 18  2  0
 18 19  1  0
 19 20  1  0
 20 21  2  0
 20 22  1  0
 22 23  1  0
 23 24  2  0
 23 25  1  0
 25 26  1  0
 26 27  1  6
 26 28  1  0
 28 29  2  0
 29 30  1  0
 29 31  1  0
 31 32  2  0
 32 33  1  0
 33 34  1  0
 34 35  1  0
 35 36  2  0
 35 37  1  0
 37 38  2  0
 38 39  1  0
 39 40  1  6
 39 41  1  0
 41 42  1  1
 42 43  1  0
 42 44  1  0
 41 45  1  0
 45 46  1  0
 46 47  2  0
 48 46  1  6
 48 11  1  0
 48 14  1  0
 21 17  1  0
M  END
>  <supplier_code>  (1164) 
DB01764

>  <zinc_id>  (1164) 
ZINC000261527196

>  <catalog_short_name>  (1164) 
dbfda

$$$$

     RDKit          3D

  5  4  0  0  0  0  0  0  0  0999 V2000
   -1.5087   -0.9632   -0.2231 C   0  0  0  0  0  0  0  0  0  0  0  0
   -0.5253    0.0499    0.6886 C   0  0  2  0  0  0  0  0  0  0  0  0
   -0.5562    1.1300   -0.4181 O   0  0  0  0  0  0  0  0  0  0  0  0
    0.8537   -0.6423    0.0233 C   0  0  0  0  0  0  0  0  0  0  0  0
    1.7365    0.4256   -0.0706 O   0  0  0  0  0  0  0  0  0  0  0  0
  2  1  1  6
  2  3  1  0
  2  4  1  0
  4  5  1  0
M  END
>  <supplier_code>  (1165) 
DB01839

>  <zinc_id>  (1165) 
ZINC000000895316

>  <catalog_short_name>  (1165) 
dbfda

$$$$

     RDKit          3D

  5  4  0  0  0  0  0  0  0  0999 V2000
   -0.8587    1.1488   -0.3602 C   0  0  0  0  0  0  0  0  0  0  0  0
   -0.6793   -0.0776    0.7329 C   0  0  1  0  0  0  0  0  0  0  0  0
   -0.7546   -1.0810   -0.4108 O   0  0  0  0  0  0  0  0  0  0  0  0
    0.9680   -0.0030    0.6658 C   0  0  0  0  0  0  0  0  0  0  0  0
    1.3246    0.0129   -0.6277 O   0  0  0  0  0  0  0  0  0  0  0  0
  2  1  1  6
  2  3  1  0
  2  4  1  0
  4  5  1  0
M  END
>  <supplier_code>  (1166) 
DB01839

>  <zinc_id>  (1166) 
ZINC000000895318

>  <catalog_short_name>  (1166) 
dbfda

$$$$

     RDKit          3D

 14 15  0  0  0  0  0  0  0  0999 V2000
    0.2172    2.2974    0.9295 O   0  0  0  0  0  0  0  0  0  0  0  0
    0.0120    1.4191    0.0380 C   0  0  0  0  0  0  0  0  0  0  0  0
    1.1170    0.4734   -0.1635 C   0  0  0  0  0  0  0  0  0  0  0  0
    1.0723   -0.7454    0.5005 C   0  0  0  0  0  0  0  0  0  0  0  0
    2.2430   -1.4365    0.7895 C   0  0  0  0  0  0  0  0  0  0  0  0
    3.3474   -1.1511    0.0049 C   0  0  0  0  0  0  0  0  0  0  0  0
    3.2958   -0.0631   -0.8577 C   0  0  0  0  0  0  0  0  0  0  0  0
    2.1662    0.7170   -1.0037 C   0  0  0  0  0  0  0  0  0  0  0  0
   -1.3306    0.8217    0.0514 C   0  0  0  0  0  0  0  0  0  0  0  0
   -1.5998   -0.0271    1.1180 C   0  0  0  0  0  0  0  0  0  0  0  0
   -2.5747   -0.9933    1.0843 C   0  0  0  0  0  0  0  0  0  0  0  0
   -2.9658   -1.4121   -0.1825 C   0  0  0  0  0  0  0  0  0  0  0  0
   -2.9783   -0.4530   -1.1854 C   0  0  0  0  0  0  0  0  0  0  0  0
   -2.0217    0.5530   -1.1234 C   0  0  0  0  0  0  0  0  0  0  0  0
  1  2  2  0
  2  3  1  0
  3  4  2  0
  4  5  1  0
  5  6  2  0
  6  7  1  0
  7  8  2  0
  2  9  1  0
  9 10  2  0
 10 11  1  0
 11 12  2  0
 12 13  1  0
 13 14  2  0
  8  3  1  0
 14  9  1  0
M  END
>  <supplier_code>  (1167) 
DB01878

>  <zinc_id>  (1167) 
ZINC000000968233

>  <catalog_short_name>  (1167) 
dbfda

$$$$

     RDKit          3D

 12 11  0  0  0  0  0  0  0  0999 V2000
   -3.0851    0.6464    0.9958 O   0  0  0  0  0  0  0  0  0  0  0  0
   -1.9669    0.2873    0.7313 C   0  0  0  0  0  0  0  0  0  0  0  0
   -1.7262    0.1766   -0.8854 C   0  0  2  0  0  0  0  0  0  0  0  0
   -2.8763   -0.8279   -0.9879 O   0  0  0  0  0  0  0  0  0  0  0  0
   -0.5837   -1.1269   -0.7167 C   0  0  1  0  0  0  0  0  0  0  0  0
   -0.3556   -1.1066   -2.2080 O   0  0  0  0  0  0  0  0  0  0  0  0
    0.7080   -0.0470   -0.3457 C   0  0  2  0  0  0  0  0  0  0  0  0
    1.6890   -0.8007   -1.2038 O   0  0  0  0  0  0  0  0  0  0  0  0
    1.0501   -0.9655    1.0946 C   0  0  2  0  0  0  0  0  0  0  0  0
    1.2399    0.2770    1.9674 O   0  0  0  0  0  0  0  0  0  0  0  0
    2.6794   -1.1212    0.8195 C   0  0  0  0  0  0  0  0  0  0  0  0
    3.2273    0.1147    0.7388 O   0  0  0  0  0  0  0  0  0  0  0  0
  1  2  2  0
  3  2  1  1
  3  4  1  0
  3  5  1  0
  5  6  1  6
  5  7  1  0
  7  8  1  6
  7  9  1  0
  9 10  1  1
  9 11  1  0
 11 12  1  0
M  END
>  <supplier_code>  (1168) 
DB01914

>  <zinc_id>  (1168) 
ZINC000100009383

>  <catalog_short_name>  (1168) 
dbfda

$$$$

     RDKit          3D

  7  6  0  0  0  0  0  0  0  0999 V2000
    2.7960    0.3355    0.1676 N   0  0  0  0  0  0  0  0  0  0  0  0
    1.7305   -0.6629    0.1107 C   0  0  0  0  0  0  0  0  0  0  0  0
    0.6622   -0.1108   -0.7750 C   0  0  0  0  0  0  0  0  0  0  0  0
   -0.9198    0.0153   -0.0240 S   0  0  0  0  0  0  0  0  0  0  0  0
   -0.8961   -0.0089    1.4646 O   0  0  0  0  0  0  0  0  0  0  0  0
   -1.8038   -1.0877   -0.4970 O   0  0  0  0  0  0  0  0  0  0  0  0
   -1.5692    1.5195   -0.4468 O   0  0  0  0  0  0  0  0  0  0  0  0
  1  2  1  0
  2  3  1  0
  3  4  1  0
  4  5  2  0
  4  6  2  0
  4  7  1  0
M  END
>  <supplier_code>  (1169) 
DB01956

>  <zinc_id>  (1169) 
ZINC000003809490

>  <catalog_short_name>  (1169) 
dbfda

$$$$

     RDKit          3D

 30 33  0  0  0  0  0  0  0  0999 V2000
   -3.3880    2.2323    0.7463 C   0  0  0  0  0  0  0  0  0  0  0  0
   -4.1657    1.3619    0.1314 C   0  0  0  0  0  0  0  0  0  0  0  0
   -4.6234    0.2979    1.0640 C   0  0  0  0  0  0  0  0  0  0  0  0
   -3.6520   -0.4420    1.5680 C   0  0  0  0  0  0  0  0  0  0  0  0
   -2.3263    0.1826    1.6965 C   0  0  0  0  0  0  0  0  0  0  0  0
   -1.3279   -0.4768    1.1263 C   0  0  0  0  0  0  0  0  0  0  0  0
   -1.4517   -1.9609    0.9511 C   0  0  0  0  0  0  0  0  0  0  0  0
   -0.3231   -2.6907    1.6730 C   0  0  0  0  0  0  0  0  0  0  0  0
    1.0323   -2.2924    1.1049 C   0  0  0  0  0  0  0  0  0  0  0  0
    0.9271   -0.9463    0.5543 C   0  0  1  0  0  0  0  0  0  0  0  0
    0.3107   -0.6608   -0.7060 C   0  0  0  0  0  0  0  0  0  0  0  0
    0.1385   -0.0902    1.7338 C   0  0  1  0  0  0  0  0  0  0  0  0
    0.2877    1.2299    0.7416 C   0  0  0  0  0  0  0  0  0  0  0  0
    1.7184    1.3410    0.8399 C   0  0  0  0  0  0  0  0  0  0  0  0
    2.3478   -0.1628    0.7357 C   0  0  2  0  0  0  0  0  0  0  0  0
    2.6409    0.0595   -0.9577 C   0  0  2  0  0  0  0  0  0  0  0  0
    2.8431   -1.5587   -1.1642 C   0  0  0  0  0  0  0  0  0  0  0  0
    4.1886    0.3588   -0.6648 C   0  0  0  0  0  0  0  0  0  0  0  0
    5.0902   -0.4084   -1.1028 C   0  0  0  0  0  0  0  0  0  0  0  0
    6.6577    0.1050   -1.0260 C   0  0  1  0  0  0  0  0  0  0  0  0
    6.3366    1.4162   -0.2430 O   0  0  0  0  0  0  0  0  0  0  0  0
    6.9177   -0.8094    0.3706 C   0  0  0  0  0  0  0  0  0  0  0  0
    6.2072   -0.3541    1.5378 C   0  0  0  0  0  0  0  0  0  0  0  0
    7.7247   -0.0694    1.3570 C   0  0  0  0  0  0  0  0  0  0  0  0
   -5.8988   -0.2744    0.4986 C   0  0  0  0  0  0  0  0  0  0  0  0
   -5.2351   -0.3888   -1.0497 C   0  0  1  0  0  0  0  0  0  0  0  0
   -6.4488   -1.2111   -1.5431 O   0  0  0  0  0  0  0  0  0  0  0  0
   -5.9158    1.0512   -1.5750 C   0  0  0  0  0  0  0  0  0  0  0  0
   -5.6430    2.0332   -0.2329 C   0  0  2  0  0  0  0  0  0  0  0  0
   -4.9697    3.1278   -1.1053 O   0  0  0  0  0  0  0  0  0  0  0  0
  1  2  2  0
  2  3  1  0
  3  4  2  0
  4  5  1  0
  5  6  2  0
  6  7  1  0
  7  8  1  0
  8  9  1  0
  9 10  1  0
 10 11  1  6
 10 12  1  0
 12 13  1  6
 13 14  1  0
 15 14  1  1
 15 16  1  0
 16 17  1  6
 16 18  1  0
 18 19  2  0
 20 19  1  1
 20 21  1  0
 20 22  1  0
 22 23  1  0
 23 24  1  0
  3 25  1  0
 25 26  1  0
 26 27  1  6
 26 28  1  0
 28 29  1  0
 29 30  1  6
 29  2  1  0
 12  6  1  0
 24 22  1  0
 15 10  1  0
M  END
>  <supplier_code>  (1170) 
DB02300

>  <zinc_id>  (1170) 
ZINC000003921872

>  <catalog_short_name>  (1170) 
dbfda

$$$$

     RDKit          3D

  4  3  0  0  0  0  0  0  0  0999 V2000
   -0.5495    1.2895   -0.1123 C   0  0  0  0  0  0  0  0  0  0  0  0
    0.0399   -0.0257    0.3657 C   0  0  0  0  0  0  0  0  0  0  0  0
   -0.8221   -1.1641   -0.1211 C   0  0  0  0  0  0  0  0  0  0  0  0
    1.3317   -0.0997   -0.1323 O   0  0  0  0  0  0  0  0  0  0  0  0
  1  2  1  0
  2  3  1  0
  2  4  1  0
M  END
>  <supplier_code>  (1171) 
DB02325

>  <zinc_id>  (1171) 
ZINC000000901159

>  <catalog_short_name>  (1171) 
dbfda

$$$$

     RDKit          3D

 11 11  0  0  0  0  0  0  0  0999 V2000
    3.4294   -0.0944    0.8272 C   0  0  0  0  0  0  0  0  0  0  0  0
    2.1958    0.0677   -0.0070 C   0  0  0  0  0  0  0  0  0  0  0  0
    1.6258   -1.0060   -0.6835 C   0  0  0  0  0  0  0  0  0  0  0  0
    0.2531   -1.2289   -0.6635 C   0  0  0  0  0  0  0  0  0  0  0  0
   -0.5883   -0.2158   -0.2340 C   0  0  0  0  0  0  0  0  0  0  0  0
   -1.9403   -0.6156    0.1955 C   0  0  0  0  0  0  0  0  0  0  0  0
   -2.8295    0.5368    0.5462 C   0  0  0  0  0  0  0  0  0  0  0  0
   -2.5853   -1.6042   -0.7378 C   0  0  0  0  0  0  0  0  0  0  0  0
   -0.0335    0.9617    0.2293 C   0  0  0  0  0  0  0  0  0  0  0  0
   -0.8717    2.0585    0.2896 O   0  0  0  0  0  0  0  0  0  0  0  0
    1.3447    1.1402    0.2378 C   0  0  0  0  0  0  0  0  0  0  0  0
  1  2  1  0
  2  3  2  0
  3  4  1  0
  4  5  2  0
  5  6  1  0
  6  7  1  0
  6  8  1  0
  5  9  1  0
  9 10  1  0
  9 11  2  0
 11  2  1  0
M  END
>  <supplier_code>  (1172) 
DB02513

>  <zinc_id>  (1172) 
ZINC000000967597

>  <catalog_short_name>  (1172) 
dbfda

$$$$

     RDKit          3D

 19 19  0  0  0  0  0  0  0  0999 V2000
    6.7288    0.3721    0.1048 O   0  0  0  0  0  0  0  0  0  0  0  0
    5.5175    0.2422    0.4574 C   0  0  0  0  0  0  0  0  0  0  0  0
    4.8919   -1.1101    0.3207 C   0  0  0  0  0  0  0  0  0  0  0  0
    4.0811   -1.1398   -0.9588 C   0  0  0  0  0  0  0  0  0  0  0  0
    2.8468   -0.2647   -0.7736 C   0  0  0  0  0  0  0  0  0  0  0  0
    2.2380   -0.6583    0.5566 C   0  0  0  0  0  0  0  0  0  0  0  0
    0.8823   -1.3180    0.3880 C   0  0  0  0  0  0  0  0  0  0  0  0
   -0.1496   -0.2304    0.4849 C   0  0  0  0  0  0  0  0  0  0  0  0
   -1.5453   -0.7598    0.3853 C   0  0  0  0  0  0  0  0  0  0  0  0
   -1.8394   -1.7098   -0.3993 O   0  0  0  0  0  0  0  0  0  0  0  0
   -2.6401   -0.0096    0.8928 N   0  0  0  0  0  0  0  0  0  0  0  0
   -3.8513    0.1961    0.1581 C   0  0  0  0  0  0  0  0  0  0  0  0
   -4.5477   -0.8202   -0.4422 C   0  0  0  0  0  0  0  0  0  0  0  0
   -5.8413   -0.5282   -0.8578 C   0  0  0  0  0  0  0  0  0  0  0  0
   -6.4993    0.5849   -0.3536 C   0  0  0  0  0  0  0  0  0  0  0  0
   -5.7021    1.6836   -0.0594 C   0  0  0  0  0  0  0  0  0  0  0  0
   -4.3334    1.4965    0.0722 C   0  0  0  0  0  0  0  0  0  0  0  0
    4.7358    1.3960    0.7479 N   0  0  0  0  0  0  0  0  0  0  0  0
    5.0274    2.5776    0.1464 O   0  0  0  0  0  0  0  0  0  0  0  0
  1  2  2  0
  2  3  1  0
  3  4  1  0
  4  5  1  0
  5  6  1  0
  6  7  1  0
  7  8  1  0
  8  9  1  0
  9 10  2  0
  9 11  1  0
 11 12  1  0
 12 13  2  0
 13 14  1  0
 14 15  2  0
 15 16  1  0
 16 17  2  0
  2 18  1  0
 18 19  1  0
 17 12  1  0
M  END
>  <supplier_code>  (1173) 
DB02546

>  <zinc_id>  (1173) 
ZINC000001543873

>  <catalog_short_name>  (1173) 
dbfda

$$$$

     RDKit          3D

 29 32  0  0  0  0  0  0  0  0999 V2000
    3.3774    1.8940    0.8574 C   0  0  0  0  0  0  0  0  0  0  0  0
    3.3259    0.2862    0.7906 C   0  0  2  0  0  0  0  0  0  0  0  0
    4.8340    0.1693    0.2135 C   0  0  0  0  0  0  0  0  0  0  0  0
    5.6536   -0.6440    1.1621 C   0  0  0  0  0  0  0  0  0  0  0  0
    5.6374   -0.2775    2.5548 C   0  0  0  0  0  0  0  0  0  0  0  0
    5.4680   -1.0414    3.5609 O   0  0  0  0  0  0  0  0  0  0  0  0
    5.0209    0.9223    2.9308 O   0  0  0  0  0  0  0  0  0  0  0  0
    2.6495    0.3508   -0.7731 C   0  0  1  0  0  0  0  0  0  0  0  0
    2.4420   -1.2621   -0.7425 C   0  0  0  0  0  0  0  0  0  0  0  0
    1.1860   -1.4679    0.0190 C   0  0  0  0  0  0  0  0  0  0  0  0
    0.4302   -0.4906   -1.0390 C   0  0  1  0  0  0  0  0  0  0  0  0
   -0.9246   -0.2643   -0.0963 C   0  0  2  0  0  0  0  0  0  0  0  0
   -1.5843   -1.7344   -0.5880 C   0  0  2  0  0  0  0  0  0  0  0  0
   -1.6500   -1.4137   -2.0691 O   0  0  0  0  0  0  0  0  0  0  0  0
   -3.1432   -1.3286   -0.3248 C   0  0  0  0  0  0  0  0  0  0  0  0
   -3.0132   -0.0047    0.6214 C   0  0  2  0  0  0  0  0  0  0  0  0
   -4.5209    0.4020    0.9338 C   0  0  0  0  0  0  0  0  0  0  0  0
   -5.7067   -0.3125    0.1061 C   0  0  2  0  0  0  0  0  0  0  0  0
   -5.2782   -1.7291    0.4841 O   0  0  0  0  0  0  0  0  0  0  0  0
   -5.0303   -0.3244   -1.3994 C   0  0  0  0  0  0  0  0  0  0  0  0
   -4.0330    0.6433   -1.5824 C   0  0  0  0  0  0  0  0  0  0  0  0
   -2.9536    0.9889   -0.6759 C   0  0  1  0  0  0  0  0  0  0  0  0
   -3.1832    2.3572   -0.2325 C   0  0  0  0  0  0  0  0  0  0  0  0
   -1.5000    0.7378   -1.3067 C   0  0  1  0  0  0  0  0  0  0  0  0
   -0.8172    2.0213   -0.5926 C   0  0  0  0  0  0  0  0  0  0  0  0
    0.7391    2.0561   -1.1283 C   0  0  2  0  0  0  0  0  0  0  0  0
    0.4663    1.3691   -2.4576 O   0  0  0  0  0  0  0  0  0  0  0  0
    1.1671    0.7214   -0.2922 C   0  0  2  0  0  0  0  0  0  0  0  0
    0.9410    0.8235    1.0658 C   0  0  0  0  0  0  0  0  0  0  0  0
  2  1  1  1
  2  3  1  0
  3  4  1  0
  4  5  1  0
  5  6  2  0
  5  7  1  0
  2  8  1  0
  8  9  1  1
  9 10  1  0
 11 10  1  1
 11 12  1  0
 12 13  1  6
 13 14  1  6
 13 15  1  0
 16 15  1  6
 16 17  1  0
 17 18  1  0
 18 19  1  1
 18 20  1  0
 20 21  1  0
 21 22  1  0
 22 23  1  1
 22 24  1  0
 24 25  1  1
 25 26  1  0
 26 27  1  6
 26 28  1  0
 28 29  1  1
 28  8  1  0
 28 11  1  0
 24 12  1  0
 22 16  1  0
M  END
>  <supplier_code>  (1174) 
DB02659

>  <zinc_id>  (1174) 
ZINC000006858022

>  <catalog_short_name>  (1174) 
dbfda

$$$$

     RDKit          3D

  9  9  0  0  0  0  0  0  0  0999 V2000
    2.1431   -0.8031    1.1036 N   0  0  0  0  0  0  0  0  0  0  0  0
    1.7060    0.0786    0.0602 C   0  0  0  0  0  0  0  0  0  0  0  0
    2.5471    0.6339   -0.6905 O   0  0  0  0  0  0  0  0  0  0  0  0
    0.2777    0.1609   -0.2773 C   0  0  0  0  0  0  0  0  0  0  0  0
   -0.4833    1.2794    0.0059 C   0  0  0  0  0  0  0  0  0  0  0  0
   -1.8203    1.0511    0.3065 C   0  0  0  0  0  0  0  0  0  0  0  0
   -2.2798   -0.2503    0.4838 C   0  0  0  0  0  0  0  0  0  0  0  0
   -1.6790   -1.1819   -0.2972 N   0  0  0  0  0  0  0  0  0  0  0  0
   -0.4114   -0.9686   -0.6950 C   0  0  0  0  0  0  0  0  0  0  0  0
  1  2  1  0
  2  3  2  0
  2  4  1  0
  4  5  2  0
  5  6  1  0
  6  7  2  0
  7  8  1  0
  8  9  2  0
  9  4  1  0
M  END
>  <supplier_code>  (1175) 
DB02701

>  <zinc_id>  (1175) 
ZINC000000005878

>  <catalog_short_name>  (1175) 
dbfda

$$$$

     RDKit          3D

  5  4  0  0  0  0  0  0  0  0999 V2000
   -1.0006   -1.0823   -0.2988 O   0  0  0  0  0  0  0  0  0  0  0  0
   -0.5399   -0.0700    0.3111 C   0  0  0  0  0  0  0  0  0  0  0  0
   -1.0443    1.1598   -0.1224 O   0  0  0  0  0  0  0  0  0  0  0  0
    0.9204   -0.1429    0.6355 C   0  0  0  0  0  0  0  0  0  0  0  0
    1.6644    0.1354   -0.5254 O   0  0  0  0  0  0  0  0  0  0  0  0
  1  2  2  0
  2  3  1  0
  2  4  1  0
  4  5  1  0
M  END
>  <supplier_code>  (1176) 
DB03085

>  <zinc_id>  (1176) 
ZINC000004658557

>  <catalog_short_name>  (1176) 
dbfda

$$$$

     RDKit          3D

 10  9  0  0  0  0  0  0  0  0999 V2000
    3.2509    1.1183    0.0900 C   0  0  0  0  0  0  0  0  0  0  0  0
    2.3187   -0.0108   -0.1148 C   0  0  0  0  0  0  0  0  0  0  0  0
    2.4409   -1.1024    0.5125 O   0  0  0  0  0  0  0  0  0  0  0  0
    1.4170   -0.0525   -1.1810 O   0  0  0  0  0  0  0  0  0  0  0  0
    0.1192   -0.5927   -0.9526 C   0  0  0  0  0  0  0  0  0  0  0  0
   -0.7263    0.5349   -0.4267 C   0  0  0  0  0  0  0  0  0  0  0  0
   -1.8715    0.0948    0.3282 N   0  0  0  0  0  0  0  0  0  0  0  0
   -1.6503    0.1990    1.7672 C   0  0  0  0  0  0  0  0  0  0  0  0
   -2.9556    1.0252    0.0163 C   0  0  0  0  0  0  0  0  0  0  0  0
   -2.3430   -1.2139   -0.0391 C   0  0  0  0  0  0  0  0  0  0  0  0
  1  2  1  0
  2  3  2  0
  2  4  1  0
  4  5  1  0
  5  6  1  0
  6  7  1  0
  7  8  1  0
  7  9  1  0
  7 10  1  0
M  CHG  1   7   1
M  END
>  <supplier_code>  (1177) 
DB03128

>  <zinc_id>  (1177) 
ZINC000003079336

>  <catalog_short_name>  (1177) 
dbfda

$$$$

     RDKit          3D

 20 19  0  0  0  0  0  0  0  0999 V2000
   -6.6096    2.1425   -2.4157 C   0  0  0  0  0  0  0  0  0  0  0  0
   -6.2910    0.9534   -1.5556 C   0  0  0  0  0  0  0  0  0  0  0  0
   -5.6772    1.3147   -0.2331 C   0  0  0  0  0  0  0  0  0  0  0  0
   -6.0934    0.3129    0.8089 C   0  0  0  0  0  0  0  0  0  0  0  0
   -4.8704   -0.4515    1.2621 C   0  0  0  0  0  0  0  0  0  0  0  0
   -4.3360   -1.3009    0.1246 C   0  0  0  0  0  0  0  0  0  0  0  0
   -2.9544   -0.8548   -0.2593 C   0  0  0  0  0  0  0  0  0  0  0  0
   -2.4992    0.3774    0.4726 C   0  0  0  0  0  0  0  0  0  0  0  0
   -1.0003    0.3472    0.6284 C   0  0  0  0  0  0  0  0  0  0  0  0
   -0.4305   -1.0226    0.2828 C   0  0  0  0  0  0  0  0  0  0  0  0
    0.1818   -0.8841   -1.1044 C   0  0  0  0  0  0  0  0  0  0  0  0
    0.9484    0.4334   -1.0944 C   0  0  0  0  0  0  0  0  0  0  0  0
    1.9804    0.3276    0.0188 C   0  0  0  0  0  0  0  0  0  0  0  0
    3.1246   -0.5344   -0.4619 C   0  0  0  0  0  0  0  0  0  0  0  0
    3.9663   -1.0627    0.6876 C   0  0  0  0  0  0  0  0  0  0  0  0
    5.1430   -1.7844    0.0699 C   0  0  0  0  0  0  0  0  0  0  0  0
    6.4229   -1.0032    0.1600 C   0  0  0  0  0  0  0  0  0  0  0  0
    6.2026    0.4705    0.0259 C   0  0  0  0  0  0  0  0  0  0  0  0
    5.4607    0.9930    0.9118 O   0  0  0  0  0  0  0  0  0  0  0  0
    7.3311    1.2261   -0.3088 O   0  0  0  0  0  0  0  0  0  0  0  0
  1  2  1  0
  2  3  1  0
  3  4  1  0
  4  5  1  0
  5  6  1  0
  6  7  1  0
  7  8  1  0
  8  9  1  0
  9 10  1  0
 10 11  1  0
 11 12  1  0
 12 13  1  0
 13 14  1  0
 14 15  1  0
 15 16  1  0
 16 17  1  0
 17 18  1  0
 18 19  2  0
 18 20  1  0
M  END
>  <supplier_code>  (1178) 
DB03193

>  <zinc_id>  (1178) 
ZINC000004978673

>  <catalog_short_name>  (1178) 
dbfda

$$$$

     RDKit          3D

  7  7  0  0  0  0  0  0  0  0999 V2000
    2.3427    0.0073   -0.0888 O   0  0  0  0  0  0  0  0  0  0  0  0
    0.9773   -0.0191    0.2142 C   0  0  0  0  0  0  0  0  0  0  0  0
    0.2811   -1.1912   -0.0568 C   0  0  0  0  0  0  0  0  0  0  0  0
   -1.0929   -1.1569    0.0879 C   0  0  0  0  0  0  0  0  0  0  0  0
   -1.7593    0.0340   -0.1821 C   0  0  0  0  0  0  0  0  0  0  0  0
   -1.0525    1.1794    0.1599 C   0  0  0  0  0  0  0  0  0  0  0  0
    0.3035    1.1466   -0.1342 C   0  0  0  0  0  0  0  0  0  0  0  0
  1  2  1  0
  2  3  2  0
  3  4  1  0
  4  5  2  0
  5  6  1  0
  6  7  2  0
  7  2  1  0
M  END
>  <supplier_code>  (1179) 
DB03255

>  <zinc_id>  (1179) 
ZINC000005133329

>  <catalog_short_name>  (1179) 
dbfda

$$$$

     RDKit          3D

 28 31  0  0  0  0  0  0  0  0999 V2000
    3.3923   -0.1919   -2.8599 C   0  0  0  0  0  0  0  0  0  0  0  0
    2.4190    0.4806   -1.7543 C   0  0  2  0  0  0  0  0  0  0  0  0
    3.5878    1.4177   -1.1429 C   0  0  0  0  0  0  0  0  0  0  0  0
    4.8010    0.5854   -0.9595 C   0  0  0  0  0  0  0  0  0  0  0  0
    5.1238    0.3952    0.4786 C   0  0  0  0  0  0  0  0  0  0  0  0
    5.9653   -0.5371    0.6542 O   0  0  0  0  0  0  0  0  0  0  0  0
    4.3096    0.8529    1.4907 O   0  0  0  0  0  0  0  0  0  0  0  0
    2.7044   -0.7526   -0.6090 C   0  0  2  0  0  0  0  0  0  0  0  0
    2.1992   -1.9342   -1.6011 C   0  0  0  0  0  0  0  0  0  0  0  0
    0.7336   -1.7931   -1.7687 C   0  0  0  0  0  0  0  0  0  0  0  0
    0.4570   -0.2672   -1.2958 C   0  0  1  0  0  0  0  0  0  0  0  0
   -1.0538   -0.5868   -0.6559 C   0  0  2  0  0  0  0  0  0  0  0  0
   -1.7361    0.2948   -1.8180 C   0  0  0  0  0  0  0  0  0  0  0  0
   -3.1504    0.3939   -1.6262 C   0  0  0  0  0  0  0  0  0  0  0  0
   -3.6098    1.1152   -0.2448 C   0  0  1  0  0  0  0  0  0  0  0  0
   -4.8410    0.0542   -0.0922 C   0  0  0  0  0  0  0  0  0  0  0  0
   -5.5560    0.5665    1.2948 C   0  0  1  0  0  0  0  0  0  0  0  0
   -6.4062   -0.6955    1.3678 O   0  0  0  0  0  0  0  0  0  0  0  0
   -4.3905   -0.1013    2.2497 C   0  0  0  0  0  0  0  0  0  0  0  0
   -3.1365    0.7537    2.0298 C   0  0  0  0  0  0  0  0  0  0  0  0
   -2.6453    0.2637    0.7537 C   0  0  1  0  0  0  0  0  0  0  0  0
   -2.8685   -1.1535    0.6441 C   0  0  0  0  0  0  0  0  0  0  0  0
   -1.2025    0.8009    0.3044 C   0  0  1  0  0  0  0  0  0  0  0  0
   -0.3042    0.2331    1.5333 C   0  0  0  0  0  0  0  0  0  0  0  0
    1.1135    0.7640    0.8240 C   0  0  1  0  0  0  0  0  0  0  0  0
    1.9783    0.2580    1.9648 O   0  0  0  0  0  0  0  0  0  0  0  0
    1.2505   -0.6429    0.0440 C   0  0  2  0  0  0  0  0  0  0  0  0
    0.8654   -1.7456    0.7945 C   0  0  0  0  0  0  0  0  0  0  0  0
  2  1  1  6
  2  3  1  0
  3  4  1  0
  4  5  1  0
  5  6  2  0
  5  7  1  0
  2  8  1  0
  8  9  1  6
  9 10  1  0
 11 10  1  6
 11 12  1  0
 12 13  1  6
 13 14  1  0
 15 14  1  6
 15 16  1  0
 16 17  1  0
 17 18  1  1
 17 19  1  0
 19 20  1  0
 20 21  1  0
 21 22  1  1
 21 23  1  0
 23 24  1  1
 24 25  1  0
 25 26  1  1
 25 27  1  0
 27 28  1  1
 27  8  1  0
 27 11  1  0
 23 12  1  0
 21 15  1  0
M  END
>  <supplier_code>  (1180) 
DB03619

>  <zinc_id>  (1180) 
ZINC000001484334

>  <catalog_short_name>  (1180) 
dbfda

$$$$

     RDKit          3D

 28 31  0  0  0  0  0  0  0  0999 V2000
    4.3978    0.2489   -1.6094 C   0  0  0  0  0  0  0  0  0  0  0  0
    3.5212    0.9131   -0.4040 C   0  0  2  0  0  0  0  0  0  0  0  0
    3.2934   -0.5115    0.2982 C   0  0  0  0  0  0  0  0  0  0  0  0
    4.0829   -0.6610    1.4952 C   0  0  0  0  0  0  0  0  0  0  0  0
    5.4689   -0.2662    1.5576 C   0  0  0  0  0  0  0  0  0  0  0  0
    6.2921   -0.0431    0.6598 O   0  0  0  0  0  0  0  0  0  0  0  0
    6.0628   -0.4932    2.8098 O   0  0  0  0  0  0  0  0  0  0  0  0
    2.0690    1.1063   -1.2783 C   0  0  1  0  0  0  0  0  0  0  0  0
    2.2582   -0.0644   -2.3922 C   0  0  0  0  0  0  0  0  0  0  0  0
    0.8423   -0.4941   -2.6516 C   0  0  0  0  0  0  0  0  0  0  0  0
   -0.0101    0.4655   -1.6644 C   0  0  1  0  0  0  0  0  0  0  0  0
   -1.0517   -0.7623   -1.1691 C   0  0  2  0  0  0  0  0  0  0  0  0
   -2.1833   -0.4594   -2.2568 C   0  0  0  0  0  0  0  0  0  0  0  0
   -3.2186    0.4451   -1.7726 C   0  0  0  0  0  0  0  0  0  0  0  0
   -4.0973   -0.2482   -0.5865 C   0  0  2  0  0  0  0  0  0  0  0  0
   -4.2523    1.1551    0.2316 C   0  0  0  0  0  0  0  0  0  0  0  0
   -5.4599    0.7782    1.2891 C   0  0  2  0  0  0  0  0  0  0  0  0
   -4.7571    1.4785    2.4393 O   0  0  0  0  0  0  0  0  0  0  0  0
   -4.7940   -0.6603    1.7335 C   0  0  0  0  0  0  0  0  0  0  0  0
   -3.2884   -0.4368    1.7882 C   0  0  0  0  0  0  0  0  0  0  0  0
   -2.8581   -0.7266    0.3646 C   0  0  1  0  0  0  0  0  0  0  0  0
   -2.5606   -2.1166    0.1081 C   0  0  0  0  0  0  0  0  0  0  0  0
   -1.7147    0.3162   -0.0501 C   0  0  1  0  0  0  0  0  0  0  0  0
   -0.6640   -0.0983    1.0955 C   0  0  0  0  0  0  0  0  0  0  0  0
    0.5979    0.9488    0.8284 C   0  0  2  0  0  0  0  0  0  0  0  0
   -0.1821    2.0233    0.0733 O   0  0  0  0  0  0  0  0  0  0  0  0
    1.0656    0.1523   -0.4978 C   0  0  2  0  0  0  0  0  0  0  0  0
    1.1399   -1.2073   -0.4393 C   0  0  0  0  0  0  0  0  0  0  0  0
  2  1  1  6
  2  3  1  0
  3  4  1  0
  4  5  1  0
  5  6  2  0
  5  7  1  0
  2  8  1  0
  8  9  1  6
  9 10  1  0
 11 10  1  6
 11 12  1  0
 12 13  1  6
 13 14  1  0
 15 14  1  6
 15 16  1  0
 16 17  1  0
 17 18  1  1
 17 19  1  0
 19 20  1  0
 20 21  1  0
 21 22  1  1
 21 23  1  0
 23 24  1  1
 24 25  1  0
 25 26  1  6
 25 27  1  0
 27 28  1  1
 27  8  1  0
 27 11  1  0
 23 12  1  0
 21 15  1  0
M  END
>  <supplier_code>  (1181) 
DB03619

>  <zinc_id>  (1181) 
ZINC000003914810

>  <catalog_short_name>  (1181) 
dbfda

$$$$

     RDKit          3D

 16 16  0  0  0  0  0  0  0  0999 V2000
    3.1038    0.0231    1.2661 O   0  0  0  0  0  0  0  0  0  0  0  0
    2.9413   -0.1391    0.0287 N   0  0  0  0  0  0  0  0  0  0  0  0
    3.8493   -0.8223   -0.7251 O   0  0  0  0  0  0  0  0  0  0  0  0
    1.5743   -0.0348   -0.3938 C   0  0  0  0  0  0  0  0  0  0  0  0
    0.8418   -1.2109   -0.2822 C   0  0  0  0  0  0  0  0  0  0  0  0
   -0.5185   -1.1589   -0.5637 C   0  0  0  0  0  0  0  0  0  0  0  0
   -1.2959   -2.2986   -0.1707 N   0  0  0  0  0  0  0  0  0  0  0  0
   -2.3286   -2.5463   -0.8255 O   0  0  0  0  0  0  0  0  0  0  0  0
   -1.3808   -2.4964    1.1978 O   0  0  0  0  0  0  0  0  0  0  0  0
   -1.1361    0.0825   -0.5107 C   0  0  0  0  0  0  0  0  0  0  0  0
   -2.5111    0.1757   -0.5803 O   0  0  0  0  0  0  0  0  0  0  0  0
   -0.4479    1.2476   -0.2090 C   0  0  0  0  0  0  0  0  0  0  0  0
   -1.0696    2.3472    0.4681 N   0  0  0  0  0  0  0  0  0  0  0  0
   -1.2194    3.4340   -0.1120 O   0  0  0  0  0  0  0  0  0  0  0  0
   -1.3293    2.2021    1.8196 O   0  0  0  0  0  0  0  0  0  0  0  0
    0.9268    1.1952   -0.4073 C   0  0  0  0  0  0  0  0  0  0  0  0
  1  2  2  0
  2  3  1  0
  2  4  1  0
  4  5  2  0
  5  6  1  0
  6  7  1  0
  7  8  2  0
  7  9  1  0
  6 10  2  0
 10 11  1  0
 10 12  1  0
 12 13  1  0
 13 14  2  0
 13 15  1  0
 12 16  2  0
 16  4  1  0
M  CHG  6   2   1   3  -1   7   1   9  -1  13   1  15  -1
M  END
>  <supplier_code>  (1182) 
DB03651

>  <zinc_id>  (1182) 
ZINC000001883067

>  <catalog_short_name>  (1182) 
dbfda

$$$$

     RDKit          3D

  8  7  0  0  0  0  0  0  0  0999 V2000
    0.0324   -0.2925    1.5145 N   0  0  0  0  0  0  0  0  0  0  0  0
    0.0900   -0.1480    0.0765 C   0  0  0  0  0  0  0  0  0  0  0  0
    1.2923   -0.9224   -0.3855 C   0  0  0  0  0  0  0  0  0  0  0  0
    2.4725   -0.2114   -0.3111 O   0  0  0  0  0  0  0  0  0  0  0  0
    0.3245    1.3174   -0.2401 C   0  0  0  0  0  0  0  0  0  0  0  0
   -0.9244    1.9597   -0.2798 O   0  0  0  0  0  0  0  0  0  0  0  0
   -1.1862   -0.5426   -0.6063 C   0  0  0  0  0  0  0  0  0  0  0  0
   -2.1010   -1.1603    0.2319 O   0  0  0  0  0  0  0  0  0  0  0  0
  1  2  1  0
  2  3  1  0
  3  4  1  0
  2  5  1  0
  5  6  1  0
  2  7  1  0
  7  8  1  0
M  END
>  <supplier_code>  (1183) 
DB03754

>  <zinc_id>  (1183) 
ZINC000000896695

>  <catalog_short_name>  (1183) 
dbfda

$$$$

     RDKit          3D

 24 23  0  0  0  0  0  0  0  0999 V2000
    6.4813   -0.3481    1.9851 C   0  0  0  0  0  0  0  0  0  0  0  0
    6.3811    0.3099    0.6211 C   0  0  0  0  0  0  0  0  0  0  0  0
    7.2125   -0.3881   -0.3979 C   0  0  0  0  0  0  0  0  0  0  0  0
    6.7744   -0.4830   -1.6492 C   0  0  0  0  0  0  0  0  0  0  0  0
    5.3259   -0.6925   -1.8546 C   0  0  0  0  0  0  0  0  0  0  0  0
    4.7192   -1.5268   -0.7665 C   0  0  0  0  0  0  0  0  0  0  0  0
    3.4605   -1.2310   -0.4432 C   0  0  0  0  0  0  0  0  0  0  0  0
    2.6996   -0.1395   -1.1182 C   0  0  0  0  0  0  0  0  0  0  0  0
    2.6351    1.0417   -0.2000 C   0  0  0  0  0  0  0  0  0  0  0  0
    1.4869    1.6530    0.0621 C   0  0  0  0  0  0  0  0  0  0  0  0
    0.2973    1.4035   -0.8017 C   0  0  0  0  0  0  0  0  0  0  0  0
    0.5817    0.2372   -1.6923 C   0  0  0  0  0  0  0  0  0  0  0  0
   -0.4677   -0.4908   -2.0568 C   0  0  0  0  0  0  0  0  0  0  0  0
   -1.4220   -0.8979   -1.0113 C   0  0  0  0  0  0  0  0  0  0  0  0
   -0.7767   -1.2675    0.2724 C   0  0  0  0  0  0  0  0  0  0  0  0
   -1.5203   -1.2489    1.3838 C   0  0  0  0  0  0  0  0  0  0  0  0
   -2.5945   -0.2082    1.4812 C   0  0  0  0  0  0  0  0  0  0  0  0
   -3.9171   -0.8095    1.7423 C   0  0  0  0  0  0  0  0  0  0  0  0
   -4.8118   -0.7518    0.7501 C   0  0  0  0  0  0  0  0  0  0  0  0
   -4.9185    0.4993   -0.0639 C   0  0  0  0  0  0  0  0  0  0  0  0
   -6.3863    0.7142   -0.3762 C   0  0  0  0  0  0  0  0  0  0  0  0
   -7.1026    0.6794    0.9369 C   0  0  0  0  0  0  0  0  0  0  0  0
   -7.3554   -0.4811    1.3801 O   0  0  0  0  0  0  0  0  0  0  0  0
   -6.7828    1.7159    1.8166 O   0  0  0  0  0  0  0  0  0  0  0  0
  1  2  1  0
  2  3  1  0
  3  4  2  0
  4  5  1  0
  5  6  1  0
  6  7  2  0
  7  8  1  0
  8  9  1  0
  9 10  2  0
 10 11  1  0
 11 12  1  0
 12 13  2  0
 13 14  1  0
 14 15  1  0
 15 16  2  0
 16 17  1  0
 17 18  1  0
 18 19  2  0
 19 20  1  0
 20 21  1  0
 21 22  1  0
 22 23  2  0
 22 24  1  0
M  END
>  <supplier_code>  (1184) 
DB03756

>  <zinc_id>  (1184) 
ZINC000004474564

>  <catalog_short_name>  (1184) 
dbfda

$$$$

     RDKit          3D

  9  9  0  0  0  0  0  0  0  0999 V2000
    2.2196    0.0289    1.1722 O   0  0  0  0  0  0  0  0  0  0  0  0
    1.7298    0.1407    0.0088 C   0  0  0  0  0  0  0  0  0  0  0  0
    2.5327   -0.1277   -1.1040 O   0  0  0  0  0  0  0  0  0  0  0  0
    0.2737    0.0781   -0.1230 C   0  0  0  0  0  0  0  0  0  0  0  0
   -0.4649    1.2427   -0.0060 C   0  0  0  0  0  0  0  0  0  0  0  0
   -1.8421    1.1186   -0.1093 C   0  0  0  0  0  0  0  0  0  0  0  0
   -2.4126   -0.0877    0.2790 C   0  0  0  0  0  0  0  0  0  0  0  0
   -1.7106   -1.2259   -0.0993 C   0  0  0  0  0  0  0  0  0  0  0  0
   -0.3256   -1.1676   -0.0184 C   0  0  0  0  0  0  0  0  0  0  0  0
  1  2  2  0
  2  3  1  0
  2  4  1  0
  4  5  2  0
  5  6  1  0
  6  7  2  0
  7  8  1  0
  8  9  2  0
  9  4  1  0
M  END
>  <supplier_code>  (1185) 
DB03793

>  <zinc_id>  (1185) 
ZINC000000001011

>  <catalog_short_name>  (1185) 
dbfda

$$$$

     RDKit          3D

 11 12  0  0  0  0  0  0  0  0999 V2000
   -1.9118    1.7088    0.7886 C   0  0  0  0  0  0  0  0  0  0  0  0
   -1.0040    0.5753    0.3973 C   0  0  0  0  0  0  0  0  0  0  0  0
   -1.2980    0.1969   -1.0302 C   0  0  0  0  0  0  0  0  0  0  0  0
   -0.4016   -0.9376   -1.5129 C   0  0  0  0  0  0  0  0  0  0  0  0
    0.5830   -1.1825   -0.3750 C   0  0  0  0  0  0  0  0  0  0  0  0
   -0.2099   -1.6928    0.7970 C   0  0  0  0  0  0  0  0  0  0  0  0
   -1.2436   -0.6675    1.2438 C   0  0  0  0  0  0  0  0  0  0  0  0
    1.2068    0.1811   -0.1011 C   0  0  0  0  0  0  0  0  0  0  0  0
    1.4504    0.8903   -1.4283 C   0  0  0  0  0  0  0  0  0  0  0  0
    2.5155   -0.0362    0.6183 C   0  0  0  0  0  0  0  0  0  0  0  0
    0.3133    0.9643    0.6025 O   0  0  0  0  0  0  0  0  0  0  0  0
  1  2  1  0
  2  3  1  0
  3  4  1  0
  4  5  1  0
  5  6  1  0
  6  7  1  0
  5  8  1  0
  8  9  1  0
  8 10  1  0
  8 11  1  0
  7  2  1  0
 11  2  1  0
M  END
>  <supplier_code>  (1186) 
DB03852

>  <zinc_id>  (1186) 
ZINC000000967566

>  <catalog_short_name>  (1186) 
dbfda

$$$$

     RDKit          3D

 12 12  0  0  0  0  0  0  0  0999 V2000
    2.9178    1.4255    0.3717 O   0  0  0  0  0  0  0  0  0  0  0  0
    2.3222    0.2983    0.7247 C   0  0  0  0  0  0  0  0  0  0  0  0
    1.1576    0.1230   -0.4194 C   0  0  2  0  0  0  0  0  0  0  0  0
    0.1417    0.7925    0.4551 O   0  0  0  0  0  0  0  0  0  0  0  0
   -1.0368    0.2857    0.1725 C   0  0  1  0  0  0  0  0  0  0  0  0
   -1.8210    0.1474    1.2508 O   0  0  0  0  0  0  0  0  0  0  0  0
   -1.7736    1.0903   -0.8758 C   0  0  0  0  0  0  0  0  0  0  0  0
   -1.4347    2.4269   -0.7704 O   0  0  0  0  0  0  0  0  0  0  0  0
   -0.8051   -1.1173   -0.6102 C   0  0  2  0  0  0  0  0  0  0  0  0
   -1.5629   -1.9759    0.3746 O   0  0  0  0  0  0  0  0  0  0  0  0
    0.6655   -1.3807    0.2209 C   0  0  1  0  0  0  0  0  0  0  0  0
    1.2293   -2.1157   -0.9531 O   0  0  0  0  0  0  0  0  0  0  0  0
  1  2  1  0
  3  2  1  1
  3  4  1  0
  4  5  1  0
  5  6  1  1
  5  7  1  0
  7  8  1  0
  5  9  1  0
  9 10  1  1
  9 11  1  0
 11 12  1  6
 11  3  1  0
M  END
>  <supplier_code>  (1187) 
DB04173

>  <zinc_id>  (1187) 
ZINC000000895040

>  <catalog_short_name>  (1187) 
dbfda

$$$$

     RDKit          3D

 23 22  0  0  0  0  0  0  0  0999 V2000
   -6.4419   -2.6930   -0.1943 C   0  0  0  0  0  0  0  0  0  0  0  0
   -6.9571   -1.3837    0.3729 C   0  0  0  0  0  0  0  0  0  0  0  0
   -5.8071   -0.4065    0.5166 C   0  0  0  0  0  0  0  0  0  0  0  0
   -6.4158    0.9812    0.5951 C   0  0  0  0  0  0  0  0  0  0  0  0
   -5.4192    1.9274   -0.0254 C   0  0  0  0  0  0  0  0  0  0  0  0
   -4.8047    1.3019   -1.2613 C   0  0  0  0  0  0  0  0  0  0  0  0
   -3.3610    0.8810   -1.0115 C   0  0  0  0  0  0  0  0  0  0  0  0
   -2.9281    1.5511    0.2700 C   0  0  0  0  0  0  0  0  0  0  0  0
   -1.6503    0.9931    0.8277 C   0  0  0  0  0  0  0  0  0  0  0  0
   -0.7028    2.1757    1.0141 C   0  0  0  0  0  0  0  0  0  0  0  0
    0.4115    1.8999    0.1188 N   0  0  0  0  0  0  0  0  0  0  0  0
    1.2717    3.0344   -0.0845 C   0  0  0  0  0  0  0  0  0  0  0  0
   -0.0607    1.4403   -1.1832 C   0  0  0  0  0  0  0  0  0  0  0  0
    1.1412    0.7643    0.6793 C   0  0  0  0  0  0  0  0  0  0  0  0
    2.2518    0.4755   -0.3265 C   0  0  0  0  0  0  0  0  0  0  0  0
    1.9051   -0.7183   -1.1944 C   0  0  0  0  0  0  0  0  0  0  0  0
    3.1006   -1.6600   -1.1050 C   0  0  0  0  0  0  0  0  0  0  0  0
    3.3692   -1.9351    0.3623 C   0  0  0  0  0  0  0  0  0  0  0  0
    4.2332   -0.8768    0.9930 C   0  0  0  0  0  0  0  0  0  0  0  0
    5.6409   -1.3406    1.2515 C   0  0  0  0  0  0  0  0  0  0  0  0
    6.4895   -0.9998    0.0379 C   0  0  0  0  0  0  0  0  0  0  0  0
    7.0338   -2.2795   -0.5408 C   0  0  0  0  0  0  0  0  0  0  0  0
    7.7002   -3.1326    0.5080 C   0  0  0  0  0  0  0  0  0  0  0  0
  1  2  1  0
  2  3  1  0
  3  4  1  0
  4  5  1  0
  5  6  1  0
  6  7  1  0
  7  8  1  0
  8  9  1  0
  9 10  1  0
 10 11  1  0
 11 12  1  0
 11 13  1  0
 11 14  1  0
 14 15  1  0
 15 16  1  0
 16 17  1  0
 17 18  1  0
 18 19  1  0
 19 20  1  0
 20 21  1  0
 21 22  1  0
 22 23  1  0
M  CHG  1  11   1
M  END
>  <supplier_code>  (1188) 
DB04221

>  <zinc_id>  (1188) 
ZINC000014881137

>  <catalog_short_name>  (1188) 
dbfda

$$$$

     RDKit          3D

 13 12  0  0  0  0  0  0  0  0999 V2000
    2.4981   -2.0013   -0.5627 O   0  0  0  0  0  0  0  0  0  0  0  0
    2.3701   -0.7597   -0.3375 C   0  0  0  0  0  0  0  0  0  0  0  0
    3.5307    0.0139   -0.4379 O   0  0  0  0  0  0  0  0  0  0  0  0
    1.1145   -0.1395   -0.8129 C   0  0  0  0  0  0  0  0  0  0  0  0
    0.1443    0.1432    0.3301 C   0  0  0  0  0  0  0  0  0  0  0  0
    0.9036    0.3543    1.4925 O   0  0  0  0  0  0  0  0  0  0  0  0
   -0.8441   -0.9897    0.5101 C   0  0  0  0  0  0  0  0  0  0  0  0
   -2.2564   -0.5267    0.3530 C   0  0  0  0  0  0  0  0  0  0  0  0
   -2.9948   -0.6179    1.3802 O   0  0  0  0  0  0  0  0  0  0  0  0
   -2.8748   -0.8191   -0.8666 O   0  0  0  0  0  0  0  0  0  0  0  0
   -0.5399    1.4219   -0.0422 C   0  0  0  0  0  0  0  0  0  0  0  0
    0.0528    2.4836    0.3153 O   0  0  0  0  0  0  0  0  0  0  0  0
   -1.1042    1.4370   -1.3213 O   0  0  0  0  0  0  0  0  0  0  0  0
  1  2  2  0
  2  3  1  0
  2  4  1  0
  4  5  1  0
  5  6  1  0
  5  7  1  0
  7  8  1  0
  8  9  2  0
  8 10  1  0
  5 11  1  0
 11 12  2  0
 11 13  1  0
M  END
>  <supplier_code>  (1189) 
DB04272

>  <zinc_id>  (1189) 
ZINC000000895081

>  <catalog_short_name>  (1189) 
dbfda

$$$$

     RDKit          3D

 19 21  0  0  0  0  0  0  0  0999 V2000
    4.3431   -0.8828   -0.9050 O   0  0  0  0  0  0  0  0  0  0  0  0
    3.6568   -0.2725   -0.4614 C   0  0  0  0  0  0  0  0  0  0  0  0
    3.8346    1.0630   -0.3165 N   0  0  0  0  0  0  0  0  0  0  0  0
    2.9045    1.8819    0.1740 C   0  0  0  0  0  0  0  0  0  0  0  0
    1.6799    1.4225    0.4894 N   0  0  0  0  0  0  0  0  0  0  0  0
    1.3983    0.1038    0.3724 C   0  0  0  0  0  0  0  0  0  0  0  0
    2.4401   -0.7439    0.0182 C   0  0  0  0  0  0  0  0  0  0  0  0
    2.0048   -1.9795    0.3397 N   0  0  0  0  0  0  0  0  0  0  0  0
    0.6778   -1.8876    0.4214 C   0  0  0  0  0  0  0  0  0  0  0  0
    0.2773   -0.6110    0.6550 N   0  0  0  0  0  0  0  0  0  0  0  0
   -0.9682   -0.0784   -0.2292 C   0  0  2  0  0  0  0  0  0  0  0  0
   -1.5591    0.6930    0.9800 O   0  0  0  0  0  0  0  0  0  0  0  0
   -2.5399    0.9754   -0.1663 C   0  0  2  0  0  0  0  0  0  0  0  0
   -3.5451    1.8539    0.8386 C   0  0  0  0  0  0  0  0  0  0  0  0
   -3.5834    3.0542    0.1387 O   0  0  0  0  0  0  0  0  0  0  0  0
   -3.4000   -0.5014    0.1635 C   0  0  1  0  0  0  0  0  0  0  0  0
   -3.6803   -0.6811   -1.3181 O   0  0  0  0  0  0  0  0  0  0  0  0
   -1.9547   -1.4487    0.2243 C   0  0  1  0  0  0  0  0  0  0  0  0
   -1.9865   -1.9610   -1.2014 O   0  0  0  0  0  0  0  0  0  0  0  0
  1  2  2  0
  2  3  1  0
  3  4  1  0
  4  5  2  0
  5  6  1  0
  6  7  2  0
  7  8  1  0
  8  9  2  0
  9 10  1  0
 11 10  1  1
 11 12  1  0
 12 13  1  0
 13 14  1  1
 14 15  1  0
 13 16  1  0
 16 17  1  6
 16 18  1  0
 18 19  1  6
  7  2  1  0
 18 11  1  0
 10  6  1  0
M  END
>  <supplier_code>  (1190) 
DB04335

>  <zinc_id>  (1190) 
ZINC000008855117

>  <catalog_short_name>  (1190) 
dbfda

$$$$

     RDKit          3D

  6  5  0  0  0  0  0  0  0  0999 V2000
   -1.0931    0.9675    0.8412 C   0  0  0  0  0  0  0  0  0  0  0  0
   -0.6917    0.3680   -0.6505 C   0  0  2  0  0  0  0  0  0  0  0  0
   -1.3970   -0.9580   -0.3795 O   0  0  0  0  0  0  0  0  0  0  0  0
    0.7495   -0.1900   -0.1448 C   0  0  0  0  0  0  0  0  0  0  0  0
    0.7169   -0.8143    0.9288 O   0  0  0  0  0  0  0  0  0  0  0  0
    1.7153    0.6268   -0.5952 O   0  0  0  0  0  0  0  0  0  0  0  0
  2  1  1  1
  2  3  1  0
  2  4  1  0
  4  5  2  0
  4  6  1  0
M  END
>  <supplier_code>  (1191) 
DB04398

>  <zinc_id>  (1191) 
ZINC000004658560

>  <catalog_short_name>  (1191) 
dbfda

$$$$

     RDKit          3D

  6  5  0  0  0  0  0  0  0  0999 V2000
    1.4513   -0.7383   -0.8066 C   0  0  0  0  0  0  0  0  0  0  0  0
    0.8142   -0.1624    0.6405 C   0  0  1  0  0  0  0  0  0  0  0  0
    1.0468    1.3144    0.2302 O   0  0  0  0  0  0  0  0  0  0  0  0
   -0.7133   -0.1908    0.0388 C   0  0  0  0  0  0  0  0  0  0  0  0
   -0.9177    0.4761   -0.9564 O   0  0  0  0  0  0  0  0  0  0  0  0
   -1.6814   -0.6990    0.8534 O   0  0  0  0  0  0  0  0  0  0  0  0
  2  1  1  6
  2  3  1  0
  2  4  1  0
  4  5  2  0
  4  6  1  0
M  END
>  <supplier_code>  (1192) 
DB04398

>  <zinc_id>  (1192) 
ZINC000004658562

>  <catalog_short_name>  (1192) 
dbfda

$$$$

     RDKit          3D

 12 12  0  0  0  0  0  0  0  0999 V2000
   -1.2210   -2.0414    0.4054 O   0  0  0  0  0  0  0  0  0  0  0  0
   -0.7515   -1.1337    0.1227 C   0  0  0  0  0  0  0  0  0  0  0  0
   -0.2856   -0.8690   -1.1206 O   0  0  0  0  0  0  0  0  0  0  0  0
    0.9219    0.0994   -1.2437 C   0  0  2  0  0  0  0  0  0  0  0  0
    1.9913   -1.1368   -0.9544 C   0  0  0  0  0  0  0  0  0  0  0  0
    2.5990   -0.9059    0.2288 O   0  0  0  0  0  0  0  0  0  0  0  0
    0.7913    0.5636    0.4375 C   0  0  1  0  0  0  0  0  0  0  0  0
    1.5574    1.8516    0.2409 O   0  0  0  0  0  0  0  0  0  0  0  0
   -0.7050    1.3538    0.0930 C   0  0  2  0  0  0  0  0  0  0  0  0
   -0.6231    2.1180    1.3956 O   0  0  0  0  0  0  0  0  0  0  0  0
   -1.6544    0.0606    0.8008 C   0  0  1  0  0  0  0  0  0  0  0  0
   -2.6203    0.0398   -0.4058 O   0  0  0  0  0  0  0  0  0  0  0  0
  1  2  2  0
  2  3  1  0
  3  4  1  0
  4  5  1  1
  5  6  1  0
  4  7  1  0
  7  8  1  6
  7  9  1  0
  9 10  1  1
  9 11  1  0
 11 12  1  6
 11  2  1  0
M  END
>  <supplier_code>  (1193) 
DB04564

>  <zinc_id>  (1193) 
ZINC000002539702

>  <catalog_short_name>  (1193) 
dbfda

$$$$

     RDKit          3D

 24 27  0  0  0  0  0  0  0  0999 V2000
   -3.4965    1.0545    1.6514 C   0  0  0  0  0  0  0  0  0  0  0  0
   -3.4491   -0.3500    1.3546 C   0  0  2  0  0  0  0  0  0  0  0  0
   -2.3659   -1.1413    1.9551 C   0  0  0  0  0  0  0  0  0  0  0  0
   -1.0772   -0.3480    1.7299 C   0  0  0  0  0  0  0  0  0  0  0  0
   -0.8752   -0.5916    0.1087 C   0  0  2  0  0  0  0  0  0  0  0  0
    0.3857    0.4262    0.0388 C   0  0  0  0  0  0  0  0  0  0  0  0
    1.4333    0.0854    0.8756 C   0  0  0  0  0  0  0  0  0  0  0  0
    2.7493    0.2221    0.4482 C   0  0  0  0  0  0  0  0  0  0  0  0
    3.0544    0.2868   -0.9039 C   0  0  0  0  0  0  0  0  0  0  0  0
    4.2156   -0.3473   -1.3459 O   0  0  0  0  0  0  0  0  0  0  0  0
    5.6192   -0.0954   -0.4163 S   0  0  0  0  0  0  0  0  0  0  0  0
    5.4896    1.1197    0.4650 O   0  0  0  0  0  0  0  0  0  0  0  0
    6.7380    0.1475   -1.3955 O   0  0  0  0  0  0  0  0  0  0  0  0
    5.9680   -1.3894    0.5803 O   0  0  0  0  0  0  0  0  0  0  0  0
    2.0141    0.6173   -1.7545 C   0  0  0  0  0  0  0  0  0  0  0  0
    0.6992    0.6461   -1.2993 C   0  0  0  0  0  0  0  0  0  0  0  0
   -0.4129    1.1525   -2.1629 C   0  0  0  0  0  0  0  0  0  0  0  0
   -1.7318    0.5078   -1.8438 C   0  0  0  0  0  0  0  0  0  0  0  0
   -1.9846    0.6598   -0.2595 C   0  0  1  0  0  0  0  0  0  0  0  0
   -3.2549   -0.4799   -0.2742 C   0  0  2  0  0  0  0  0  0  0  0  0
   -4.4146    0.6659   -0.4763 C   0  0  0  0  0  0  0  0  0  0  0  0
   -5.5085   -0.0685    0.2965 C   0  0  0  0  0  0  0  0  0  0  0  0
   -4.7956   -0.9252    1.3070 C   0  0  0  0  0  0  0  0  0  0  0  0
   -4.9996   -2.1390    1.3212 O   0  0  0  0  0  0  0  0  0  0  0  0
  2  1  1  1
  2  3  1  0
  3  4  1  0
  5  4  1  1
  5  6  1  0
  6  7  2  0
  7  8  1  0
  8  9  2  0
  9 10  1  0
 10 11  1  0
 11 12  2  0
 11 13  2  0
 11 14  1  0
  9 15  1  0
 15 16  2  0
 16 17  1  0
 17 18  1  0
 19 18  1  6
 19 20  1  0
 20 21  1  6
 21 22  1  0
 22 23  1  0
 23 24  2  0
 20  2  1  0
 23  2  1  0
 19  5  1  0
 16  6  1  0
M  END
>  <supplier_code>  (1194) 
DB04574

>  <zinc_id>  (1194) 
ZINC000003876186

>  <catalog_short_name>  (1194) 
dbfda

$$$$

     RDKit          3D

 13 14  0  0  0  0  0  0  0  0999 V2000
    1.5541   -2.0869   -0.8114 O   0  0  0  0  0  0  0  0  0  0  0  0
    1.0668   -0.8087   -0.5559 C   0  0  0  0  0  0  0  0  0  0  0  0
    1.9593    0.1509   -0.0921 C   0  0  0  0  0  0  0  0  0  0  0  0
    3.7594   -0.4220    0.8618 I   0  0  0  0  0  0  0  0  0  0  0  0
    1.4553    1.4416    0.0299 C   0  0  0  0  0  0  0  0  0  0  0  0
    0.0808    1.6419   -0.0183 C   0  0  0  0  0  0  0  0  0  0  0  0
   -0.5926    3.2620   -0.1639 Cl  0  0  0  0  0  0  0  0  0  0  0  0
   -0.8040    0.5708   -0.0330 C   0  0  0  0  0  0  0  0  0  0  0  0
   -2.0153    0.7064    0.6160 C   0  0  0  0  0  0  0  0  0  0  0  0
   -2.7428   -0.4634    0.7945 C   0  0  0  0  0  0  0  0  0  0  0  0
   -2.2379   -1.6625    0.3266 C   0  0  0  0  0  0  0  0  0  0  0  0
   -1.1769   -1.6679   -0.5189 N   0  0  0  0  0  0  0  0  0  0  0  0
   -0.3062   -0.6622   -0.4356 C   0  0  0  0  0  0  0  0  0  0  0  0
  1  2  1  0
  2  3  2  0
  3  4  1  0
  3  5  1  0
  5  6  2  0
  6  7  1  0
  6  8  1  0
  8  9  2  0
  9 10  1  0
 10 11  2  0
 11 12  1  0
 12 13  2  0
 13  2  1  0
 13  8  1  0
M  END
>  <supplier_code>  (1195) 
DB04815

>  <zinc_id>  (1195) 
ZINC000006409735

>  <catalog_short_name>  (1195) 
dbfda

$$$$

     RDKit          3D

 37 41  0  0  0  0  0  0  0  0999 V2000
    4.8596    1.1306   -3.2348 C   0  0  0  0  0  0  0  0  0  0  0  0
    5.3711    1.3263   -2.0773 C   0  0  0  0  0  0  0  0  0  0  0  0
    6.6732    1.1522   -1.7594 N   0  0  0  0  0  0  0  0  0  0  0  0
    6.7678    0.9494   -0.4446 N   0  0  0  0  0  0  0  0  0  0  0  0
    5.5985    1.4594    0.0280 C   0  0  0  0  0  0  0  0  0  0  0  0
    5.3290    1.8328    1.4272 C   0  0  0  0  0  0  0  0  0  0  0  0
    6.6773    1.8366    2.1524 C   0  0  0  0  0  0  0  0  0  0  0  0
    4.8410    3.2438    1.6098 C   0  0  0  0  0  0  0  0  0  0  0  0
    4.6878    1.2414   -0.9137 N   0  0  0  0  0  0  0  0  0  0  0  0
    3.2592    1.1454   -0.9264 C   0  0  0  0  0  0  0  0  0  0  0  0
    2.9106    0.0616   -1.9029 C   0  0  0  0  0  0  0  0  0  0  0  0
    2.0538   -1.0327   -1.0204 C   0  0  1  0  0  0  0  0  0  0  0  0
    2.9789   -0.8104    0.3129 C   0  0  0  0  0  0  0  0  0  0  0  0
    1.9201   -0.8877    1.2013 C   0  0  0  0  0  0  0  0  0  0  0  0
    1.2994    0.5612    0.6887 C   0  0  1  0  0  0  0  0  0  0  0  0
    2.7007    1.3240    0.3072 C   0  0  0  0  0  0  0  0  0  0  0  0
    0.9625    0.0421   -0.7446 N   0  0  0  0  0  0  0  0  0  0  0  0
   -0.2965   -0.6063   -0.6467 C   0  0  0  0  0  0  0  0  0  0  0  0
   -1.1694   -0.5148   -1.8448 C   0  0  0  0  0  0  0  0  0  0  0  0
   -2.6565   -0.9989   -1.3207 C   0  0  2  0  0  0  0  0  0  0  0  0
   -2.6287    0.0364   -0.1280 N   0  0  0  0  0  0  0  0  0  0  0  0
   -3.3192   -0.4469    1.0345 C   0  0  0  0  0  0  0  0  0  0  0  0
   -2.4673   -1.1771    1.5761 O   0  0  0  0  0  0  0  0  0  0  0  0
   -4.1384    0.4917    1.8582 C   0  0  0  0  0  0  0  0  0  0  0  0
   -5.5851    0.0204    1.9067 C   0  0  0  0  0  0  0  0  0  0  0  0
   -6.3073    0.3246    0.6002 C   0  0  0  0  0  0  0  0  0  0  0  0
   -6.2231    1.8083    0.3490 C   0  0  0  0  0  0  0  0  0  0  0  0
   -6.9456    2.0902   -0.7808 F   0  0  0  0  0  0  0  0  0  0  0  0
   -6.7255    2.5638    1.3647 F   0  0  0  0  0  0  0  0  0  0  0  0
   -4.7841    2.1583    0.0841 C   0  0  0  0  0  0  0  0  0  0  0  0
   -4.0205    1.8984    1.3501 C   0  0  0  0  0  0  0  0  0  0  0  0
   -2.1088   -2.2997   -0.5079 C   0  0  0  0  0  0  0  0  0  0  0  0
   -3.1556   -3.2256   -0.3294 C   0  0  0  0  0  0  0  0  0  0  0  0
   -2.7664   -4.4721    0.1616 C   0  0  0  0  0  0  0  0  0  0  0  0
   -1.4940   -4.9419   -0.1261 C   0  0  0  0  0  0  0  0  0  0  0  0
   -0.8437   -4.2925   -1.1423 C   0  0  0  0  0  0  0  0  0  0  0  0
   -1.2548   -2.9923   -1.3802 C   0  0  0  0  0  0  0  0  0  0  0  0
  1  2  1  0
  2  3  2  0
  3  4  1  0
  4  5  2  0
  5  6  1  0
  6  7  1  0
  6  8  1  0
  5  9  1  0
  9 10  1  0
 10 11  1  0
 12 11  1  6
 12 13  1  0
 13 14  1  0
 15 14  1  1
 15 16  1  0
 15 17  1  0
 17 18  1  0
 18 19  1  0
 20 19  1  6
 20 21  1  0
 21 22  1  0
 22 23  2  0
 22 24  1  0
 24 25  1  0
 25 26  1  0
 26 27  1  0
 27 28  1  0
 27 29  1  0
 27 30  1  0
 30 31  1  0
 20 32  1  0
 32 33  2  0
 33 34  1  0
 34 35  2  0
 35 36  1  0
 36 37  2  0
  9  2  1  0
 16 10  1  0
 31 24  1  0
 37 32  1  0
 17 12  1  0
M  END
>  <supplier_code>  (1196) 
DB04835

>  <zinc_id>  (1196) 
ZINC000003817234

>  <catalog_short_name>  (1196) 
dbfda

$$$$

     RDKit          3D

 37 41  0  0  0  0  0  0  0  0999 V2000
   -6.6306   -1.9083   -1.0851 C   0  0  0  0  0  0  0  0  0  0  0  0
   -6.3082   -0.6222   -0.8981 C   0  0  0  0  0  0  0  0  0  0  0  0
   -7.2266    0.3604   -1.0961 N   0  0  0  0  0  0  0  0  0  0  0  0
   -6.6422    1.5131   -0.7723 N   0  0  0  0  0  0  0  0  0  0  0  0
   -5.5872    1.1626   -0.0072 C   0  0  0  0  0  0  0  0  0  0  0  0
   -4.6523    2.1402    0.5679 C   0  0  0  0  0  0  0  0  0  0  0  0
   -5.5508    3.1167    1.3344 C   0  0  0  0  0  0  0  0  0  0  0  0
   -4.1690    2.9702   -0.6240 C   0  0  0  0  0  0  0  0  0  0  0  0
   -5.1608   -0.0650   -0.3976 N   0  0  0  0  0  0  0  0  0  0  0  0
   -4.5627   -1.0517    0.7039 C   0  0  2  0  0  0  0  0  0  0  0  0
   -3.1783   -0.2535    0.8851 C   0  0  0  0  0  0  0  0  0  0  0  0
   -1.8943   -1.2254    0.6635 C   0  0  1  0  0  0  0  0  0  0  0  0
   -2.5509   -2.7265    0.5868 C   0  0  0  0  0  0  0  0  0  0  0  0
   -2.1560   -3.1464   -0.8401 C   0  0  0  0  0  0  0  0  0  0  0  0
   -3.0194   -1.8607   -1.4607 C   0  0  1  0  0  0  0  0  0  0  0  0
   -4.1637   -2.1436   -0.3848 C   0  0  0  0  0  0  0  0  0  0  0  0
   -1.9839   -0.8816   -0.8404 N   0  0  0  0  0  0  0  0  0  0  0  0
   -0.8464   -1.1279   -1.5389 C   0  0  0  0  0  0  0  0  0  0  0  0
    0.4754   -1.5203   -1.2703 C   0  0  0  0  0  0  0  0  0  0  0  0
    1.4564   -0.1915   -1.2265 C   0  0  2  0  0  0  0  0  0  0  0  0
    2.7931   -0.8542   -1.7527 N   0  0  0  0  0  0  0  0  0  0  0  0
    3.9601   -0.4823   -1.1187 C   0  0  0  0  0  0  0  0  0  0  0  0
    3.9383   -1.3901   -0.2085 O   0  0  0  0  0  0  0  0  0  0  0  0
    5.2037    0.1219   -1.1779 C   0  0  0  0  0  0  0  0  0  0  0  0
    5.7981    1.0109   -2.1231 C   0  0  0  0  0  0  0  0  0  0  0  0
    7.2380    1.3295   -1.7920 C   0  0  0  0  0  0  0  0  0  0  0  0
    7.4261    1.8648   -0.3946 C   0  0  0  0  0  0  0  0  0  0  0  0
    6.6843    3.0008   -0.1614 F   0  0  0  0  0  0  0  0  0  0  0  0
    8.7205    2.0301   -0.0303 F   0  0  0  0  0  0  0  0  0  0  0  0
    6.8818    0.7616    0.5100 C   0  0  0  0  0  0  0  0  0  0  0  0
    5.3791    0.7856    0.1942 C   0  0  0  0  0  0  0  0  0  0  0  0
    1.7974   -0.3599    0.3299 C   0  0  0  0  0  0  0  0  0  0  0  0
    1.5411    0.9391    0.7779 C   0  0  0  0  0  0  0  0  0  0  0  0
    1.8673    1.1468    2.0911 C   0  0  0  0  0  0  0  0  0  0  0  0
    2.1296    0.0425    2.9021 C   0  0  0  0  0  0  0  0  0  0  0  0
    1.5305   -1.1438    2.4954 C   0  0  0  0  0  0  0  0  0  0  0  0
    1.4624   -1.3418    1.1344 C   0  0  0  0  0  0  0  0  0  0  0  0
  1  2  1  0
  2  3  2  0
  3  4  1  0
  4  5  2  0
  5  6  1  0
  6  7  1  0
  6  8  1  0
  5  9  1  0
 10  9  1  6
 10 11  1  0
 12 11  1  1
 12 13  1  0
 13 14  1  0
 15 14  1  1
 15 16  1  0
 15 17  1  0
 17 18  1  0
 18 19  1  0
 20 19  1  1
 20 21  1  0
 21 22  1  0
 22 23  2  0
 22 24  1  0
 24 25  1  0
 25 26  1  0
 26 27  1  0
 27 28  1  0
 27 29  1  0
 27 30  1  0
 30 31  1  0
 20 32  1  0
 32 33  2  0
 33 34  1  0
 34 35  2  0
 35 36  1  0
 36 37  2  0
  9  2  1  0
 16 10  1  0
 31 24  1  0
 37 32  1  0
 17 12  1  0
M  END
>  <supplier_code>  (1197) 
DB04835

>  <zinc_id>  (1197) 
ZINC000100003902

>  <catalog_short_name>  (1197) 
dbfda

$$$$

     RDKit          3D

 20 21  0  0  0  0  0  0  0  0999 V2000
    3.5171   -1.8058    0.6950 C   0  0  0  0  0  0  0  0  0  0  0  0
    3.3431   -1.2826   -0.0416 N   0  0  0  0  0  0  0  0  0  0  0  0
    4.5255   -0.8201   -0.7371 C   0  0  0  0  0  0  0  0  0  0  0  0
    2.4658   -0.1563    0.1897 C   0  0  0  0  0  0  0  0  0  0  0  0
    1.1759   -0.5979    0.8543 C   0  0  0  0  0  0  0  0  0  0  0  0
    0.0515   -0.2482   -0.0774 C   0  0  1  0  0  0  0  0  0  0  0  0
    0.4287   -0.7011   -1.3517 O   0  0  0  0  0  0  0  0  0  0  0  0
   -1.2130   -0.9755    0.2499 C   0  0  0  0  0  0  0  0  0  0  0  0
   -2.3273   -0.5853   -0.4835 C   0  0  0  0  0  0  0  0  0  0  0  0
   -3.4269   -1.3946   -0.6015 C   0  0  0  0  0  0  0  0  0  0  0  0
   -3.3991   -2.6495   -0.0106 C   0  0  0  0  0  0  0  0  0  0  0  0
   -2.2199   -3.1666    0.4955 C   0  0  0  0  0  0  0  0  0  0  0  0
   -1.1224   -2.3365    0.5081 C   0  0  0  0  0  0  0  0  0  0  0  0
   -0.1921    1.2022   -0.1916 C   0  0  0  0  0  0  0  0  0  0  0  0
   -0.6830    1.7046   -1.3792 C   0  0  0  0  0  0  0  0  0  0  0  0
   -0.7305    3.0664   -1.5582 C   0  0  0  0  0  0  0  0  0  0  0  0
   -0.2155    3.9186   -0.6005 C   0  0  0  0  0  0  0  0  0  0  0  0
    0.0495    3.3945    0.6540 C   0  0  0  0  0  0  0  0  0  0  0  0
    0.0661    2.0347    0.8818 C   0  0  0  0  0  0  0  0  0  0  0  0
   -0.0936    1.3990    2.5046 Cl  0  0  0  0  0  0  0  0  0  0  0  0
  1  2  1  0
  2  3  1  0
  2  4  1  0
  4  5  1  0
  6  5  1  1
  6  7  1  0
  6  8  1  0
  8  9  2  0
  9 10  1  0
 10 11  2  0
 11 12  1  0
 12 13  2  0
  6 14  1  0
 14 15  2  0
 15 16  1  0
 16 17  2  0
 17 18  1  0
 18 19  2  0
 19 20  1  0
 13  8  1  0
 19 14  1  0
M  END
>  <supplier_code>  (1198) 
DB04837

>  <zinc_id>  (1198) 
ZINC000000057253

>  <catalog_short_name>  (1198) 
dbfda

$$$$

     RDKit          3D

 20 21  0  0  0  0  0  0  0  0999 V2000
    4.3822   -0.1062    1.2773 C   0  0  0  0  0  0  0  0  0  0  0  0
    3.6009    0.0102    0.1318 N   0  0  0  0  0  0  0  0  0  0  0  0
    4.3144   -0.3136   -1.0916 C   0  0  0  0  0  0  0  0  0  0  0  0
    2.5011   -0.9228    0.2280 C   0  0  0  0  0  0  0  0  0  0  0  0
    1.3297   -0.1932    0.8255 C   0  0  0  0  0  0  0  0  0  0  0  0
    0.2713    0.0152   -0.2354 C   0  0  2  0  0  0  0  0  0  0  0  0
    0.7972   -0.1780   -1.5051 O   0  0  0  0  0  0  0  0  0  0  0  0
   -0.2242    1.4141   -0.0511 C   0  0  0  0  0  0  0  0  0  0  0  0
   -0.5510    2.1810   -1.1501 C   0  0  0  0  0  0  0  0  0  0  0  0
   -1.2258    3.3732   -0.9495 C   0  0  0  0  0  0  0  0  0  0  0  0
   -1.9522    3.4902    0.2277 C   0  0  0  0  0  0  0  0  0  0  0  0
   -1.5328    2.8289    1.3537 C   0  0  0  0  0  0  0  0  0  0  0  0
   -0.6767    1.7430    1.2153 C   0  0  0  0  0  0  0  0  0  0  0  0
   -0.8579   -0.9101    0.0104 C   0  0  0  0  0  0  0  0  0  0  0  0
   -1.4260   -0.9324    1.2687 C   0  0  0  0  0  0  0  0  0  0  0  0
   -2.5017   -1.7708    1.5148 C   0  0  0  0  0  0  0  0  0  0  0  0
   -2.5693   -2.9315    0.7560 C   0  0  0  0  0  0  0  0  0  0  0  0
   -2.0221   -2.9714   -0.5169 C   0  0  0  0  0  0  0  0  0  0  0  0
   -1.0944   -1.9895   -0.8277 C   0  0  0  0  0  0  0  0  0  0  0  0
   -0.5626   -1.8362   -2.4816 Cl  0  0  0  0  0  0  0  0  0  0  0  0
  1  2  1  0
  2  3  1  0
  2  4  1  0
  4  5  1  0
  6  5  1  1
  6  7  1  0
  6  8  1  0
  8  9  2  0
  9 10  1  0
 10 11  2  0
 11 12  1  0
 12 13  2  0
  6 14  1  0
 14 15  2  0
 15 16  1  0
 16 17  2  0
 17 18  1  0
 18 19  2  0
 19 20  1  0
 13  8  1  0
 19 14  1  0
M  END
>  <supplier_code>  (1199) 
DB04837

>  <zinc_id>  (1199) 
ZINC000000057254

>  <catalog_short_name>  (1199) 
dbfda

$$$$

     RDKit          3D

 25 27  0  0  0  0  0  0  0  0999 V2000
    4.2589   -0.6740    0.1235 C   0  0  0  0  0  0  0  0  0  0  0  0
    4.2254   -0.6525    0.1208 N   0  0  0  0  0  0  0  0  0  0  0  0
    4.7638   -1.8405   -0.4525 C   0  0  0  0  0  0  0  0  0  0  0  0
    4.8948    0.5744   -0.1443 C   0  0  0  0  0  0  0  0  0  0  0  0
    4.6133    1.5243    0.9972 C   0  0  0  0  0  0  0  0  0  0  0  0
    3.1142    1.5764    1.2122 C   0  0  0  0  0  0  0  0  0  0  0  0
    2.4757    0.9415   -0.1661 C   0  0  2  0  0  0  0  0  0  0  0  0
    1.0651    0.8926    0.4521 O   0  0  0  0  0  0  0  0  0  0  0  0
    0.2835   -0.1715   -0.0189 C   0  0  0  0  0  0  0  0  0  0  0  0
    0.8342   -1.2972    0.1907 O   0  0  0  0  0  0  0  0  0  0  0  0
   -1.1684   -0.0896    0.3116 C   0  0  0  0  0  0  0  0  0  0  0  0
   -1.2449    0.0524    1.6929 O   0  0  0  0  0  0  0  0  0  0  0  0
   -1.7778    1.1309   -0.2898 C   0  0  0  0  0  0  0  0  0  0  0  0
   -1.0881    2.3158   -0.2205 C   0  0  0  0  0  0  0  0  0  0  0  0
   -1.7832    3.5170   -0.2761 C   0  0  0  0  0  0  0  0  0  0  0  0
   -3.1379    3.5354   -0.5518 C   0  0  0  0  0  0  0  0  0  0  0  0
   -3.8476    2.3550   -0.5541 C   0  0  0  0  0  0  0  0  0  0  0  0
   -3.1659    1.1866   -0.2632 C   0  0  0  0  0  0  0  0  0  0  0  0
   -1.9106   -1.3012   -0.0833 C   0  0  0  0  0  0  0  0  0  0  0  0
   -1.3269   -2.4107   -0.6507 C   0  0  0  0  0  0  0  0  0  0  0  0
   -2.1481   -3.4145   -1.1076 C   0  0  0  0  0  0  0  0  0  0  0  0
   -3.5184   -3.2937   -0.9633 C   0  0  0  0  0  0  0  0  0  0  0  0
   -4.0685   -2.3685   -0.0852 C   0  0  0  0  0  0  0  0  0  0  0  0
   -3.1596   -1.4918    0.4931 C   0  0  0  0  0  0  0  0  0  0  0  0
    2.8169   -0.5966    0.3131 C   0  0  0  0  0  0  0  0  0  0  0  0
  1  2  1  0
  2  3  1  0
  2  4  1  0
  4  5  1  0
  5  6  1  0
  6  7  1  0
  7  8  1  1
  8  9  1  0
  9 10  2  0
  9 11  1  0
 11 12  1  0
 11 13  1  0
 13 14  2  0
 14 15  1  0
 15 16  2  0
 16 17  1  0
 17 18  2  0
 11 19  1  0
 19 20  2  0
 20 21  1  0
 21 22  2  0
 22 23  1  0
 23 24  2  0
  7 25  1  0
 25  2  1  0
 18 13  1  0
 24 19  1  0
M  CHG  1   2   1
M  END
>  <supplier_code>  (1200) 
DB04843

>  <zinc_id>  (1200) 
ZINC000000000449

>  <catalog_short_name>  (1200) 
dbfda

$$$$

     RDKit          3D

 25 27  0  0  0  0  0  0  0  0999 V2000
    4.2944   -1.1510    1.1783 C   0  0  0  0  0  0  0  0  0  0  0  0
    4.0561   -0.5488    0.8425 N   0  0  0  0  0  0  0  0  0  0  0  0
    4.1303    0.5773    1.7733 C   0  0  0  0  0  0  0  0  0  0  0  0
    4.8455   -0.1504   -0.3237 C   0  0  0  0  0  0  0  0  0  0  0  0
    4.2430   -0.7939   -1.5677 C   0  0  0  0  0  0  0  0  0  0  0  0
    2.9493   -0.0901   -1.9610 C   0  0  0  0  0  0  0  0  0  0  0  0
    2.5417    0.6965   -0.5697 C   0  0  1  0  0  0  0  0  0  0  0  0
    1.0424    0.5443   -0.8700 O   0  0  0  0  0  0  0  0  0  0  0  0
    0.2718   -0.2115   -0.0428 C   0  0  0  0  0  0  0  0  0  0  0  0
    0.7563   -1.3810    0.0668 O   0  0  0  0  0  0  0  0  0  0  0  0
   -1.1684   -0.0192    0.2270 C   0  0  0  0  0  0  0  0  0  0  0  0
   -1.3407   -0.2407    1.6032 O   0  0  0  0  0  0  0  0  0  0  0  0
   -2.0151   -1.0280   -0.4844 C   0  0  0  0  0  0  0  0  0  0  0  0
   -1.5865   -2.3485   -0.5506 C   0  0  0  0  0  0  0  0  0  0  0  0
   -2.4854   -3.4011   -0.4272 C   0  0  0  0  0  0  0  0  0  0  0  0
   -3.8367   -3.1600   -0.6428 C   0  0  0  0  0  0  0  0  0  0  0  0
   -4.2892   -1.8834   -0.4020 C   0  0  0  0  0  0  0  0  0  0  0  0
   -3.3824   -0.8657   -0.2929 C   0  0  0  0  0  0  0  0  0  0  0  0
   -1.6299    1.3293   -0.1487 C   0  0  0  0  0  0  0  0  0  0  0  0
   -0.7544    2.3783   -0.4033 C   0  0  0  0  0  0  0  0  0  0  0  0
   -1.0192    3.6792   -0.0674 C   0  0  0  0  0  0  0  0  0  0  0  0
   -2.2273    3.9949    0.5067 C   0  0  0  0  0  0  0  0  0  0  0  0
   -3.2273    3.0364    0.4888 C   0  0  0  0  0  0  0  0  0  0  0  0
   -2.8654    1.7238    0.3528 C   0  0  0  0  0  0  0  0  0  0  0  0
    2.6970   -0.6869    0.3144 C   0  0  0  0  0  0  0  0  0  0  0  0
  1  2  1  0
  2  3  1  0
  2  4  1  0
  4  5  1  0
  5  6  1  0
  6  7  1  0
  7  8  1  6
  8  9  1  0
  9 10  2  0
  9 11  1  0
 11 12  1  0
 11 13  1  0
 13 14  2  0
 14 15  1  0
 15 16  2  0
 16 17  1  0
 17 18  2  0
 11 19  1  0
 19 20  2  0
 20 21  1  0
 21 22  2  0
 22 23  1  0
 23 24  2  0
  7 25  1  0
 25  2  1  0
 18 13  1  0
 24 19  1  0
M  CHG  1   2   1
M  END
>  <supplier_code>  (1201) 
DB04843

>  <zinc_id>  (1201) 
ZINC000003813083

>  <catalog_short_name>  (1201) 
dbfda

$$$$

     RDKit          3D

 23 25  0  0  0  0  0  0  0  0999 V2000
   -5.5906    0.8915   -0.0821 C   0  0  0  0  0  0  0  0  0  0  0  0
   -5.0287    0.1605   -0.2013 O   0  0  0  0  0  0  0  0  0  0  0  0
   -3.6479    0.0129   -0.0682 C   0  0  0  0  0  0  0  0  0  0  0  0
   -2.9707   -1.1545   -0.4008 C   0  0  0  0  0  0  0  0  0  0  0  0
   -1.6208   -1.2771   -0.0743 C   0  0  0  0  0  0  0  0  0  0  0  0
   -1.1219   -0.4047    0.8107 C   0  0  0  0  0  0  0  0  0  0  0  0
   -1.7449    0.8241    1.0182 C   0  0  0  0  0  0  0  0  0  0  0  0
   -2.9716    1.1183    0.4345 C   0  0  0  0  0  0  0  0  0  0  0  0
   -3.3519    2.4228    0.1067 O   0  0  0  0  0  0  0  0  0  0  0  0
   -2.3618    3.4265   -0.1063 C   0  0  0  0  0  0  0  0  0  0  0  0
    0.4660   -0.1496    0.8873 C   0  0  1  0  0  0  0  0  0  0  0  0
    0.8625   -1.7461    0.8803 C   0  0  0  0  0  0  0  0  0  0  0  0
    2.3432   -1.5497    0.7354 C   0  0  0  0  0  0  0  0  0  0  0  0
    3.0550   -2.4624    1.1499 O   0  0  0  0  0  0  0  0  0  0  0  0
    2.8948   -1.0509   -0.6898 C   0  0  2  0  0  0  0  0  0  0  0  0
    4.1935   -0.3127   -0.0225 C   0  0  0  0  0  0  0  0  0  0  0  0
    4.3911    1.0216   -0.6101 C   0  0  0  0  0  0  0  0  0  0  0  0
    5.2228    1.0871   -1.8464 C   0  0  0  0  0  0  0  0  0  0  0  0
    4.6307    2.1447    0.3681 C   0  0  0  0  0  0  0  0  0  0  0  0
    2.0188    0.3244   -0.6902 C   0  0  0  0  0  0  0  0  0  0  0  0
    0.6320   -0.0233   -0.6706 N   0  0  0  0  0  0  0  0  0  0  0  0
    0.4045   -1.2064   -1.3432 C   0  0  0  0  0  0  0  0  0  0  0  0
   -0.7040   -2.0970   -0.9138 C   0  0  0  0  0  0  0  0  0  0  0  0
  1  2  1  0
  2  3  1  0
  3  4  2  0
  4  5  1  0
  5  6  2  0
  6  7  1  0
  7  8  2  0
  8  9  1  0
  9 10  1  0
 11  6  1  6
 11 12  1  0
 12 13  1  0
 13 14  2  0
 13 15  1  0
 15 16  1  1
 16 17  1  0
 17 18  1  0
 17 19  1  0
 15 20  1  0
 20 21  1  0
 21 22  1  0
 22 23  1  0
  8  3  1  0
 21 11  1  0
 23  5  1  0
M  END
>  <supplier_code>  (1202) 
DB04844

>  <zinc_id>  (1202) 
ZINC000000000751

>  <catalog_short_name>  (1202) 
dbfda

$$$$

     RDKit          3D

 23 25  0  0  0  0  0  0  0  0999 V2000
   -5.6074   -1.8065    0.1249 C   0  0  0  0  0  0  0  0  0  0  0  0
   -5.0113   -0.7210    0.3592 O   0  0  0  0  0  0  0  0  0  0  0  0
   -3.6614   -0.4819    0.0709 C   0  0  0  0  0  0  0  0  0  0  0  0
   -3.0675   -0.9962   -1.0797 C   0  0  0  0  0  0  0  0  0  0  0  0
   -1.6836   -1.0349   -1.1262 C   0  0  0  0  0  0  0  0  0  0  0  0
   -1.0580   -0.9657    0.1252 C   0  0  0  0  0  0  0  0  0  0  0  0
   -1.5324   -0.0486    1.0153 C   0  0  0  0  0  0  0  0  0  0  0  0
   -2.9144    0.1514    1.0627 C   0  0  0  0  0  0  0  0  0  0  0  0
   -3.4687    1.3518    1.5255 O   0  0  0  0  0  0  0  0  0  0  0  0
   -3.3545    2.5718    0.7955 C   0  0  0  0  0  0  0  0  0  0  0  0
    0.4899   -0.9181   -0.3182 C   0  0  2  0  0  0  0  0  0  0  0  0
    1.0592   -0.5594    1.1845 C   0  0  0  0  0  0  0  0  0  0  0  0
    2.5006   -0.6430    0.7431 C   0  0  0  0  0  0  0  0  0  0  0  0
    2.8549   -1.7846    0.4330 O   0  0  0  0  0  0  0  0  0  0  0  0
    2.8466    0.2603   -0.5459 C   0  0  2  0  0  0  0  0  0  0  0  0
    3.8259    1.2246    0.3378 C   0  0  0  0  0  0  0  0  0  0  0  0
    5.2180    0.7081    0.0664 C   0  0  0  0  0  0  0  0  0  0  0  0
    6.2303    1.7829    0.3411 C   0  0  0  0  0  0  0  0  0  0  0  0
    5.2633    0.2066   -1.3498 C   0  0  0  0  0  0  0  0  0  0  0  0
    1.5654    1.2489   -0.3452 C   0  0  0  0  0  0  0  0  0  0  0  0
    0.3972    0.6023   -0.7157 N   0  0  0  0  0  0  0  0  0  0  0  0
    0.0129    0.5200   -2.0748 C   0  0  0  0  0  0  0  0  0  0  0  0
   -0.9049   -0.6688   -2.3599 C   0  0  0  0  0  0  0  0  0  0  0  0
  1  2  1  0
  2  3  1  0
  3  4  2  0
  4  5  1  0
  5  6  2  0
  6  7  1  0
  7  8  2  0
  8  9  1  0
  9 10  1  0
 11  6  1  1
 11 12  1  0
 12 13  1  0
 13 14  2  0
 13 15  1  0
 15 16  1  1
 16 17  1  0
 17 18  1  0
 17 19  1  0
 15 20  1  0
 20 21  1  0
 21 22  1  0
 22 23  1  0
  8  3  1  0
 21 11  1  0
 23  5  1  0
M  END
>  <supplier_code>  (1203) 
DB04844

>  <zinc_id>  (1203) 
ZINC000003875392

>  <catalog_short_name>  (1203) 
dbfda

$$$$

     RDKit          3D

 23 25  0  0  0  0  0  0  0  0999 V2000
    5.2527   -0.2974    1.6059 C   0  0  0  0  0  0  0  0  0  0  0  0
    4.8334   -0.2647    1.0839 O   0  0  0  0  0  0  0  0  0  0  0  0
    3.6332   -0.4793    0.4143 C   0  0  0  0  0  0  0  0  0  0  0  0
    2.6100   -1.1007    1.0896 C   0  0  0  0  0  0  0  0  0  0  0  0
    1.3002   -0.8440    0.6878 C   0  0  0  0  0  0  0  0  0  0  0  0
    1.1436   -0.4535   -0.5859 C   0  0  0  0  0  0  0  0  0  0  0  0
    2.1218    0.3338   -1.1831 C   0  0  0  0  0  0  0  0  0  0  0  0
    3.4345    0.1813   -0.7756 C   0  0  0  0  0  0  0  0  0  0  0  0
    4.4411    0.6679   -1.5627 O   0  0  0  0  0  0  0  0  0  0  0  0
    5.7893    0.7911   -1.2252 C   0  0  0  0  0  0  0  0  0  0  0  0
   -0.2962    0.0105   -1.1303 C   0  0  2  0  0  0  0  0  0  0  0  0
   -0.5925    0.9828    0.1645 C   0  0  0  0  0  0  0  0  0  0  0  0
   -2.0382    1.2886   -0.0981 C   0  0  0  0  0  0  0  0  0  0  0  0
   -2.4527    2.3847    0.2029 O   0  0  0  0  0  0  0  0  0  0  0  0
   -2.9849    0.0563    0.3103 C   0  0  1  0  0  0  0  0  0  0  0  0
   -4.2299    0.6134   -0.5891 C   0  0  0  0  0  0  0  0  0  0  0  0
   -5.4091    0.1369    0.2441 C   0  0  0  0  0  0  0  0  0  0  0  0
   -6.6509   -0.0612   -0.5829 C   0  0  0  0  0  0  0  0  0  0  0  0
   -5.7217    1.0899    1.3638 C   0  0  0  0  0  0  0  0  0  0  0  0
   -2.4248   -0.8766   -0.9096 C   0  0  0  0  0  0  0  0  0  0  0  0
   -1.0556   -1.2269   -0.5260 N   0  0  0  0  0  0  0  0  0  0  0  0
   -1.0077   -1.2216    0.8752 C   0  0  0  0  0  0  0  0  0  0  0  0
    0.3043   -1.7111    1.3998 C   0  0  0  0  0  0  0  0  0  0  0  0
  1  2  1  0
  2  3  1  0
  3  4  2  0
  4  5  1  0
  5  6  2  0
  6  7  1  0
  7  8  2  0
  8  9  1  0
  9 10  1  0
 11  6  1  1
 11 12  1  0
 12 13  1  0
 13 14  2  0
 13 15  1  0
 15 16  1  6
 16 17  1  0
 17 18  1  0
 17 19  1  0
 15 20  1  0
 20 21  1  0
 21 22  1  0
 22 23  1  0
  8  3  1  0
 21 11  1  0
 23  5  1  0
M  END
>  <supplier_code>  (1204) 
DB04844

>  <zinc_id>  (1204) 
ZINC000003875393

>  <catalog_short_name>  (1204) 
dbfda

$$$$

     RDKit          3D

 23 25  0  0  0  0  0  0  0  0999 V2000
   -5.1943   -2.0447   -0.5871 C   0  0  0  0  0  0  0  0  0  0  0  0
   -4.1938   -2.0697   -0.0048 O   0  0  0  0  0  0  0  0  0  0  0  0
   -3.0807   -1.2320    0.0596 C   0  0  0  0  0  0  0  0  0  0  0  0
   -1.8583   -1.5666   -0.5156 C   0  0  0  0  0  0  0  0  0  0  0  0
   -0.7412   -0.7379   -0.4050 C   0  0  0  0  0  0  0  0  0  0  0  0
   -0.9249    0.3048    0.4266 C   0  0  0  0  0  0  0  0  0  0  0  0
   -2.0952    0.6996    1.0295 C   0  0  0  0  0  0  0  0  0  0  0  0
   -3.2483    0.0056    0.6767 C   0  0  0  0  0  0  0  0  0  0  0  0
   -4.4638    0.6638    0.4458 O   0  0  0  0  0  0  0  0  0  0  0  0
   -4.8437    1.1406   -0.8264 C   0  0  0  0  0  0  0  0  0  0  0  0
    0.3497    1.2872    0.7461 C   0  0  1  0  0  0  0  0  0  0  0  0
    1.3635   -0.0179    1.0697 C   0  0  0  0  0  0  0  0  0  0  0  0
    2.6723    0.6919    1.2877 C   0  0  0  0  0  0  0  0  0  0  0  0
    2.9103    1.3557    2.2756 O   0  0  0  0  0  0  0  0  0  0  0  0
    3.0679    1.6021   -0.0122 C   0  0  1  0  0  0  0  0  0  0  0  0
    4.3522    0.6518   -0.4594 C   0  0  0  0  0  0  0  0  0  0  0  0
    4.1334   -0.7120    0.0534 C   0  0  0  0  0  0  0  0  0  0  0  0
    3.8299   -1.7541   -0.9683 C   0  0  0  0  0  0  0  0  0  0  0  0
    5.4166   -1.1615    0.7479 C   0  0  0  0  0  0  0  0  0  0  0  0
    2.0150    0.7531   -0.9751 C   0  0  0  0  0  0  0  0  0  0  0  0
    0.8210    1.4485   -0.7758 N   0  0  0  0  0  0  0  0  0  0  0  0
   -0.2086    1.1099   -1.6470 C   0  0  0  0  0  0  0  0  0  0  0  0
   -0.0791   -0.4185   -1.7271 C   0  0  0  0  0  0  0  0  0  0  0  0
  1  2  1  0
  2  3  1  0
  3  4  2  0
  4  5  1  0
  5  6  2  0
  6  7  1  0
  7  8  2  0
  8  9  1  0
  9 10  1  0
 11  6  1  6
 11 12  1  0
 12 13  1  0
 13 14  2  0
 13 15  1  0
 15 16  1  6
 16 17  1  0
 17 18  1  0
 17 19  1  0
 15 20  1  0
 20 21  1  0
 21 22  1  0
 22 23  1  0
  8  3  1  0
 21 11  1  0
 23  5  1  0
M  END
>  <supplier_code>  (1205) 
DB04844

>  <zinc_id>  (1205) 
ZINC000008552123

>  <catalog_short_name>  (1205) 
dbfda

$$$$

     RDKit          3D

 35 37  0  0  0  0  0  0  0  0999 V2000
    2.9376    0.1755   -0.8183 C   0  0  0  0  0  0  0  0  0  0  0  0
    2.7641   -0.3331   -0.4598 C   0  0  0  0  0  0  0  0  0  0  0  0
    3.6049   -1.1771    0.1308 C   0  0  0  0  0  0  0  0  0  0  0  0
    5.0251   -0.7830    0.0976 C   0  0  0  0  0  0  0  0  0  0  0  0
    6.0439   -1.7032    0.3370 C   0  0  0  0  0  0  0  0  0  0  0  0
    7.3047   -0.6294    0.7973 S   0  0  0  0  0  0  0  0  0  0  0  0
    6.5625    0.8290    0.2849 C   0  0  0  0  0  0  0  0  0  0  0  0
    6.9869    2.2567    0.4368 C   0  0  0  0  0  0  0  0  0  0  0  0
    5.5583    0.3334   -0.4632 N   0  0  0  0  0  0  0  0  0  0  0  0
    1.3029   -0.2497    0.2921 C   0  0  2  0  0  0  0  0  0  0  0  0
    0.7117   -1.4332   -0.7330 C   0  0  0  0  0  0  0  0  0  0  0  0
    1.2767   -2.6480    0.3697 C   0  0  2  0  0  0  0  0  0  0  0  0
    1.2480   -3.8203   -0.7865 O   0  0  0  0  0  0  0  0  0  0  0  0
   -0.0622   -3.6189    0.1792 C   0  0  1  0  0  0  0  0  0  0  0  0
   -0.0368   -4.7909    1.0515 C   0  0  0  0  0  0  0  0  0  0  0  0
   -1.0934   -2.9453   -0.5110 C   0  0  0  0  0  0  0  0  0  0  0  0
   -2.4406   -3.4521   -0.1911 C   0  0  0  0  0  0  0  0  0  0  0  0
   -3.3795   -2.5128    0.4625 C   0  0  0  0  0  0  0  0  0  0  0  0
   -4.2465   -1.7574   -0.7012 C   0  0  2  0  0  0  0  0  0  0  0  0
   -2.9176   -1.0031   -1.2806 C   0  0  0  0  0  0  0  0  0  0  0  0
   -4.6976   -0.5089    0.4060 C   0  0  2  0  0  0  0  0  0  0  0  0
   -6.1431   -0.5941   -0.0432 O   0  0  0  0  0  0  0  0  0  0  0  0
   -4.3642    0.7725   -0.7098 C   0  0  1  0  0  0  0  0  0  0  0  0
   -5.5021    1.7500   -0.0471 C   0  0  0  0  0  0  0  0  0  0  0  0
   -3.1941    1.4340    0.1889 C   0  0  0  0  0  0  0  0  0  0  0  0
   -3.3078    1.2742    1.3998 O   0  0  0  0  0  0  0  0  0  0  0  0
   -2.9251    2.8725   -0.1514 C   0  0  0  0  0  0  0  0  0  0  0  0
   -3.0615    3.8137    0.9592 C   0  0  0  0  0  0  0  0  0  0  0  0
   -3.6080    3.3095   -1.4104 C   0  0  0  0  0  0  0  0  0  0  0  0
   -1.3350    2.8780   -0.6831 C   0  0  1  0  0  0  0  0  0  0  0  0
   -0.9506    4.1769    0.0686 O   0  0  0  0  0  0  0  0  0  0  0  0
   -0.7832    1.9333    0.6026 C   0  0  0  0  0  0  0  0  0  0  0  0
    0.6629    2.0409    0.2053 C   0  0  0  0  0  0  0  0  0  0  0  0
    1.1975    3.1765    0.0105 O   0  0  0  0  0  0  0  0  0  0  0  0
    0.8610    0.9336   -0.6944 N   0  0  0  0  0  0  0  0  0  0  0  0
  1  2  1  0
  2  3  2  0
  3  4  1  0
  4  5  2  0
  5  6  1  0
  6  7  1  0
  7  8  1  0
  7  9  2  0
 10  2  1  6
 10 11  1  0
 12 11  1  6
 12 13  1  0
 13 14  1  0
 14 15  1  1
 14 16  1  0
 16 17  1  0
 17 18  1  0
 18 19  1  0
 19 20  1  6
 19 21  1  0
 21 22  1  6
 21 23  1  0
 23 24  1  1
 23 25  1  0
 25 26  2  0
 25 27  1  0
 27 28  1  0
 27 29  1  0
 27 30  1  0
 30 31  1  1
 30 32  1  0
 32 33  1  0
 33 34  2  0
 33 35  1  0
  9  4  1  0
 35 10  1  0
 14 12  1  0
M  END
>  <supplier_code>  (1206) 
DB04845

>  <zinc_id>  (1206) 
ZINC000003993846

>  <catalog_short_name>  (1206) 
dbfda

$$$$

     RDKit          3D

 35 37  0  0  0  0  0  0  0  0999 V2000
    2.8795   -0.1961    1.0366 C   0  0  0  0  0  0  0  0  0  0  0  0
    2.6934    0.0732    0.5393 C   0  0  0  0  0  0  0  0  0  0  0  0
    3.5838    0.8604   -0.0440 C   0  0  0  0  0  0  0  0  0  0  0  0
    4.9940    0.7030    0.3431 C   0  0  0  0  0  0  0  0  0  0  0  0
    5.6101   -0.3806    0.9598 C   0  0  0  0  0  0  0  0  0  0  0  0
    7.2358   -0.1430    0.4415 S   0  0  0  0  0  0  0  0  0  0  0  0
    7.0378    1.4671   -0.1092 C   0  0  0  0  0  0  0  0  0  0  0  0
    8.0055    2.5712   -0.3979 C   0  0  0  0  0  0  0  0  0  0  0  0
    5.8030    1.7498    0.2797 N   0  0  0  0  0  0  0  0  0  0  0  0
    1.5334   -0.4011   -0.5215 C   0  0  2  0  0  0  0  0  0  0  0  0
    0.5149    0.7988    0.0268 C   0  0  0  0  0  0  0  0  0  0  0  0
    1.3023    1.9909   -0.9394 C   0  0  2  0  0  0  0  0  0  0  0  0
    1.2129    3.1185    0.2461 O   0  0  0  0  0  0  0  0  0  0  0  0
    0.0361    3.0591   -0.8816 C   0  0  1  0  0  0  0  0  0  0  0  0
    0.2858    4.2953   -1.6297 C   0  0  0  0  0  0  0  0  0  0  0  0
   -1.1340    2.4283   -0.4335 C   0  0  0  0  0  0  0  0  0  0  0  0
   -2.3510    3.2461   -0.4642 C   0  0  0  0  0  0  0  0  0  0  0  0
   -3.5519    2.5676    0.1997 C   0  0  0  0  0  0  0  0  0  0  0  0
   -3.3142    0.9721   -0.0390 C   0  0  2  0  0  0  0  0  0  0  0  0
   -3.7033    1.1060   -1.6201 C   0  0  0  0  0  0  0  0  0  0  0  0
   -4.9351    0.5762    0.3909 C   0  0  2  0  0  0  0  0  0  0  0  0
   -4.5775    0.1129    1.7878 O   0  0  0  0  0  0  0  0  0  0  0  0
   -4.8316   -0.9912   -0.3477 C   0  0  2  0  0  0  0  0  0  0  0  0
   -5.9392   -1.6213    0.6914 C   0  0  0  0  0  0  0  0  0  0  0  0
   -3.5273   -1.5085    0.4416 C   0  0  0  0  0  0  0  0  0  0  0  0
   -3.7062   -1.9316    1.5885 O   0  0  0  0  0  0  0  0  0  0  0  0
   -3.0720   -2.6262   -0.3797 C   0  0  0  0  0  0  0  0  0  0  0  0
   -3.8576   -3.9093   -0.0843 C   0  0  0  0  0  0  0  0  0  0  0  0
   -2.9981   -2.5600   -1.8139 C   0  0  0  0  0  0  0  0  0  0  0  0
   -1.6232   -3.1803    0.2265 C   0  0  2  0  0  0  0  0  0  0  0  0
   -1.4142   -2.0338    1.2411 O   0  0  0  0  0  0  0  0  0  0  0  0
   -0.7033   -2.3627   -0.9209 C   0  0  0  0  0  0  0  0  0  0  0  0
    0.6148   -2.6073   -0.2449 C   0  0  0  0  0  0  0  0  0  0  0  0
    0.9242   -3.7877    0.1060 O   0  0  0  0  0  0  0  0  0  0  0  0
    0.9722   -1.4555    0.5364 N   0  0  0  0  0  0  0  0  0  0  0  0
  1  2  1  0
  2  3  2  0
  3  4  1  0
  4  5  2  0
  5  6  1  0
  6  7  1  0
  7  8  1  0
  7  9  2  0
 10  2  1  1
 10 11  1  0
 12 11  1  1
 12 13  1  0
 13 14  1  0
 14 15  1  6
 14 16  1  0
 16 17  1  0
 17 18  1  0
 18 19  1  0
 19 20  1  6
 19 21  1  0
 21 22  1  1
 21 23  1  0
 23 24  1  1
 23 25  1  0
 25 26  2  0
 25 27  1  0
 27 28  1  0
 27 29  1  0
 27 30  1  0
 30 31  1  1
 30 32  1  0
 32 33  1  0
 33 34  2  0
 33 35  1  0
  9  4  1  0
 35 10  1  0
 14 12  1  0
M  END
>  <supplier_code>  (1207) 
DB04845

>  <zinc_id>  (1207) 
ZINC000052245489

>  <catalog_short_name>  (1207) 
dbfda

$$$$

     RDKit          3D

 22 23  0  0  0  0  0  0  0  0999 V2000
    4.9436   -0.4412   -1.0386 C   0  0  0  0  0  0  0  0  0  0  0  0
    3.7400    0.0677   -0.3047 C   0  0  0  0  0  0  0  0  0  0  0  0
    2.5186    0.0133   -0.8288 N   0  0  0  0  0  0  0  0  0  0  0  0
    1.5564   -0.0678    0.1234 C   0  0  0  0  0  0  0  0  0  0  0  0
    0.1582   -0.4533   -0.1174 C   0  0  0  0  0  0  0  0  0  0  0  0
   -0.4171   -0.2510   -1.3662 C   0  0  0  0  0  0  0  0  0  0  0  0
   -1.7819   -0.4062   -1.5774 C   0  0  0  0  0  0  0  0  0  0  0  0
   -2.4572   -1.0927   -0.5764 C   0  0  0  0  0  0  0  0  0  0  0  0
   -3.8495   -1.0433   -0.4596 O   0  0  0  0  0  0  0  0  0  0  0  0
   -4.4086   -0.1480    0.4860 C   0  0  0  0  0  0  0  0  0  0  0  0
   -4.5344    1.1926   -0.2248 C   0  0  0  0  0  0  0  0  0  0  0  0
   -5.9911    1.5492   -0.3715 C   0  0  0  0  0  0  0  0  0  0  0  0
   -3.7866    2.2629    0.5349 C   0  0  0  0  0  0  0  0  0  0  0  0
   -1.7864   -1.7838    0.4243 C   0  0  0  0  0  0  0  0  0  0  0  0
   -2.3650   -2.9545    1.0454 C   0  0  0  0  0  0  0  0  0  0  0  0
   -2.7727   -4.0265    1.2630 N   0  0  0  0  0  0  0  0  0  0  0  0
   -0.4760   -1.3976    0.6808 C   0  0  0  0  0  0  0  0  0  0  0  0
    2.2285    0.9931    1.2985 S   0  0  0  0  0  0  0  0  0  0  0  0
    3.8313    1.0459    0.6803 C   0  0  0  0  0  0  0  0  0  0  0  0
    4.9520    1.9406    0.9761 C   0  0  0  0  0  0  0  0  0  0  0  0
    5.4004    2.0014    2.1580 O   0  0  0  0  0  0  0  0  0  0  0  0
    5.2974    2.9989    0.1404 O   0  0  0  0  0  0  0  0  0  0  0  0
  1  2  1  0
  2  3  1  0
  3  4  2  0
  4  5  1  0
  5  6  2  0
  6  7  1  0
  7  8  2  0
  8  9  1  0
  9 10  1  0
 10 11  1  0
 11 12  1  0
 11 13  1  0
  8 14  1  0
 14 15  1  0
 15 16  3  0
 14 17  2  0
  4 18  1  0
 18 19  1  0
 19 20  1  0
 20 21  2  0
 20 22  1  0
 19  2  2  0
 17  5  1  0
M  END
>  <supplier_code>  (1208) 
DB04854

>  <zinc_id>  (1208) 
ZINC000000005423

>  <catalog_short_name>  (1208) 
dbfda

$$$$

     RDKit          3D

 39 41  0  0  0  0  0  0  0  0999 V2000
   -4.3369   -5.6705    1.2549 C   0  0  0  0  0  0  0  0  0  0  0  0
   -4.3241   -4.7885    0.0188 C   0  0  0  0  0  0  0  0  0  0  0  0
   -4.2014   -3.3546    0.5211 C   0  0  0  0  0  0  0  0  0  0  0  0
   -2.7244   -3.0339    0.7161 C   0  0  0  0  0  0  0  0  0  0  0  0
   -2.6537   -1.5544    0.9292 C   0  0  0  0  0  0  0  0  0  0  0  0
   -2.9538   -0.8792    2.0091 O   0  0  0  0  0  0  0  0  0  0  0  0
   -3.1656    0.3831    1.7404 C   0  0  0  0  0  0  0  0  0  0  0  0
   -3.7208    1.4242    2.4697 C   0  0  0  0  0  0  0  0  0  0  0  0
   -4.5445    2.3597    1.8710 C   0  0  0  0  0  0  0  0  0  0  0  0
   -4.6769    2.4063    0.4884 C   0  0  0  0  0  0  0  0  0  0  0  0
   -5.8314    2.9743   -0.1407 N   0  0  0  0  0  0  0  0  0  0  0  0
   -7.2119    1.9709   -0.3379 S   0  0  0  0  0  0  0  0  0  0  0  0
   -7.9737    1.7435    1.2412 C   0  0  0  0  0  0  0  0  0  0  0  0
   -8.1249    2.6526   -1.3228 O   0  0  0  0  0  0  0  0  0  0  0  0
   -6.8679    0.6340   -0.9055 O   0  0  0  0  0  0  0  0  0  0  0  0
   -3.7509    1.6477   -0.2168 C   0  0  0  0  0  0  0  0  0  0  0  0
   -3.0766    0.5822    0.3679 C   0  0  0  0  0  0  0  0  0  0  0  0
   -2.6155   -0.6380   -0.1142 C   0  0  0  0  0  0  0  0  0  0  0  0
   -2.0789   -0.8162   -1.4589 C   0  0  0  0  0  0  0  0  0  0  0  0
   -2.8086   -0.4324   -2.4221 O   0  0  0  0  0  0  0  0  0  0  0  0
   -0.6309   -0.6269   -1.6142 C   0  0  0  0  0  0  0  0  0  0  0  0
    0.1583   -1.6716   -1.1487 C   0  0  0  0  0  0  0  0  0  0  0  0
    1.5193   -1.4697   -0.9602 C   0  0  0  0  0  0  0  0  0  0  0  0
    2.0645   -0.2152   -1.0952 C   0  0  0  0  0  0  0  0  0  0  0  0
    3.4098    0.0074   -1.3685 O   0  0  0  0  0  0  0  0  0  0  0  0
    3.9528    1.2738   -1.0075 C   0  0  0  0  0  0  0  0  0  0  0  0
    4.2773    1.2749    0.4804 C   0  0  0  0  0  0  0  0  0  0  0  0
    5.0997    0.0428    0.7640 C   0  0  0  0  0  0  0  0  0  0  0  0
    6.2588   -0.0758   -0.0802 N   0  0  0  0  0  0  0  0  0  0  0  0
    6.6989   -1.4686   -0.0764 C   0  0  0  0  0  0  0  0  0  0  0  0
    6.9869   -1.8198    1.3761 C   0  0  0  0  0  0  0  0  0  0  0  0
    8.4613   -2.1859    1.4625 C   0  0  0  0  0  0  0  0  0  0  0  0
    9.1567   -1.3364    2.4998 C   0  0  0  0  0  0  0  0  0  0  0  0
    7.3395    0.8075    0.3364 C   0  0  0  0  0  0  0  0  0  0  0  0
    7.1008    2.2158   -0.1493 C   0  0  0  0  0  0  0  0  0  0  0  0
    7.7411    2.4911   -1.4823 C   0  0  0  0  0  0  0  0  0  0  0  0
    7.0056    3.6246   -2.1415 C   0  0  0  0  0  0  0  0  0  0  0  0
    1.1894    0.8626   -1.1001 C   0  0  0  0  0  0  0  0  0  0  0  0
   -0.1476    0.6587   -1.4039 C   0  0  0  0  0  0  0  0  0  0  0  0
  1  2  1  0
  2  3  1  0
  3  4  1  0
  4  5  1  0
  5  6  1  0
  6  7  1  0
  7  8  2  0
  8  9  1  0
  9 10  2  0
 10 11  1  0
 11 12  1  0
 12 13  1  0
 12 14  2  0
 12 15  2  0
 10 16  1  0
 16 17  2  0
 17 18  1  0
 18 19  1  0
 19 20  2  0
 19 21  1  0
 21 22  2  0
 22 23  1  0
 23 24  2  0
 24 25  1  0
 25 26  1  0
 26 27  1  0
 27 28  1  0
 28 29  1  0
 29 30  1  0
 30 31  1  0
 31 32  1  0
 32 33  1  0
 29 34  1  0
 34 35  1  0
 35 36  1  0
 36 37  1  0
 24 38  1  0
 38 39  2  0
 18  5  2  0
 39 21  1  0
 17  7  1  0
M  END
>  <supplier_code>  (1209) 
DB04855

>  <zinc_id>  (1209) 
ZINC000049933061

>  <catalog_short_name>  (1209) 
dbfda

$$$$

     RDKit          3D

 29 32  0  0  0  0  0  0  0  0999 V2000
   -1.0480   -0.0283    0.1730 O   0  0  0  0  0  0  0  0  0  0  0  0
   -1.5354   -1.3870    0.6699 C   0  0  2  0  0  0  0  0  0  0  0  0
   -0.8057   -2.1420   -0.6184 C   0  0  0  0  0  0  0  0  0  0  0  0
    0.5116   -2.4738   -0.1808 N   0  0  0  0  0  0  0  0  0  0  0  0
    1.3941   -1.3764    0.0026 C   0  0  0  0  0  0  0  0  0  0  0  0
    1.4308   -0.5753   -1.4524 C   0  0  2  0  0  0  0  0  0  0  0  0
    2.1204   -1.7370   -2.1692 O   0  0  0  0  0  0  0  0  0  0  0  0
    2.9462    0.2370   -1.1003 C   0  0  1  0  0  0  0  0  0  0  0  0
    2.3835    0.8180    0.3380 C   0  0  0  0  0  0  0  0  0  0  0  0
    3.1797    0.3738    1.4536 C   0  0  0  0  0  0  0  0  0  0  0  0
    4.6064    0.1018    1.2272 C   0  0  0  0  0  0  0  0  0  0  0  0
    5.6267    1.0125    1.4612 C   0  0  0  0  0  0  0  0  0  0  0  0
    6.8404    0.9180    0.7892 C   0  0  0  0  0  0  0  0  0  0  0  0
    7.5392    2.0330    0.4304 F   0  0  0  0  0  0  0  0  0  0  0  0
    7.1489   -0.3500    0.3026 C   0  0  0  0  0  0  0  0  0  0  0  0
    6.0716   -1.0580   -0.2347 C   0  0  0  0  0  0  0  0  0  0  0  0
    4.7847   -0.7926    0.1729 C   0  0  0  0  0  0  0  0  0  0  0  0
    3.6169   -1.0335   -0.5097 O   0  0  0  0  0  0  0  0  0  0  0  0
   -3.0614   -1.3177   -0.1900 C   0  0  1  0  0  0  0  0  0  0  0  0
   -3.9075   -1.5191    1.2188 C   0  0  0  0  0  0  0  0  0  0  0  0
   -5.3284   -1.2393    0.7923 C   0  0  0  0  0  0  0  0  0  0  0  0
   -5.5338    0.1027    0.2264 C   0  0  0  0  0  0  0  0  0  0  0  0
   -6.6596    0.8726    0.4365 C   0  0  0  0  0  0  0  0  0  0  0  0
   -6.7214    2.1866   -0.0102 C   0  0  0  0  0  0  0  0  0  0  0  0
   -7.5337    3.0234    0.6668 F   0  0  0  0  0  0  0  0  0  0  0  0
   -5.7336    2.6567   -0.8553 C   0  0  0  0  0  0  0  0  0  0  0  0
   -4.6693    1.8189   -1.1518 C   0  0  0  0  0  0  0  0  0  0  0  0
   -4.4529    0.6579   -0.4282 C   0  0  0  0  0  0  0  0  0  0  0  0
   -3.2105    0.2169   -0.0866 O   0  0  0  0  0  0  0  0  0  0  0  0
  2  1  1  6
  2  3  1  0
  3  4  1  0
  4  5  1  0
  6  5  1  1
  6  7  1  0
  6  8  1  0
  8  9  1  1
  9 10  1  0
 10 11  1  0
 11 12  2  0
 12 13  1  0
 13 14  1  0
 13 15  2  0
 15 16  1  0
 16 17  2  0
 17 18  1  0
  2 19  1  0
 19 20  1  1
 20 21  1  0
 21 22  1  0
 22 23  2  0
 23 24  1  0
 24 25  1  0
 24 26  2  0
 26 27  1  0
 27 28  2  0
 28 29  1  0
 18  8  1  0
 29 19  1  0
 17 11  1  0
 28 22  1  0
M  END
>  <supplier_code>  (1210) 
DB04861

>  <zinc_id>  (1210) 
ZINC000000607986

>  <catalog_short_name>  (1210) 
dbfda

$$$$

     RDKit          3D

 29 32  0  0  0  0  0  0  0  0999 V2000
   -1.2661   -0.9241    1.7439 O   0  0  0  0  0  0  0  0  0  0  0  0
   -1.5795   -0.6055    0.2824 C   0  0  2  0  0  0  0  0  0  0  0  0
   -1.2625    1.0059    0.5314 C   0  0  0  0  0  0  0  0  0  0  0  0
    0.1980    0.8936    0.5402 N   0  0  0  0  0  0  0  0  0  0  0  0
    0.6243    0.0826   -0.6046 C   0  0  0  0  0  0  0  0  0  0  0  0
    1.7524    1.1580   -1.1770 C   0  0  2  0  0  0  0  0  0  0  0  0
    2.2599    0.1833   -2.2366 O   0  0  0  0  0  0  0  0  0  0  0  0
    2.9217    0.6644    0.0348 C   0  0  1  0  0  0  0  0  0  0  0  0
    2.8509   -0.9432   -0.3295 C   0  0  0  0  0  0  0  0  0  0  0  0
    4.1601   -1.5434   -0.1763 C   0  0  0  0  0  0  0  0  0  0  0  0
    5.2929   -0.7175    0.1909 C   0  0  0  0  0  0  0  0  0  0  0  0
    6.5285   -1.2566    0.4473 C   0  0  0  0  0  0  0  0  0  0  0  0
    7.6212   -0.4128    0.5900 C   0  0  0  0  0  0  0  0  0  0  0  0
    8.8077   -1.0331    0.7132 F   0  0  0  0  0  0  0  0  0  0  0  0
    7.4952    0.9699    0.5911 C   0  0  0  0  0  0  0  0  0  0  0  0
    6.3599    1.4443   -0.0624 C   0  0  0  0  0  0  0  0  0  0  0  0
    5.2873    0.5903   -0.2840 C   0  0  0  0  0  0  0  0  0  0  0  0
    4.1116    0.9285   -0.9223 O   0  0  0  0  0  0  0  0  0  0  0  0
   -3.2775   -0.4170    0.6496 C   0  0  2  0  0  0  0  0  0  0  0  0
   -3.5809   -1.9545    0.1275 C   0  0  0  0  0  0  0  0  0  0  0  0
   -5.0623   -2.0307   -0.1066 C   0  0  0  0  0  0  0  0  0  0  0  0
   -5.7124   -0.7090   -0.2293 C   0  0  0  0  0  0  0  0  0  0  0  0
   -6.8959   -0.4074    0.4352 C   0  0  0  0  0  0  0  0  0  0  0  0
   -7.5205    0.7738    0.0521 C   0  0  0  0  0  0  0  0  0  0  0  0
   -8.8163    0.8616    0.4736 F   0  0  0  0  0  0  0  0  0  0  0  0
   -7.0421    1.5048   -1.0290 C   0  0  0  0  0  0  0  0  0  0  0  0
   -5.6685    1.4145   -1.2489 C   0  0  0  0  0  0  0  0  0  0  0  0
   -4.9856    0.2987   -0.8501 C   0  0  0  0  0  0  0  0  0  0  0  0
   -3.6016    0.1806   -0.7431 O   0  0  0  0  0  0  0  0  0  0  0  0
  2  1  1  1
  2  3  1  0
  3  4  1  0
  4  5  1  0
  6  5  1  1
  6  7  1  0
  6  8  1  0
  8  9  1  6
  9 10  1  0
 10 11  1  0
 11 12  2  0
 12 13  1  0
 13 14  1  0
 13 15  2  0
 15 16  1  0
 16 17  2  0
 17 18  1  0
  2 19  1  0
 19 20  1  6
 20 21  1  0
 21 22  1  0
 22 23  2  0
 23 24  1  0
 24 25  1  0
 24 26  2  0
 26 27  1  0
 27 28  2  0
 28 29  1  0
 18  8  1  0
 29 19  1  0
 17 11  1  0
 28 22  1  0
M  END
>  <supplier_code>  (1211) 
DB04861

>  <zinc_id>  (1211) 
ZINC000001999441

>  <catalog_short_name>  (1211) 
dbfda

$$$$

     RDKit          3D

 29 32  0  0  0  0  0  0  0  0999 V2000
    1.7556   -0.5706   -1.5393 O   0  0  0  0  0  0  0  0  0  0  0  0
    1.5763   -1.6711   -0.4978 C   0  0  2  0  0  0  0  0  0  0  0  0
   -0.0127   -1.2359   -0.2948 C   0  0  0  0  0  0  0  0  0  0  0  0
   -0.0066    0.1698   -0.0338 N   0  0  0  0  0  0  0  0  0  0  0  0
   -0.5222    0.6029    1.2114 C   0  0  0  0  0  0  0  0  0  0  0  0
   -2.1711    0.6962    1.0107 C   0  0  2  0  0  0  0  0  0  0  0  0
   -2.2237   -0.7402    0.4998 O   0  0  0  0  0  0  0  0  0  0  0  0
   -2.0118    1.4135   -0.5862 C   0  0  2  0  0  0  0  0  0  0  0  0
   -3.0348    2.6390   -0.1583 C   0  0  0  0  0  0  0  0  0  0  0  0
   -4.3484    2.5086   -0.6756 C   0  0  0  0  0  0  0  0  0  0  0  0
   -5.0772    1.2531   -0.4100 C   0  0  0  0  0  0  0  0  0  0  0  0
   -6.0714    1.0254    0.4872 C   0  0  0  0  0  0  0  0  0  0  0  0
   -6.5081   -0.2880    0.6433 C   0  0  0  0  0  0  0  0  0  0  0  0
   -7.7182   -0.6139    1.1508 F   0  0  0  0  0  0  0  0  0  0  0  0
   -5.9196   -1.3013   -0.1107 C   0  0  0  0  0  0  0  0  0  0  0  0
   -4.8950   -0.9777   -0.9956 C   0  0  0  0  0  0  0  0  0  0  0  0
   -4.2098    0.1871   -0.6465 C   0  0  0  0  0  0  0  0  0  0  0  0
   -3.0697    0.5197   -1.2671 O   0  0  0  0  0  0  0  0  0  0  0  0
    2.0877   -0.7145    0.8854 C   0  0  2  0  0  0  0  0  0  0  0  0
    2.7325    0.5357    0.0121 C   0  0  0  0  0  0  0  0  0  0  0  0
    3.6668    1.1251    1.0101 C   0  0  0  0  0  0  0  0  0  0  0  0
    4.8800    0.2492    0.9124 C   0  0  0  0  0  0  0  0  0  0  0  0
    6.0630    0.7299    0.3751 C   0  0  0  0  0  0  0  0  0  0  0  0
    6.9330   -0.0740   -0.3452 C   0  0  0  0  0  0  0  0  0  0  0  0
    8.0100    0.4271   -1.0057 F   0  0  0  0  0  0  0  0  0  0  0  0
    6.5654   -1.3715   -0.6620 C   0  0  0  0  0  0  0  0  0  0  0  0
    5.5760   -1.9206    0.1459 C   0  0  0  0  0  0  0  0  0  0  0  0
    4.5666   -1.0604    0.5613 C   0  0  0  0  0  0  0  0  0  0  0  0
    3.3876   -1.5426    0.9678 O   0  0  0  0  0  0  0  0  0  0  0  0
  2  1  1  6
  2  3  1  0
  3  4  1  0
  4  5  1  0
  6  5  1  1
  6  7  1  0
  6  8  1  0
  8  9  1  1
  9 10  1  0
 10 11  1  0
 11 12  2  0
 12 13  1  0
 13 14  1  0
 13 15  2  0
 15 16  1  0
 16 17  2  0
 17 18  1  0
  2 19  1  0
 19 20  1  6
 20 21  1  0
 21 22  1  0
 22 23  2  0
 23 24  1  0
 24 25  1  0
 24 26  2  0
 26 27  1  0
 27 28  2  0
 28 29  1  0
 18  8  1  0
 29 19  1  0
 17 11  1  0
 28 22  1  0
M  END
>  <supplier_code>  (1212) 
DB04861

>  <zinc_id>  (1212) 
ZINC000004213946

>  <catalog_short_name>  (1212) 
dbfda

$$$$

     RDKit          3D

 29 32  0  0  0  0  0  0  0  0999 V2000
    0.5364    1.2019    0.9041 O   0  0  0  0  0  0  0  0  0  0  0  0
    1.0253    0.2694   -0.1768 C   0  0  2  0  0  0  0  0  0  0  0  0
    0.4846   -1.0457    0.6362 C   0  0  0  0  0  0  0  0  0  0  0  0
    0.1263   -1.9868   -0.3381 N   0  0  0  0  0  0  0  0  0  0  0  0
   -1.1898   -2.0680   -0.8100 C   0  0  0  0  0  0  0  0  0  0  0  0
   -2.0952   -2.8588    0.2973 C   0  0  2  0  0  0  0  0  0  0  0  0
   -3.3095   -2.8828   -0.6030 O   0  0  0  0  0  0  0  0  0  0  0  0
   -2.5035   -1.3835    1.1107 C   0  0  2  0  0  0  0  0  0  0  0  0
   -3.8963   -2.0689    1.6024 C   0  0  0  0  0  0  0  0  0  0  0  0
   -5.0590   -1.3155    1.4569 C   0  0  0  0  0  0  0  0  0  0  0  0
   -5.2271   -0.2771    0.4406 C   0  0  0  0  0  0  0  0  0  0  0  0
   -6.2320    0.6326    0.6154 C   0  0  0  0  0  0  0  0  0  0  0  0
   -6.0779    1.8922    0.0448 C   0  0  0  0  0  0  0  0  0  0  0  0
   -7.0952    2.7727    0.0672 F   0  0  0  0  0  0  0  0  0  0  0  0
   -5.2920    1.9046   -1.1036 C   0  0  0  0  0  0  0  0  0  0  0  0
   -4.0809    1.2297   -1.0073 C   0  0  0  0  0  0  0  0  0  0  0  0
   -4.0459    0.1583   -0.1284 C   0  0  0  0  0  0  0  0  0  0  0  0
   -3.0083   -0.6761   -0.1471 O   0  0  0  0  0  0  0  0  0  0  0  0
    2.5746    0.1874    0.5616 C   0  0  1  0  0  0  0  0  0  0  0  0
    2.9595   -1.1792   -0.2462 C   0  0  0  0  0  0  0  0  0  0  0  0
    4.4229   -1.3209    0.1223 C   0  0  0  0  0  0  0  0  0  0  0  0
    5.1889   -0.0976   -0.1807 C   0  0  0  0  0  0  0  0  0  0  0  0
    6.5478   -0.0499   -0.0567 C   0  0  0  0  0  0  0  0  0  0  0  0
    7.2048    1.1727    0.0161 C   0  0  0  0  0  0  0  0  0  0  0  0
    8.4632    1.1452    0.5044 F   0  0  0  0  0  0  0  0  0  0  0  0
    6.6136    2.3007   -0.5126 C   0  0  0  0  0  0  0  0  0  0  0  0
    5.2447    2.2321   -0.7623 C   0  0  0  0  0  0  0  0  0  0  0  0
    4.5481    1.0354   -0.6606 C   0  0  0  0  0  0  0  0  0  0  0  0
    3.1718    1.0757   -0.5309 O   0  0  0  0  0  0  0  0  0  0  0  0
  2  1  1  1
  2  3  1  0
  3  4  1  0
  4  5  1  0
  6  5  1  6
  6  7  1  0
  6  8  1  0
  8  9  1  1
  9 10  1  0
 10 11  1  0
 11 12  2  0
 12 13  1  0
 13 14  1  0
 13 15  2  0
 15 16  1  0
 16 17  2  0
 17 18  1  0
  2 19  1  0
 19 20  1  6
 20 21  1  0
 21 22  1  0
 22 23  2  0
 23 24  1  0
 24 25  1  0
 24 26  2  0
 26 27  1  0
 27 28  2  0
 28 29  1  0
 18  8  1  0
 29 19  1  0
 17 11  1  0
 28 22  1  0
M  END
>  <supplier_code>  (1213) 
DB04861

>  <zinc_id>  (1213) 
ZINC000005844788

>  <catalog_short_name>  (1213) 
dbfda

$$$$

     RDKit          3D

 29 32  0  0  0  0  0  0  0  0999 V2000
   -1.5560    0.0009   -1.4443 O   0  0  0  0  0  0  0  0  0  0  0  0
   -2.4003   -1.1825   -1.0127 C   0  0  1  0  0  0  0  0  0  0  0  0
   -1.0836   -2.1656   -0.8902 C   0  0  0  0  0  0  0  0  0  0  0  0
   -0.2268   -1.6183    0.0901 N   0  0  0  0  0  0  0  0  0  0  0  0
    1.1415   -1.9336   -0.1381 C   0  0  0  0  0  0  0  0  0  0  0  0
    1.5195   -0.6835   -1.1494 C   0  0  2  0  0  0  0  0  0  0  0  0
    1.2747   -1.5583   -2.3679 O   0  0  0  0  0  0  0  0  0  0  0  0
    3.2142   -1.0487   -1.1688 C   0  0  2  0  0  0  0  0  0  0  0  0
    3.3338   -1.2162    0.4658 C   0  0  0  0  0  0  0  0  0  0  0  0
    4.7996   -1.6520    0.5013 C   0  0  0  0  0  0  0  0  0  0  0  0
    5.4923   -0.3466    0.2291 C   0  0  0  0  0  0  0  0  0  0  0  0
    6.2667    0.0935    1.2969 C   0  0  0  0  0  0  0  0  0  0  0  0
    6.6387    1.4252    1.4333 C   0  0  0  0  0  0  0  0  0  0  0  0
    6.8608    1.9886    2.6565 F   0  0  0  0  0  0  0  0  0  0  0  0
    6.4719    2.1941    0.2950 C   0  0  0  0  0  0  0  0  0  0  0  0
    5.5062    1.8669   -0.6449 C   0  0  0  0  0  0  0  0  0  0  0  0
    4.8825    0.6247   -0.5611 C   0  0  0  0  0  0  0  0  0  0  0  0
    3.5907    0.4410   -1.0795 O   0  0  0  0  0  0  0  0  0  0  0  0
   -2.3421   -0.7055    0.6605 C   0  0  2  0  0  0  0  0  0  0  0  0
   -3.6857   -1.5651    1.0666 C   0  0  0  0  0  0  0  0  0  0  0  0
   -4.6002   -1.5733   -0.0932 C   0  0  0  0  0  0  0  0  0  0  0  0
   -5.0988   -0.1692   -0.2489 C   0  0  0  0  0  0  0  0  0  0  0  0
   -6.4125    0.0720   -0.4938 C   0  0  0  0  0  0  0  0  0  0  0  0
   -6.9727    1.3180   -0.2358 C   0  0  0  0  0  0  0  0  0  0  0  0
   -7.9848    1.8227   -0.9966 F   0  0  0  0  0  0  0  0  0  0  0  0
   -6.2955    2.1359    0.6605 C   0  0  0  0  0  0  0  0  0  0  0  0
   -4.9107    2.0355    0.7427 C   0  0  0  0  0  0  0  0  0  0  0  0
   -4.3733    0.7803    0.4681 C   0  0  0  0  0  0  0  0  0  0  0  0
   -3.0499    0.6191    0.3709 O   0  0  0  0  0  0  0  0  0  0  0  0
  2  1  1  6
  2  3  1  0
  3  4  1  0
  4  5  1  0
  6  5  1  1
  6  7  1  0
  6  8  1  0
  8  9  1  1
  9 10  1  0
 10 11  1  0
 11 12  2  0
 12 13  1  0
 13 14  1  0
 13 15  2  0
 15 16  1  0
 16 17  2  0
 17 18  1  0
  2 19  1  0
 19 20  1  1
 20 21  1  0
 21 22  1  0
 22 23  2  0
 23 24  1  0
 24 25  1  0
 24 26  2  0
 26 27  1  0
 27 28  2  0
 28 29  1  0
 18  8  1  0
 29 19  1  0
 17 11  1  0
 28 22  1  0
M  END
>  <supplier_code>  (1214) 
DB04861

>  <zinc_id>  (1214) 
ZINC000005844792

>  <catalog_short_name>  (1214) 
dbfda

$$$$

     RDKit          3D

 29 32  0  0  0  0  0  0  0  0999 V2000
    1.0706    0.7039    2.0866 O   0  0  0  0  0  0  0  0  0  0  0  0
    0.8764    0.4401    0.6158 C   0  0  2  0  0  0  0  0  0  0  0  0
    1.1632   -1.1636    0.7961 C   0  0  0  0  0  0  0  0  0  0  0  0
   -0.0606   -1.6984    0.2777 N   0  0  0  0  0  0  0  0  0  0  0  0
   -0.2655   -1.2594   -1.0198 C   0  0  0  0  0  0  0  0  0  0  0  0
   -1.8077   -0.8394   -1.3238 C   0  0  1  0  0  0  0  0  0  0  0  0
   -2.0263   -2.1491   -2.0435 O   0  0  0  0  0  0  0  0  0  0  0  0
   -2.4022   -1.4639    0.1655 C   0  0  2  0  0  0  0  0  0  0  0  0
   -3.8382   -1.8710   -0.4974 C   0  0  0  0  0  0  0  0  0  0  0  0
   -4.7923   -1.7611    0.6828 C   0  0  0  0  0  0  0  0  0  0  0  0
   -5.0822   -0.2913    0.7632 C   0  0  0  0  0  0  0  0  0  0  0  0
   -6.3401    0.1402    0.3950 C   0  0  0  0  0  0  0  0  0  0  0  0
   -6.5754    1.5025    0.3778 C   0  0  0  0  0  0  0  0  0  0  0  0
   -7.8136    1.9330    0.7572 F   0  0  0  0  0  0  0  0  0  0  0  0
   -5.5044    2.3360    0.2126 C   0  0  0  0  0  0  0  0  0  0  0  0
   -4.2112    1.8498    0.2058 C   0  0  0  0  0  0  0  0  0  0  0  0
   -4.0026    0.4794    0.3287 C   0  0  0  0  0  0  0  0  0  0  0  0
   -2.8006   -0.0638    0.6069 O   0  0  0  0  0  0  0  0  0  0  0  0
    2.4979    0.9152    0.2723 C   0  0  2  0  0  0  0  0  0  0  0  0
    2.5665   -0.0377   -1.0489 C   0  0  0  0  0  0  0  0  0  0  0  0
    3.9145    0.1106   -1.6566 C   0  0  0  0  0  0  0  0  0  0  0  0
    4.9076   -0.0349   -0.5631 C   0  0  0  0  0  0  0  0  0  0  0  0
    6.1095    0.6508   -0.7027 C   0  0  0  0  0  0  0  0  0  0  0  0
    6.9381    0.8555    0.3967 C   0  0  0  0  0  0  0  0  0  0  0  0
    7.5401    2.0579    0.6347 F   0  0  0  0  0  0  0  0  0  0  0  0
    6.7662   -0.0957    1.3996 C   0  0  0  0  0  0  0  0  0  0  0  0
    5.5229   -0.7066    1.5578 C   0  0  0  0  0  0  0  0  0  0  0  0
    4.4659   -0.4187    0.7001 C   0  0  0  0  0  0  0  0  0  0  0  0
    3.1836   -0.1203    1.1654 O   0  0  0  0  0  0  0  0  0  0  0  0
  2  1  1  1
  2  3  1  0
  3  4  1  0
  4  5  1  0
  6  5  1  1
  6  7  1  0
  6  8  1  0
  8  9  1  6
  9 10  1  0
 10 11  1  0
 11 12  2  0
 12 13  1  0
 13 14  1  0
 13 15  2  0
 15 16  1  0
 16 17  2  0
 17 18  1  0
  2 19  1  0
 19 20  1  6
 20 21  1  0
 21 22  1  0
 22 23  2  0
 23 24  1  0
 24 25  1  0
 24 26  2  0
 26 27  1  0
 27 28  2  0
 28 29  1  0
 18  8  1  0
 29 19  1  0
 17 11  1  0
 28 22  1  0
M  END
>  <supplier_code>  (1215) 
DB04861

>  <zinc_id>  (1215) 
ZINC000011681534

>  <catalog_short_name>  (1215) 
dbfda

$$$$

     RDKit          3D

 39 43  0  0  0  0  0  0  0  0999 V2000
    2.9306   -4.4480    0.8676 C   0  0  0  0  0  0  0  0  0  0  0  0
    2.7431   -3.1351    1.1757 O   0  0  0  0  0  0  0  0  0  0  0  0
    3.2065   -2.1454    0.3099 C   0  0  0  0  0  0  0  0  0  0  0  0
    3.7248   -2.5649   -0.7687 O   0  0  0  0  0  0  0  0  0  0  0  0
    3.2552   -0.7214    0.6870 C   0  0  0  0  0  0  0  0  0  0  0  0
    2.9370    0.0910   -0.5425 C   0  0  2  0  0  0  0  0  0  0  0  0
    3.8715   -0.3283   -1.5095 O   0  0  0  0  0  0  0  0  0  0  0  0
    3.3926    1.4994   -0.1757 C   0  0  0  0  0  0  0  0  0  0  0  0
    4.9041    1.3305   -0.0417 C   0  0  0  0  0  0  0  0  0  0  0  0
    5.5517    2.2091    0.9505 C   0  0  0  0  0  0  0  0  0  0  0  0
    5.0834    3.6292    0.7517 C   0  0  0  0  0  0  0  0  0  0  0  0
    6.0492    4.6450    1.2966 C   0  0  0  0  0  0  0  0  0  0  0  0
    3.7519    3.7075    1.4915 C   0  0  0  0  0  0  0  0  0  0  0  0
    4.9289    3.8338   -0.6145 O   0  0  0  0  0  0  0  0  0  0  0  0
    1.6177   -0.0443   -1.0958 C   0  0  0  0  0  0  0  0  0  0  0  0
    1.4745   -0.3089   -2.3339 O   0  0  0  0  0  0  0  0  0  0  0  0
    0.3821   -0.0962   -0.4847 O   0  0  0  0  0  0  0  0  0  0  0  0
   -0.3503   -1.4462   -0.5339 C   0  0  2  0  0  0  0  0  0  0  0  0
   -1.5715   -1.0599   -1.5011 C   0  0  0  0  0  0  0  0  0  0  0  0
   -1.2415   -1.1055   -2.8450 O   0  0  0  0  0  0  0  0  0  0  0  0
   -1.3379   -2.2822   -3.6128 C   0  0  0  0  0  0  0  0  0  0  0  0
   -2.5864   -1.7261   -1.0077 C   0  0  0  0  0  0  0  0  0  0  0  0
   -2.4888   -2.0291    0.3906 C   0  0  2  0  0  0  0  0  0  0  0  0
   -2.3624   -3.4088    0.8322 C   0  0  0  0  0  0  0  0  0  0  0  0
   -3.8223   -3.8250    1.0063 C   0  0  0  0  0  0  0  0  0  0  0  0
   -4.6205   -2.5390    0.9204 C   0  0  0  0  0  0  0  0  0  0  0  0
   -3.6342   -1.5282    1.1360 N   0  0  0  0  0  0  0  0  0  0  0  0
   -3.3386   -1.3934    2.5578 C   0  0  0  0  0  0  0  0  0  0  0  0
   -3.1750    0.0812    2.9157 C   0  0  0  0  0  0  0  0  0  0  0  0
   -2.6857    0.7139    1.6455 C   0  0  0  0  0  0  0  0  0  0  0  0
   -3.4910    1.8245    1.4021 C   0  0  0  0  0  0  0  0  0  0  0  0
   -3.6583    2.2374    0.0832 C   0  0  0  0  0  0  0  0  0  0  0  0
   -2.6062    1.9502   -0.7810 C   0  0  0  0  0  0  0  0  0  0  0  0
   -1.6240    1.0901   -0.2922 C   0  0  0  0  0  0  0  0  0  0  0  0
   -1.9760    0.2003    0.5572 C   0  0  0  0  0  0  0  0  0  0  0  0
   -1.2277   -1.1334    0.9013 C   0  0  2  0  0  0  0  0  0  0  0  0
   -3.0622    2.3089   -2.0549 O   0  0  0  0  0  0  0  0  0  0  0  0
   -4.3863    2.8357   -1.9670 C   0  0  0  0  0  0  0  0  0  0  0  0
   -4.5578    3.0816   -0.5726 O   0  0  0  0  0  0  0  0  0  0  0  0
  1  2  1  0
  2  3  1  0
  3  4  2  0
  3  5  1  0
  6  5  1  1
  6  7  1  0
  6  8  1  0
  8  9  1  0
  9 10  1  0
 10 11  1  0
 11 12  1  0
 11 13  1  0
 11 14  1  0
  6 15  1  0
 15 16  2  0
 15 17  1  0
 18 17  1  6
 18 19  1  0
 19 20  1  0
 20 21  1  0
 19 22  2  0
 23 22  1  6
 23 24  1  0
 24 25  1  0
 25 26  1  0
 26 27  1  0
 27 28  1  0
 28 29  1  0
 29 30  1  0
 30 31  2  0
 31 32  1  0
 32 33  2  0
 33 34  1  0
 34 35  2  0
 36 35  1  6
 33 37  1  0
 37 38  1  0
 38 39  1  0
 36 18  1  0
 27 23  1  0
 35 30  1  0
 36 23  1  0
 39 32  1  0
M  END
>  <supplier_code>  (1216) 
DB04865

>  <zinc_id>  (1216) 
ZINC000026011099

>  <catalog_short_name>  (1216) 
dbfda

$$$$

     RDKit          3D

 39 43  0  0  0  0  0  0  0  0999 V2000
    5.7179   -2.1049   -1.4884 C   0  0  0  0  0  0  0  0  0  0  0  0
    4.8777   -1.0800   -1.9308 O   0  0  0  0  0  0  0  0  0  0  0  0
    3.5368   -1.0331   -1.5349 C   0  0  0  0  0  0  0  0  0  0  0  0
    2.9624   -2.1621   -1.4598 O   0  0  0  0  0  0  0  0  0  0  0  0
    2.7368    0.1972   -1.8266 C   0  0  0  0  0  0  0  0  0  0  0  0
    2.0892    0.7716   -0.5984 C   0  0  2  0  0  0  0  0  0  0  0  0
    1.9653    2.1533   -0.6663 O   0  0  0  0  0  0  0  0  0  0  0  0
    3.0074    0.4495    0.5748 C   0  0  0  0  0  0  0  0  0  0  0  0
    3.8134    1.6390    1.0167 C   0  0  0  0  0  0  0  0  0  0  0  0
    5.0721    1.8388    0.2184 C   0  0  0  0  0  0  0  0  0  0  0  0
    6.1832    0.9016    0.6192 C   0  0  0  0  0  0  0  0  0  0  0  0
    6.2349    0.7001    2.1075 C   0  0  0  0  0  0  0  0  0  0  0  0
    7.5233    1.4966    0.2093 C   0  0  0  0  0  0  0  0  0  0  0  0
    6.0286   -0.3045   -0.0687 O   0  0  0  0  0  0  0  0  0  0  0  0
    0.7734    0.1073   -0.3203 C   0  0  0  0  0  0  0  0  0  0  0  0
    0.0096   -0.2747   -1.2349 O   0  0  0  0  0  0  0  0  0  0  0  0
    0.3336    0.1329    0.9590 O   0  0  0  0  0  0  0  0  0  0  0  0
   -0.8810   -0.7708    1.3316 C   0  0  2  0  0  0  0  0  0  0  0  0
   -0.2399   -2.0840    0.5883 C   0  0  0  0  0  0  0  0  0  0  0  0
    0.9789   -2.5629    1.0635 O   0  0  0  0  0  0  0  0  0  0  0  0
    1.2483   -3.9434    1.0611 C   0  0  0  0  0  0  0  0  0  0  0  0
   -1.2842   -2.7114    0.1295 C   0  0  0  0  0  0  0  0  0  0  0  0
   -2.4633   -1.8503   -0.0406 C   0  0  2  0  0  0  0  0  0  0  0  0
   -3.2728   -1.9529    1.1863 C   0  0  0  0  0  0  0  0  0  0  0  0
   -4.4185   -2.8509    0.7363 C   0  0  0  0  0  0  0  0  0  0  0  0
   -4.2379   -3.0208   -0.7392 C   0  0  0  0  0  0  0  0  0  0  0  0
   -3.2289   -2.0878   -1.1905 N   0  0  0  0  0  0  0  0  0  0  0  0
   -3.9325   -0.9700   -1.7500 C   0  0  0  0  0  0  0  0  0  0  0  0
   -4.9598   -0.5644   -0.6985 C   0  0  0  0  0  0  0  0  0  0  0  0
   -4.2429    0.4040    0.1943 C   0  0  0  0  0  0  0  0  0  0  0  0
   -5.0850    1.4525    0.5474 C   0  0  0  0  0  0  0  0  0  0  0  0
   -4.5393    2.7047    0.7073 C   0  0  0  0  0  0  0  0  0  0  0  0
   -3.2156    2.7598    1.0915 C   0  0  0  0  0  0  0  0  0  0  0  0
   -2.4303    1.6167    1.0517 C   0  0  0  0  0  0  0  0  0  0  0  0
   -2.9414    0.3753    0.6892 C   0  0  0  0  0  0  0  0  0  0  0  0
   -1.7665   -0.3782   -0.1234 C   0  0  1  0  0  0  0  0  0  0  0  0
   -2.9576    4.1182    1.2581 O   0  0  0  0  0  0  0  0  0  0  0  0
   -3.9415    4.8858    0.5720 C   0  0  0  0  0  0  0  0  0  0  0  0
   -5.0539    4.0025    0.6261 O   0  0  0  0  0  0  0  0  0  0  0  0
  1  2  1  0
  2  3  1  0
  3  4  2  0
  3  5  1  0
  6  5  1  6
  6  7  1  0
  6  8  1  0
  8  9  1  0
  9 10  1  0
 10 11  1  0
 11 12  1  0
 11 13  1  0
 11 14  1  0
  6 15  1  0
 15 16  2  0
 15 17  1  0
 18 17  1  6
 18 19  1  0
 19 20  1  0
 20 21  1  0
 19 22  2  0
 23 22  1  1
 23 24  1  0
 24 25  1  0
 25 26  1  0
 26 27  1  0
 27 28  1  0
 28 29  1  0
 29 30  1  0
 30 31  2  0
 31 32  1  0
 32 33  2  0
 33 34  1  0
 34 35  2  0
 36 35  1  1
 33 37  1  0
 37 38  1  0
 38 39  1  0
 36 18  1  0
 27 23  1  0
 35 30  1  0
 36 23  1  0
 39 32  1  0
M  END
>  <supplier_code>  (1217) 
DB04865

>  <zinc_id>  (1217) 
ZINC000043450324

>  <catalog_short_name>  (1217) 
dbfda

$$$$

     RDKit          3D

 39 43  0  0  0  0  0  0  0  0999 V2000
    6.0662   -2.2235    0.5490 C   0  0  0  0  0  0  0  0  0  0  0  0
    5.2822   -1.4302    0.0764 O   0  0  0  0  0  0  0  0  0  0  0  0
    4.4659   -1.5955   -1.0467 C   0  0  0  0  0  0  0  0  0  0  0  0
    4.3522   -2.7920   -1.4484 O   0  0  0  0  0  0  0  0  0  0  0  0
    3.3115   -0.6839   -1.3307 C   0  0  0  0  0  0  0  0  0  0  0  0
    2.6011   -0.4142   -0.0430 C   0  0  1  0  0  0  0  0  0  0  0  0
    2.7998   -1.5449    0.7689 O   0  0  0  0  0  0  0  0  0  0  0  0
    3.4010    0.6625    0.6859 C   0  0  0  0  0  0  0  0  0  0  0  0
    3.4621    1.9543   -0.0900 C   0  0  0  0  0  0  0  0  0  0  0  0
    4.4737    2.8217    0.6556 C   0  0  0  0  0  0  0  0  0  0  0  0
    5.7170    2.8470   -0.2226 C   0  0  0  0  0  0  0  0  0  0  0  0
    6.5887    4.0466    0.1032 C   0  0  0  0  0  0  0  0  0  0  0  0
    5.2038    2.9551   -1.6471 C   0  0  0  0  0  0  0  0  0  0  0  0
    6.4539    1.6786   -0.1258 O   0  0  0  0  0  0  0  0  0  0  0  0
    1.2185    0.0146   -0.1499 C   0  0  0  0  0  0  0  0  0  0  0  0
    0.8826    1.1191    0.3768 O   0  0  0  0  0  0  0  0  0  0  0  0
    0.1431   -0.6428   -0.7415 O   0  0  0  0  0  0  0  0  0  0  0  0
   -0.9852   -0.9723    0.2944 C   0  0  2  0  0  0  0  0  0  0  0  0
   -0.7905   -2.5895    0.1781 C   0  0  0  0  0  0  0  0  0  0  0  0
    0.1887   -3.2175   -0.5089 O   0  0  0  0  0  0  0  0  0  0  0  0
    0.7156   -4.4157   -0.0272 C   0  0  0  0  0  0  0  0  0  0  0  0
   -2.0055   -3.0537    0.3488 C   0  0  0  0  0  0  0  0  0  0  0  0
   -3.0479   -2.0536    0.0725 C   0  0  2  0  0  0  0  0  0  0  0  0
   -3.3471   -1.3647    1.3393 C   0  0  0  0  0  0  0  0  0  0  0  0
   -4.6280   -2.0780    1.7532 C   0  0  0  0  0  0  0  0  0  0  0  0
   -4.9642   -3.0024    0.6182 C   0  0  0  0  0  0  0  0  0  0  0  0
   -4.1761   -2.5798   -0.5385 N   0  0  0  0  0  0  0  0  0  0  0  0
   -5.0276   -1.7133   -1.2884 C   0  0  0  0  0  0  0  0  0  0  0  0
   -5.4444   -0.5883   -0.3480 C   0  0  0  0  0  0  0  0  0  0  0  0
   -4.3593    0.4230   -0.4417 C   0  0  0  0  0  0  0  0  0  0  0  0
   -4.8566    1.6960   -0.1884 C   0  0  0  0  0  0  0  0  0  0  0  0
   -4.0059    2.7902   -0.1788 C   0  0  0  0  0  0  0  0  0  0  0  0
   -2.7791    2.6019   -0.7821 C   0  0  0  0  0  0  0  0  0  0  0  0
   -2.3361    1.3258   -1.0850 C   0  0  0  0  0  0  0  0  0  0  0  0
   -2.9715    0.2919   -0.3963 C   0  0  0  0  0  0  0  0  0  0  0  0
   -2.2393   -1.0498   -0.9223 C   0  0  1  0  0  0  0  0  0  0  0  0
   -2.2430    3.8788   -0.8886 O   0  0  0  0  0  0  0  0  0  0  0  0
   -2.9988    4.8045   -0.1466 C   0  0  0  0  0  0  0  0  0  0  0  0
   -4.1214    4.0942    0.2998 O   0  0  0  0  0  0  0  0  0  0  0  0
  1  2  1  0
  2  3  1  0
  3  4  2  0
  3  5  1  0
  6  5  1  6
  6  7  1  0
  6  8  1  0
  8  9  1  0
  9 10  1  0
 10 11  1  0
 11 12  1  0
 11 13  1  0
 11 14  1  0
  6 15  1  0
 15 16  2  0
 15 17  1  0
 18 17  1  6
 18 19  1  0
 19 20  1  0
 20 21  1  0
 19 22  2  0
 23 22  1  1
 23 24  1  0
 24 25  1  0
 25 26  1  0
 26 27  1  0
 27 28  1  0
 28 29  1  0
 29 30  1  0
 30 31  2  0
 31 32  1  0
 32 33  2  0
 33 34  1  0
 34 35  2  0
 36 35  1  1
 33 37  1  0
 37 38  1  0
 38 39  1  0
 36 18  1  0
 27 23  1  0
 35 30  1  0
 36 23  1  0
 39 32  1  0
M  END
>  <supplier_code>  (1218) 
DB04865

>  <zinc_id>  (1218) 
ZINC000043450326

>  <catalog_short_name>  (1218) 
dbfda

$$$$

     RDKit          3D

 39 43  0  0  0  0  0  0  0  0999 V2000
   -9.8922    0.6014   -1.1871 C   0  0  0  0  0  0  0  0  0  0  0  0
   -8.7829    0.6483   -0.1903 C   0  0  0  0  0  0  0  0  0  0  0  0
   -7.4184    0.6763   -0.4500 C   0  0  0  0  0  0  0  0  0  0  0  0
   -6.7603    0.4760    0.7045 N   0  0  0  0  0  0  0  0  0  0  0  0
   -5.3591    0.4805    0.8990 C   0  0  0  0  0  0  0  0  0  0  0  0
   -4.4594    0.9122   -0.0536 C   0  0  0  0  0  0  0  0  0  0  0  0
   -3.1198    1.0684    0.2411 C   0  0  0  0  0  0  0  0  0  0  0  0
   -2.1212    1.1183   -0.7861 N   0  0  0  0  0  0  0  0  0  0  0  0
   -1.7734   -0.0042   -1.5767 C   0  0  0  0  0  0  0  0  0  0  0  0
   -2.7047   -0.8326   -1.8088 O   0  0  0  0  0  0  0  0  0  0  0  0
   -0.4165   -0.5128   -1.7202 C   0  0  0  0  0  0  0  0  0  0  0  0
   -0.0560   -1.5889   -0.9180 C   0  0  0  0  0  0  0  0  0  0  0  0
    1.2398   -2.0864   -0.9020 C   0  0  0  0  0  0  0  0  0  0  0  0
    2.1821   -1.5232   -1.7495 C   0  0  0  0  0  0  0  0  0  0  0  0
    3.2367   -2.3352   -2.4231 C   0  0  0  0  0  0  0  0  0  0  0  0
    1.9443   -0.2060   -2.1149 C   0  0  0  0  0  0  0  0  0  0  0  0
    2.9919    0.5320   -2.7114 N   0  0  0  0  0  0  0  0  0  0  0  0
    4.3609    0.3531   -2.4197 C   0  0  0  0  0  0  0  0  0  0  0  0
    5.2241    0.4088   -3.4624 N   0  0  0  0  0  0  0  0  0  0  0  0
    6.3991   -0.2608   -3.4165 C   0  0  0  0  0  0  0  0  0  0  0  0
    6.8347   -0.6269   -2.1498 C   0  0  0  0  0  0  0  0  0  0  0  0
    6.1677   -0.1055   -1.0489 C   0  0  0  0  0  0  0  0  0  0  0  0
    6.7206   -0.1962    0.3078 C   0  0  0  0  0  0  0  0  0  0  0  0
    6.6428    0.9218    1.1253 C   0  0  0  0  0  0  0  0  0  0  0  0
    7.5993    1.1799    2.0983 C   0  0  0  0  0  0  0  0  0  0  0  0
    8.6657    0.2973    2.2113 C   0  0  0  0  0  0  0  0  0  0  0  0
    8.4777   -0.9549    1.7294 N   0  0  0  0  0  0  0  0  0  0  0  0
    7.6976   -1.1203    0.6351 C   0  0  0  0  0  0  0  0  0  0  0  0
    4.8466    0.1608   -1.1735 N   0  0  0  0  0  0  0  0  0  0  0  0
    0.6445    0.2823   -2.1378 C   0  0  0  0  0  0  0  0  0  0  0  0
   -2.7422    0.8345    1.5536 C   0  0  0  0  0  0  0  0  0  0  0  0
   -3.5444    0.1647    2.4585 C   0  0  0  0  0  0  0  0  0  0  0  0
   -2.9844   -0.5305    3.6584 C   0  0  0  0  0  0  0  0  0  0  0  0
   -1.6945   -0.0305    3.8114 F   0  0  0  0  0  0  0  0  0  0  0  0
   -3.7494   -0.3289    4.7811 F   0  0  0  0  0  0  0  0  0  0  0  0
   -2.8475   -1.8797    3.3462 F   0  0  0  0  0  0  0  0  0  0  0  0
   -4.8316   -0.1272    2.0275 C   0  0  0  0  0  0  0  0  0  0  0  0
   -7.6853    0.4301    1.6700 C   0  0  0  0  0  0  0  0  0  0  0  0
   -8.9330    0.4494    1.1421 N   0  0  0  0  0  0  0  0  0  0  0  0
  1  2  1  0
  2  3  2  0
  3  4  1  0
  4  5  1  0
  5  6  2  0
  6  7  1  0
  7  8  1  0
  8  9  1  0
  9 10  2  0
  9 11  1  0
 11 12  2  0
 12 13  1  0
 13 14  2  0
 14 15  1  0
 14 16  1  0
 16 17  1  0
 17 18  1  0
 18 19  2  0
 19 20  1  0
 20 21  2  0
 21 22  1  0
 22 23  1  0
 23 24  2  0
 24 25  1  0
 25 26  2  0
 26 27  1  0
 27 28  2  0
 22 29  2  0
 16 30  2  0
  7 31  2  0
 31 32  1  0
 32 33  1  0
 33 34  1  0
 33 35  1  0
 33 36  1  0
 32 37  2  0
  4 38  1  0
 38 39  2  0
 39  2  1  0
 37  5  1  0
 30 11  1  0
 29 18  1  0
 28 23  1  0
M  END
>  <supplier_code>  (1219) 
DB04868

>  <zinc_id>  (1219) 
ZINC000006716957

>  <catalog_short_name>  (1219) 
dbfda

$$$$

     RDKit          3D

 13 14  0  0  0  0  0  0  0  0999 V2000
   -0.6772    2.6260   -0.3675 C   0  0  0  0  0  0  0  0  0  0  0  0
   -1.1066    1.2494    0.4145 C   0  0  1  0  0  0  0  0  0  0  0  0
   -2.2584    0.8896   -0.6958 C   0  0  0  0  0  0  0  0  0  0  0  0
   -2.9802   -0.2388   -0.2429 N   0  0  0  0  0  0  0  0  0  0  0  0
   -2.4483   -1.5172   -0.3426 C   0  0  0  0  0  0  0  0  0  0  0  0
   -1.1730   -1.8861    0.2509 C   0  0  0  0  0  0  0  0  0  0  0  0
   -0.0771   -1.0026   -0.2429 C   0  0  0  0  0  0  0  0  0  0  0  0
    1.0751   -1.6881   -0.6142 C   0  0  0  0  0  0  0  0  0  0  0  0
    2.2953   -1.0379   -0.5381 C   0  0  0  0  0  0  0  0  0  0  0  0
    2.3386    0.2913   -0.1976 C   0  0  0  0  0  0  0  0  0  0  0  0
    3.8604    0.9484    0.3856 Cl  0  0  0  0  0  0  0  0  0  0  0  0
    1.1661    0.9882   -0.0799 C   0  0  0  0  0  0  0  0  0  0  0  0
   -0.0147    0.3777   -0.3854 C   0  0  0  0  0  0  0  0  0  0  0  0
  2  1  1  6
  2  3  1  0
  3  4  1  0
  4  5  1  0
  5  6  1  0
  6  7  1  0
  7  8  2  0
  8  9  1  0
  9 10  2  0
 10 11  1  0
 10 12  1  0
 12 13  2  0
 13  2  1  0
 13  7  1  0
M  END
>  <supplier_code>  (1220) 
DB04871

>  <zinc_id>  (1220) 
ZINC000006733300

>  <catalog_short_name>  (1220) 
dbfda

$$$$

     RDKit          3D

 27 29  0  0  0  0  0  0  0  0999 V2000
    6.4294   -0.0579   -0.9259 O   0  0  0  0  0  0  0  0  0  0  0  0
    6.4118   -1.0606   -0.3855 C   0  0  0  0  0  0  0  0  0  0  0  0
    7.3821   -1.3301    0.5585 O   0  0  0  0  0  0  0  0  0  0  0  0
    5.1967   -1.9358   -0.4032 C   0  0  0  0  0  0  0  0  0  0  0  0
    4.6474   -1.8880    1.0195 C   0  0  0  0  0  0  0  0  0  0  0  0
    4.0275   -0.4984    1.1477 C   0  0  0  0  0  0  0  0  0  0  0  0
    3.2875   -0.3282   -0.1032 N   0  0  0  0  0  0  0  0  0  0  0  0
    2.8766    1.0335   -0.3189 C   0  0  0  0  0  0  0  0  0  0  0  0
    1.5319    1.2716    0.3120 C   0  0  0  0  0  0  0  0  0  0  0  0
    0.4700    0.4616   -0.3819 C   0  0  0  0  0  0  0  0  0  0  0  0
   -0.5951    0.2335    0.4911 O   0  0  0  0  0  0  0  0  0  0  0  0
   -1.7560    0.3881   -0.5345 C   0  0  1  0  0  0  0  0  0  0  0  0
   -2.8333   -0.3700    0.4780 C   0  0  0  0  0  0  0  0  0  0  0  0
   -4.0266   -0.4335   -0.2423 C   0  0  0  0  0  0  0  0  0  0  0  0
   -4.9219   -1.4614    0.0000 C   0  0  0  0  0  0  0  0  0  0  0  0
   -4.5699   -2.5042    0.8456 C   0  0  0  0  0  0  0  0  0  0  0  0
   -5.4962   -4.0002    0.8527 Cl  0  0  0  0  0  0  0  0  0  0  0  0
   -3.3030   -2.4749    1.4154 C   0  0  0  0  0  0  0  0  0  0  0  0
   -2.3582   -1.6264    0.8524 C   0  0  0  0  0  0  0  0  0  0  0  0
   -2.1377    1.8802    0.0850 C   0  0  0  0  0  0  0  0  0  0  0  0
   -1.3218    2.7730   -0.6086 C   0  0  0  0  0  0  0  0  0  0  0  0
   -1.7871    4.0612   -0.8463 C   0  0  0  0  0  0  0  0  0  0  0  0
   -3.0365    4.4417   -0.3790 C   0  0  0  0  0  0  0  0  0  0  0  0
   -3.8514    3.4184    0.0739 C   0  0  0  0  0  0  0  0  0  0  0  0
   -3.4612    2.1343   -0.0397 N   0  0  0  0  0  0  0  0  0  0  0  0
    0.9973   -0.8666   -0.8377 C   0  0  0  0  0  0  0  0  0  0  0  0
    2.1978   -1.2608   -0.0257 C   0  0  0  0  0  0  0  0  0  0  0  0
  1  2  2  0
  2  3  1  0
  2  4  1  0
  4  5  1  0
  5  6  1  0
  6  7  1  0
  7  8  1  0
  8  9  1  0
  9 10  1  0
 10 11  1  0
 12 11  1  1
 12 13  1  0
 13 14  2  0
 14 15  1  0
 15 16  2  0
 16 17  1  0
 16 18  1  0
 18 19  2  0
 12 20  1  0
 20 21  2  0
 21 22  1  0
 22 23  2  0
 23 24  1  0
 24 25  2  0
 10 26  1  0
 26 27  1  0
 27  7  1  0
 19 13  1  0
 25 20  1  0
M  END
>  <supplier_code>  (1221) 
DB04890

>  <zinc_id>  (1221) 
ZINC000000602128

>  <catalog_short_name>  (1221) 
dbfda

$$$$

     RDKit          3D

 27 29  0  0  0  0  0  0  0  0999 V2000
    7.1473    0.5519    0.7205 O   0  0  0  0  0  0  0  0  0  0  0  0
    7.2459    0.3093    0.3620 C   0  0  0  0  0  0  0  0  0  0  0  0
    8.0572    0.8342   -0.6520 O   0  0  0  0  0  0  0  0  0  0  0  0
    6.4671   -0.9187   -0.0155 C   0  0  0  0  0  0  0  0  0  0  0  0
    5.4105   -0.4117   -0.9892 C   0  0  0  0  0  0  0  0  0  0  0  0
    4.4517    0.4784   -0.2052 C   0  0  0  0  0  0  0  0  0  0  0  0
    3.1405   -0.0845   -0.3979 N   0  0  0  0  0  0  0  0  0  0  0  0
    2.4271    0.8004   -1.2913 C   0  0  0  0  0  0  0  0  0  0  0  0
    1.2227    1.3107   -0.5061 C   0  0  0  0  0  0  0  0  0  0  0  0
    0.3775    0.1257   -0.2573 C   0  0  0  0  0  0  0  0  0  0  0  0
   -0.6759    0.0969   -1.0043 O   0  0  0  0  0  0  0  0  0  0  0  0
   -1.6575   -0.9780   -0.5568 C   0  0  2  0  0  0  0  0  0  0  0  0
   -2.9231   -0.1483   -1.1502 C   0  0  0  0  0  0  0  0  0  0  0  0
   -3.6019    0.7308   -0.4484 C   0  0  0  0  0  0  0  0  0  0  0  0
   -4.9711    0.9273   -0.6130 C   0  0  0  0  0  0  0  0  0  0  0  0
   -5.7118   -0.1536   -1.0778 C   0  0  0  0  0  0  0  0  0  0  0  0
   -7.1867   -0.6966   -0.2814 Cl  0  0  0  0  0  0  0  0  0  0  0  0
   -5.0375   -0.9576   -1.9908 C   0  0  0  0  0  0  0  0  0  0  0  0
   -3.6462   -0.9108   -2.0665 C   0  0  0  0  0  0  0  0  0  0  0  0
   -1.7794   -0.4337    0.9699 C   0  0  0  0  0  0  0  0  0  0  0  0
   -2.7110   -1.1833    1.6716 C   0  0  0  0  0  0  0  0  0  0  0  0
   -3.3290   -0.5869    2.7592 C   0  0  0  0  0  0  0  0  0  0  0  0
   -2.7084    0.5253    3.3120 C   0  0  0  0  0  0  0  0  0  0  0  0
   -1.8882    1.2632    2.4673 C   0  0  0  0  0  0  0  0  0  0  0  0
   -1.6284    0.8162    1.2388 N   0  0  0  0  0  0  0  0  0  0  0  0
    1.0716   -0.9347    0.4150 C   0  0  0  0  0  0  0  0  0  0  0  0
    2.4367   -0.3719    0.8209 C   0  0  0  0  0  0  0  0  0  0  0  0
  1  2  2  0
  2  3  1  0
  2  4  1  0
  4  5  1  0
  5  6  1  0
  6  7  1  0
  7  8  1  0
  8  9  1  0
  9 10  1  0
 10 11  1  0
 12 11  1  6
 12 13  1  0
 13 14  2  0
 14 15  1  0
 15 16  2  0
 16 17  1  0
 16 18  1  0
 18 19  2  0
 12 20  1  0
 20 21  2  0
 21 22  1  0
 22 23  2  0
 23 24  1  0
 24 25  2  0
 10 26  1  0
 26 27  1  0
 27  7  1  0
 19 13  1  0
 25 20  1  0
M  END
>  <supplier_code>  (1222) 
DB04890

>  <zinc_id>  (1222) 
ZINC000003871703

>  <catalog_short_name>  (1222) 
dbfda

$$$$

     RDKit          3D

 18 19  0  0  0  0  0  0  0  0999 V2000
    3.7224   -0.3670    1.1174 C   0  0  0  0  0  0  0  0  0  0  0  0
    2.6531   -1.4229    0.9830 C   0  0  0  0  0  0  0  0  0  0  0  0
    1.7194   -0.9836   -0.0589 N   0  0  0  0  0  0  0  0  0  0  0  0
    1.9947   -1.3840   -1.3955 C   0  0  0  0  0  0  0  0  0  0  0  0
    1.7068   -2.7495   -1.8251 C   0  0  0  0  0  0  0  0  0  0  0  0
    1.1310    0.3328   -0.0123 C   0  0  0  0  0  0  0  0  0  0  0  0
    1.6959    1.0449    0.8888 O   0  0  0  0  0  0  0  0  0  0  0  0
   -0.2250    0.6422   -0.1970 C   0  0  2  0  0  0  0  0  0  0  0  0
   -1.3656   -0.2154    0.1776 C   0  0  0  0  0  0  0  0  0  0  0  0
   -2.0986   -0.9550   -0.7486 C   0  0  0  0  0  0  0  0  0  0  0  0
   -3.3072   -1.5125   -0.3423 C   0  0  0  0  0  0  0  0  0  0  0  0
   -3.6896   -1.4526    0.9845 C   0  0  0  0  0  0  0  0  0  0  0  0
   -2.6696   -1.2436    1.8977 C   0  0  0  0  0  0  0  0  0  0  0  0
   -1.5822   -0.5077    1.4954 C   0  0  0  0  0  0  0  0  0  0  0  0
   -0.7938    1.4697   -1.4956 C   0  0  0  0  0  0  0  0  0  0  0  0
   -0.5657    2.2626   -0.0545 C   0  0  2  0  0  0  0  0  0  0  0  0
    0.9415    2.8357   -0.5356 C   0  0  0  0  0  0  0  0  0  0  0  0
    0.7327    4.2060   -0.8787 N   0  0  0  0  0  0  0  0  0  0  0  0
  1  2  1  0
  2  3  1  0
  3  4  1  0
  4  5  1  0
  3  6  1  0
  6  7  2  0
  8  6  1  6
  8  9  1  0
  9 10  2  0
 10 11  1  0
 11 12  2  0
 12 13  1  0
 13 14  2  0
  8 15  1  0
 15 16  1  0
 16 17  1  6
 17 18  1  0
 16  8  1  0
 14  9  1  0
M  END
>  <supplier_code>  (1223) 
DB04896

>  <zinc_id>  (1223) 
ZINC000000014037

>  <catalog_short_name>  (1223) 
dbfda

$$$$

     RDKit          3D

 28 31  0  0  0  0  0  0  0  0999 V2000
   -3.2706    2.4574    0.2892 O   0  0  0  0  0  0  0  0  0  0  0  0
   -3.7898    1.4827   -0.3340 C   0  0  0  0  0  0  0  0  0  0  0  0
   -5.1109    1.2953   -0.5228 N   0  0  0  0  0  0  0  0  0  0  0  0
   -5.2810   -0.0159   -0.7623 C   0  0  0  0  0  0  0  0  0  0  0  0
   -6.3189   -0.9178   -0.5941 C   0  0  0  0  0  0  0  0  0  0  0  0
   -6.1305   -2.2664   -0.8671 C   0  0  0  0  0  0  0  0  0  0  0  0
   -4.9587   -2.6749   -1.4904 C   0  0  0  0  0  0  0  0  0  0  0  0
   -3.8697   -1.8282   -1.4214 C   0  0  0  0  0  0  0  0  0  0  0  0
   -4.0369   -0.4951   -1.1431 C   0  0  0  0  0  0  0  0  0  0  0  0
   -3.1230    0.4478   -0.8669 N   0  0  0  0  0  0  0  0  0  0  0  0
   -1.7470    0.4447   -1.3134 C   0  0  0  0  0  0  0  0  0  0  0  0
   -0.9739    1.5404   -0.6297 C   0  0  0  0  0  0  0  0  0  0  0  0
    0.2655    1.0037   -0.0779 N   0  0  0  0  0  0  0  0  0  0  0  0
    0.1355   -0.3834    0.0625 C   0  0  0  0  0  0  0  0  0  0  0  0
    0.6345   -1.0300    1.2968 C   0  0  0  0  0  0  0  0  0  0  0  0
    1.4142   -0.1386    2.1527 N   0  0  0  0  0  0  0  0  0  0  0  0
    2.8282   -0.1754    1.9221 C   0  0  0  0  0  0  0  0  0  0  0  0
    3.5889   -1.1157    2.6053 C   0  0  0  0  0  0  0  0  0  0  0  0
    4.6586   -1.7511    1.9861 C   0  0  0  0  0  0  0  0  0  0  0  0
    5.0063   -1.4058    0.6850 C   0  0  0  0  0  0  0  0  0  0  0  0
    4.6225   -0.1250    0.3041 C   0  0  0  0  0  0  0  0  0  0  0  0
    5.0649    0.3450   -1.0431 C   0  0  0  0  0  0  0  0  0  0  0  0
    4.0047    0.2430   -1.9368 F   0  0  0  0  0  0  0  0  0  0  0  0
    6.0781   -0.4638   -1.5387 F   0  0  0  0  0  0  0  0  0  0  0  0
    5.4888    1.6442   -0.8878 F   0  0  0  0  0  0  0  0  0  0  0  0
    3.3987    0.3375    0.7708 C   0  0  0  0  0  0  0  0  0  0  0  0
    0.7498    1.1496    2.3463 C   0  0  0  0  0  0  0  0  0  0  0  0
    0.6719    1.7947    1.0084 C   0  0  0  0  0  0  0  0  0  0  0  0
  1  2  2  0
  2  3  1  0
  3  4  1  0
  4  5  2  0
  5  6  1  0
  6  7  2  0
  7  8  1  0
  8  9  2  0
  9 10  1  0
 10 11  1  0
 11 12  1  0
 12 13  1  0
 13 14  1  0
 14 15  1  0
 15 16  1  0
 16 17  1  0
 17 18  2  0
 18 19  1  0
 19 20  2  0
 20 21  1  0
 21 22  1  0
 22 23  1  0
 22 24  1  0
 22 25  1  0
 21 26  2  0
 16 27  1  0
 27 28  1  0
 10  2  1  0
 28 13  1  0
  9  4  1  0
 26 17  1  0
M  END
>  <supplier_code>  (1224) 
DB04908

>  <zinc_id>  (1224) 
ZINC000052716421

>  <catalog_short_name>  (1224) 
dbfda

$$$$

     RDKit          3D

 30 31  0  0  0  0  0  0  0  0999 V2000
    6.6263   -1.6014    0.3322 C   0  0  0  0  0  0  0  0  0  0  0  0
    7.0320   -1.0021   -0.3446 C   0  0  0  0  0  0  0  0  0  0  0  0
    6.1171    0.0748   -0.9167 C   0  0  0  0  0  0  0  0  0  0  0  0
    5.0814    0.3402    0.1297 C   0  0  0  0  0  0  0  0  0  0  0  0
    5.1842    1.2976    0.9462 O   0  0  0  0  0  0  0  0  0  0  0  0
    4.0145   -0.5446    0.2730 O   0  0  0  0  0  0  0  0  0  0  0  0
    3.2455   -0.6317    1.4669 C   0  0  0  0  0  0  0  0  0  0  0  0
    1.9866    0.0115    1.2792 O   0  0  0  0  0  0  0  0  0  0  0  0
    1.1041   -0.3450    0.2849 C   0  0  0  0  0  0  0  0  0  0  0  0
    1.5651   -1.1014   -0.6235 O   0  0  0  0  0  0  0  0  0  0  0  0
    0.0135    0.6143    0.0084 C   0  0  0  0  0  0  0  0  0  0  0  0
    0.5019    1.7626   -0.4831 C   0  0  0  0  0  0  0  0  0  0  0  0
    1.7346    2.2947    0.1824 C   0  0  0  0  0  0  0  0  0  0  0  0
   -0.1150    2.4578   -1.5809 N   0  0  0  0  0  0  0  0  0  0  0  0
   -1.5331    2.2260   -1.6449 C   0  0  0  0  0  0  0  0  0  0  0  0
   -2.5191    3.3273   -1.8863 C   0  0  0  0  0  0  0  0  0  0  0  0
   -2.0628    1.2375   -0.9132 C   0  0  0  0  0  0  0  0  0  0  0  0
   -2.8318    1.4423    0.2619 C   0  0  0  0  0  0  0  0  0  0  0  0
   -2.4593    1.1911    1.4496 O   0  0  0  0  0  0  0  0  0  0  0  0
   -4.1879    1.7735    0.1633 O   0  0  0  0  0  0  0  0  0  0  0  0
   -4.7797    2.4993    1.2384 C   0  0  0  0  0  0  0  0  0  0  0  0
   -1.0710   -0.0622   -1.0294 C   0  0  2  0  0  0  0  0  0  0  0  0
   -1.8610   -0.9091    0.1409 C   0  0  0  0  0  0  0  0  0  0  0  0
   -1.0661   -1.7746    0.8406 C   0  0  0  0  0  0  0  0  0  0  0  0
   -1.5312   -2.9192    1.4479 C   0  0  0  0  0  0  0  0  0  0  0  0
   -2.7767   -3.4083    1.0790 C   0  0  0  0  0  0  0  0  0  0  0  0
   -3.5271   -2.6430    0.1946 C   0  0  0  0  0  0  0  0  0  0  0  0
   -5.2176   -3.0324   -0.1021 Cl  0  0  0  0  0  0  0  0  0  0  0  0
   -3.0374   -1.4656   -0.3599 C   0  0  0  0  0  0  0  0  0  0  0  0
   -3.6298   -1.1102   -1.9826 Cl  0  0  0  0  0  0  0  0  0  0  0  0
  1  2  1  0
  2  3  1  0
  3  4  1  0
  4  5  2  0
  4  6  1  0
  6  7  1  0
  7  8  1  0
  8  9  1  0
  9 10  2  0
  9 11  1  0
 11 12  2  0
 12 13  1  0
 12 14  1  0
 14 15  1  0
 15 16  1  0
 15 17  2  0
 17 18  1  0
 18 19  2  0
 18 20  1  0
 20 21  1  0
 17 22  1  0
 22 23  1  1
 23 24  2  0
 24 25  1  0
 25 26  2  0
 26 27  1  0
 27 28  1  0
 27 29  2  0
 29 30  1  0
 22 11  1  0
 29 23  1  0
M  END
>  <supplier_code>  (1225) 
DB04920

>  <zinc_id>  (1225) 
ZINC000030691760

>  <catalog_short_name>  (1225) 
dbfda

$$$$

     RDKit          3D

 30 31  0  0  0  0  0  0  0  0999 V2000
    6.8122    1.0798   -0.2778 C   0  0  0  0  0  0  0  0  0  0  0  0
    7.3555    0.1677   -0.1508 C   0  0  0  0  0  0  0  0  0  0  0  0
    6.5364   -1.1060   -0.3325 C   0  0  0  0  0  0  0  0  0  0  0  0
    5.1176   -0.6387   -0.3579 C   0  0  0  0  0  0  0  0  0  0  0  0
    4.6495   -0.1242    0.6907 O   0  0  0  0  0  0  0  0  0  0  0  0
    4.3534   -0.5634   -1.4963 O   0  0  0  0  0  0  0  0  0  0  0  0
    3.2230    0.2381   -1.6790 C   0  0  0  0  0  0  0  0  0  0  0  0
    2.0134   -0.4010   -1.2819 O   0  0  0  0  0  0  0  0  0  0  0  0
    1.0203    0.2855   -0.5698 C   0  0  0  0  0  0  0  0  0  0  0  0
    1.4180    1.4176   -0.1553 O   0  0  0  0  0  0  0  0  0  0  0  0
   -0.0136   -0.4952    0.1329 C   0  0  0  0  0  0  0  0  0  0  0  0
    0.3133   -1.7397    0.5020 C   0  0  0  0  0  0  0  0  0  0  0  0
    1.7005   -2.2861    0.3675 C   0  0  0  0  0  0  0  0  0  0  0  0
   -0.6914   -2.7246    0.7892 N   0  0  0  0  0  0  0  0  0  0  0  0
   -2.0438   -2.2505    0.8541 C   0  0  0  0  0  0  0  0  0  0  0  0
   -2.9776   -2.9147    1.8182 C   0  0  0  0  0  0  0  0  0  0  0  0
   -2.3069   -0.9767    0.5305 C   0  0  0  0  0  0  0  0  0  0  0  0
   -3.7068   -0.7651    0.1145 C   0  0  0  0  0  0  0  0  0  0  0  0
   -4.1346   -1.2880   -0.9601 O   0  0  0  0  0  0  0  0  0  0  0  0
   -4.6513   -0.6638    1.1440 O   0  0  0  0  0  0  0  0  0  0  0  0
   -6.0107   -1.0441    0.9367 C   0  0  0  0  0  0  0  0  0  0  0  0
   -1.3708   -0.6626   -0.7820 C   0  0  1  0  0  0  0  0  0  0  0  0
   -1.7026    0.9353   -0.7642 C   0  0  0  0  0  0  0  0  0  0  0  0
   -2.4964    1.3419   -1.8259 C   0  0  0  0  0  0  0  0  0  0  0  0
   -3.1423    2.5676   -1.6974 C   0  0  0  0  0  0  0  0  0  0  0  0
   -2.7810    3.3971   -0.6401 C   0  0  0  0  0  0  0  0  0  0  0  0
   -2.0401    2.9009    0.4266 C   0  0  0  0  0  0  0  0  0  0  0  0
   -1.4044    3.9571    1.6826 Cl  0  0  0  0  0  0  0  0  0  0  0  0
   -1.6161    1.5762    0.4151 C   0  0  0  0  0  0  0  0  0  0  0  0
   -1.4224    0.7796    1.9397 Cl  0  0  0  0  0  0  0  0  0  0  0  0
  1  2  1  0
  2  3  1  0
  3  4  1  0
  4  5  2  0
  4  6  1  0
  6  7  1  0
  7  8  1  0
  8  9  1  0
  9 10  2  0
  9 11  1  0
 11 12  2  0
 12 13  1  0
 12 14  1  0
 14 15  1  0
 15 16  1  0
 15 17  2  0
 17 18  1  0
 18 19  2  0
 18 20  1  0
 20 21  1  0
 17 22  1  0
 22 23  1  1
 23 24  2  0
 24 25  1  0
 25 26  2  0
 26 27  1  0
 27 28  1  0
 27 29  2  0
 29 30  1  0
 22 11  1  0
 29 23  1  0
M  END
>  <supplier_code>  (1226) 
DB04920

>  <zinc_id>  (1226) 
ZINC000030691763

>  <catalog_short_name>  (1226) 
dbfda

$$$$

     RDKit          3D

 26 28  0  0  0  0  0  0  0  0999 V2000
    4.1325    0.4058   -0.7012 C   0  0  0  0  0  0  0  0  0  0  0  0
    4.1038    0.4175   -0.5455 C   0  0  0  0  0  0  0  0  0  0  0  0
    3.0156    1.1735   -1.1369 C   0  0  0  0  0  0  0  0  0  0  0  0
    3.7353   -0.7689    0.6313 C   0  0  2  0  0  0  0  0  0  0  0  0
    2.1548   -0.4479    0.7860 C   0  0  0  0  0  0  0  0  0  0  0  0
    1.7361   -0.6481    1.9547 O   0  0  0  0  0  0  0  0  0  0  0  0
    1.3628   -0.5185   -0.2865 O   0  0  0  0  0  0  0  0  0  0  0  0
    0.1064    0.1544   -0.1755 C   0  0  0  0  0  0  0  0  0  0  0  0
   -0.9793   -0.8226   -0.2799 C   0  0  0  0  0  0  0  0  0  0  0  0
   -1.4311   -1.1662   -1.5408 C   0  0  0  0  0  0  0  0  0  0  0  0
   -2.5327   -1.9779   -1.6452 C   0  0  0  0  0  0  0  0  0  0  0  0
   -3.4404   -1.9774   -0.6050 C   0  0  0  0  0  0  0  0  0  0  0  0
   -3.1048   -1.5219    0.6642 C   0  0  0  0  0  0  0  0  0  0  0  0
   -4.1371   -1.0710    1.4933 O   0  0  0  0  0  0  0  0  0  0  0  0
   -5.0666   -0.1744    0.9575 C   0  0  0  0  0  0  0  0  0  0  0  0
   -6.0806   -0.7309    0.1885 C   0  0  0  0  0  0  0  0  0  0  0  0
   -6.6028   -0.0981   -0.9231 C   0  0  0  0  0  0  0  0  0  0  0  0
   -6.0334    1.0824   -1.3689 C   0  0  0  0  0  0  0  0  0  0  0  0
   -5.1720    1.7383   -0.5286 C   0  0  0  0  0  0  0  0  0  0  0  0
   -4.5392    1.0136    0.4676 C   0  0  0  0  0  0  0  0  0  0  0  0
   -1.8148   -1.0240    0.7897 C   0  0  0  0  0  0  0  0  0  0  0  0
    4.2161    0.8082    1.1303 C   0  0  1  0  0  0  0  0  0  0  0  0
    5.7975    0.4378    1.2094 C   0  0  0  0  0  0  0  0  0  0  0  0
    6.5020    1.4800    0.7842 C   0  0  0  0  0  0  0  0  0  0  0  0
    8.1781    1.1384    0.3478 Cl  0  0  0  0  0  0  0  0  0  0  0  0
    5.8937    3.0977    0.5823 Cl  0  0  0  0  0  0  0  0  0  0  0  0
  1  2  1  0
  2  3  1  0
  2  4  1  0
  4  5  1  6
  5  6  2  0
  5  7  1  0
  7  8  1  0
  8  9  1  0
  9 10  2  0
 10 11  1  0
 11 12  2  0
 12 13  1  0
 13 14  1  0
 14 15  1  0
 15 16  2  0
 16 17  1  0
 17 18  2  0
 18 19  1  0
 19 20  2  0
 13 21  2  0
  4 22  1  0
 22 23  1  1
 23 24  2  3
 24 25  1  0
 24 26  1  0
 22  2  1  0
 21  9  1  0
 20 15  1  0
M  END
>  <supplier_code>  (1227) 
DB04930

>  <zinc_id>  (1227) 
ZINC000001850374

>  <catalog_short_name>  (1227) 
dbfda

$$$$

     RDKit          3D

 26 28  0  0  0  0  0  0  0  0999 V2000
   -3.7732    2.0255   -0.6606 C   0  0  0  0  0  0  0  0  0  0  0  0
   -3.9137    2.1178   -0.0539 C   0  0  0  0  0  0  0  0  0  0  0  0
   -4.0982    3.3013    0.8921 C   0  0  0  0  0  0  0  0  0  0  0  0
   -4.9398    0.9319    0.7211 C   0  0  1  0  0  0  0  0  0  0  0  0
   -5.0294   -0.0665   -0.5915 C   0  0  0  0  0  0  0  0  0  0  0  0
   -5.5137   -1.2584   -0.2341 C   0  0  0  0  0  0  0  0  0  0  0  0
   -7.0776   -1.2977    0.5308 Cl  0  0  0  0  0  0  0  0  0  0  0  0
   -4.7600   -2.7576   -0.7929 Cl  0  0  0  0  0  0  0  0  0  0  0  0
   -3.1983    0.9048    0.9920 C   0  0  1  0  0  0  0  0  0  0  0  0
   -2.7506   -0.1732   -0.1729 C   0  0  0  0  0  0  0  0  0  0  0  0
   -2.5002    0.2975   -1.2767 O   0  0  0  0  0  0  0  0  0  0  0  0
   -1.7909   -0.9963    0.4266 O   0  0  0  0  0  0  0  0  0  0  0  0
   -0.7998   -1.5963   -0.4060 C   0  0  0  0  0  0  0  0  0  0  0  0
    0.4506   -0.7896   -0.3999 C   0  0  0  0  0  0  0  0  0  0  0  0
    0.4257    0.5812   -0.5746 C   0  0  0  0  0  0  0  0  0  0  0  0
    1.5365    1.3775   -0.4341 C   0  0  0  0  0  0  0  0  0  0  0  0
    2.4916    0.8713    0.4386 C   0  0  0  0  0  0  0  0  0  0  0  0
    2.5884   -0.5046    0.5690 C   0  0  0  0  0  0  0  0  0  0  0  0
    3.7587   -1.0087    1.0892 O   0  0  0  0  0  0  0  0  0  0  0  0
    5.0075   -0.5684    0.6657 C   0  0  0  0  0  0  0  0  0  0  0  0
    6.1486   -1.2874    0.9050 C   0  0  0  0  0  0  0  0  0  0  0  0
    7.3669   -0.7589    0.4982 C   0  0  0  0  0  0  0  0  0  0  0  0
    7.3906    0.5347    0.0238 C   0  0  0  0  0  0  0  0  0  0  0  0
    6.2456    1.0697   -0.5127 C   0  0  0  0  0  0  0  0  0  0  0  0
    5.0511    0.3809   -0.3369 C   0  0  0  0  0  0  0  0  0  0  0  0
    1.6834   -1.3305   -0.0858 C   0  0  0  0  0  0  0  0  0  0  0  0
  1  2  1  0
  2  3  1  0
  2  4  1  0
  4  5  1  6
  5  6  2  3
  6  7  1  0
  6  8  1  0
  4  9  1  0
  9 10  1  6
 10 11  2  0
 10 12  1  0
 12 13  1  0
 13 14  1  0
 14 15  2  0
 15 16  1  0
 16 17  2  0
 17 18  1  0
 18 19  1  0
 19 20  1  0
 20 21  2  0
 21 22  1  0
 22 23  2  0
 23 24  1  0
 24 25  2  0
 18 26  2  0
  9  2  1  0
 26 14  1  0
 25 20  1  0
M  END
>  <supplier_code>  (1228) 
DB04930

>  <zinc_id>  (1228) 
ZINC000001850376

>  <catalog_short_name>  (1228) 
dbfda

$$$$

     RDKit          3D

 26 28  0  0  0  0  0  0  0  0999 V2000
    4.3170    1.4476   -0.8162 C   0  0  0  0  0  0  0  0  0  0  0  0
    4.3000    1.3458   -0.6410 C   0  0  0  0  0  0  0  0  0  0  0  0
    3.6710    0.2451   -1.2835 C   0  0  0  0  0  0  0  0  0  0  0  0
    5.2005    0.9910    0.7781 C   0  0  2  0  0  0  0  0  0  0  0  0
    4.7613   -0.5610    1.0128 C   0  0  0  0  0  0  0  0  0  0  0  0
    5.5776   -1.3893    0.3359 C   0  0  0  0  0  0  0  0  0  0  0  0
    7.2775   -1.0399    0.2446 Cl  0  0  0  0  0  0  0  0  0  0  0  0
    4.9376   -2.8798   -0.3038 Cl  0  0  0  0  0  0  0  0  0  0  0  0
    3.6782    1.8141    0.8890 C   0  0  2  0  0  0  0  0  0  0  0  0
    2.6495    0.5821    1.1577 C   0  0  0  0  0  0  0  0  0  0  0  0
    2.6519    0.1876    2.3418 O   0  0  0  0  0  0  0  0  0  0  0  0
    1.4102    0.7842    0.5346 O   0  0  0  0  0  0  0  0  0  0  0  0
    0.1898    0.7289    1.2673 C   0  0  0  0  0  0  0  0  0  0  0  0
   -0.8245    0.0193    0.4557 C   0  0  0  0  0  0  0  0  0  0  0  0
   -0.4984   -1.2770    0.0743 C   0  0  0  0  0  0  0  0  0  0  0  0
   -1.3177   -1.9312   -0.8038 C   0  0  0  0  0  0  0  0  0  0  0  0
   -2.2853   -1.2380   -1.4866 C   0  0  0  0  0  0  0  0  0  0  0  0
   -2.6328    0.0418   -1.0781 C   0  0  0  0  0  0  0  0  0  0  0  0
   -3.8865    0.4973   -1.4546 O   0  0  0  0  0  0  0  0  0  0  0  0
   -5.0077    0.2871   -0.6730 C   0  0  0  0  0  0  0  0  0  0  0  0
   -5.8401    1.3714   -0.4328 C   0  0  0  0  0  0  0  0  0  0  0  0
   -7.0241    1.2467    0.2643 C   0  0  0  0  0  0  0  0  0  0  0  0
   -7.4474    0.0084    0.6887 C   0  0  0  0  0  0  0  0  0  0  0  0
   -6.6465   -1.0786    0.3801 C   0  0  0  0  0  0  0  0  0  0  0  0
   -5.3843   -0.9328   -0.1756 C   0  0  0  0  0  0  0  0  0  0  0  0
   -1.8267    0.7293   -0.1813 C   0  0  0  0  0  0  0  0  0  0  0  0
  1  2  1  0
  2  3  1  0
  2  4  1  0
  4  5  1  1
  5  6  2  3
  6  7  1  0
  6  8  1  0
  4  9  1  0
  9 10  1  1
 10 11  2  0
 10 12  1  0
 12 13  1  0
 13 14  1  0
 14 15  2  0
 15 16  1  0
 16 17  2  0
 17 18  1  0
 18 19  1  0
 19 20  1  0
 20 21  2  0
 21 22  1  0
 22 23  2  0
 23 24  1  0
 24 25  2  0
 18 26  2  0
  9  2  1  0
 26 14  1  0
 25 20  1  0
M  END
>  <supplier_code>  (1229) 
DB04930

>  <zinc_id>  (1229) 
ZINC000001850377

>  <catalog_short_name>  (1229) 
dbfda

$$$$

     RDKit          3D

 26 28  0  0  0  0  0  0  0  0999 V2000
    4.0527   -2.2911    0.4395 C   0  0  0  0  0  0  0  0  0  0  0  0
    4.4188   -1.1554   -0.2615 C   0  0  0  0  0  0  0  0  0  0  0  0
    5.4718   -1.0411   -1.2268 C   0  0  0  0  0  0  0  0  0  0  0  0
    3.8953    0.2890    0.4947 C   0  0  1  0  0  0  0  0  0  0  0  0
    4.8314    1.3016   -0.3566 C   0  0  0  0  0  0  0  0  0  0  0  0
    5.6943    2.0452    0.2806 C   0  0  0  0  0  0  0  0  0  0  0  0
    7.3899    1.6381   -0.0507 Cl  0  0  0  0  0  0  0  0  0  0  0  0
    5.3961    3.7475   -0.1416 Cl  0  0  0  0  0  0  0  0  0  0  0  0
    3.0982   -0.2878   -0.9245 C   0  0  2  0  0  0  0  0  0  0  0  0
    1.8482   -1.0349   -0.2109 C   0  0  0  0  0  0  0  0  0  0  0  0
    1.0756   -0.0616   -0.5432 O   0  0  0  0  0  0  0  0  0  0  0  0
    1.7006   -1.2516    1.0771 O   0  0  0  0  0  0  0  0  0  0  0  0
    0.4547   -1.8880    1.3685 C   0  0  0  0  0  0  0  0  0  0  0  0
   -0.6833   -1.3417    0.5634 C   0  0  0  0  0  0  0  0  0  0  0  0
   -1.0150   -1.9018   -0.6789 C   0  0  0  0  0  0  0  0  0  0  0  0
   -2.0213   -1.3120   -1.4733 C   0  0  0  0  0  0  0  0  0  0  0  0
   -3.0975   -0.9357   -0.7151 C   0  0  0  0  0  0  0  0  0  0  0  0
   -3.0440   -0.8893    0.6739 C   0  0  0  0  0  0  0  0  0  0  0  0
   -4.1770   -0.4942    1.3674 O   0  0  0  0  0  0  0  0  0  0  0  0
   -4.9610    0.4467    0.7106 C   0  0  0  0  0  0  0  0  0  0  0  0
   -5.6325   -0.0375   -0.4147 C   0  0  0  0  0  0  0  0  0  0  0  0
   -6.3535    0.8213   -1.1928 C   0  0  0  0  0  0  0  0  0  0  0  0
   -6.3850    2.1695   -0.9240 C   0  0  0  0  0  0  0  0  0  0  0  0
   -5.5685    2.6108    0.1078 C   0  0  0  0  0  0  0  0  0  0  0  0
   -4.5812    1.7782    0.6177 C   0  0  0  0  0  0  0  0  0  0  0  0
   -1.8077   -0.9240    1.3030 C   0  0  0  0  0  0  0  0  0  0  0  0
  1  2  1  0
  2  3  1  0
  2  4  1  0
  4  5  1  6
  5  6  2  3
  6  7  1  0
  6  8  1  0
  4  9  1  0
  9 10  1  1
 10 11  2  0
 10 12  1  0
 12 13  1  0
 13 14  1  0
 14 15  2  0
 15 16  1  0
 16 17  2  0
 17 18  1  0
 18 19  1  0
 19 20  1  0
 20 21  2  0
 21 22  1  0
 22 23  2  0
 23 24  1  0
 24 25  2  0
 18 26  2  0
  9  2  1  0
 26 14  1  0
 25 20  1  0
M  END
>  <supplier_code>  (1230) 
DB04930

>  <zinc_id>  (1230) 
ZINC000002032615

>  <catalog_short_name>  (1230) 
dbfda

$$$$

     RDKit          3D

 27 29  0  0  0  0  0  0  0  0999 V2000
    5.5161    0.6146    0.1362 O   0  0  0  0  0  0  0  0  0  0  0  0
    6.1061   -0.6310    0.3650 C   0  0  0  0  0  0  0  0  0  0  0  0
    5.0618   -1.6922    0.6497 C   0  0  0  0  0  0  0  0  0  0  0  0
    4.2229   -1.9369   -0.4544 O   0  0  0  0  0  0  0  0  0  0  0  0
    3.0264   -1.2393   -0.6055 C   0  0  0  0  0  0  0  0  0  0  0  0
    2.5874   -0.4368    0.4402 C   0  0  0  0  0  0  0  0  0  0  0  0
    1.2665   -0.0568    0.5559 C   0  0  0  0  0  0  0  0  0  0  0  0
    0.4865   -0.0831   -0.5923 C   0  0  0  0  0  0  0  0  0  0  0  0
   -0.7177    0.7351   -0.6496 C   0  0  0  0  0  0  0  0  0  0  0  0
   -1.9036    0.1536   -0.4610 C   0  0  0  0  0  0  0  0  0  0  0  0
   -2.9930    0.8691    0.2732 C   0  0  0  0  0  0  0  0  0  0  0  0
   -2.8592    0.5215    1.7505 C   0  0  0  0  0  0  0  0  0  0  0  0
   -4.4847    0.4915    2.4946 Cl  0  0  0  0  0  0  0  0  0  0  0  0
   -2.0381   -1.3056   -0.5477 C   0  0  0  0  0  0  0  0  0  0  0  0
   -2.9766   -1.7968   -1.4456 C   0  0  0  0  0  0  0  0  0  0  0  0
   -3.5187   -3.0648   -1.3303 C   0  0  0  0  0  0  0  0  0  0  0  0
   -2.8920   -3.9186   -0.4439 C   0  0  0  0  0  0  0  0  0  0  0  0
   -2.2814   -3.3837    0.6816 C   0  0  0  0  0  0  0  0  0  0  0  0
   -1.7791   -2.0984    0.5624 C   0  0  0  0  0  0  0  0  0  0  0  0
   -0.5720    2.1673   -0.3858 C   0  0  0  0  0  0  0  0  0  0  0  0
   -0.4521    2.6384    0.9140 C   0  0  0  0  0  0  0  0  0  0  0  0
   -0.6562    4.0032    1.0771 C   0  0  0  0  0  0  0  0  0  0  0  0
   -0.6825    4.8432   -0.0236 C   0  0  0  0  0  0  0  0  0  0  0  0
   -0.3081    4.3353   -1.2521 C   0  0  0  0  0  0  0  0  0  0  0  0
   -0.0160    2.9830   -1.3634 C   0  0  0  0  0  0  0  0  0  0  0  0
    0.8286   -1.0093   -1.5460 C   0  0  0  0  0  0  0  0  0  0  0  0
    2.0287   -1.7026   -1.4531 C   0  0  0  0  0  0  0  0  0  0  0  0
  1  2  1  0
  2  3  1  0
  3  4  1  0
  4  5  1  0
  5  6  2  0
  6  7  1  0
  7  8  2  0
  8  9  1  0
  9 10  2  0
 10 11  1  0
 11 12  1  0
 12 13  1  0
 10 14  1  0
 14 15  2  0
 15 16  1  0
 16 17  2  0
 17 18  1  0
 18 19  2  0
  9 20  1  0
 20 21  2  0
 21 22  1  0
 22 23  2  0
 23 24  1  0
 24 25  2  0
  8 26  1  0
 26 27  2  0
 27  5  1  0
 19 14  1  0
 25 20  1  0
M  END
>  <supplier_code>  (1231) 
DB04938

>  <zinc_id>  (1231) 
ZINC000001550766

>  <catalog_short_name>  (1231) 
dbfda

$$$$

     RDKit          3D

 31 34  0  0  0  0  0  0  0  0999 V2000
    4.0750    0.4214    4.4417 C   0  0  0  0  0  0  0  0  0  0  0  0
    4.2256   -0.4660    3.3391 O   0  0  0  0  0  0  0  0  0  0  0  0
    4.7716    0.0410    2.1555 C   0  0  0  0  0  0  0  0  0  0  0  0
    5.7771   -0.6290    1.4684 C   0  0  0  0  0  0  0  0  0  0  0  0
    6.2860   -0.0912    0.2925 C   0  0  0  0  0  0  0  0  0  0  0  0
    6.7976   -0.9542   -0.7777 C   0  0  0  0  0  0  0  0  0  0  0  0
    6.0215   -1.2321   -2.0177 C   0  0  0  0  0  0  0  0  0  0  0  0
    8.0562   -1.0599   -0.8807 O   0  0  0  0  0  0  0  0  0  0  0  0
    5.9976    1.2517    0.0826 C   0  0  0  0  0  0  0  0  0  0  0  0
    4.8389    1.8064    0.6130 C   0  0  0  0  0  0  0  0  0  0  0  0
    4.1065    1.1109    1.5678 C   0  0  0  0  0  0  0  0  0  0  0  0
    2.7218    1.2618    1.6931 O   0  0  0  0  0  0  0  0  0  0  0  0
    1.9365    1.3107    0.5150 C   0  0  0  0  0  0  0  0  0  0  0  0
    1.2647    0.0005    0.2112 C   0  0  0  0  0  0  0  0  0  0  0  0
   -0.1646    0.0197    0.7357 C   0  0  0  0  0  0  0  0  0  0  0  0
   -1.1120   -0.2459   -0.3196 N   0  0  0  0  0  0  0  0  0  0  0  0
   -0.6267   -1.4252   -1.0325 C   0  0  0  0  0  0  0  0  0  0  0  0
   -1.5308   -1.7076   -2.2238 C   0  0  0  0  0  0  0  0  0  0  0  0
   -2.7087   -0.7584   -2.2206 C   0  0  0  0  0  0  0  0  0  0  0  0
   -3.6227   -1.0380   -1.0694 C   0  0  0  0  0  0  0  0  0  0  0  0
   -3.6891   -2.1634   -0.3166 N   0  0  0  0  0  0  0  0  0  0  0  0
   -4.9436   -2.4542   -0.0914 O   0  0  0  0  0  0  0  0  0  0  0  0
   -5.7135   -1.4296   -0.3504 C   0  0  0  0  0  0  0  0  0  0  0  0
   -6.9818   -1.0173    0.0271 C   0  0  0  0  0  0  0  0  0  0  0  0
   -7.2575    0.3403    0.0366 C   0  0  0  0  0  0  0  0  0  0  0  0
   -8.3121    0.8140    0.7262 F   0  0  0  0  0  0  0  0  0  0  0  0
   -6.6140    1.1542   -0.8793 C   0  0  0  0  0  0  0  0  0  0  0  0
   -5.3433    0.7754   -1.2921 C   0  0  0  0  0  0  0  0  0  0  0  0
   -4.8988   -0.5019   -0.9878 C   0  0  0  0  0  0  0  0  0  0  0  0
   -2.2775    0.6912   -2.1729 C   0  0  0  0  0  0  0  0  0  0  0  0
   -1.0798    0.8592   -1.2728 C   0  0  0  0  0  0  0  0  0  0  0  0
  1  2  1  0
  2  3  1  0
  3  4  2  0
  4  5  1  0
  5  6  1  0
  6  7  1  0
  6  8  2  0
  5  9  2  0
  9 10  1  0
 10 11  2  0
 11 12  1  0
 12 13  1  0
 13 14  1  0
 14 15  1  0
 15 16  1  0
 16 17  1  0
 17 18  1  0
 18 19  1  0
 19 20  1  0
 20 21  2  0
 21 22  1  0
 22 23  1  0
 23 24  2  0
 24 25  1  0
 25 26  1  0
 25 27  2  0
 27 28  1  0
 28 29  2  0
 19 30  1  0
 30 31  1  0
 11  3  1  0
 31 16  1  0
 29 20  1  0
 29 23  1  0
M  END
>  <supplier_code>  (1232) 
DB04946

>  <zinc_id>  (1232) 
ZINC000001548097

>  <catalog_short_name>  (1232) 
dbfda

$$$$

     RDKit          3D

 14 15  0  0  0  0  0  0  0  0999 V2000
    2.6783    2.4754    0.0056 C   0  0  0  0  0  0  0  0  0  0  0  0
    2.2296    1.0630   -0.1635 C   0  0  0  0  0  0  0  0  0  0  0  0
    2.8559    0.0908    0.6038 C   0  0  0  0  0  0  0  0  0  0  0  0
    2.3654   -1.2003    0.4399 C   0  0  0  0  0  0  0  0  0  0  0  0
    1.0936   -1.4354   -0.0725 C   0  0  0  0  0  0  0  0  0  0  0  0
    0.4595   -2.4411    0.3683 O   0  0  0  0  0  0  0  0  0  0  0  0
    0.4017   -0.4073   -0.6118 N   0  0  0  0  0  0  0  0  0  0  0  0
   -1.0295   -0.3832   -0.5175 C   0  0  0  0  0  0  0  0  0  0  0  0
   -1.7231    0.6518   -1.1276 C   0  0  0  0  0  0  0  0  0  0  0  0
   -2.9113    1.1500   -0.6050 C   0  0  0  0  0  0  0  0  0  0  0  0
   -3.1821    0.9336    0.7406 C   0  0  0  0  0  0  0  0  0  0  0  0
   -2.6885   -0.2602    1.2539 C   0  0  0  0  0  0  0  0  0  0  0  0
   -1.6754   -0.9369    0.5838 C   0  0  0  0  0  0  0  0  0  0  0  0
    1.1260    0.6998   -0.8981 C   0  0  0  0  0  0  0  0  0  0  0  0
  1  2  1  0
  2  3  1  0
  3  4  2  0
  4  5  1  0
  5  6  2  0
  5  7  1  0
  7  8  1  0
  8  9  2  0
  9 10  1  0
 10 11  2  0
 11 12  1  0
 12 13  2  0
  7 14  1  0
 14  2  2  0
 13  8  1  0
M  END
>  <supplier_code>  (1233) 
DB04951

>  <zinc_id>  (1233) 
ZINC000000001958

>  <catalog_short_name>  (1233) 
dbfda

$$$$

     RDKit          3D

 22 23  0  0  0  0  0  0  0  0999 V2000
    6.3809    3.2825   -0.0731 C   0  0  0  0  0  0  0  0  0  0  0  0
    5.3706    2.3601    0.5908 C   0  0  0  0  0  0  0  0  0  0  0  0
    5.0688    1.3233   -0.3345 O   0  0  0  0  0  0  0  0  0  0  0  0
    4.2211    0.2739   -0.0593 C   0  0  0  0  0  0  0  0  0  0  0  0
    3.7201    0.1840    1.0868 O   0  0  0  0  0  0  0  0  0  0  0  0
    3.6114   -0.5350   -1.0726 N   0  0  0  0  0  0  0  0  0  0  0  0
    2.2202   -0.8751   -1.0071 C   0  0  0  0  0  0  0  0  0  0  0  0
    1.2899    0.0387   -1.4869 C   0  0  0  0  0  0  0  0  0  0  0  0
    0.0940    0.2674   -0.8180 C   0  0  0  0  0  0  0  0  0  0  0  0
   -0.2050   -0.4141    0.3557 C   0  0  0  0  0  0  0  0  0  0  0  0
   -1.1886    0.0706    1.2470 N   0  0  0  0  0  0  0  0  0  0  0  0
   -2.3730   -0.6547    1.6237 C   0  0  0  0  0  0  0  0  0  0  0  0
   -3.3898   -0.5937    0.5581 C   0  0  0  0  0  0  0  0  0  0  0  0
   -3.1915   -0.0541   -0.6850 C   0  0  0  0  0  0  0  0  0  0  0  0
   -4.2126    0.6588   -1.3008 C   0  0  0  0  0  0  0  0  0  0  0  0
   -5.5174    0.5617   -0.8325 C   0  0  0  0  0  0  0  0  0  0  0  0
   -6.4029    1.5925   -0.9644 F   0  0  0  0  0  0  0  0  0  0  0  0
   -5.7334   -0.4319    0.1148 C   0  0  0  0  0  0  0  0  0  0  0  0
   -4.6953   -0.9163    0.9011 C   0  0  0  0  0  0  0  0  0  0  0  0
    0.5900   -1.5067    0.6808 C   0  0  0  0  0  0  0  0  0  0  0  0
    1.7392   -1.7660   -0.0555 C   0  0  0  0  0  0  0  0  0  0  0  0
    2.6033   -2.8659    0.2458 N   0  0  0  0  0  0  0  0  0  0  0  0
  1  2  1  0
  2  3  1  0
  3  4  1  0
  4  5  2  0
  4  6  1  0
  6  7  1  0
  7  8  2  0
  8  9  1  0
  9 10  2  0
 10 11  1  0
 11 12  1  0
 12 13  1  0
 13 14  2  0
 14 15  1  0
 15 16  2  0
 16 17  1  0
 16 18  1  0
 18 19  2  0
 10 20  1  0
 20 21  2  0
 21 22  1  0
 21  7  1  0
 19 13  1  0
M  END
>  <supplier_code>  (1234) 
DB04953

>  <zinc_id>  (1234) 
ZINC000000016154

>  <catalog_short_name>  (1234) 
dbfda

$$$$

     RDKit          3D

 31 34  0  0  0  0  0  0  0  0999 V2000
    4.7650   -0.3195   -2.3305 C   0  0  0  0  0  0  0  0  0  0  0  0
    5.2682    0.3788   -1.7366 C   0  0  0  0  0  0  0  0  0  0  0  0
    5.1039    0.5315   -0.4421 C   0  0  0  0  0  0  0  0  0  0  0  0
    6.1012    1.1861    0.4617 C   0  0  0  0  0  0  0  0  0  0  0  0
    3.9210   -0.1039    0.1286 C   0  0  0  0  0  0  0  0  0  0  0  0
    4.1368   -0.7163    1.2187 O   0  0  0  0  0  0  0  0  0  0  0  0
    2.7118   -0.2748   -0.5603 O   0  0  0  0  0  0  0  0  0  0  0  0
    1.6320   -0.1739    0.5413 C   0  0  1  0  0  0  0  0  0  0  0  0
    1.4494    1.4115    0.2459 C   0  0  0  0  0  0  0  0  0  0  0  0
    2.4841    2.3845    0.7056 C   0  0  0  0  0  0  0  0  0  0  0  0
    0.2501    1.5143    0.7678 C   0  0  0  0  0  0  0  0  0  0  0  0
   -0.4677    0.5858   -0.1582 C   0  0  2  0  0  0  0  0  0  0  0  0
   -1.5775    0.1918    0.5063 C   0  0  0  0  0  0  0  0  0  0  0  0
   -1.5542    0.0796    1.6853 O   0  0  0  0  0  0  0  0  0  0  0  0
   -2.7965   -0.4894   -0.2954 C   0  0  1  0  0  0  0  0  0  0  0  0
   -2.6092   -1.8218    0.5729 C   0  0  0  0  0  0  0  0  0  0  0  0
   -1.4298   -2.3365    0.0909 C   0  0  0  0  0  0  0  0  0  0  0  0
   -1.4697   -3.8351    0.2093 C   0  0  0  0  0  0  0  0  0  0  0  0
   -1.2885   -4.4175   -1.0363 O   0  0  0  0  0  0  0  0  0  0  0  0
   -0.0778   -1.7162    0.7674 C   0  0  1  0  0  0  0  0  0  0  0  0
    0.8206   -2.7816    0.1538 O   0  0  0  0  0  0  0  0  0  0  0  0
    0.3286   -0.5951   -0.3922 C   0  0  2  0  0  0  0  0  0  0  0  0
    0.6552   -1.1204   -1.5035 O   0  0  0  0  0  0  0  0  0  0  0  0
   -3.6724    0.4943    0.7761 C   0  0  1  0  0  0  0  0  0  0  0  0
   -3.0716    1.9199   -0.0075 C   0  0  1  0  0  0  0  0  0  0  0  0
   -2.5285    1.2689   -1.4060 C   0  0  0  0  0  0  0  0  0  0  0  0
   -0.9100    1.4074   -1.4744 C   0  0  1  0  0  0  0  0  0  0  0  0
   -0.9521    2.8826   -0.7536 C   0  0  0  0  0  0  0  0  0  0  0  0
   -4.6573    1.3889   -0.2579 C   0  0  0  0  0  0  0  0  0  0  0  0
   -5.1366    0.8610   -1.3994 C   0  0  0  0  0  0  0  0  0  0  0  0
   -5.4287    2.2151    0.7738 C   0  0  0  0  0  0  0  0  0  0  0  0
  1  2  1  0
  2  3  2  0
  3  4  1  0
  3  5  1  0
  5  6  2  0
  5  7  1  0
  8  7  1  6
  8  9  1  0
  9 10  1  0
  9 11  2  0
 12 11  1  1
 12 13  1  0
 13 14  2  0
 13 15  1  0
 15 16  1  1
 16 17  2  0
 17 18  1  0
 18 19  1  0
 17 20  1  0
 20 21  1  6
 20 22  1  0
 22 23  1  6
 15 24  1  0
 24 25  1  0
 25 26  1  6
 26 27  1  0
 27 28  1  1
 25 29  1  0
 29 30  1  0
 29 31  1  0
 22  8  1  0
 24 29  1  6
 22 12  1  0
 27 12  1  0
M  END
>  <supplier_code>  (1235) 
DB05013

>  <zinc_id>  (1235) 
ZINC000100037855

>  <catalog_short_name>  (1235) 
dbfda

$$$$

     RDKit          3D

 22 23  0  0  0  0  0  0  0  0999 V2000
   -6.4141   -0.4277    1.4459 O   0  0  0  0  0  0  0  0  0  0  0  0
   -5.6128   -0.2198    0.5114 C   0  0  0  0  0  0  0  0  0  0  0  0
   -4.5278   -1.1713    0.2521 C   0  0  0  0  0  0  0  0  0  0  0  0
   -3.3125   -1.0352    0.7275 C   0  0  0  0  0  0  0  0  0  0  0  0
   -2.0996   -1.2026   -0.0824 C   0  0  0  0  0  0  0  0  0  0  0  0
   -2.1547   -1.5366   -1.4303 C   0  0  0  0  0  0  0  0  0  0  0  0
   -1.3662   -0.8823   -2.3685 C   0  0  0  0  0  0  0  0  0  0  0  0
   -0.3653   -0.0179   -1.9412 C   0  0  0  0  0  0  0  0  0  0  0  0
    0.0247   -0.1724   -0.6161 C   0  0  0  0  0  0  0  0  0  0  0  0
    1.4770    0.6509   -0.0701 S   0  0  0  0  0  0  0  0  0  0  0  0
    1.1491    1.9004    0.6856 O   0  0  0  0  0  0  0  0  0  0  0  0
    2.3108    1.0066   -1.2740 O   0  0  0  0  0  0  0  0  0  0  0  0
    2.4574   -0.3988    0.9031 N   0  0  0  0  0  0  0  0  0  0  0  0
    3.8858   -0.3481    0.8227 C   0  0  0  0  0  0  0  0  0  0  0  0
    4.5743    0.5517    1.6227 C   0  0  0  0  0  0  0  0  0  0  0  0
    5.8578    0.9701    1.2959 C   0  0  0  0  0  0  0  0  0  0  0  0
    6.4401    0.5630    0.1031 C   0  0  0  0  0  0  0  0  0  0  0  0
    5.6409   -0.0897   -0.8098 C   0  0  0  0  0  0  0  0  0  0  0  0
    4.5788   -0.8147   -0.2861 C   0  0  0  0  0  0  0  0  0  0  0  0
   -0.9153   -0.5939    0.3164 C   0  0  0  0  0  0  0  0  0  0  0  0
   -5.6482    1.0739   -0.1004 N   0  0  0  0  0  0  0  0  0  0  0  0
   -5.9802    2.1944    0.5957 O   0  0  0  0  0  0  0  0  0  0  0  0
  1  2  2  0
  2  3  1  0
  3  4  2  0
  4  5  1  0
  5  6  2  0
  6  7  1  0
  7  8  2  0
  8  9  1  0
  9 10  1  0
 10 11  2  0
 10 12  2  0
 10 13  1  0
 13 14  1  0
 14 15  2  0
 15 16  1  0
 16 17  2  0
 17 18  1  0
 18 19  2  0
  9 20  2  0
  2 21  1  0
 21 22  1  0
 20  5  1  0
 19 14  1  0
M  END
>  <supplier_code>  (1236) 
DB05015

>  <zinc_id>  (1236) 
ZINC000003818726

>  <catalog_short_name>  (1236) 
dbfda

$$$$

     RDKit          3D

 29 32  0  0  0  0  0  0  0  0999 V2000
    6.9219   -1.8220   -0.6533 C   0  0  0  0  0  0  0  0  0  0  0  0
    6.5792   -1.6962   -0.7399 C   0  0  0  0  0  0  0  0  0  0  0  0
    5.3079   -1.1445   -0.1810 C   0  0  0  0  0  0  0  0  0  0  0  0
    4.1010   -1.6588   -0.6368 C   0  0  0  0  0  0  0  0  0  0  0  0
    2.9077   -1.2730   -0.0376 C   0  0  0  0  0  0  0  0  0  0  0  0
    3.0244   -0.8711    1.2905 C   0  0  0  0  0  0  0  0  0  0  0  0
    4.2306   -0.3495    1.7465 C   0  0  0  0  0  0  0  0  0  0  0  0
    5.3663   -0.3342    0.9447 C   0  0  0  0  0  0  0  0  0  0  0  0
    6.6157    0.3272    1.3516 C   0  0  0  0  0  0  0  0  0  0  0  0
    7.3235    1.0193    0.1992 C   0  0  0  0  0  0  0  0  0  0  0  0
    1.6546   -0.4304    1.7062 C   0  0  0  0  0  0  0  0  0  0  0  0
    1.2154    0.2567    0.4184 C   0  0  0  0  0  0  0  0  0  0  0  0
   -0.2216    0.5102    0.4170 N   0  0  0  0  0  0  0  0  0  0  0  0
   -0.7812   -0.3252   -0.5959 C   0  0  0  0  0  0  0  0  0  0  0  0
   -1.5483    0.7196   -1.6716 C   0  0  2  0  0  0  0  0  0  0  0  0
   -0.4568    1.8154   -1.5328 O   0  0  0  0  0  0  0  0  0  0  0  0
   -2.4567    1.3770   -0.4508 C   0  0  0  0  0  0  0  0  0  0  0  0
   -2.8983    2.6352   -0.8110 C   0  0  0  0  0  0  0  0  0  0  0  0
   -4.2000    3.0097   -0.5073 C   0  0  0  0  0  0  0  0  0  0  0  0
   -5.1975    2.0734   -0.3014 C   0  0  0  0  0  0  0  0  0  0  0  0
   -6.4680    2.2711   -0.8522 O   0  0  0  0  0  0  0  0  0  0  0  0
   -4.7753    0.7983    0.0560 C   0  0  0  0  0  0  0  0  0  0  0  0
   -5.7299   -0.1605    0.1636 N   0  0  0  0  0  0  0  0  0  0  0  0
   -5.3630   -1.4608    0.0724 C   0  0  0  0  0  0  0  0  0  0  0  0
   -6.1278   -2.3287   -0.4459 O   0  0  0  0  0  0  0  0  0  0  0  0
   -4.0837   -1.7576    0.5091 C   0  0  0  0  0  0  0  0  0  0  0  0
   -3.0972   -0.8392    0.1817 C   0  0  0  0  0  0  0  0  0  0  0  0
   -3.4284    0.4695   -0.0406 C   0  0  0  0  0  0  0  0  0  0  0  0
    1.5856   -0.8310   -0.5842 C   0  0  0  0  0  0  0  0  0  0  0  0
  1  2  1  0
  2  3  1  0
  3  4  2  0
  4  5  1  0
  5  6  2  0
  6  7  1  0
  7  8  2  0
  8  9  1  0
  9 10  1  0
  6 11  1  0
 11 12  1  0
 12 13  1  0
 13 14  1  0
 15 14  1  1
 15 16  1  0
 15 17  1  0
 17 18  2  0
 18 19  1  0
 19 20  2  0
 20 21  1  0
 20 22  1  0
 22 23  1  0
 23 24  1  0
 24 25  2  0
 24 26  1  0
 26 27  2  0
 27 28  1  0
 12 29  1  0
  8  3  1  0
 28 17  1  0
 29  5  1  0
 28 22  2  0
M  END
>  <supplier_code>  (1237) 
DB05039

>  <zinc_id>  (1237) 
ZINC000035801098

>  <catalog_short_name>  (1237) 
dbfda

$$$$

     RDKit          3D

 54 62  0  0  0  0  0  0  0  0999 V2000
    6.8925    4.8776   -0.9304 C   0  0  0  0  0  0  0  0  0  0  0  0
    5.7870    4.3499   -0.3463 O   0  0  0  0  0  0  0  0  0  0  0  0
    5.7056    3.0704    0.2154 C   0  0  0  0  0  0  0  0  0  0  0  0
    4.5100    2.3898    0.3625 C   0  0  0  0  0  0  0  0  0  0  0  0
    4.3940    1.0043    0.2889 C   0  0  0  0  0  0  0  0  0  0  0  0
    5.4763    0.3383   -0.2815 C   0  0  0  0  0  0  0  0  0  0  0  0
    6.7173    0.9226   -0.0384 C   0  0  0  0  0  0  0  0  0  0  0  0
    6.8569    2.2991    0.1120 C   0  0  0  0  0  0  0  0  0  0  0  0
    8.0819    2.9497   -0.0769 O   0  0  0  0  0  0  0  0  0  0  0  0
    5.2696   -0.6119   -1.4255 C   0  0  0  0  0  0  0  0  0  0  0  0
    4.1082   -0.1962   -2.2505 C   0  0  0  0  0  0  0  0  0  0  0  0
    3.2058    0.7756   -1.6331 N   0  0  0  0  0  0  0  0  0  0  0  0
    3.0576    0.5287   -0.2148 C   0  0  2  0  0  0  0  0  0  0  0  0
    2.0204    1.0952    0.5611 C   0  0  0  0  0  0  0  0  0  0  0  0
    0.3756    1.1307    0.5564 S   0  0  0  0  0  0  0  0  0  0  0  0
   -0.6652   -0.1748    1.4173 C   0  0  2  0  0  0  0  0  0  0  0  0
   -0.0123   -1.5335    1.0034 C   0  0  0  0  0  0  0  0  0  0  0  0
   -0.2103   -2.4818    2.0172 C   0  0  0  0  0  0  0  0  0  0  0  0
   -0.8600   -2.2016    3.2200 O   0  0  0  0  0  0  0  0  0  0  0  0
   -2.2238   -2.5034    3.3299 C   0  0  0  0  0  0  0  0  0  0  0  0
   -3.0211   -1.7389    4.3199 C   0  0  0  0  0  0  0  0  0  0  0  0
   -2.8417   -3.2177    2.5170 O   0  0  0  0  0  0  0  0  0  0  0  0
   -0.0147   -3.8393    1.7750 C   0  0  0  0  0  0  0  0  0  0  0  0
   -0.0587   -4.8655    2.8482 C   0  0  0  0  0  0  0  0  0  0  0  0
    0.0696   -4.3118    0.4685 C   0  0  0  0  0  0  0  0  0  0  0  0
    0.1061   -3.3818   -0.5273 C   0  0  0  0  0  0  0  0  0  0  0  0
   -0.2108   -2.0708   -0.1906 C   0  0  0  0  0  0  0  0  0  0  0  0
   -0.5374   -1.2899   -1.5535 C   0  0  2  0  0  0  0  0  0  0  0  0
    0.9760   -0.6576   -1.7018 C   0  0  0  0  0  0  0  0  0  0  0  0
    1.8872   -1.4368   -1.0079 O   0  0  0  0  0  0  0  0  0  0  0  0
    2.9353   -0.9584   -0.2068 C   0  0  0  0  0  0  0  0  0  0  0  0
    3.4447   -1.6452    0.7320 O   0  0  0  0  0  0  0  0  0  0  0  0
   -1.2252    0.0084   -0.9700 N   0  0  0  0  0  0  0  0  0  0  0  0
   -1.8700   -0.5423    0.2937 C   0  0  2  0  0  0  0  0  0  0  0  0
   -2.8851    0.7415    0.7572 C   0  0  1  0  0  0  0  0  0  0  0  0
   -3.2541    1.5408   -0.5907 C   0  0  0  0  0  0  0  0  0  0  0  0
   -4.4755    1.1758   -1.1958 C   0  0  0  0  0  0  0  0  0  0  0  0
   -5.2053    2.0989   -1.9371 C   0  0  0  0  0  0  0  0  0  0  0  0
   -5.3574    3.2979   -1.3032 C   0  0  0  0  0  0  0  0  0  0  0  0
   -6.5665    4.1521   -1.5354 C   0  0  0  0  0  0  0  0  0  0  0  0
   -4.2971    3.7546   -0.5656 C   0  0  0  0  0  0  0  0  0  0  0  0
   -4.5382    4.9589    0.1157 O   0  0  0  0  0  0  0  0  0  0  0  0
   -5.4897    4.8243    1.1733 C   0  0  0  0  0  0  0  0  0  0  0  0
   -3.2632    2.9030   -0.2750 C   0  0  0  0  0  0  0  0  0  0  0  0
   -2.1864    3.5191    0.3196 O   0  0  0  0  0  0  0  0  0  0  0  0
   -4.8217   -0.2401   -1.6139 C   0  0  0  0  0  0  0  0  0  0  0  0
   -3.5689   -1.0448   -0.9053 C   0  0  1  0  0  0  0  0  0  0  0  0
   -2.5703    0.0474   -1.7987 C   0  0  2  0  0  0  0  0  0  0  0  0
   -2.2856   -1.0748   -2.7907 O   0  0  0  0  0  0  0  0  0  0  0  0
   -3.9792   -0.3065    0.4008 N   0  0  0  0  0  0  0  0  0  0  0  0
   -3.8923   -1.3224    1.4141 C   0  0  0  0  0  0  0  0  0  0  0  0
    0.4431   -4.0737   -1.6690 O   0  0  0  0  0  0  0  0  0  0  0  0
    0.1753   -5.4674   -1.5219 C   0  0  0  0  0  0  0  0  0  0  0  0
   -0.1084   -5.5658   -0.1287 O   0  0  0  0  0  0  0  0  0  0  0  0
  1  2  1  0
  2  3  1  0
  3  4  2  0
  4  5  1  0
  5  6  2  0
  6  7  1  0
  7  8  2  0
  8  9  1  0
  6 10  1  0
 10 11  1  0
 11 12  1  0
 13 12  1  6
 13 14  1  0
 14 15  1  0
 16 15  1  6
 16 17  1  0
 17 18  1  0
 18 19  1  0
 19 20  1  0
 20 21  1  0
 20 22  2  0
 18 23  2  0
 23 24  1  0
 23 25  1  0
 25 26  2  0
 26 27  1  0
 28 27  1  1
 28 29  1  0
 29 30  1  0
 30 31  1  0
 31 32  2  0
 28 33  1  0
 34 33  1  6
 34 35  1  0
 35 36  1  6
 36 37  2  0
 37 38  1  0
 38 39  2  0
 39 40  1  0
 39 41  1  0
 41 42  1  0
 42 43  1  0
 41 44  2  0
 44 45  1  0
 37 46  1  0
 47 46  1  6
 47 48  1  0
 48 49  1  6
 47 50  1  0
 50 51  1  0
 26 52  1  0
 52 53  1  0
 53 54  1  0
  8  3  1  0
 31 13  1  0
 48 33  1  0
 13  5  1  0
 34 16  1  0
 50 35  1  0
 27 17  2  0
 44 36  1  0
 54 25  1  0
M  END
>  <supplier_code>  (1238) 
DB05109

>  <zinc_id>  (1238) 
ZINC000150338708

>  <catalog_short_name>  (1238) 
dbfda

$$$$

     RDKit          3D

 19 21  0  0  0  0  0  0  0  0999 V2000
    5.2934   -0.2661    1.8761 N   0  0  0  0  0  0  0  0  0  0  0  0
    4.6576    0.0350    0.9728 C   0  0  0  0  0  0  0  0  0  0  0  0
    3.8539    0.2826   -0.1764 C   0  0  0  0  0  0  0  0  0  0  0  0
    3.4106   -0.8015   -0.9237 C   0  0  0  0  0  0  0  0  0  0  0  0
    2.3440   -0.6393   -1.7944 C   0  0  0  0  0  0  0  0  0  0  0  0
    1.5868    0.5250   -1.8076 C   0  0  0  0  0  0  0  0  0  0  0  0
    0.1919    0.4628   -1.8914 O   0  0  0  0  0  0  0  0  0  0  0  0
   -0.5696    0.2397   -0.7406 C   0  0  0  0  0  0  0  0  0  0  0  0
   -0.4717   -0.9347   -0.0119 C   0  0  0  0  0  0  0  0  0  0  0  0
   -1.5620   -1.2861    0.7736 C   0  0  0  0  0  0  0  0  0  0  0  0
   -2.6468   -0.4708    0.9319 C   0  0  0  0  0  0  0  0  0  0  0  0
   -2.5496    0.8179    0.4403 C   0  0  0  0  0  0  0  0  0  0  0  0
   -1.4141    1.2171   -0.2283 C   0  0  0  0  0  0  0  0  0  0  0  0
   -3.8077    1.5243    0.7208 C   0  0  0  0  0  0  0  0  0  0  0  0
   -4.7898    0.5956    0.9761 O   0  0  0  0  0  0  0  0  0  0  0  0
   -4.1540   -0.6806    1.2365 B   0  0  0  0  0  0  0  0  0  0  0  0
   -4.8543   -1.9451    1.3303 O   0  0  0  0  0  0  0  0  0  0  0  0
    2.1425    1.6392   -1.1913 C   0  0  0  0  0  0  0  0  0  0  0  0
    3.3391    1.5330   -0.4928 C   0  0  0  0  0  0  0  0  0  0  0  0
  1  2  3  0
  2  3  1  0
  3  4  2  0
  4  5  1  0
  5  6  2  0
  6  7  1  0
  7  8  1  0
  8  9  2  0
  9 10  1  0
 10 11  2  0
 11 12  1  0
 12 13  2  0
 12 14  1  0
 14 15  1  0
 15 16  1  0
 16 17  1  0
  6 18  1  0
 18 19  2  0
 19  3  1  0
 13  8  1  0
 16 11  1  0
M  END
>  <supplier_code>  (1239) 
DB05219

>  <zinc_id>  (1239) 
ZINC000169748244

>  <catalog_short_name>  (1239) 
dbfda

$$$$

     RDKit          3D

 30 33  0  0  0  0  0  0  0  0999 V2000
    0.1167   -0.3719    0.6210 O   0  0  0  0  0  0  0  0  0  0  0  0
    0.3079   -0.3744    0.2465 C   0  0  0  0  0  0  0  0  0  0  0  0
   -0.3093   -1.0563   -0.9033 C   0  0  0  0  0  0  0  0  0  0  0  0
    0.4723   -1.9594   -1.5936 C   0  0  0  0  0  0  0  0  0  0  0  0
   -0.1096   -2.7290   -2.5872 C   0  0  0  0  0  0  0  0  0  0  0  0
   -1.4849   -2.6770   -2.7757 C   0  0  0  0  0  0  0  0  0  0  0  0
   -2.0558   -3.5615   -3.6451 F   0  0  0  0  0  0  0  0  0  0  0  0
   -2.2197   -1.8119   -2.0087 C   0  0  0  0  0  0  0  0  0  0  0  0
   -3.4392   -1.4516   -2.4366 F   0  0  0  0  0  0  0  0  0  0  0  0
   -1.7009   -1.0982   -0.9318 C   0  0  0  0  0  0  0  0  0  0  0  0
   -2.5097   -1.0202    0.2177 N   0  0  0  0  0  0  0  0  0  0  0  0
   -3.1914    0.0867    0.7289 C   0  0  0  0  0  0  0  0  0  0  0  0
   -2.7085    0.7330    1.8653 C   0  0  0  0  0  0  0  0  0  0  0  0
   -3.3777    1.7806    2.4653 C   0  0  0  0  0  0  0  0  0  0  0  0
   -4.5734    2.1802    1.8801 C   0  0  0  0  0  0  0  0  0  0  0  0
   -5.1566    4.2141    1.9374 I   0  0  0  0  0  0  0  0  0  0  0  0
   -5.2221    1.2581    1.0686 C   0  0  0  0  0  0  0  0  0  0  0  0
   -4.5689    0.1464    0.5495 C   0  0  0  0  0  0  0  0  0  0  0  0
   -5.3366   -0.9649    0.3474 F   0  0  0  0  0  0  0  0  0  0  0  0
    1.6729    0.0417    0.0624 N   0  0  0  0  0  0  0  0  0  0  0  0
    2.7035    0.2319    1.0872 C   0  0  0  0  0  0  0  0  0  0  0  0
    3.1350    1.4405    0.3626 C   0  0  0  0  0  0  0  0  0  0  0  0
    2.7395    2.6713    0.8167 O   0  0  0  0  0  0  0  0  0  0  0  0
    4.7583    1.4417    0.1507 C   0  0  2  0  0  0  0  0  0  0  0  0
    4.7932   -0.1299   -0.3225 C   0  0  0  0  0  0  0  0  0  0  0  0
    6.2561   -0.4939   -0.2397 C   0  0  0  0  0  0  0  0  0  0  0  0
    7.0603    0.5895    0.4258 C   0  0  0  0  0  0  0  0  0  0  0  0
    6.4608    0.9626    1.7753 C   0  0  0  0  0  0  0  0  0  0  0  0
    5.0298    1.0641    1.6549 N   0  0  0  0  0  0  0  0  0  0  0  0
    2.4581    0.8576   -0.8192 C   0  0  0  0  0  0  0  0  0  0  0  0
  1  2  2  0
  2  3  1  0
  3  4  2  0
  4  5  1  0
  5  6  2  0
  6  7  1  0
  6  8  1  0
  8  9  1  0
  8 10  2  0
 10 11  1  0
 11 12  1  0
 12 13  2  0
 13 14  1  0
 14 15  2  0
 15 16  1  0
 15 17  1  0
 17 18  2  0
 18 19  1  0
  2 20  1  0
 20 21  1  0
 21 22  1  0
 22 23  1  0
 24 22  1  1
 24 25  1  0
 25 26  1  0
 26 27  1  0
 27 28  1  0
 28 29  1  0
 22 30  1  0
 10  3  1  0
 18 12  1  0
 30 20  1  0
 29 24  1  0
M  END
>  <supplier_code>  (1240) 
DB05239

>  <zinc_id>  (1240) 
ZINC000060325170

>  <catalog_short_name>  (1240) 
dbfda

$$$$

     RDKit          3D

 17 18  0  0  0  0  0  0  0  0999 V2000
    5.3181    1.5060    0.6335 N   0  0  0  0  0  0  0  0  0  0  0  0
    4.0909    0.9502    0.2054 C   0  0  0  0  0  0  0  0  0  0  0  0
    2.8996    1.6601    0.2983 C   0  0  0  0  0  0  0  0  0  0  0  0
    1.6801    1.0349    0.0770 C   0  0  0  0  0  0  0  0  0  0  0  0
    1.6548   -0.3510    0.0913 C   0  0  0  0  0  0  0  0  0  0  0  0
    0.1281   -1.1243   -0.3211 S   0  0  0  0  0  0  0  0  0  0  0  0
    0.3839   -2.6149   -0.2951 O   0  0  0  0  0  0  0  0  0  0  0  0
   -0.1940   -0.6875   -1.7253 O   0  0  0  0  0  0  0  0  0  0  0  0
   -1.1010   -0.7270    0.7965 N   0  0  0  0  0  0  0  0  0  0  0  0
   -2.3801   -0.2327    0.4705 C   0  0  0  0  0  0  0  0  0  0  0  0
   -3.0458   -0.5143   -0.6583 N   0  0  0  0  0  0  0  0  0  0  0  0
   -4.3310   -0.1378   -0.8508 C   0  0  0  0  0  0  0  0  0  0  0  0
   -4.9575    0.5391    0.1851 C   0  0  0  0  0  0  0  0  0  0  0  0
   -4.1165    1.2823    1.0040 C   0  0  0  0  0  0  0  0  0  0  0  0
   -2.8918    0.7710    1.2245 N   0  0  0  0  0  0  0  0  0  0  0  0
    2.8212   -0.9712   -0.3338 C   0  0  0  0  0  0  0  0  0  0  0  0
    4.0410   -0.3829   -0.1214 C   0  0  0  0  0  0  0  0  0  0  0  0
  1  2  1  0
  2  3  2  0
  3  4  1  0
  4  5  2  0
  5  6  1  0
  6  7  2  0
  6  8  2  0
  6  9  1  0
  9 10  1  0
 10 11  2  0
 11 12  1  0
 12 13  2  0
 13 14  1  0
 14 15  2  0
  5 16  1  0
 16 17  2  0
 17  2  1  0
 15 10  1  0
M  END
>  <supplier_code>  (1241) 
DB05245

>  <zinc_id>  (1241) 
ZINC000000120319

>  <catalog_short_name>  (1241) 
dbfda

$$$$

     RDKit          3D

 15 16  0  0  0  0  0  0  0  0999 V2000
   -2.2622    1.3451   -1.7277 C   0  0  0  0  0  0  0  0  0  0  0  0
   -1.8226    0.5735   -0.6703 N   0  0  0  0  0  0  0  0  0  0  0  0
   -1.9050    0.8963    0.7219 C   0  0  0  0  0  0  0  0  0  0  0  0
   -2.1731    2.0284    1.2236 O   0  0  0  0  0  0  0  0  0  0  0  0
   -1.1491   -0.1261    1.5087 C   0  0  0  0  0  0  0  0  0  0  0  0
   -0.4362   -0.9515    0.4740 C   0  0  2  0  0  0  0  0  0  0  0  0
   -0.4361   -2.3873    0.9197 C   0  0  0  0  0  0  0  0  0  0  0  0
    0.9220   -0.4177    0.2427 C   0  0  0  0  0  0  0  0  0  0  0  0
    1.6255   -0.7816   -0.8773 C   0  0  0  0  0  0  0  0  0  0  0  0
    2.8645   -0.2131   -1.1391 C   0  0  0  0  0  0  0  0  0  0  0  0
    3.3453    0.7662   -0.2807 C   0  0  0  0  0  0  0  0  0  0  0  0
    2.6841    1.0375    0.8999 C   0  0  0  0  0  0  0  0  0  0  0  0
    1.4410    0.5069    1.1148 C   0  0  0  0  0  0  0  0  0  0  0  0
   -1.2635   -0.7363   -0.7306 C   0  0  0  0  0  0  0  0  0  0  0  0
   -1.4345   -1.5402   -1.6796 O   0  0  0  0  0  0  0  0  0  0  0  0
  1  2  1  0
  2  3  1  0
  3  4  2  0
  3  5  1  0
  5  6  1  0
  6  7  1  1
  6  8  1  0
  8  9  2  0
  9 10  1  0
 10 11  2  0
 11 12  1  0
 12 13  2  0
  6 14  1  0
 14 15  2  0
 14  2  1  0
 13  8  1  0
M  END
>  <supplier_code>  (1242) 
DB05246

>  <zinc_id>  (1242) 
ZINC000000014257

>  <catalog_short_name>  (1242) 
dbfda

$$$$

     RDKit          3D

 15 16  0  0  0  0  0  0  0  0999 V2000
   -2.9852    0.8281    1.1594 C   0  0  0  0  0  0  0  0  0  0  0  0
   -2.1594    0.3386    0.4559 N   0  0  0  0  0  0  0  0  0  0  0  0
   -1.7204    0.8382   -0.8162 C   0  0  0  0  0  0  0  0  0  0  0  0
   -1.8167    2.0571   -1.1483 O   0  0  0  0  0  0  0  0  0  0  0  0
   -0.9537   -0.2332   -1.5284 C   0  0  0  0  0  0  0  0  0  0  0  0
   -0.3247   -0.9622   -0.3521 C   0  0  1  0  0  0  0  0  0  0  0  0
   -0.0973   -2.4123   -0.6834 C   0  0  0  0  0  0  0  0  0  0  0  0
    0.9264   -0.2726    0.0297 C   0  0  0  0  0  0  0  0  0  0  0  0
    2.0729   -0.9825    0.2868 C   0  0  0  0  0  0  0  0  0  0  0  0
    3.3413   -0.4225    0.1985 C   0  0  0  0  0  0  0  0  0  0  0  0
    3.3968    0.9603    0.2507 C   0  0  0  0  0  0  0  0  0  0  0  0
    2.3116    1.6612   -0.2576 C   0  0  0  0  0  0  0  0  0  0  0  0
    1.0627    1.0958   -0.1480 C   0  0  0  0  0  0  0  0  0  0  0  0
   -1.3508   -0.8192    0.7082 C   0  0  0  0  0  0  0  0  0  0  0  0
   -1.7036   -1.6747    1.5756 O   0  0  0  0  0  0  0  0  0  0  0  0
  1  2  1  0
  2  3  1  0
  3  4  2  0
  3  5  1  0
  5  6  1  0
  6  7  1  6
  6  8  1  0
  8  9  2  0
  9 10  1  0
 10 11  2  0
 11 12  1  0
 12 13  2  0
  6 14  1  0
 14 15  2  0
 14  2  1  0
 13  8  1  0
M  END
>  <supplier_code>  (1243) 
DB05246

>  <zinc_id>  (1243) 
ZINC000000896703

>  <catalog_short_name>  (1243) 
dbfda

$$$$

     RDKit          3D

 22 24  0  0  0  0  0  0  0  0999 V2000
    1.1978   -2.4381    1.8859 C   0  0  0  0  0  0  0  0  0  0  0  0
    1.1687   -2.2128    1.5903 C   0  0  0  0  0  0  0  0  0  0  0  0
    0.4962   -2.5623    0.2630 C   0  0  0  0  0  0  0  0  0  0  0  0
    0.5969   -1.6903   -0.7612 N   0  0  0  0  0  0  0  0  0  0  0  0
    1.8122   -1.0988   -1.1579 C   0  0  0  0  0  0  0  0  0  0  0  0
    2.9212   -1.1099   -0.1617 C   0  0  0  0  0  0  0  0  0  0  0  0
    3.5588    0.2167    0.0320 C   0  0  0  0  0  0  0  0  0  0  0  0
    2.9844    1.4817   -0.0216 C   0  0  0  0  0  0  0  0  0  0  0  0
    3.7644    2.3990    0.6477 C   0  0  0  0  0  0  0  0  0  0  0  0
    5.0842    2.3302    0.2142 C   0  0  0  0  0  0  0  0  0  0  0  0
    5.2179    0.6427   -0.0764 S   0  0  0  0  0  0  0  0  0  0  0  0
   -0.5251   -0.5984   -0.8007 C   0  0  1  0  0  0  0  0  0  0  0  0
   -1.5989   -1.6296   -1.4958 C   0  0  0  0  0  0  0  0  0  0  0  0
   -2.9579   -1.0424   -1.2659 C   0  0  0  0  0  0  0  0  0  0  0  0
   -2.9515    0.1510   -0.3933 C   0  0  0  0  0  0  0  0  0  0  0  0
   -3.9785    1.0688   -0.4585 C   0  0  0  0  0  0  0  0  0  0  0  0
   -5.1626    0.7570   -1.1340 O   0  0  0  0  0  0  0  0  0  0  0  0
   -3.8044    2.2815    0.1673 C   0  0  0  0  0  0  0  0  0  0  0  0
   -2.6939    2.4565    0.9833 C   0  0  0  0  0  0  0  0  0  0  0  0
   -1.8605    1.3821    1.2698 C   0  0  0  0  0  0  0  0  0  0  0  0
   -2.1770    0.1255    0.7635 C   0  0  0  0  0  0  0  0  0  0  0  0
   -1.0924   -0.9103    0.7110 C   0  0  0  0  0  0  0  0  0  0  0  0
  1  2  1  0
  2  3  1  0
  3  4  1  0
  4  5  1  0
  5  6  1  0
  6  7  1  0
  7  8  2  0
  8  9  1  0
  9 10  2  0
 10 11  1  0
 12  4  1  1
 12 13  1  0
 13 14  1  0
 14 15  1  0
 15 16  2  0
 16 17  1  0
 16 18  1  0
 18 19  2  0
 19 20  1  0
 20 21  2  0
 21 22  1  0
 11  7  1  0
 22 12  1  0
 21 15  1  0
M  END
>  <supplier_code>  (1244) 
DB05271

>  <zinc_id>  (1244) 
ZINC000000004028

>  <catalog_short_name>  (1244) 
dbfda

$$$$

     RDKit          3D

 22 24  0  0  0  0  0  0  0  0999 V2000
    0.8365   -3.9489   -0.1216 C   0  0  0  0  0  0  0  0  0  0  0  0
    0.9617   -3.6492   -0.0674 C   0  0  0  0  0  0  0  0  0  0  0  0
    1.1306   -2.4809    0.8736 C   0  0  0  0  0  0  0  0  0  0  0  0
    0.4395   -1.2969    0.3596 N   0  0  0  0  0  0  0  0  0  0  0  0
    1.2955   -0.1907    0.7397 C   0  0  0  0  0  0  0  0  0  0  0  0
    2.3551   -0.1887   -0.3434 C   0  0  0  0  0  0  0  0  0  0  0  0
    3.5133    0.6467   -0.0091 C   0  0  0  0  0  0  0  0  0  0  0  0
    3.4430    2.0167    0.2147 C   0  0  0  0  0  0  0  0  0  0  0  0
    4.6679    2.6074    0.0755 C   0  0  0  0  0  0  0  0  0  0  0  0
    5.6438    1.9289    0.7979 C   0  0  0  0  0  0  0  0  0  0  0  0
    5.0777    0.3186    0.6089 S   0  0  0  0  0  0  0  0  0  0  0  0
   -0.7712   -1.2694    1.3910 C   0  0  2  0  0  0  0  0  0  0  0  0
   -1.8579   -1.6086    0.1799 C   0  0  0  0  0  0  0  0  0  0  0  0
   -1.5801   -0.6131   -0.9146 C   0  0  0  0  0  0  0  0  0  0  0  0
   -2.4262    0.5531   -0.4765 C   0  0  0  0  0  0  0  0  0  0  0  0
   -3.6164    0.8535   -1.1277 C   0  0  0  0  0  0  0  0  0  0  0  0
   -3.6117    0.6999   -2.4922 O   0  0  0  0  0  0  0  0  0  0  0  0
   -4.5579    1.5191   -0.3932 C   0  0  0  0  0  0  0  0  0  0  0  0
   -4.4404    1.6817    0.9810 C   0  0  0  0  0  0  0  0  0  0  0  0
   -3.2420    1.3833    1.6204 C   0  0  0  0  0  0  0  0  0  0  0  0
   -2.3278    0.6564    0.9158 C   0  0  0  0  0  0  0  0  0  0  0  0
   -0.9329    0.3810    1.3023 C   0  0  0  0  0  0  0  0  0  0  0  0
  1  2  1  0
  2  3  1  0
  3  4  1  0
  4  5  1  0
  5  6  1  0
  6  7  1  0
  7  8  2  0
  8  9  1  0
  9 10  2  0
 10 11  1  0
 12  4  1  6
 12 13  1  0
 13 14  1  0
 14 15  1  0
 15 16  2  0
 16 17  1  0
 16 18  1  0
 18 19  2  0
 19 20  1  0
 20 21  2  0
 21 22  1  0
 11  7  1  0
 22 12  1  0
 21 15  1  0
M  END
>  <supplier_code>  (1245) 
DB05271

>  <zinc_id>  (1245) 
ZINC000000005151

>  <catalog_short_name>  (1245) 
dbfda

$$$$

     RDKit          3D

 30 33  0  0  0  0  0  0  0  0999 V2000
   -0.7865   -3.2604    1.1738 C   0  0  0  0  0  0  0  0  0  0  0  0
   -0.0366   -2.1494    1.6367 O   0  0  0  0  0  0  0  0  0  0  0  0
   -0.0183   -0.9223    1.0076 C   0  0  0  0  0  0  0  0  0  0  0  0
    1.1102   -0.4091    0.3824 C   0  0  0  0  0  0  0  0  0  0  0  0
    0.8884    0.6245   -0.5157 C   0  0  0  0  0  0  0  0  0  0  0  0
   -0.2182    1.4542   -0.3897 C   0  0  0  0  0  0  0  0  0  0  0  0
   -1.0650    1.2061    0.6601 C   0  0  0  0  0  0  0  0  0  0  0  0
   -1.1426   -0.1108    1.0969 C   0  0  0  0  0  0  0  0  0  0  0  0
   -2.2090   -0.4184    1.9461 O   0  0  0  0  0  0  0  0  0  0  0  0
   -3.4903    0.1092    1.7164 C   0  0  0  0  0  0  0  0  0  0  0  0
   -3.8845    0.1208    0.2649 C   0  0  0  0  0  0  0  0  0  0  0  0
   -4.7434   -1.0488   -0.1277 C   0  0  0  0  0  0  0  0  0  0  0  0
   -5.5883   -0.7648   -1.3421 C   0  0  0  0  0  0  0  0  0  0  0  0
   -6.5270    0.3111   -1.1217 N   0  0  0  0  0  0  0  0  0  0  0  0
   -7.8390   -0.1484   -0.7434 C   0  0  0  0  0  0  0  0  0  0  0  0
   -6.0616    1.2880   -0.1712 C   0  0  0  0  0  0  0  0  0  0  0  0
   -4.5636    1.4105   -0.1377 C   0  0  0  0  0  0  0  0  0  0  0  0
   -0.1763    2.6051   -1.0763 N   0  0  0  0  0  0  0  0  0  0  0  0
    0.5045    2.6269   -2.2472 C   0  0  0  0  0  0  0  0  0  0  0  0
    1.5743    1.8165   -2.4292 N   0  0  0  0  0  0  0  0  0  0  0  0
    1.8624    0.9553   -1.4463 C   0  0  0  0  0  0  0  0  0  0  0  0
    2.9560    0.2687   -1.3862 N   0  0  0  0  0  0  0  0  0  0  0  0
    3.4551   -0.1838   -0.1158 C   0  0  0  0  0  0  0  0  0  0  0  0
    4.1354    0.8099    0.5879 C   0  0  0  0  0  0  0  0  0  0  0  0
    5.1266    0.5383    1.4931 C   0  0  0  0  0  0  0  0  0  0  0  0
    5.8391   -0.6423    1.3329 C   0  0  0  0  0  0  0  0  0  0  0  0
    7.6885   -0.7597    1.8274 Br  0  0  0  0  0  0  0  0  0  0  0  0
    5.1817   -1.6733    0.7089 C   0  0  0  0  0  0  0  0  0  0  0  0
    4.1833   -1.3697   -0.2094 C   0  0  0  0  0  0  0  0  0  0  0  0
    3.8448   -2.2837   -1.1647 F   0  0  0  0  0  0  0  0  0  0  0  0
  1  2  1  0
  2  3  1  0
  3  4  2  0
  4  5  1  0
  5  6  2  0
  6  7  1  0
  7  8  2  0
  8  9  1  0
  9 10  1  0
 10 11  1  0
 11 12  1  0
 12 13  1  0
 13 14  1  0
 14 15  1  0
 14 16  1  0
 16 17  1  0
  6 18  1  0
 18 19  1  0
 19 20  2  0
 20 21  1  0
 21 22  2  0
 22 23  1  0
 23 24  2  0
 24 25  1  0
 25 26  2  0
 26 27  1  0
 26 28  1  0
 28 29  2  0
 29 30  1  0
  8  3  1  0
 17 11  1  0
 29 23  1  0
 21  5  1  0
M  END
>  <supplier_code>  (1246) 
DB05294

>  <zinc_id>  (1246) 
ZINC000053683345

>  <catalog_short_name>  (1246) 
dbfda

$$$$

     RDKit          3D

 31 33  0  0  0  0  0  0  0  0999 V2000
    8.5479   -1.3572   -0.0937 C   0  0  0  0  0  0  0  0  0  0  0  0
    8.4608    0.1631   -0.1535 C   0  0  0  0  0  0  0  0  0  0  0  0
    8.2550    0.5400   -1.6147 C   0  0  0  0  0  0  0  0  0  0  0  0
    7.2352    0.5943    0.6038 C   0  0  0  0  0  0  0  0  0  0  0  0
    6.1272    0.8095   -0.2638 O   0  0  0  0  0  0  0  0  0  0  0  0
    4.8764    0.3494    0.1590 C   0  0  0  0  0  0  0  0  0  0  0  0
    4.1043   -0.3489   -0.7312 C   0  0  0  0  0  0  0  0  0  0  0  0
    2.7316   -0.4665   -0.5508 C   0  0  0  0  0  0  0  0  0  0  0  0
    2.1866   -0.1815    0.6916 C   0  0  0  0  0  0  0  0  0  0  0  0
    0.9971   -0.9251    1.1514 C   0  0  0  0  0  0  0  0  0  0  0  0
   -0.2262   -0.1690    1.0530 N   0  0  0  0  0  0  0  0  0  0  0  0
   -1.1038   -0.3059   -0.0594 C   0  0  0  0  0  0  0  0  0  0  0  0
   -0.5501   -0.4526   -1.1840 O   0  0  0  0  0  0  0  0  0  0  0  0
   -2.5266   -0.3872    0.0890 N   0  0  0  0  0  0  0  0  0  0  0  0
   -3.1065    0.4528    1.1170 C   0  0  0  0  0  0  0  0  0  0  0  0
   -3.1401    1.8450    0.5678 C   0  0  0  0  0  0  0  0  0  0  0  0
   -3.1438    2.9510    1.4106 C   0  0  0  0  0  0  0  0  0  0  0  0
   -3.9474    4.0477    1.1214 C   0  0  0  0  0  0  0  0  0  0  0  0
   -4.7888    4.0653    0.0151 C   0  0  0  0  0  0  0  0  0  0  0  0
   -6.0658    4.5426    0.0893 F   0  0  0  0  0  0  0  0  0  0  0  0
   -4.4611    3.1587   -0.9864 C   0  0  0  0  0  0  0  0  0  0  0  0
   -3.5960    2.1055   -0.7196 C   0  0  0  0  0  0  0  0  0  0  0  0
   -3.2035   -1.5178   -0.5015 C   0  0  0  0  0  0  0  0  0  0  0  0
   -2.2076   -2.5237   -1.0217 C   0  0  0  0  0  0  0  0  0  0  0  0
   -2.9029   -3.6853   -1.6654 C   0  0  0  0  0  0  0  0  0  0  0  0
   -3.7624   -4.3525   -0.7247 N   0  0  0  0  0  0  0  0  0  0  0  0
   -3.0567   -4.9484    0.3825 C   0  0  0  0  0  0  0  0  0  0  0  0
   -4.7281   -3.3993   -0.2424 C   0  0  0  0  0  0  0  0  0  0  0  0
   -4.0999   -2.2385    0.4911 C   0  0  0  0  0  0  0  0  0  0  0  0
    2.8677    0.7375    1.4691 C   0  0  0  0  0  0  0  0  0  0  0  0
    4.2275    0.8969    1.2557 C   0  0  0  0  0  0  0  0  0  0  0  0
  1  2  1  0
  2  3  1  0
  2  4  1  0
  4  5  1  0
  5  6  1  0
  6  7  2  0
  7  8  1  0
  8  9  2  0
  9 10  1  0
 10 11  1  0
 11 12  1  0
 12 13  2  0
 12 14  1  0
 14 15  1  0
 15 16  1  0
 16 17  2  0
 17 18  1  0
 18 19  2  0
 19 20  1  0
 19 21  1  0
 21 22  2  0
 14 23  1  0
 23 24  1  0
 24 25  1  0
 25 26  1  0
 26 27  1  0
 26 28  1  0
 28 29  1  0
  9 30  1  0
 30 31  2  0
 31  6  1  0
 22 16  1  0
 29 23  1  0
M  END
>  <supplier_code>  (1247) 
DB05316

>  <zinc_id>  (1247) 
ZINC000016159083

>  <catalog_short_name>  (1247) 
dbfda

$$$$

     RDKit          3D

 25 27  0  0  0  0  0  0  0  0999 V2000
   -2.0550   -0.1916    2.5422 C   0  0  0  0  0  0  0  0  0  0  0  0
   -1.7256   -0.1596    1.2576 C   0  0  0  0  0  0  0  0  0  0  0  0
   -2.6328   -0.5671    0.2872 C   0  0  0  0  0  0  0  0  0  0  0  0
   -3.9553   -0.8237    0.6616 O   0  0  0  0  0  0  0  0  0  0  0  0
   -4.9929   -0.0046    0.1770 C   0  0  0  0  0  0  0  0  0  0  0  0
   -5.8266   -0.7937   -0.8083 C   0  0  0  0  0  0  0  0  0  0  0  0
   -5.0872   -1.8292   -1.3300 F   0  0  0  0  0  0  0  0  0  0  0  0
   -6.2920    0.0462   -1.7875 F   0  0  0  0  0  0  0  0  0  0  0  0
   -6.8841   -1.3277   -0.1103 F   0  0  0  0  0  0  0  0  0  0  0  0
   -2.3178   -0.4023   -1.0561 C   0  0  0  0  0  0  0  0  0  0  0  0
   -1.0150   -0.1243   -1.4427 C   0  0  0  0  0  0  0  0  0  0  0  0
   -0.1475    0.2433   -0.4873 N   0  0  0  0  0  0  0  0  0  0  0  0
   -0.5165    0.3597    0.8114 C   0  0  0  0  0  0  0  0  0  0  0  0
    0.2097    1.2674    1.7536 C   0  0  0  0  0  0  0  0  0  0  0  0
    1.4311    2.2617    0.8019 S   0  0  0  0  0  0  0  0  0  0  0  0
    0.5646    2.6304   -0.4383 O   0  0  0  0  0  0  0  0  0  0  0  0
    2.4582    0.9509    0.0872 C   0  0  0  0  0  0  0  0  0  0  0  0
    2.8456   -0.1833    0.6823 N   0  0  0  0  0  0  0  0  0  0  0  0
    4.0720   -0.5587    0.2621 C   0  0  0  0  0  0  0  0  0  0  0  0
    4.9539   -1.4672    0.8341 C   0  0  0  0  0  0  0  0  0  0  0  0
    6.3140   -1.2495    0.6525 C   0  0  0  0  0  0  0  0  0  0  0  0
    6.7730   -0.1709   -0.0932 C   0  0  0  0  0  0  0  0  0  0  0  0
    5.8438    0.3994   -0.9538 C   0  0  0  0  0  0  0  0  0  0  0  0
    4.5148    0.4445   -0.5671 C   0  0  0  0  0  0  0  0  0  0  0  0
    3.4675    1.2499   -0.7673 N   0  0  0  0  0  0  0  0  0  0  0  0
  1  2  1  0
  2  3  2  0
  3  4  1  0
  4  5  1  0
  5  6  1  0
  6  7  1  0
  6  8  1  0
  6  9  1  0
  3 10  1  0
 10 11  2  0
 11 12  1  0
 12 13  2  0
 13 14  1  0
 15 14  1  1
 15 16  2  0
 15 17  1  0
 17 18  2  0
 18 19  1  0
 19 20  2  0
 20 21  1  0
 21 22  2  0
 22 23  1  0
 23 24  2  0
 24 25  1  0
 13  2  1  0
 25 17  1  0
 24 19  1  0
M  END
>  <supplier_code>  (1248) 
DB05351

>  <zinc_id>  (1248) 
ZINC000003830986

>  <catalog_short_name>  (1248) 
dbfda

$$$$

     RDKit          3D

  8  8  0  0  0  0  0  0  0  0999 V2000
    2.1220    1.1349   -0.2698 N   0  0  0  0  0  0  0  0  0  0  0  0
    2.3033   -0.1938    0.2633 C   0  0  0  0  0  0  0  0  0  0  0  0
    1.1922   -1.1400   -0.1010 C   0  0  0  0  0  0  0  0  0  0  0  0
   -0.1421   -0.5241    0.0317 C   0  0  0  0  0  0  0  0  0  0  0  0
   -1.0686   -0.5324   -1.0016 C   0  0  0  0  0  0  0  0  0  0  0  0
   -1.9821    0.4050   -0.6561 N   0  0  0  0  0  0  0  0  0  0  0  0
   -1.7388    0.7681    0.6211 C   0  0  0  0  0  0  0  0  0  0  0  0
   -0.6860    0.0824    1.1124 N   0  0  0  0  0  0  0  0  0  0  0  0
  1  2  1  0
  2  3  1  0
  3  4  1  0
  4  5  2  0
  5  6  1  0
  6  7  2  0
  7  8  1  0
  8  4  1  0
M  END
>  <supplier_code>  (1249) 
DB05381

>  <zinc_id>  (1249) 
ZINC000000388081

>  <catalog_short_name>  (1249) 
dbfda

$$$$

     RDKit          3D

 15 15  0  0  0  0  0  0  0  0999 V2000
    4.3034    0.2172    0.3803 C   0  0  0  0  0  0  0  0  0  0  0  0
    3.7978   -1.0181    0.9084 C   0  0  0  0  0  0  0  0  0  0  0  0
    2.5546   -0.8032    1.7253 C   0  0  0  0  0  0  0  0  0  0  0  0
    1.4363   -1.4217    0.6724 C   0  0  2  0  0  0  0  0  0  0  0  0
    1.7815   -0.2717   -0.4659 C   0  0  0  0  0  0  0  0  0  0  0  0
    0.3894   -0.1599   -1.0061 C   0  0  0  0  0  0  0  0  0  0  0  0
    0.1532    0.3278   -2.1354 O   0  0  0  0  0  0  0  0  0  0  0  0
   -0.4262   -0.1199    0.1734 N   0  0  0  0  0  0  0  0  0  0  0  0
   -2.0007   -0.1205   -0.1155 C   0  0  1  0  0  0  0  0  0  0  0  0
   -2.4104   -0.2205    1.5097 C   0  0  0  0  0  0  0  0  0  0  0  0
   -3.2873   -1.4384    1.4920 C   0  0  0  0  0  0  0  0  0  0  0  0
   -2.1424    1.5180   -0.0722 C   0  0  0  0  0  0  0  0  0  0  0  0
   -3.2622    1.8371   -0.9153 N   0  0  0  0  0  0  0  0  0  0  0  0
   -1.1224    2.1676   -0.2805 O   0  0  0  0  0  0  0  0  0  0  0  0
    0.2354   -0.4936    1.3267 C   0  0  0  0  0  0  0  0  0  0  0  0
  1  2  1  0
  2  3  1  0
  4  3  1  1
  4  5  1  0
  5  6  1  0
  6  7  2  0
  6  8  1  0
  9  8  1  1
  9 10  1  0
 10 11  1  0
  9 12  1  0
 12 13  1  0
 12 14  2  0
  8 15  1  0
 15  4  1  0
M  END
>  <supplier_code>  (1250) 
DB05541

>  <zinc_id>  (1250) 
ZINC000003979899

>  <catalog_short_name>  (1250) 
dbfda

$$$$

     RDKit          3D

 32 34  0  0  0  0  0  0  0  0999 V2000
   -5.1167   -2.2824   -1.6208 C   0  0  0  0  0  0  0  0  0  0  0  0
   -4.6873   -2.6406   -0.2282 C   0  0  0  0  0  0  0  0  0  0  0  0
   -4.7440   -1.5112    0.6400 O   0  0  0  0  0  0  0  0  0  0  0  0
   -3.5122   -0.9345    0.9669 C   0  0  0  0  0  0  0  0  0  0  0  0
   -2.8208   -0.1171    0.1072 C   0  0  0  0  0  0  0  0  0  0  0  0
   -1.4487    0.0034    0.1098 C   0  0  0  0  0  0  0  0  0  0  0  0
   -0.7899    0.3644   -1.3286 C   0  0  1  0  0  0  0  0  0  0  0  0
   -1.7599    1.6649   -1.5130 C   0  0  0  0  0  0  0  0  0  0  0  0
   -1.0844    3.1290   -1.8347 S   0  0  0  0  0  0  0  0  0  0  0  0
   -1.9584    4.2879   -0.7618 C   0  0  0  0  0  0  0  0  0  0  0  0
    0.3661    3.4001   -1.7665 O   0  0  0  0  0  0  0  0  0  0  0  0
   -1.4743    3.6294   -3.2171 O   0  0  0  0  0  0  0  0  0  0  0  0
    0.4452    1.1609   -0.7625 N   0  0  0  0  0  0  0  0  0  0  0  0
    0.7148    1.4594    0.5621 C   0  0  0  0  0  0  0  0  0  0  0  0
   -0.1910    1.9084    1.3097 O   0  0  0  0  0  0  0  0  0  0  0  0
    2.1763    1.5341    0.7406 C   0  0  0  0  0  0  0  0  0  0  0  0
    2.9247    1.7614    1.8789 C   0  0  0  0  0  0  0  0  0  0  0  0
    4.0933    1.0360    2.0748 C   0  0  0  0  0  0  0  0  0  0  0  0
    4.3318   -0.1465    1.3847 C   0  0  0  0  0  0  0  0  0  0  0  0
    3.7630   -0.2086    0.1184 C   0  0  0  0  0  0  0  0  0  0  0  0
    4.3287   -1.0038   -0.9189 N   0  0  0  0  0  0  0  0  0  0  0  0
    4.2837   -2.4328   -0.8159 C   0  0  0  0  0  0  0  0  0  0  0  0
    5.2431   -3.3070   -1.5612 C   0  0  0  0  0  0  0  0  0  0  0  0
    3.1148   -2.8731   -0.5970 O   0  0  0  0  0  0  0  0  0  0  0  0
    2.6747    0.6091   -0.1697 C   0  0  0  0  0  0  0  0  0  0  0  0
    1.6989    0.6640   -1.2690 C   0  0  0  0  0  0  0  0  0  0  0  0
    1.9201    0.0316   -2.3444 O   0  0  0  0  0  0  0  0  0  0  0  0
   -0.7787   -1.0299    0.7611 C   0  0  0  0  0  0  0  0  0  0  0  0
   -1.3894   -1.5197    1.9111 C   0  0  0  0  0  0  0  0  0  0  0  0
   -2.7760   -1.4691    2.0202 C   0  0  0  0  0  0  0  0  0  0  0  0
   -3.4514   -1.9622    3.1159 O   0  0  0  0  0  0  0  0  0  0  0  0
   -4.0962   -3.2054    3.0075 C   0  0  0  0  0  0  0  0  0  0  0  0
  1  2  1  0
  2  3  1  0
  3  4  1  0
  4  5  2  0
  5  6  1  0
  7  6  1  1
  7  8  1  0
  8  9  1  0
  9 10  1  0
  9 11  2  0
  9 12  2  0
  7 13  1  0
 13 14  1  0
 14 15  2  0
 14 16  1  0
 16 17  2  0
 17 18  1  0
 18 19  2  0
 19 20  1  0
 20 21  1  0
 21 22  1  0
 22 23  1  0
 22 24  2  0
 20 25  2  0
 25 26  1  0
 26 27  2  0
  6 28  2  0
 28 29  1  0
 29 30  2  0
 30 31  1  0
 31 32  1  0
 30  4  1  0
 26 13  1  0
 25 16  1  0
M  END
>  <supplier_code>  (1251) 
DB05676

>  <zinc_id>  (1251) 
ZINC000030691736

>  <catalog_short_name>  (1251) 
dbfda

$$$$

     RDKit          3D

 26 30  0  0  0  0  0  0  0  0999 V2000
   -1.3747   -0.7446   -1.5930 C   0  0  0  0  0  0  0  0  0  0  0  0
   -1.4378   -0.3602   -0.1570 C   0  0  2  0  0  0  0  0  0  0  0  0
   -1.0899    0.9602    0.2466 C   0  0  0  0  0  0  0  0  0  0  0  0
    0.2440    1.4749    0.2770 C   0  0  0  0  0  0  0  0  0  0  0  0
    1.3698    0.3833    0.6793 C   0  0  1  0  0  0  0  0  0  0  0  0
    0.8415   -0.7556   -0.4479 C   0  0  1  0  0  0  0  0  0  0  0  0
    1.8869   -1.8648    0.0501 C   0  0  0  0  0  0  0  0  0  0  0  0
    3.1309   -1.3346   -0.6028 C   0  0  0  0  0  0  0  0  0  0  0  0
    3.1897   -0.0586   -1.0105 C   0  0  0  0  0  0  0  0  0  0  0  0
    4.5611    0.3526   -1.4908 C   0  0  0  0  0  0  0  0  0  0  0  0
    5.3290    0.2380   -0.0314 C   0  0  1  0  0  0  0  0  0  0  0  0
    6.6387    0.7522   -0.6037 O   0  0  0  0  0  0  0  0  0  0  0  0
    4.8524    1.7615    0.3882 C   0  0  0  0  0  0  0  0  0  0  0  0
    3.4416    1.5722    0.8273 C   0  0  0  0  0  0  0  0  0  0  0  0
    2.5273    1.0126   -0.2594 C   0  0  2  0  0  0  0  0  0  0  0  0
    2.0676    2.1124   -1.0975 C   0  0  0  0  0  0  0  0  0  0  0  0
   -0.3447   -1.2563    0.6401 C   0  0  2  0  0  0  0  0  0  0  0  0
   -0.8546   -2.5466   -0.1960 C   0  0  0  0  0  0  0  0  0  0  0  0
   -2.3202   -2.3398    0.0593 C   0  0  0  0  0  0  0  0  0  0  0  0
   -2.5640   -1.0772    0.4228 C   0  0  0  0  0  0  0  0  0  0  0  0
   -3.8487   -0.4499    0.7279 C   0  0  0  0  0  0  0  0  0  0  0  0
   -4.9653   -0.9703    0.0852 C   0  0  0  0  0  0  0  0  0  0  0  0
   -6.1842   -0.3367    0.2936 C   0  0  0  0  0  0  0  0  0  0  0  0
   -6.1780    0.9502    0.8173 C   0  0  0  0  0  0  0  0  0  0  0  0
   -5.0223    1.6339    0.9667 N   0  0  0  0  0  0  0  0  0  0  0  0
   -3.8962    0.8912    1.0072 C   0  0  0  0  0  0  0  0  0  0  0  0
  2  1  1  6
  2  3  1  0
  3  4  1  0
  5  4  1  6
  5  6  1  0
  6  7  1  1
  7  8  1  0
  8  9  2  0
  9 10  1  0
 10 11  1  0
 11 12  1  6
 11 13  1  0
 13 14  1  0
 14 15  1  0
 15 16  1  6
  6 17  1  0
 17 18  1  6
 18 19  1  0
 19 20  2  0
 20 21  1  0
 21 22  2  0
 22 23  1  0
 23 24  2  0
 24 25  1  0
 25 26  2  0
 17  2  1  0
 26 21  1  0
 20  2  1  0
 15  5  1  0
 15  9  1  0
M  END
>  <supplier_code>  (1252) 
DB05812

>  <zinc_id>  (1252) 
ZINC000003797541

>  <catalog_short_name>  (1252) 
dbfda

$$$$

     RDKit          3D

 30 33  0  0  0  0  0  0  0  0999 V2000
   -2.2651    2.2159   -1.9089 C   0  0  0  0  0  0  0  0  0  0  0  0
   -2.3875    1.4225   -1.2886 C   0  0  0  0  0  0  0  0  0  0  0  0
   -2.5097    0.1723   -2.2782 C   0  0  1  0  0  0  0  0  0  0  0  0
   -0.9598   -0.5323   -2.2055 C   0  0  1  0  0  0  0  0  0  0  0  0
   -0.3215    0.8445   -2.3394 O   0  0  0  0  0  0  0  0  0  0  0  0
   -0.6552   -0.7943   -0.5764 C   0  0  1  0  0  0  0  0  0  0  0  0
    0.6207    0.3141   -0.4408 C   0  0  2  0  0  0  0  0  0  0  0  0
    1.7281   -0.6445   -1.1383 C   0  0  0  0  0  0  0  0  0  0  0  0
    2.9659   -0.2794   -0.3881 C   0  0  0  0  0  0  0  0  0  0  0  0
    2.4403    0.6545    0.8301 C   0  0  2  0  0  0  0  0  0  0  0  0
    3.2875   -0.2793    1.9696 C   0  0  2  0  0  0  0  0  0  0  0  0
    2.9561    0.7429    3.1863 C   0  0  0  0  0  0  0  0  0  0  0  0
    4.6916    0.4580    1.6205 C   0  0  0  0  0  0  0  0  0  0  0  0
    5.4719   -0.6842    0.9748 C   0  0  0  0  0  0  0  0  0  0  0  0
    6.4703   -0.1586    0.0148 C   0  0  0  0  0  0  0  0  0  0  0  0
    6.5889   -0.6510   -1.1356 O   0  0  0  0  0  0  0  0  0  0  0  0
    7.1059    1.0350    0.3506 O   0  0  0  0  0  0  0  0  0  0  0  0
    1.0918   -0.2184    1.0112 C   0  0  2  0  0  0  0  0  0  0  0  0
    1.3639   -1.6290    0.9788 C   0  0  0  0  0  0  0  0  0  0  0  0
    0.1741    0.3971    1.9435 C   0  0  0  0  0  0  0  0  0  0  0  0
   -1.1829   -0.1924    1.6710 C   0  0  0  0  0  0  0  0  0  0  0  0
   -1.6331    0.3098    0.1832 C   0  0  2  0  0  0  0  0  0  0  0  0
   -2.8965   -0.6670    0.1538 C   0  0  1  0  0  0  0  0  0  0  0  0
   -2.4293   -2.0503    0.5936 C   0  0  0  0  0  0  0  0  0  0  0  0
   -3.9079   -0.1811    1.0216 C   0  0  0  0  0  0  0  0  0  0  0  0
   -5.2940   -0.5463    0.9701 C   0  0  0  0  0  0  0  0  0  0  0  0
   -5.7241   -0.9562   -0.5724 C   0  0  1  0  0  0  0  0  0  0  0  0
   -6.8152    0.1112   -0.5959 O   0  0  0  0  0  0  0  0  0  0  0  0
   -4.6264    0.0716   -1.2640 C   0  0  0  0  0  0  0  0  0  0  0  0
   -3.3488   -0.9673   -1.3416 C   0  0  1  0  0  0  0  0  0  0  0  0
  1  2  1  0
  3  2  1  1
  3  4  1  0
  4  5  1  1
  6  4  1  6
  6  7  1  0
  7  8  1  6
  8  9  1  0
 10  9  1  6
 10 11  1  0
 11 12  1  1
 11 13  1  0
 13 14  1  0
 14 15  1  0
 15 16  2  0
 15 17  1  0
 10 18  1  0
 18 19  1  6
 18 20  1  0
 20 21  1  0
 22 21  1  1
 22 23  1  0
 23 24  1  1
 23 25  1  0
 25 26  1  0
 26 27  1  0
 27 28  1  6
 27 29  1  0
 30 29  1  1
 30  3  1  0
 22  6  1  0
 30 23  1  0
 18  7  1  0
M  END
>  <supplier_code>  (1253) 
DB05990

>  <zinc_id>  (1253) 
ZINC000014164617

>  <catalog_short_name>  (1253) 
dbfda

$$$$

     RDKit          3D

 28 30  0  0  0  0  0  0  0  0999 V2000
    6.6641    2.2117    0.4139 C   0  0  0  0  0  0  0  0  0  0  0  0
    5.8592    1.8151    0.1259 N   0  0  0  0  0  0  0  0  0  0  0  0
    4.8540    2.6529   -0.5249 C   0  0  0  0  0  0  0  0  0  0  0  0
    5.7173    0.3890    0.1255 C   0  0  0  0  0  0  0  0  0  0  0  0
    6.6750   -0.3062   -0.2948 O   0  0  0  0  0  0  0  0  0  0  0  0
    4.7169   -0.1758    0.9248 N   0  0  0  0  0  0  0  0  0  0  0  0
    4.6765   -1.7552    0.9931 C   0  0  1  0  0  0  0  0  0  0  0  0
    3.0285   -1.7514    1.0824 C   0  0  0  0  0  0  0  0  0  0  0  0
    2.5166   -2.6729    0.0406 C   0  0  0  0  0  0  0  0  0  0  0  0
    2.2622   -1.7812   -1.3132 C   0  0  1  0  0  0  0  0  0  0  0  0
    1.4588   -0.6085   -0.4927 C   0  0  0  0  0  0  0  0  0  0  0  0
    0.4178   -1.3238    0.3156 C   0  0  0  0  0  0  0  0  0  0  0  0
   -0.8436   -0.6182    0.3537 N   0  0  0  0  0  0  0  0  0  0  0  0
   -1.5479   -1.0529    1.5296 C   0  0  0  0  0  0  0  0  0  0  0  0
   -2.8706   -0.3639    1.6987 C   0  0  0  0  0  0  0  0  0  0  0  0
   -3.0759    0.4840    0.5427 N   0  0  0  0  0  0  0  0  0  0  0  0
   -4.2919    0.2715   -0.1847 C   0  0  0  0  0  0  0  0  0  0  0  0
   -4.7776   -0.9837   -0.4616 C   0  0  0  0  0  0  0  0  0  0  0  0
   -6.1185   -1.2598   -0.6599 C   0  0  0  0  0  0  0  0  0  0  0  0
   -7.0138   -0.2307   -0.4909 C   0  0  0  0  0  0  0  0  0  0  0  0
   -6.5521    1.0790   -0.4425 C   0  0  0  0  0  0  0  0  0  0  0  0
   -7.6088    2.4053   -0.8843 Cl  0  0  0  0  0  0  0  0  0  0  0  0
   -5.2025    1.3066   -0.2052 C   0  0  0  0  0  0  0  0  0  0  0  0
   -4.5710    2.9373   -0.2340 Cl  0  0  0  0  0  0  0  0  0  0  0  0
   -2.0664    1.4069    0.0915 C   0  0  0  0  0  0  0  0  0  0  0  0
   -0.6877    0.8130    0.2664 C   0  0  0  0  0  0  0  0  0  0  0  0
    3.6824   -0.9756   -1.1853 C   0  0  0  0  0  0  0  0  0  0  0  0
    4.6987   -1.9126   -0.6519 C   0  0  0  0  0  0  0  0  0  0  0  0
  1  2  1  0
  2  3  1  0
  2  4  1  0
  4  5  2  0
  4  6  1  0
  7  6  1  6
  7  8  1  0
  8  9  1  0
  9 10  1  0
 10 11  1  1
 11 12  1  0
 12 13  1  0
 13 14  1  0
 14 15  1  0
 15 16  1  0
 16 17  1  0
 17 18  2  0
 18 19  1  0
 19 20  2  0
 20 21  1  0
 21 22  1  0
 21 23  2  0
 23 24  1  0
 16 25  1  0
 25 26  1  0
 10 27  1  0
 27 28  1  0
 28  7  1  0
 26 13  1  0
 23 17  1  0
M  END
>  <supplier_code>  (1254) 
DB06016

>  <zinc_id>  (1254) 
ZINC000100907004

>  <catalog_short_name>  (1254) 
dbfda

$$$$

     RDKit          3D

 10  9  0  0  0  0  0  0  0  0999 V2000
    2.9085   -0.1775    0.0252 C   0  0  0  0  0  0  0  0  0  0  0  0
    1.6615   -0.1754    0.0345 C   0  0  0  0  0  0  0  0  0  0  0  0
    1.1236    0.2898   -1.0208 O   0  0  0  0  0  0  0  0  0  0  0  0
    0.8403    0.0406    1.1216 N   0  0  0  0  0  0  0  0  0  0  0  0
   -0.6794   -0.3778    1.1066 C   0  0  1  0  0  0  0  0  0  0  0  0
   -1.1837    1.1817    1.1376 C   0  0  0  0  0  0  0  0  0  0  0  0
   -1.2518    2.0735   -0.2639 S   0  0  0  0  0  0  0  0  0  0  0  0
   -0.8024   -0.6375   -0.4879 C   0  0  0  0  0  0  0  0  0  0  0  0
   -1.7737   -0.1710   -1.0789 O   0  0  0  0  0  0  0  0  0  0  0  0
   -0.8429   -2.0465   -0.5740 O   0  0  0  0  0  0  0  0  0  0  0  0
  1  2  1  0
  2  3  2  0
  2  4  1  0
  5  4  1  6
  5  6  1  0
  6  7  1  0
  5  8  1  0
  8  9  2  0
  8 10  1  0
M  END
>  <supplier_code>  (1255) 
DB06151

>  <zinc_id>  (1255) 
ZINC000003589203

>  <catalog_short_name>  (1255) 
dbfda

$$$$

     RDKit          3D

 36 36  0  0  0  0  0  0  0  0999 V2000
    0.0607   -4.8340    2.6153 C   0  0  0  0  0  0  0  0  0  0  0  0
   -0.0716   -4.5393    1.3126 C   0  0  0  0  0  0  0  0  0  0  0  0
    0.0703   -3.2685    0.9612 C   0  0  0  0  0  0  0  0  0  0  0  0
    0.0661   -2.1695    1.8812 N   0  0  0  0  0  0  0  0  0  0  0  0
   -0.8560   -1.1158    1.5760 C   0  0  0  0  0  0  0  0  0  0  0  0
   -0.8548   -0.0455    2.1908 O   0  0  0  0  0  0  0  0  0  0  0  0
   -2.0111   -1.4280    0.4992 C   0  0  1  0  0  0  0  0  0  0  0  0
   -2.7504   -2.5052    1.5015 C   0  0  0  0  0  0  0  0  0  0  0  0
   -3.8073   -3.5284    0.4320 S   0  0  0  0  0  0  0  0  0  0  0  0
   -2.9598   -0.2639    0.9537 N   0  0  0  0  0  0  0  0  0  0  0  0
   -2.5732    1.0280    0.4744 C   0  0  0  0  0  0  0  0  0  0  0  0
   -2.9317    2.0089    1.0836 O   0  0  0  0  0  0  0  0  0  0  0  0
   -2.4047    1.0249   -1.1154 C   0  0  1  0  0  0  0  0  0  0  0  0
   -3.9667    1.4171   -1.4035 C   0  0  0  0  0  0  0  0  0  0  0  0
   -4.3023    2.7335   -0.8252 C   0  0  0  0  0  0  0  0  0  0  0  0
   -3.9457    1.6871   -2.9081 C   0  0  0  0  0  0  0  0  0  0  0  0
   -1.8952    2.5658   -1.2511 C   0  0  0  0  0  0  0  0  0  0  0  0
   -0.9770    2.9281   -0.2179 C   0  0  0  0  0  0  0  0  0  0  0  0
   -1.1033    4.0933    0.1793 O   0  0  0  0  0  0  0  0  0  0  0  0
    0.0931    2.2075    0.4491 C   0  0  0  0  0  0  0  0  0  0  0  0
    0.8670    1.2743   -0.6690 C   0  0  1  0  0  0  0  0  0  0  0  0
    1.5900    2.5945   -1.2678 C   0  0  0  0  0  0  0  0  0  0  0  0
    2.8689    2.6666   -1.3557 C   0  0  0  0  0  0  0  0  0  0  0  0
    3.6983    3.9100   -1.1791 C   0  0  0  0  0  0  0  0  0  0  0  0
    4.6412    3.5913   -0.0223 C   0  0  0  0  0  0  0  0  0  0  0  0
    4.0050    4.1498    1.5639 S   0  0  0  0  0  0  0  0  0  0  0  0
    2.0009    0.9584    0.3275 O   0  0  0  0  0  0  0  0  0  0  0  0
    2.6500   -0.0570   -0.3919 C   0  0  0  0  0  0  0  0  0  0  0  0
    3.9235   -0.0343   -0.2801 O   0  0  0  0  0  0  0  0  0  0  0  0
    2.0070   -1.3769    0.2866 C   0  0  2  0  0  0  0  0  0  0  0  0
    2.9046   -2.2921   -0.7415 C   0  0  0  0  0  0  0  0  0  0  0  0
    3.1604   -3.5946   -0.2311 C   0  0  0  0  0  0  0  0  0  0  0  0
    2.5064   -2.0491   -2.1216 C   0  0  0  0  0  0  0  0  0  0  0  0
    0.6917   -1.4882   -0.5847 N   0  0  0  0  0  0  0  0  0  0  0  0
   -0.0081   -2.7380   -0.4090 C   0  0  0  0  0  0  0  0  0  0  0  0
   -0.3860   -3.5110   -1.3128 O   0  0  0  0  0  0  0  0  0  0  0  0
  1  2  1  0
  2  3  2  0
  3  4  1  0
  4  5  1  0
  5  6  2  0
  5  7  1  0
  7  8  1  1
  8  9  1  0
  7 10  1  0
 10 11  1  0
 11 12  2  0
 11 13  1  0
 13 14  1  6
 14 15  1  0
 14 16  1  0
 13 17  1  0
 17 18  1  0
 18 19  2  0
 18 20  1  0
 20 21  1  0
 21 22  1  6
 22 23  2  0
 23 24  1  0
 24 25  1  0
 25 26  1  0
 21 27  1  0
 27 28  1  0
 28 29  2  0
 28 30  1  0
 30 31  1  6
 31 32  1  0
 31 33  1  0
 30 34  1  0
 34 35  1  0
 35 36  2  0
 35  3  1  0
M  END
>  <supplier_code>  (1256) 
DB06176

>  <zinc_id>  (1256) 
ZINC000100371951

>  <catalog_short_name>  (1256) 
dbfda

$$$$

     RDKit          3D

 36 37  0  0  0  0  0  0  0  0999 V2000
   -0.2869   -4.7261   -1.2873 C   0  0  0  0  0  0  0  0  0  0  0  0
   -0.6875   -4.0515   -1.6678 C   0  0  0  0  0  0  0  0  0  0  0  0
   -0.7828   -2.7990   -1.1878 C   0  0  0  0  0  0  0  0  0  0  0  0
   -1.2768   -2.6517    0.1502 N   0  0  0  0  0  0  0  0  0  0  0  0
   -0.7960   -2.0823    1.2153 C   0  0  0  0  0  0  0  0  0  0  0  0
   -0.3378   -2.6969    2.2057 O   0  0  0  0  0  0  0  0  0  0  0  0
    0.2754   -1.2213    0.3542 C   0  0  1  0  0  0  0  0  0  0  0  0
    0.8279   -0.4751    1.6867 C   0  0  0  0  0  0  0  0  0  0  0  0
   -0.1904   -0.4485    3.0687 S   0  0  0  0  0  0  0  0  0  0  0  0
   -0.1414    1.1751    4.3146 S   0  0  0  0  0  0  0  0  0  0  0  0
   -1.1515    2.5086    3.5951 C   0  0  0  0  0  0  0  0  0  0  0  0
   -0.1391    3.4827    3.0414 C   0  0  0  0  0  0  0  0  0  0  0  0
   -0.6408    4.1951    1.8290 C   0  0  0  0  0  0  0  0  0  0  0  0
   -0.2067    3.9108    0.5922 C   0  0  0  0  0  0  0  0  0  0  0  0
   -0.3127    2.2978    0.4617 C   0  0  2  0  0  0  0  0  0  0  0  0
    0.4527    2.2892   -0.9958 C   0  0  0  0  0  0  0  0  0  0  0  0
    1.8662    1.8481   -0.7207 C   0  0  0  0  0  0  0  0  0  0  0  0
    2.5949    2.8775   -0.8965 O   0  0  0  0  0  0  0  0  0  0  0  0
    2.2988    0.5108   -1.0112 N   0  0  0  0  0  0  0  0  0  0  0  0
    3.0526   -0.2700    0.1358 C   0  0  2  0  0  0  0  0  0  0  0  0
    4.4930   -0.3526   -0.6565 C   0  0  0  0  0  0  0  0  0  0  0  0
    5.4831    0.2540    0.3385 C   0  0  0  0  0  0  0  0  0  0  0  0
    4.5039    0.5251   -1.8317 C   0  0  0  0  0  0  0  0  0  0  0  0
    2.5498   -1.7129   -0.3815 C   0  0  0  0  0  0  0  0  0  0  0  0
    2.9575   -2.1560   -1.4540 O   0  0  0  0  0  0  0  0  0  0  0  0
    1.4516   -2.2734    0.3601 N   0  0  0  0  0  0  0  0  0  0  0  0
   -1.7231    2.3652   -0.1514 O   0  0  0  0  0  0  0  0  0  0  0  0
   -2.4266    1.1742    0.1862 C   0  0  0  0  0  0  0  0  0  0  0  0
   -3.6634    1.2120    0.2194 O   0  0  0  0  0  0  0  0  0  0  0  0
   -1.7572    0.0735   -0.8058 C   0  0  2  0  0  0  0  0  0  0  0  0
   -2.6959    0.5747   -2.0708 C   0  0  0  0  0  0  0  0  0  0  0  0
   -4.0957    0.0503   -1.8938 C   0  0  0  0  0  0  0  0  0  0  0  0
   -2.8944    1.9195   -2.1969 C   0  0  0  0  0  0  0  0  0  0  0  0
   -2.6341   -1.1857   -0.5214 N   0  0  0  0  0  0  0  0  0  0  0  0
   -1.6878   -1.7750   -1.5086 C   0  0  0  0  0  0  0  0  0  0  0  0
   -2.2786   -2.3661   -2.5152 O   0  0  0  0  0  0  0  0  0  0  0  0
  1  2  1  0
  2  3  2  0
  3  4  1  0
  4  5  1  0
  5  6  2  0
  7  5  1  1
  7  8  1  0
  8  9  1  0
  9 10  1  0
 10 11  1  0
 11 12  1  0
 12 13  1  0
 13 14  2  0
 15 14  1  1
 15 16  1  0
 16 17  1  0
 17 18  2  0
 17 19  1  0
 19 20  1  0
 20 21  1  6
 21 22  1  0
 21 23  1  0
 20 24  1  0
 24 25  2  0
 24 26  1  0
 15 27  1  0
 27 28  1  0
 28 29  2  0
 28 30  1  0
 30 31  1  6
 31 32  1  0
 31 33  1  0
 30 34  1  0
 34 35  1  0
 35 36  2  0
 35  3  1  0
 26  7  1  0
M  END
>  <supplier_code>  (1257) 
DB06176

>  <zinc_id>  (1257) 
ZINC000254134439

>  <catalog_short_name>  (1257) 
dbfda

$$$$

     RDKit          3D

 36 37  0  0  0  0  0  0  0  0999 V2000
   -4.7520   -2.4230    0.7343 C   0  0  0  0  0  0  0  0  0  0  0  0
   -3.8476   -2.6304   -0.2615 C   0  0  0  0  0  0  0  0  0  0  0  0
   -2.6732   -2.0157   -0.1275 C   0  0  0  0  0  0  0  0  0  0  0  0
   -1.5687   -2.0802   -1.0413 N   0  0  0  0  0  0  0  0  0  0  0  0
   -0.4131   -2.3279   -0.3458 C   0  0  0  0  0  0  0  0  0  0  0  0
    0.3573   -3.2371   -0.7936 O   0  0  0  0  0  0  0  0  0  0  0  0
    0.1196   -1.5918    0.9612 C   0  0  1  0  0  0  0  0  0  0  0  0
    0.4533   -2.9668    1.8096 C   0  0  0  0  0  0  0  0  0  0  0  0
    1.5396   -2.2028    3.0738 S   0  0  0  0  0  0  0  0  0  0  0  0
    0.5504   -0.6283    4.1087 S   0  0  0  0  0  0  0  0  0  0  0  0
    1.3338    0.9877    3.7783 C   0  0  0  0  0  0  0  0  0  0  0  0
    0.4391    1.6935    2.8185 C   0  0  0  0  0  0  0  0  0  0  0  0
    1.0187    2.8730    2.1622 C   0  0  0  0  0  0  0  0  0  0  0  0
    0.3949    3.2498    1.0331 C   0  0  0  0  0  0  0  0  0  0  0  0
    0.5645    2.0496   -0.0460 C   0  0  2  0  0  0  0  0  0  0  0  0
    1.7946    2.8566   -0.7985 C   0  0  0  0  0  0  0  0  0  0  0  0
    1.9598    1.9915   -2.0025 C   0  0  0  0  0  0  0  0  0  0  0  0
    1.4847    2.3620   -3.1152 O   0  0  0  0  0  0  0  0  0  0  0  0
    2.8852    0.9206   -1.9261 N   0  0  0  0  0  0  0  0  0  0  0  0
    3.0077    0.3011   -0.4826 C   0  0  2  0  0  0  0  0  0  0  0  0
    4.3286   -0.5892   -0.8934 C   0  0  0  0  0  0  0  0  0  0  0  0
    5.5044    0.1590   -0.3550 C   0  0  0  0  0  0  0  0  0  0  0  0
    4.1716   -1.8344   -0.0287 C   0  0  0  0  0  0  0  0  0  0  0  0
    1.9499   -0.8919   -0.7812 C   0  0  0  0  0  0  0  0  0  0  0  0
    2.2783   -1.4740   -1.8707 O   0  0  0  0  0  0  0  0  0  0  0  0
    1.6061   -1.4956    0.4259 N   0  0  0  0  0  0  0  0  0  0  0  0
   -0.4636    2.6867   -0.9927 O   0  0  0  0  0  0  0  0  0  0  0  0
   -1.7098    2.0758   -0.7831 C   0  0  0  0  0  0  0  0  0  0  0  0
   -2.5560    2.8388   -1.3231 O   0  0  0  0  0  0  0  0  0  0  0  0
   -1.6785    0.5330   -1.2500 C   0  0  2  0  0  0  0  0  0  0  0  0
   -3.3142    0.4448   -1.4571 C   0  0  0  0  0  0  0  0  0  0  0  0
   -3.5853    1.0634   -2.7916 C   0  0  0  0  0  0  0  0  0  0  0  0
   -3.9565    1.1129   -0.3056 C   0  0  0  0  0  0  0  0  0  0  0  0
   -1.6637    0.0446    0.2368 N   0  0  0  0  0  0  0  0  0  0  0  0
   -2.3995   -0.9214    0.8036 C   0  0  0  0  0  0  0  0  0  0  0  0
   -3.1605   -0.9339    1.8270 O   0  0  0  0  0  0  0  0  0  0  0  0
  1  2  1  0
  2  3  2  0
  3  4  1  0
  4  5  1  0
  5  6  2  0
  7  5  1  6
  7  8  1  0
  8  9  1  0
  9 10  1  0
 10 11  1  0
 11 12  1  0
 12 13  1  0
 13 14  2  0
 15 14  1  1
 15 16  1  0
 16 17  1  0
 17 18  2  0
 17 19  1  0
 19 20  1  0
 20 21  1  6
 21 22  1  0
 21 23  1  0
 20 24  1  0
 24 25  2  0
 24 26  1  0
 15 27  1  0
 27 28  1  0
 28 29  2  0
 28 30  1  0
 30 31  1  1
 31 32  1  0
 31 33  1  0
 30 34  1  0
 34 35  1  0
 35 36  2  0
 35  3  1  0
 26  7  1  0
M  END
>  <supplier_code>  (1258) 
DB06176

>  <zinc_id>  (1258) 
ZINC000306122005

>  <catalog_short_name>  (1258) 
dbfda

$$$$

     RDKit          3D

 17 18  0  0  0  0  0  0  0  0999 V2000
    4.0094    1.4497    1.9406 N   0  0  0  0  0  0  0  0  0  0  0  0
    4.1142    0.3678    1.0070 C   0  0  0  0  0  0  0  0  0  0  0  0
    4.9679    0.5360    0.0848 O   0  0  0  0  0  0  0  0  0  0  0  0
    2.8363   -0.2387    0.6135 C   0  0  0  0  0  0  0  0  0  0  0  0
    1.6179    0.3871    0.4474 C   0  0  0  0  0  0  0  0  0  0  0  0
    0.7071   -0.5122    0.0009 N   0  0  0  0  0  0  0  0  0  0  0  0
   -0.3442   -0.1153   -0.9299 C   0  0  0  0  0  0  0  0  0  0  0  0
   -1.6995   -0.2293   -0.3058 C   0  0  0  0  0  0  0  0  0  0  0  0
   -2.1002    0.7770    0.5651 C   0  0  0  0  0  0  0  0  0  0  0  0
   -1.2026    1.4778    1.2826 F   0  0  0  0  0  0  0  0  0  0  0  0
   -3.4308    1.1572    0.6869 C   0  0  0  0  0  0  0  0  0  0  0  0
   -4.3209    0.8129   -0.3202 C   0  0  0  0  0  0  0  0  0  0  0  0
   -4.0317   -0.3784   -0.9761 C   0  0  0  0  0  0  0  0  0  0  0  0
   -2.6918   -0.6842   -1.1678 C   0  0  0  0  0  0  0  0  0  0  0  0
   -2.4379   -1.6489   -2.1000 F   0  0  0  0  0  0  0  0  0  0  0  0
    1.3448   -1.6811    0.0586 N   0  0  0  0  0  0  0  0  0  0  0  0
    2.6620   -1.4774    0.0936 N   0  0  0  0  0  0  0  0  0  0  0  0
  1  2  1  0
  2  3  2  0
  2  4  1  0
  4  5  2  0
  5  6  1  0
  6  7  1  0
  7  8  1  0
  8  9  2  0
  9 10  1  0
  9 11  1  0
 11 12  2  0
 12 13  1  0
 13 14  2  0
 14 15  1  0
  6 16  1  0
 16 17  2  0
 17  4  1  0
 14  8  1  0
M  END
>  <supplier_code>  (1259) 
DB06201

>  <zinc_id>  (1259) 
ZINC000000007782

>  <catalog_short_name>  (1259) 
dbfda

$$$$

     RDKit          3D

 25 27  0  0  0  0  0  0  0  0999 V2000
    0.0009    4.2865    0.1087 C   0  0  0  0  0  0  0  0  0  0  0  0
   -0.3818    3.0238   -0.1525 N   0  0  0  0  0  0  0  0  0  0  0  0
   -1.4009    2.8557   -1.0291 C   0  0  0  0  0  0  0  0  0  0  0  0
   -2.2014    3.8336   -1.1445 O   0  0  0  0  0  0  0  0  0  0  0  0
   -1.8803    1.5577   -1.1607 C   0  0  0  0  0  0  0  0  0  0  0  0
   -1.2379    0.5350   -0.4764 C   0  0  0  0  0  0  0  0  0  0  0  0
   -1.9951   -0.6410   -0.1400 N   0  0  0  0  0  0  0  0  0  0  0  0
   -2.5301   -1.2063   -1.3812 C   0  0  0  0  0  0  0  0  0  0  0  0
   -3.6435   -2.1352   -0.9099 C   0  0  0  0  0  0  0  0  0  0  0  0
   -2.9765   -2.7715    0.3132 C   0  0  0  0  0  0  0  0  0  0  0  0
   -3.6223   -1.7390    1.4528 C   0  0  1  0  0  0  0  0  0  0  0  0
   -2.5540   -2.2220    2.5397 N   0  0  0  0  0  0  0  0  0  0  0  0
   -2.6872   -0.4329    1.0590 C   0  0  0  0  0  0  0  0  0  0  0  0
    0.0152    0.7578   -0.0905 N   0  0  0  0  0  0  0  0  0  0  0  0
    0.7831   -0.3647    0.3495 C   0  0  0  0  0  0  0  0  0  0  0  0
    2.1292   -0.4615   -0.2479 C   0  0  0  0  0  0  0  0  0  0  0  0
    2.8822    0.5924   -0.6881 C   0  0  0  0  0  0  0  0  0  0  0  0
    4.2369    0.6587   -0.4161 C   0  0  0  0  0  0  0  0  0  0  0  0
    4.9031   -0.4129    0.1672 C   0  0  0  0  0  0  0  0  0  0  0  0
    4.1716   -1.5767    0.2852 C   0  0  0  0  0  0  0  0  0  0  0  0
    2.8234   -1.6497   -0.0486 C   0  0  0  0  0  0  0  0  0  0  0  0
    2.1283   -2.9033   -0.0192 C   0  0  0  0  0  0  0  0  0  0  0  0
    1.4514   -3.8295    0.1587 N   0  0  0  0  0  0  0  0  0  0  0  0
    0.4284    2.0106    0.2280 C   0  0  0  0  0  0  0  0  0  0  0  0
    1.1572    2.2345    1.2427 O   0  0  0  0  0  0  0  0  0  0  0  0
  1  2  1  0
  2  3  1  0
  3  4  2  0
  3  5  1  0
  5  6  2  0
  6  7  1  0
  7  8  1  0
  8  9  1  0
  9 10  1  0
 10 11  1  0
 11 12  1  1
 11 13  1  0
  6 14  1  0
 14 15  1  0
 15 16  1  0
 16 17  2  0
 17 18  1  0
 18 19  2  0
 19 20  1  0
 20 21  2  0
 21 22  1  0
 22 23  3  0
 14 24  1  0
 24 25  2  0
 24  2  1  0
 13  7  1  0
 21 16  1  0
M  END
>  <supplier_code>  (1260) 
DB06203

>  <zinc_id>  (1260) 
ZINC000014961096

>  <catalog_short_name>  (1260) 
dbfda

$$$$

     RDKit          3D

 16 16  0  0  0  0  0  0  0  0999 V2000
    0.1317   -2.7670   -0.3945 C   0  0  0  0  0  0  0  0  0  0  0  0
   -0.0223   -2.2716   -1.3311 C   0  0  0  0  0  0  0  0  0  0  0  0
    0.2264   -0.6679   -1.2830 C   0  0  1  0  0  0  0  0  0  0  0  0
   -1.1143   -0.3659   -0.4865 C   0  0  0  0  0  0  0  0  0  0  0  0
   -1.4541   -1.1034    0.5907 C   0  0  0  0  0  0  0  0  0  0  0  0
   -2.6511   -0.7763    1.2201 C   0  0  0  0  0  0  0  0  0  0  0  0
   -3.1612    0.5091    1.0852 C   0  0  0  0  0  0  0  0  0  0  0  0
   -2.6263    1.3671    0.1321 C   0  0  0  0  0  0  0  0  0  0  0  0
   -2.6957    2.7447    0.3623 O   0  0  0  0  0  0  0  0  0  0  0  0
   -1.7615    0.8175   -0.8066 C   0  0  0  0  0  0  0  0  0  0  0  0
    1.1472   -0.7852    0.1358 C   0  0  1  0  0  0  0  0  0  0  0  0
    2.4325   -1.3383   -0.6758 C   0  0  0  0  0  0  0  0  0  0  0  0
    1.5893    0.7655    0.0228 C   0  0  0  0  0  0  0  0  0  0  0  0
    2.9801    0.8613    0.3336 N   0  0  0  0  0  0  0  0  0  0  0  0
    3.2621    1.2924    1.6773 C   0  0  0  0  0  0  0  0  0  0  0  0
    3.7172    1.7180   -0.5826 C   0  0  0  0  0  0  0  0  0  0  0  0
  1  2  1  0
  3  2  1  1
  3  4  1  0
  4  5  2  0
  5  6  1  0
  6  7  2  0
  7  8  1  0
  8  9  1  0
  8 10  2  0
  3 11  1  0
 11 12  1  6
 11 13  1  0
 13 14  1  0
 14 15  1  0
 14 16  1  0
 10  4  1  0
M  END
>  <supplier_code>  (1261) 
DB06204

>  <zinc_id>  (1261) 
ZINC000000020783

>  <catalog_short_name>  (1261) 
dbfda

$$$$

     RDKit          3D

 35 37  0  0  0  0  0  0  0  0999 V2000
    0.0110   -1.1840    0.1999 C   0  0  0  0  0  0  0  0  0  0  0  0
    0.0812   -0.0913    1.4285 C   0  0  2  0  0  0  0  0  0  0  0  0
   -0.4559    1.1228    0.4556 C   0  0  0  0  0  0  0  0  0  0  0  0
   -1.9194    0.8153    0.4057 C   0  0  0  0  0  0  0  0  0  0  0  0
   -2.4265   -0.0398   -0.5652 C   0  0  0  0  0  0  0  0  0  0  0  0
   -3.7237   -0.5232   -0.4444 C   0  0  0  0  0  0  0  0  0  0  0  0
   -4.5145   -0.0933    0.6143 C   0  0  0  0  0  0  0  0  0  0  0  0
   -3.8958    0.4936    1.7087 C   0  0  0  0  0  0  0  0  0  0  0  0
   -4.6300    0.3932    2.9764 C   0  0  0  0  0  0  0  0  0  0  0  0
   -4.1562   -0.6164    3.8757 N   0  0  0  0  0  0  0  0  0  0  0  0
   -5.1636    1.4154    3.4574 O   0  0  0  0  0  0  0  0  0  0  0  0
   -2.5425    0.7260    1.6447 C   0  0  0  0  0  0  0  0  0  0  0  0
   -5.8780   -0.1866    0.2506 N   0  0  0  0  0  0  0  0  0  0  0  0
   -6.9465    0.5257    0.9265 C   0  0  0  0  0  0  0  0  0  0  0  0
   -7.7451    1.3202   -0.0781 C   0  0  0  0  0  0  0  0  0  0  0  0
   -7.0027    1.4939   -1.3807 C   0  0  0  0  0  0  0  0  0  0  0  0
   -7.7877    1.1452   -2.4872 O   0  0  0  0  0  0  0  0  0  0  0  0
   -6.0025   -1.0370   -0.9136 C   0  0  0  0  0  0  0  0  0  0  0  0
   -4.5954   -1.2650   -1.3953 C   0  0  0  0  0  0  0  0  0  0  0  0
    1.5828    0.3158    1.2075 N   0  0  0  0  0  0  0  0  0  0  0  0
    2.1185   -0.2604    0.0615 C   0  0  0  0  0  0  0  0  0  0  0  0
    2.7559   -1.6222    0.3140 C   0  0  0  0  0  0  0  0  0  0  0  0
    3.4795   -1.9148   -0.8781 O   0  0  0  0  0  0  0  0  0  0  0  0
    3.9800   -0.8789   -1.6740 C   0  0  0  0  0  0  0  0  0  0  0  0
    3.0794   -0.2262   -2.4872 C   0  0  0  0  0  0  0  0  0  0  0  0
    3.5755    0.3802   -3.6263 C   0  0  0  0  0  0  0  0  0  0  0  0
    4.9371    0.6316   -3.6849 C   0  0  0  0  0  0  0  0  0  0  0  0
    5.7878    0.2247   -2.6639 C   0  0  0  0  0  0  0  0  0  0  0  0
    5.2876   -0.4196   -1.5372 C   0  0  0  0  0  0  0  0  0  0  0  0
    6.0792   -1.2286   -0.7347 O   0  0  0  0  0  0  0  0  0  0  0  0
    7.3168   -0.9076   -0.2014 C   0  0  0  0  0  0  0  0  0  0  0  0
    7.2947   -0.0208    1.0003 C   0  0  0  0  0  0  0  0  0  0  0  0
    7.5495   -0.7020    2.1859 F   0  0  0  0  0  0  0  0  0  0  0  0
    6.1202    0.6590    1.1822 F   0  0  0  0  0  0  0  0  0  0  0  0
    8.3490    0.8764    0.8568 F   0  0  0  0  0  0  0  0  0  0  0  0
  2  1  1  6
  2  3  1  0
  3  4  1  0
  4  5  2  0
  5  6  1  0
  6  7  2  0
  7  8  1  0
  8  9  1  0
  9 10  1  0
  9 11  2  0
  8 12  2  0
  7 13  1  0
 13 14  1  0
 14 15  1  0
 15 16  1  0
 16 17  1  0
 13 18  1  0
 18 19  1  0
  2 20  1  0
 20 21  1  0
 21 22  1  0
 22 23  1  0
 23 24  1  0
 24 25  2  0
 25 26  1  0
 26 27  2  0
 27 28  1  0
 28 29  2  0
 29 30  1  0
 30 31  1  0
 31 32  1  0
 32 33  1  0
 32 34  1  0
 32 35  1  0
 12  4  1  0
 29 24  1  0
 19  6  1  0
M  END
>  <supplier_code>  (1262) 
DB06207

>  <zinc_id>  (1262) 
ZINC000003806063

>  <catalog_short_name>  (1262) 
dbfda

$$$$

     RDKit          3D

 26 29  0  0  0  0  0  0  0  0999 V2000
    6.5643   -1.2176    0.7226 C   0  0  0  0  0  0  0  0  0  0  0  0
    5.7495   -0.1024    0.3707 C   0  0  0  0  0  0  0  0  0  0  0  0
    5.3347   -0.0128   -0.8252 O   0  0  0  0  0  0  0  0  0  0  0  0
    4.9736    0.5986    1.3020 O   0  0  0  0  0  0  0  0  0  0  0  0
    3.6280    0.8598    1.0064 C   0  0  0  0  0  0  0  0  0  0  0  0
    2.4801    0.2722    1.4414 C   0  0  0  0  0  0  0  0  0  0  0  0
    1.5526    0.1165    0.4210 C   0  0  0  0  0  0  0  0  0  0  0  0
    1.4157    1.2799   -0.3120 C   0  0  0  0  0  0  0  0  0  0  0  0
    2.9812    1.9649   -0.1398 S   0  0  0  0  0  0  0  0  0  0  0  0
    0.4232    1.3143   -1.4363 C   0  0  0  0  0  0  0  0  0  0  0  0
    0.1302   -0.1262   -1.7465 C   0  0  0  0  0  0  0  0  0  0  0  0
   -0.5034   -0.7506   -0.5797 N   0  0  0  0  0  0  0  0  0  0  0  0
   -1.0849    0.4553    0.2607 C   0  0  2  0  0  0  0  0  0  0  0  0
   -1.8187   -0.4591    1.3762 C   0  0  0  0  0  0  0  0  0  0  0  0
   -1.8777    0.2364    2.3926 O   0  0  0  0  0  0  0  0  0  0  0  0
   -1.8964   -1.8087    1.4011 C   0  0  0  0  0  0  0  0  0  0  0  0
   -1.4524   -3.0586    1.8040 C   0  0  0  0  0  0  0  0  0  0  0  0
   -2.9492   -2.6437    1.9333 C   0  0  0  0  0  0  0  0  0  0  0  0
   -2.3994    0.6490   -0.6532 C   0  0  0  0  0  0  0  0  0  0  0  0
   -2.7769    1.9799   -0.7904 C   0  0  0  0  0  0  0  0  0  0  0  0
   -4.0102    2.2479   -1.3705 C   0  0  0  0  0  0  0  0  0  0  0  0
   -4.9290    1.2070   -1.4243 C   0  0  0  0  0  0  0  0  0  0  0  0
   -4.4688   -0.1029   -1.3803 C   0  0  0  0  0  0  0  0  0  0  0  0
   -3.1915   -0.3963   -0.9057 C   0  0  0  0  0  0  0  0  0  0  0  0
   -2.5181   -1.4408   -1.4692 F   0  0  0  0  0  0  0  0  0  0  0  0
    0.6435   -1.0621    0.2744 C   0  0  0  0  0  0  0  0  0  0  0  0
  1  2  1  0
  2  3  2  0
  2  4  1  0
  4  5  1  0
  5  6  2  0
  6  7  1  0
  7  8  2  0
  8  9  1  0
  8 10  1  0
 10 11  1  0
 11 12  1  0
 13 12  1  6
 13 14  1  0
 14 15  2  0
 14 16  1  0
 16 17  1  0
 17 18  1  0
 13 19  1  0
 19 20  2  0
 20 21  1  0
 21 22  2  0
 22 23  1  0
 23 24  2  0
 24 25  1  0
 12 26  1  0
  9  5  1  0
 18 16  1  0
 24 19  1  0
 26  7  1  0
M  END
>  <supplier_code>  (1263) 
DB06209

>  <zinc_id>  (1263) 
ZINC000035653007

>  <catalog_short_name>  (1263) 
dbfda

$$$$

     RDKit          3D

 26 29  0  0  0  0  0  0  0  0999 V2000
    6.6165    1.5555   -0.0315 C   0  0  0  0  0  0  0  0  0  0  0  0
    5.5256    1.0793    0.0909 C   0  0  0  0  0  0  0  0  0  0  0  0
    4.5105    1.8154   -0.0972 O   0  0  0  0  0  0  0  0  0  0  0  0
    5.3027   -0.2313    0.5264 O   0  0  0  0  0  0  0  0  0  0  0  0
    4.0077   -0.7607    0.5968 C   0  0  0  0  0  0  0  0  0  0  0  0
    2.9198   -0.2724    1.3120 C   0  0  0  0  0  0  0  0  0  0  0  0
    1.7350   -0.7053    0.7263 C   0  0  0  0  0  0  0  0  0  0  0  0
    1.7599   -2.0878    0.5765 C   0  0  0  0  0  0  0  0  0  0  0  0
    3.4235   -2.3336    0.2266 S   0  0  0  0  0  0  0  0  0  0  0  0
    0.4600   -2.7726    0.2905 C   0  0  0  0  0  0  0  0  0  0  0  0
   -0.2939   -1.8136   -0.6252 C   0  0  0  0  0  0  0  0  0  0  0  0
   -0.6592   -0.6700    0.2122 N   0  0  0  0  0  0  0  0  0  0  0  0
   -1.2120    0.2944   -0.9552 C   0  0  1  0  0  0  0  0  0  0  0  0
   -2.3365   -0.8176   -1.4213 C   0  0  0  0  0  0  0  0  0  0  0  0
   -2.0053   -1.3563   -2.4648 O   0  0  0  0  0  0  0  0  0  0  0  0
   -3.2910   -1.2883   -0.4729 C   0  0  0  0  0  0  0  0  0  0  0  0
   -3.1506   -1.5082    0.9573 C   0  0  0  0  0  0  0  0  0  0  0  0
   -3.5058   -2.6657   -0.0174 C   0  0  0  0  0  0  0  0  0  0  0  0
   -2.2671    1.0503    0.0634 C   0  0  0  0  0  0  0  0  0  0  0  0
   -1.6381    1.6627    1.1226 C   0  0  0  0  0  0  0  0  0  0  0  0
   -2.4328    2.4286    1.9580 C   0  0  0  0  0  0  0  0  0  0  0  0
   -3.6421    2.9053    1.4675 C   0  0  0  0  0  0  0  0  0  0  0  0
   -3.8614    2.7871    0.1015 C   0  0  0  0  0  0  0  0  0  0  0  0
   -3.1493    1.8608   -0.6482 C   0  0  0  0  0  0  0  0  0  0  0  0
   -3.3024    1.7517   -1.9967 F   0  0  0  0  0  0  0  0  0  0  0  0
    0.4866    0.0923    0.6134 C   0  0  0  0  0  0  0  0  0  0  0  0
  1  2  1  0
  2  3  2  0
  2  4  1  0
  4  5  1  0
  5  6  2  0
  6  7  1  0
  7  8  2  0
  8  9  1  0
  8 10  1  0
 10 11  1  0
 11 12  1  0
 13 12  1  1
 13 14  1  0
 14 15  2  0
 14 16  1  0
 16 17  1  0
 17 18  1  0
 13 19  1  0
 19 20  2  0
 20 21  1  0
 21 22  2  0
 22 23  1  0
 23 24  2  0
 24 25  1  0
 12 26  1  0
  9  5  1  0
 18 16  1  0
 24 19  1  0
 26  7  1  0
M  END
>  <supplier_code>  (1264) 
DB06209

>  <zinc_id>  (1264) 
ZINC000035653009

>  <catalog_short_name>  (1264) 
dbfda

$$$$

     RDKit          3D

 33 36  0  0  0  0  0  0  0  0999 V2000
    2.7698    0.6742    3.7321 C   0  0  0  0  0  0  0  0  0  0  0  0
    2.9636    0.0633    2.3821 C   0  0  0  0  0  0  0  0  0  0  0  0
    4.1311   -0.2645    1.9346 N   0  0  0  0  0  0  0  0  0  0  0  0
    4.0864   -0.4354    0.5379 N   0  0  0  0  0  0  0  0  0  0  0  0
    5.1470   -0.2401   -0.4051 C   0  0  0  0  0  0  0  0  0  0  0  0
    6.2721   -1.0553   -0.4218 C   0  0  0  0  0  0  0  0  0  0  0  0
    7.5443   -0.5270   -0.6046 C   0  0  0  0  0  0  0  0  0  0  0  0
    7.6973    0.7969   -0.9926 C   0  0  0  0  0  0  0  0  0  0  0  0
    8.8736    1.5933   -0.5228 C   0  0  0  0  0  0  0  0  0  0  0  0
    6.5354    1.4596   -1.3649 C   0  0  0  0  0  0  0  0  0  0  0  0
    6.7094    2.7999   -1.9879 C   0  0  0  0  0  0  0  0  0  0  0  0
    5.2782    0.9736   -1.0687 C   0  0  0  0  0  0  0  0  0  0  0  0
    2.7102   -0.5862    0.1711 C   0  0  0  0  0  0  0  0  0  0  0  0
    2.2114   -0.7823   -0.9689 O   0  0  0  0  0  0  0  0  0  0  0  0
    1.9440   -0.2603    1.3785 C   0  0  0  0  0  0  0  0  0  0  0  0
    0.7127    0.1547    1.4251 N   0  0  0  0  0  0  0  0  0  0  0  0
   -0.0025    0.1208    0.2284 N   0  0  0  0  0  0  0  0  0  0  0  0
   -1.1204   -0.7353    0.0063 C   0  0  0  0  0  0  0  0  0  0  0  0
   -1.3670   -1.6860    0.9879 C   0  0  0  0  0  0  0  0  0  0  0  0
   -2.5577   -2.3523    1.0906 C   0  0  0  0  0  0  0  0  0  0  0  0
   -3.5231   -2.0647    0.1337 C   0  0  0  0  0  0  0  0  0  0  0  0
   -3.4399   -0.9454   -0.6835 C   0  0  0  0  0  0  0  0  0  0  0  0
   -4.6222   -0.1551   -1.0450 C   0  0  0  0  0  0  0  0  0  0  0  0
   -4.5364    1.2117   -1.2788 C   0  0  0  0  0  0  0  0  0  0  0  0
   -5.4641    2.1080   -0.7732 C   0  0  0  0  0  0  0  0  0  0  0  0
   -6.6957    1.6031   -0.4233 C   0  0  0  0  0  0  0  0  0  0  0  0
   -6.9275    0.2402   -0.4010 C   0  0  0  0  0  0  0  0  0  0  0  0
   -8.1620   -0.2039    0.2342 C   0  0  0  0  0  0  0  0  0  0  0  0
   -8.6705    0.4606    1.1797 O   0  0  0  0  0  0  0  0  0  0  0  0
   -8.4921   -1.5522    0.1727 O   0  0  0  0  0  0  0  0  0  0  0  0
   -5.8732   -0.6209   -0.6715 C   0  0  0  0  0  0  0  0  0  0  0  0
   -2.1730   -0.3970   -0.8231 C   0  0  0  0  0  0  0  0  0  0  0  0
   -1.9592    0.6041   -1.7711 O   0  0  0  0  0  0  0  0  0  0  0  0
  1  2  1  0
  2  3  2  0
  3  4  1  0
  4  5  1  0
  5  6  2  0
  6  7  1  0
  7  8  2  0
  8  9  1  0
  8 10  1  0
 10 11  1  0
 10 12  2  0
  4 13  1  0
 13 14  2  0
 13 15  1  0
 15 16  2  0
 16 17  1  0
 17 18  1  0
 18 19  2  0
 19 20  1  0
 20 21  2  0
 21 22  1  0
 22 23  1  0
 23 24  2  0
 24 25  1  0
 25 26  2  0
 26 27  1  0
 27 28  1  0
 28 29  2  0
 28 30  1  0
 27 31  2  0
 22 32  2  0
 32 33  1  0
 15  2  1  0
 32 18  1  0
 12  5  1  0
 31 23  1  0
M  END
>  <supplier_code>  (1265) 
DB06210

>  <zinc_id>  (1265) 
ZINC000011679756

>  <catalog_short_name>  (1265) 
dbfda

$$$$

     RDKit          3D

 27 29  0  0  0  0  0  0  0  0999 V2000
   -5.8337    1.8760    0.6096 C   0  0  0  0  0  0  0  0  0  0  0  0
   -5.2151    0.5302    1.3171 C   0  0  1  0  0  0  0  0  0  0  0  0
   -6.5037   -0.2296    1.1583 O   0  0  0  0  0  0  0  0  0  0  0  0
   -4.5926    0.0106   -0.1851 C   0  0  1  0  0  0  0  0  0  0  0  0
   -3.4125    1.0290    0.0470 C   0  0  0  0  0  0  0  0  0  0  0  0
   -3.1871    2.1975   -0.1970 O   0  0  0  0  0  0  0  0  0  0  0  0
   -2.5476    0.0401    0.5063 N   0  0  0  0  0  0  0  0  0  0  0  0
   -1.4318   -0.8490    0.6275 C   0  0  0  0  0  0  0  0  0  0  0  0
   -0.3576   -0.6211    1.5754 C   0  0  0  0  0  0  0  0  0  0  0  0
   -0.1610    0.4500    2.2134 O   0  0  0  0  0  0  0  0  0  0  0  0
    0.2157   -1.7389    2.1974 O   0  0  0  0  0  0  0  0  0  0  0  0
   -1.4420   -1.7669   -0.2978 C   0  0  0  0  0  0  0  0  0  0  0  0
   -0.0432   -2.0757   -1.4029 S   0  0  0  0  0  0  0  0  0  0  0  0
    1.4008   -1.1419   -0.5880 C   0  0  2  0  0  0  0  0  0  0  0  0
    1.0105    0.3044   -1.1304 C   0  0  0  0  0  0  0  0  0  0  0  0
    2.1939    1.0102   -0.8245 N   0  0  0  0  0  0  0  0  0  0  0  0
    3.2796   -0.1040   -0.6327 C   0  0  2  0  0  0  0  0  0  0  0  0
    4.2569    0.5775   -1.7518 C   0  0  0  0  0  0  0  0  0  0  0  0
    5.5214    0.4514   -1.1256 N   0  0  0  0  0  0  0  0  0  0  0  0
    5.7392    1.0698    0.4179 S   0  0  0  0  0  0  0  0  0  0  0  0
    7.4372    0.8441    0.7524 N   0  0  0  0  0  0  0  0  0  0  0  0
    5.4715    2.5261    0.5894 O   0  0  0  0  0  0  0  0  0  0  0  0
    5.0173    0.3681    1.5209 O   0  0  0  0  0  0  0  0  0  0  0  0
    2.5478   -1.1333   -1.6948 C   0  0  0  0  0  0  0  0  0  0  0  0
   -2.9549   -1.8951   -0.7940 C   0  0  2  0  0  0  0  0  0  0  0  0
   -2.8159   -0.6319   -1.7966 C   0  0  0  0  0  0  0  0  0  0  0  0
   -3.5931   -1.0975    0.5667 C   0  0  2  0  0  0  0  0  0  0  0  0
  2  1  1  6
  2  3  1  0
  2  4  1  0
  4  5  1  1
  5  6  2  0
  5  7  1  0
  7  8  1  0
  8  9  1  0
  9 10  2  0
  9 11  1  0
  8 12  2  0
 12 13  1  0
 14 13  1  6
 14 15  1  0
 15 16  1  0
 16 17  1  0
 17 18  1  6
 18 19  1  0
 19 20  1  0
 20 21  1  0
 20 22  2  0
 20 23  2  0
 17 24  1  0
 12 25  1  0
 25 26  1  6
 25 27  1  0
 27  4  1  0
 27  7  1  6
 24 14  1  0
M  END
>  <supplier_code>  (1266) 
DB06211

>  <zinc_id>  (1266) 
ZINC000003922770

>  <catalog_short_name>  (1266) 
dbfda

$$$$

     RDKit          3D

 32 35  0  0  0  0  0  0  0  0999 V2000
    6.9442   -1.6860   -0.4109 C   0  0  0  0  0  0  0  0  0  0  0  0
    6.6477   -0.3063    0.0831 C   0  0  0  0  0  0  0  0  0  0  0  0
    7.6327    0.6564   -0.0260 C   0  0  0  0  0  0  0  0  0  0  0  0
    7.2358    1.9732    0.0522 C   0  0  0  0  0  0  0  0  0  0  0  0
    5.9035    2.3570    0.0074 C   0  0  0  0  0  0  0  0  0  0  0  0
    4.9764    1.3682    0.3081 C   0  0  0  0  0  0  0  0  0  0  0  0
    5.3364    0.0295    0.3789 C   0  0  0  0  0  0  0  0  0  0  0  0
    4.2957   -0.9425    0.0350 C   0  0  0  0  0  0  0  0  0  0  0  0
    4.1777   -1.4109   -1.1165 O   0  0  0  0  0  0  0  0  0  0  0  0
    3.4138   -1.3771    1.0547 N   0  0  0  0  0  0  0  0  0  0  0  0
    2.0741   -1.7412    0.7064 C   0  0  0  0  0  0  0  0  0  0  0  0
    1.7362   -2.1884   -0.5617 C   0  0  0  0  0  0  0  0  0  0  0  0
    0.4153   -2.1373   -0.9897 C   0  0  0  0  0  0  0  0  0  0  0  0
   -0.4857   -1.2877   -0.3598 C   0  0  0  0  0  0  0  0  0  0  0  0
   -1.7592   -0.9842   -0.9697 C   0  0  0  0  0  0  0  0  0  0  0  0
   -1.9229   -1.2540   -2.1978 O   0  0  0  0  0  0  0  0  0  0  0  0
   -2.9700   -0.7861   -0.2317 N   0  0  0  0  0  0  0  0  0  0  0  0
   -3.6038   -2.0578    0.0692 C   0  0  0  0  0  0  0  0  0  0  0  0
   -5.0929   -1.9671    0.1805 C   0  0  0  0  0  0  0  0  0  0  0  0
   -5.4061   -0.9828    1.3023 C   0  0  0  0  0  0  0  0  0  0  0  0
   -5.9832    0.2849    0.3442 C   0  0  1  0  0  0  0  0  0  0  0  0
   -6.4678    1.0594    1.6034 O   0  0  0  0  0  0  0  0  0  0  0  0
   -4.5103    1.0466    0.3969 C   0  0  0  0  0  0  0  0  0  0  0  0
   -4.8180    2.3829    0.2809 C   0  0  0  0  0  0  0  0  0  0  0  0
   -3.9100    3.2414   -0.3149 C   0  0  0  0  0  0  0  0  0  0  0  0
   -4.4022    4.8783   -0.7365 Cl  0  0  0  0  0  0  0  0  0  0  0  0
   -2.7948    2.6913   -0.9335 C   0  0  0  0  0  0  0  0  0  0  0  0
   -2.7687    1.3357   -1.2418 C   0  0  0  0  0  0  0  0  0  0  0  0
   -3.4959    0.5198   -0.3838 C   0  0  0  0  0  0  0  0  0  0  0  0
   -0.1903   -0.9542    0.9424 C   0  0  0  0  0  0  0  0  0  0  0  0
   -1.2471   -0.4741    1.8524 C   0  0  0  0  0  0  0  0  0  0  0  0
    1.0396   -1.2870    1.4961 C   0  0  0  0  0  0  0  0  0  0  0  0
  1  2  1  0
  2  3  2  0
  3  4  1  0
  4  5  2  0
  5  6  1  0
  6  7  2  0
  7  8  1  0
  8  9  2  0
  8 10  1  0
 10 11  1  0
 11 12  2  0
 12 13  1  0
 13 14  2  0
 14 15  1  0
 15 16  2  0
 15 17  1  0
 17 18  1  0
 18 19  1  0
 19 20  1  0
 20 21  1  0
 21 22  1  1
 21 23  1  0
 23 24  2  0
 24 25  1  0
 25 26  1  0
 25 27  2  0
 27 28  1  0
 28 29  2  0
 14 30  1  0
 30 31  1  0
 30 32  2  0
  7  2  1  0
 32 11  1  0
 29 17  1  0
 29 23  1  0
M  END
>  <supplier_code>  (1267) 
DB06212

>  <zinc_id>  (1267) 
ZINC000000538658

>  <catalog_short_name>  (1267) 
dbfda

$$$$

     RDKit          3D

 28 31  0  0  0  0  0  0  0  0999 V2000
    7.5553    1.5167   -0.4077 C   0  0  0  0  0  0  0  0  0  0  0  0
    6.5768    1.1893    0.1886 N   0  0  0  0  0  0  0  0  0  0  0  0
    5.8763   -0.0465    0.2004 C   0  0  0  0  0  0  0  0  0  0  0  0
    6.3237   -0.8912   -0.6139 O   0  0  0  0  0  0  0  0  0  0  0  0
    4.4326   -0.0986    0.4934 C   0  0  0  0  0  0  0  0  0  0  0  0
    3.8091   -1.1492    1.1435 C   0  0  0  0  0  0  0  0  0  0  0  0
    2.4903   -0.8692    1.0527 N   0  0  0  0  0  0  0  0  0  0  0  0
    2.2858   -0.0674    0.0024 N   0  0  0  0  0  0  0  0  0  0  0  0
    1.2756   -0.1984   -1.0124 C   0  0  0  0  0  0  0  0  0  0  0  0
    0.0429    0.3620   -0.8013 N   0  0  0  0  0  0  0  0  0  0  0  0
   -1.0677   -0.4074   -0.9089 C   0  0  0  0  0  0  0  0  0  0  0  0
   -1.0063   -1.7557   -1.2718 C   0  0  0  0  0  0  0  0  0  0  0  0
   -1.7909   -2.3532   -0.3196 N   0  0  0  0  0  0  0  0  0  0  0  0
   -2.6754   -1.4140    0.1376 C   0  0  0  0  0  0  0  0  0  0  0  0
   -2.2720   -0.3176   -0.3543 N   0  0  0  0  0  0  0  0  0  0  0  0
   -2.8258    1.1700   -0.3547 C   0  0  2  0  0  0  0  0  0  0  0  0
   -2.5806    1.3388    1.0963 O   0  0  0  0  0  0  0  0  0  0  0  0
   -3.7552    1.9329    1.7931 C   0  0  2  0  0  0  0  0  0  0  0  0
   -4.3035    0.4100    2.1443 C   0  0  0  0  0  0  0  0  0  0  0  0
   -5.4484    0.5600    2.8636 O   0  0  0  0  0  0  0  0  0  0  0  0
   -4.8009    2.2046    0.4647 C   0  0  1  0  0  0  0  0  0  0  0  0
   -3.8501    3.0383   -0.3364 O   0  0  0  0  0  0  0  0  0  0  0  0
   -4.4493    0.6669   -0.1599 C   0  0  1  0  0  0  0  0  0  0  0  0
   -4.7809    1.1512   -1.5435 O   0  0  0  0  0  0  0  0  0  0  0  0
    0.1540   -2.0821   -1.9626 C   0  0  0  0  0  0  0  0  0  0  0  0
    0.1469   -3.3082   -2.6087 N   0  0  0  0  0  0  0  0  0  0  0  0
    1.2132   -1.2274   -1.8921 N   0  0  0  0  0  0  0  0  0  0  0  0
    3.4246    0.6454   -0.1078 C   0  0  0  0  0  0  0  0  0  0  0  0
  1  2  1  0
  2  3  1  0
  3  4  2  0
  3  5  1  0
  5  6  1  0
  6  7  2  0
  7  8  1  0
  8  9  1  0
  9 10  2  0
 10 11  1  0
 11 12  2  0
 12 13  1  0
 13 14  2  0
 14 15  1  0
 16 15  1  1
 16 17  1  0
 17 18  1  0
 18 19  1  1
 19 20  1  0
 18 21  1  0
 21 22  1  6
 21 23  1  0
 23 24  1  6
 12 25  1  0
 25 26  1  0
 25 27  2  0
  8 28  1  0
 28  5  2  0
 27  9  1  0
 15 11  1  0
 23 16  1  0
M  END
>  <supplier_code>  (1268) 
DB06213

>  <zinc_id>  (1268) 
ZINC000013818943

>  <catalog_short_name>  (1268) 
dbfda

$$$$

     RDKit          3D

 20 23  0  0  0  0  0  0  0  0999 V2000
   -1.0164    3.4362    0.3486 C   0  0  0  0  0  0  0  0  0  0  0  0
   -0.9856    2.9550    0.5717 N   0  0  0  0  0  0  0  0  0  0  0  0
   -1.9571    2.0437    0.0686 C   0  0  0  0  0  0  0  0  0  0  0  0
   -1.0237    1.0152   -0.7930 C   0  0  2  0  0  0  0  0  0  0  0  0
   -1.8662   -0.3187   -0.5134 C   0  0  0  0  0  0  0  0  0  0  0  0
   -2.8937   -0.1252    0.3233 C   0  0  0  0  0  0  0  0  0  0  0  0
   -3.3611   -1.2401    1.0123 C   0  0  0  0  0  0  0  0  0  0  0  0
   -2.9650   -2.5174    0.6383 C   0  0  0  0  0  0  0  0  0  0  0  0
   -1.9299   -2.6942   -0.2736 C   0  0  0  0  0  0  0  0  0  0  0  0
   -1.2248   -1.5511   -0.6387 C   0  0  0  0  0  0  0  0  0  0  0  0
    0.1082   -1.8168   -0.9897 O   0  0  0  0  0  0  0  0  0  0  0  0
    1.1626   -0.8920   -0.9129 C   0  0  0  0  0  0  0  0  0  0  0  0
    2.3781   -1.4278   -1.3200 C   0  0  0  0  0  0  0  0  0  0  0  0
    3.5399   -0.9765   -0.7055 C   0  0  0  0  0  0  0  0  0  0  0  0
    3.5015   -0.0340    0.3150 C   0  0  0  0  0  0  0  0  0  0  0  0
    4.7042   -0.0872    1.5995 Cl  0  0  0  0  0  0  0  0  0  0  0  0
    2.3490    0.7315    0.4136 C   0  0  0  0  0  0  0  0  0  0  0  0
    1.2167    0.3630   -0.3067 C   0  0  0  0  0  0  0  0  0  0  0  0
   -0.0487    0.7742    0.5948 C   0  0  1  0  0  0  0  0  0  0  0  0
    0.3119    2.3620    0.5680 C   0  0  0  0  0  0  0  0  0  0  0  0
  1  2  1  0
  2  3  1  0
  4  3  1  1
  4  5  1  0
  5  6  2  0
  6  7  1  0
  7  8  2  0
  8  9  1  0
  9 10  2  0
 10 11  1  0
 11 12  1  0
 12 13  2  0
 13 14  1  0
 14 15  2  0
 15 16  1  0
 15 17  1  0
 17 18  2  0
 19 18  1  6
 19 20  1  0
 20  2  1  0
 19  4  1  0
 10  5  1  0
 18 12  1  0
M  END
>  <supplier_code>  (1269) 
DB06216

>  <zinc_id>  (1269) 
ZINC000000002299

>  <catalog_short_name>  (1269) 
dbfda

$$$$

     RDKit          3D

 20 23  0  0  0  0  0  0  0  0999 V2000
   -0.4666    3.7201    0.4483 C   0  0  0  0  0  0  0  0  0  0  0  0
   -0.4361    2.8844    1.3534 N   0  0  0  0  0  0  0  0  0  0  0  0
   -1.5347    1.9761    1.1920 C   0  0  0  0  0  0  0  0  0  0  0  0
   -0.8005    0.5511    0.9487 C   0  0  1  0  0  0  0  0  0  0  0  0
   -1.7962    0.0626   -0.2053 C   0  0  0  0  0  0  0  0  0  0  0  0
   -2.9150   -0.3054    0.5370 C   0  0  0  0  0  0  0  0  0  0  0  0
   -3.6196   -1.4835    0.3331 C   0  0  0  0  0  0  0  0  0  0  0  0
   -3.4839   -2.0423   -0.9316 C   0  0  0  0  0  0  0  0  0  0  0  0
   -2.3550   -1.7190   -1.6750 C   0  0  0  0  0  0  0  0  0  0  0  0
   -1.3825   -0.8790   -1.1465 C   0  0  0  0  0  0  0  0  0  0  0  0
   -0.1023   -1.3339   -1.4970 O   0  0  0  0  0  0  0  0  0  0  0  0
    1.1212   -0.7470   -1.1604 C   0  0  0  0  0  0  0  0  0  0  0  0
    2.2239   -1.5457   -1.4244 C   0  0  0  0  0  0  0  0  0  0  0  0
    3.3963   -1.2589   -0.7255 C   0  0  0  0  0  0  0  0  0  0  0  0
    3.3595   -0.6040    0.5049 C   0  0  0  0  0  0  0  0  0  0  0  0
    4.1058   -1.3147    1.9415 Cl  0  0  0  0  0  0  0  0  0  0  0  0
    2.3735    0.3775    0.5955 C   0  0  0  0  0  0  0  0  0  0  0  0
    1.2614    0.1486   -0.1049 C   0  0  0  0  0  0  0  0  0  0  0  0
    0.2342    1.3570   -0.1384 C   0  0  2  0  0  0  0  0  0  0  0  0
    0.8166    2.1560    1.1548 C   0  0  0  0  0  0  0  0  0  0  0  0
  1  2  1  0
  2  3  1  0
  4  3  1  1
  4  5  1  0
  5  6  2  0
  6  7  1  0
  7  8  2  0
  8  9  1  0
  9 10  2  0
 10 11  1  0
 11 12  1  0
 12 13  2  0
 13 14  1  0
 14 15  2  0
 15 16  1  0
 15 17  1  0
 17 18  2  0
 19 18  1  1
 19 20  1  0
 20  2  1  0
 19  4  1  0
 10  5  1  0
 18 12  1  0
M  END
>  <supplier_code>  (1270) 
DB06216

>  <zinc_id>  (1270) 
ZINC000000004893

>  <catalog_short_name>  (1270) 
dbfda

$$$$

     RDKit          3D

 20 23  0  0  0  0  0  0  0  0999 V2000
   -1.9450    3.3878    0.6634 C   0  0  0  0  0  0  0  0  0  0  0  0
   -1.1770    2.6329   -0.0877 N   0  0  0  0  0  0  0  0  0  0  0  0
   -0.2352    1.7955    0.5881 C   0  0  0  0  0  0  0  0  0  0  0  0
    0.5030    1.4520   -0.8438 C   0  0  1  0  0  0  0  0  0  0  0  0
    1.2689    0.1752   -0.2536 C   0  0  0  0  0  0  0  0  0  0  0  0
    2.3895    0.7901    0.3021 C   0  0  0  0  0  0  0  0  0  0  0  0
    3.4426   -0.0264    0.7059 C   0  0  0  0  0  0  0  0  0  0  0  0
    4.0545    0.0127    2.3646 Cl  0  0  0  0  0  0  0  0  0  0  0  0
    3.6354   -1.1443   -0.1032 C   0  0  0  0  0  0  0  0  0  0  0  0
    2.5699   -1.7190   -0.7953 C   0  0  0  0  0  0  0  0  0  0  0  0
    1.3566   -1.0502   -0.9040 C   0  0  0  0  0  0  0  0  0  0  0  0
    0.2335   -1.8736   -0.6915 O   0  0  0  0  0  0  0  0  0  0  0  0
   -1.0599   -1.5093   -0.2670 C   0  0  0  0  0  0  0  0  0  0  0  0
   -1.8629   -2.5058    0.1603 C   0  0  0  0  0  0  0  0  0  0  0  0
   -3.1444   -2.1520    0.5662 C   0  0  0  0  0  0  0  0  0  0  0  0
   -3.3609   -0.8332    0.9448 C   0  0  0  0  0  0  0  0  0  0  0  0
   -2.6201    0.0969    0.2231 C   0  0  0  0  0  0  0  0  0  0  0  0
   -1.2772   -0.1344   -0.0607 C   0  0  0  0  0  0  0  0  0  0  0  0
   -0.9128    0.6554   -1.4252 C   0  0  1  0  0  0  0  0  0  0  0  0
   -1.8586    1.9494   -1.0863 C   0  0  0  0  0  0  0  0  0  0  0  0
  1  2  1  0
  2  3  1  0
  4  3  1  1
  4  5  1  0
  5  6  2  0
  6  7  1  0
  7  8  1  0
  7  9  2  0
  9 10  1  0
 10 11  2  0
 11 12  1  0
 12 13  1  0
 13 14  2  0
 14 15  1  0
 15 16  2  0
 16 17  1  0
 17 18  2  0
 19 18  1  1
 19 20  1  0
 20  2  1  0
 19  4  1  0
 11  5  1  0
 18 13  1  0
M  END
>  <supplier_code>  (1271) 
DB06216

>  <zinc_id>  (1271) 
ZINC000011677376

>  <catalog_short_name>  (1271) 
dbfda

$$$$

     RDKit          3D

 20 23  0  0  0  0  0  0  0  0999 V2000
   -1.8199    3.3497    0.1744 C   0  0  0  0  0  0  0  0  0  0  0  0
   -0.5436    2.6740   -0.0387 N   0  0  0  0  0  0  0  0  0  0  0  0
   -0.8598    1.4758   -0.7557 C   0  0  0  0  0  0  0  0  0  0  0  0
   -1.5781    0.8320    0.5749 C   0  0  1  0  0  0  0  0  0  0  0  0
   -1.5748   -0.6660    0.0109 C   0  0  0  0  0  0  0  0  0  0  0  0
   -2.9059   -0.7721   -0.3891 C   0  0  0  0  0  0  0  0  0  0  0  0
   -3.5102   -2.0055   -0.5970 C   0  0  0  0  0  0  0  0  0  0  0  0
   -2.9002   -3.1029   -0.0247 C   0  0  0  0  0  0  0  0  0  0  0  0
   -1.6661   -3.0008    0.5784 C   0  0  0  0  0  0  0  0  0  0  0  0
   -1.0473   -1.7586    0.6431 C   0  0  0  0  0  0  0  0  0  0  0  0
    0.3477   -1.8928    0.5538 O   0  0  0  0  0  0  0  0  0  0  0  0
    1.3042   -0.9034    0.2892 C   0  0  0  0  0  0  0  0  0  0  0  0
    2.4880   -1.3616   -0.2259 C   0  0  0  0  0  0  0  0  0  0  0  0
    3.4547   -0.3854   -0.4392 C   0  0  0  0  0  0  0  0  0  0  0  0
    3.2879    0.8476    0.1795 C   0  0  0  0  0  0  0  0  0  0  0  0
    4.6672    1.7121    0.8357 Cl  0  0  0  0  0  0  0  0  0  0  0  0
    1.9820    1.2940    0.2262 C   0  0  0  0  0  0  0  0  0  0  0  0
    0.8833    0.4313    0.1794 C   0  0  0  0  0  0  0  0  0  0  0  0
   -0.0793    0.8106    1.4201 C   0  0  1  0  0  0  0  0  0  0  0  0
    0.0703    2.4221    1.1899 C   0  0  0  0  0  0  0  0  0  0  0  0
  1  2  1  0
  2  3  1  0
  4  3  1  6
  4  5  1  0
  5  6  2  0
  6  7  1  0
  7  8  2  0
  8  9  1  0
  9 10  2  0
 10 11  1  0
 11 12  1  0
 12 13  2  0
 13 14  1  0
 14 15  2  0
 15 16  1  0
 15 17  1  0
 17 18  2  0
 19 18  1  6
 19 20  1  0
 20  2  1  0
 19  4  1  0
 10  5  1  0
 18 12  1  0
M  END
>  <supplier_code>  (1272) 
DB06216

>  <zinc_id>  (1272) 
ZINC000034125842

>  <catalog_short_name>  (1272) 
dbfda

$$$$

     RDKit          3D

 18 18  0  0  0  0  0  0  0  0999 V2000
   -2.9585   -2.7649    1.2263 C   0  0  0  0  0  0  0  0  0  0  0  0
   -2.2531   -1.8707    0.5199 O   0  0  0  0  0  0  0  0  0  0  0  0
   -2.8133   -0.5982    0.4892 C   0  0  0  0  0  0  0  0  0  0  0  0
   -2.1815    0.0616   -0.9083 C   0  0  1  0  0  0  0  0  0  0  0  0
   -2.1968    1.5286   -0.2723 N   0  0  0  0  0  0  0  0  0  0  0  0
   -3.5024    1.9744    0.0311 C   0  0  0  0  0  0  0  0  0  0  0  0
   -3.6288    3.3191    0.6774 C   0  0  0  0  0  0  0  0  0  0  0  0
   -4.5197    1.3245   -0.2799 O   0  0  0  0  0  0  0  0  0  0  0  0
   -0.6605   -0.2801   -0.4302 C   0  0  0  0  0  0  0  0  0  0  0  0
   -0.2360   -1.3610   -0.8949 O   0  0  0  0  0  0  0  0  0  0  0  0
    0.2625    0.7214   -0.2081 N   0  0  0  0  0  0  0  0  0  0  0  0
    1.3355    0.3686    0.7295 C   0  0  0  0  0  0  0  0  0  0  0  0
    2.6426    0.2315    0.0823 C   0  0  0  0  0  0  0  0  0  0  0  0
    2.8480   -0.6948   -0.9153 C   0  0  0  0  0  0  0  0  0  0  0  0
    4.0290   -1.4163   -1.0366 C   0  0  0  0  0  0  0  0  0  0  0  0
    5.0719   -1.1723   -0.1725 C   0  0  0  0  0  0  0  0  0  0  0  0
    4.9889   -0.0055    0.5776 C   0  0  0  0  0  0  0  0  0  0  0  0
    3.7721    0.6341    0.7849 C   0  0  0  0  0  0  0  0  0  0  0  0
  1  2  1  0
  2  3  1  0
  4  3  1  1
  4  5  1  0
  5  6  1  0
  6  7  1  0
  6  8  2  0
  4  9  1  0
  9 10  2  0
  9 11  1  0
 11 12  1  0
 12 13  1  0
 13 14  2  0
 14 15  1  0
 15 16  2  0
 16 17  1  0
 17 18  2  0
 18 13  1  0
M  END
>  <supplier_code>  (1273) 
DB06218

>  <zinc_id>  (1273) 
ZINC000000007673

>  <catalog_short_name>  (1273) 
dbfda

$$$$

     RDKit          3D

 29 32  0  0  0  0  0  0  0  0999 V2000
    4.0705   -0.4303    1.4006 O   0  0  0  0  0  0  0  0  0  0  0  0
    4.1797   -0.1018    0.2846 C   0  0  0  0  0  0  0  0  0  0  0  0
    2.9642   -0.0006   -0.4696 N   0  0  0  0  0  0  0  0  0  0  0  0
    1.6679    0.1295    0.1947 C   0  0  0  0  0  0  0  0  0  0  0  0
    1.9223   -0.6703    1.6301 C   0  0  1  0  0  0  0  0  0  0  0  0
    0.3053   -0.6743    2.0010 C   0  0  0  0  0  0  0  0  0  0  0  0
   -0.2127   -1.1624    0.7539 N   0  0  0  0  0  0  0  0  0  0  0  0
   -1.5979   -1.1819    0.4598 C   0  0  0  0  0  0  0  0  0  0  0  0
   -2.1115   -1.9544   -0.5757 C   0  0  0  0  0  0  0  0  0  0  0  0
   -3.2527   -1.4835   -1.2147 C   0  0  0  0  0  0  0  0  0  0  0  0
   -3.8340   -0.2881   -0.8248 C   0  0  0  0  0  0  0  0  0  0  0  0
   -5.0117    0.2256   -1.4561 N   0  0  0  0  0  0  0  0  0  0  0  0
   -4.9593    1.6553   -1.7671 C   0  0  0  0  0  0  0  0  0  0  0  0
   -5.6825    2.3165   -0.6098 C   0  0  0  0  0  0  0  0  0  0  0  0
   -7.0168    2.0037   -0.5362 O   0  0  0  0  0  0  0  0  0  0  0  0
   -7.3840    0.8129   -1.1204 C   0  0  0  0  0  0  0  0  0  0  0  0
   -6.2857   -0.1914   -0.9428 C   0  0  0  0  0  0  0  0  0  0  0  0
   -6.3738   -1.1315   -0.0952 O   0  0  0  0  0  0  0  0  0  0  0  0
   -3.5987    0.1000    0.4883 C   0  0  0  0  0  0  0  0  0  0  0  0
   -2.5437   -0.4694    1.1728 C   0  0  0  0  0  0  0  0  0  0  0  0
    0.7425   -1.9956    0.1361 C   0  0  0  0  0  0  0  0  0  0  0  0
    0.4372   -2.9180   -0.6811 O   0  0  0  0  0  0  0  0  0  0  0  0
    1.8210   -2.0687    0.9667 O   0  0  0  0  0  0  0  0  0  0  0  0
    5.3593    0.7142   -0.0397 C   0  0  0  0  0  0  0  0  0  0  0  0
    6.3499    0.4469   -0.9782 C   0  0  0  0  0  0  0  0  0  0  0  0
    7.1321    1.5399   -1.2079 C   0  0  0  0  0  0  0  0  0  0  0  0
    7.5662    2.1236   -0.0234 C   0  0  0  0  0  0  0  0  0  0  0  0
    9.1048    2.8971    0.2845 Cl  0  0  0  0  0  0  0  0  0  0  0  0
    6.2417    1.7574    1.0028 S   0  0  0  0  0  0  0  0  0  0  0  0
  1  2  2  0
  2  3  1  0
  3  4  1  0
  5  4  1  6
  5  6  1  0
  6  7  1  0
  7  8  1  0
  8  9  2  0
  9 10  1  0
 10 11  2  0
 11 12  1  0
 12 13  1  0
 13 14  1  0
 14 15  1  0
 15 16  1  0
 16 17  1  0
 17 18  2  0
 11 19  1  0
 19 20  2  0
  7 21  1  0
 21 22  2  0
 21 23  1  0
  2 24  1  0
 24 25  2  0
 25 26  1  0
 26 27  2  0
 27 28  1  0
 27 29  1  0
 23  5  1  0
 29 24  1  0
 20  8  1  0
 17 12  1  0
M  END
>  <supplier_code>  (1274) 
DB06228

>  <zinc_id>  (1274) 
ZINC000003964126

>  <catalog_short_name>  (1274) 
dbfda

$$$$

     RDKit          3D

 34 37  0  0  0  0  0  0  0  0999 V2000
   -7.3775   -1.1715    0.1796 C   0  0  0  0  0  0  0  0  0  0  0  0
   -6.5314   -1.9493   -0.6452 O   0  0  0  0  0  0  0  0  0  0  0  0
   -5.1851   -1.9123   -0.3894 C   0  0  0  0  0  0  0  0  0  0  0  0
   -4.2911   -1.0251   -0.9196 C   0  0  0  0  0  0  0  0  0  0  0  0
   -3.0104   -0.9238   -0.3906 C   0  0  0  0  0  0  0  0  0  0  0  0
   -2.6173   -1.6593    0.7210 C   0  0  0  0  0  0  0  0  0  0  0  0
   -1.7652   -1.0310    1.7632 C   0  0  0  0  0  0  0  0  0  0  0  0
   -0.4724   -0.6412    1.2895 N   0  0  0  0  0  0  0  0  0  0  0  0
   -0.2141    0.2148    0.1934 C   0  0  0  0  0  0  0  0  0  0  0  0
   -0.4973    1.5406    0.2252 N   0  0  0  0  0  0  0  0  0  0  0  0
    0.3167    2.4796   -0.2677 C   0  0  0  0  0  0  0  0  0  0  0  0
   -0.0212    3.8739   -0.3132 N   0  0  0  0  0  0  0  0  0  0  0  0
   -0.1424    4.6149   -1.5248 C   0  0  0  0  0  0  0  0  0  0  0  0
    1.1324    5.3681   -1.7286 C   0  0  0  0  0  0  0  0  0  0  0  0
    2.0250    4.9929   -0.6028 C   0  0  0  0  0  0  0  0  0  0  0  0
    0.9100    4.7780    0.6182 C   0  0  1  0  0  0  0  0  0  0  0  0
    0.0920    6.1768    0.2146 C   0  0  0  0  0  0  0  0  0  0  0  0
   -1.2135    5.9014    0.6331 O   0  0  0  0  0  0  0  0  0  0  0  0
    1.4484    2.1258   -0.9242 N   0  0  0  0  0  0  0  0  0  0  0  0
    1.6077    0.8290   -1.2869 C   0  0  0  0  0  0  0  0  0  0  0  0
    0.8356   -0.1352   -0.6493 C   0  0  0  0  0  0  0  0  0  0  0  0
    1.4521   -1.4604   -0.4996 C   0  0  0  0  0  0  0  0  0  0  0  0
    0.8507   -2.4933   -1.2253 O   0  0  0  0  0  0  0  0  0  0  0  0
    1.8020   -1.7640    0.7136 N   0  0  0  0  0  0  0  0  0  0  0  0
    2.6112   -2.9688    0.8588 C   0  0  0  0  0  0  0  0  0  0  0  0
    3.9844   -2.6348    0.4031 C   0  0  0  0  0  0  0  0  0  0  0  0
    4.3661   -1.3726    0.1120 N   0  0  0  0  0  0  0  0  0  0  0  0
    5.6351   -0.9554    0.1423 C   0  0  0  0  0  0  0  0  0  0  0  0
    6.5944   -1.8605    0.5500 C   0  0  0  0  0  0  0  0  0  0  0  0
    6.2597   -3.2051    0.6498 C   0  0  0  0  0  0  0  0  0  0  0  0
    4.9582   -3.5494    0.6324 N   0  0  0  0  0  0  0  0  0  0  0  0
   -3.4254   -2.7546    1.0046 C   0  0  0  0  0  0  0  0  0  0  0  0
   -4.6612   -2.9315    0.3934 C   0  0  0  0  0  0  0  0  0  0  0  0
   -5.4563   -4.4966    0.5283 Cl  0  0  0  0  0  0  0  0  0  0  0  0
  1  2  1  0
  2  3  1  0
  3  4  2  0
  4  5  1  0
  5  6  2  0
  6  7  1  0
  7  8  1  0
  8  9  1  0
  9 10  2  0
 10 11  1  0
 11 12  1  0
 12 13  1  0
 13 14  1  0
 14 15  1  0
 15 16  1  0
 16 17  1  6
 17 18  1  0
 11 19  2  0
 19 20  1  0
 20 21  2  0
 21 22  1  0
 22 23  1  0
 22 24  2  0
 24 25  1  0
 25 26  1  0
 26 27  2  0
 27 28  1  0
 28 29  2  0
 29 30  1  0
 30 31  2  0
  6 32  1  0
 32 33  2  0
 33 34  1  0
 33  3  1  0
 21  9  1  0
 31 26  1  0
 16 12  1  0
M  END
>  <supplier_code>  (1275) 
DB06237

>  <zinc_id>  (1275) 
ZINC000011677857

>  <catalog_short_name>  (1275) 
dbfda

$$$$

     RDKit          3D

 12 11  0  0  0  0  0  0  0  0999 V2000
    3.9885   -0.1679   -0.2860 N   0  0  0  0  0  0  0  0  0  0  0  0
    2.6868   -0.7837   -0.1487 C   0  0  0  0  0  0  0  0  0  0  0  0
    1.5821    0.2409   -0.0585 C   0  0  0  0  0  0  0  0  0  0  0  0
    0.6895    0.2257   -1.2714 C   0  0  0  0  0  0  0  0  0  0  0  0
   -0.7379    0.0916   -0.7796 C   0  0  2  0  0  0  0  0  0  0  0  0
   -1.6200    0.2172   -1.9097 N   0  0  0  0  0  0  0  0  0  0  0  0
   -1.0150    1.2162    0.1454 C   0  0  0  0  0  0  0  0  0  0  0  0
   -1.2725    2.3313   -0.4010 O   0  0  0  0  0  0  0  0  0  0  0  0
   -0.3775    1.2846    1.3879 O   0  0  0  0  0  0  0  0  0  0  0  0
   -0.8859   -1.2535   -0.1390 C   0  0  0  0  0  0  0  0  0  0  0  0
   -1.3464   -2.1345   -1.1118 F   0  0  0  0  0  0  0  0  0  0  0  0
   -1.6918   -1.2679    0.9642 F   0  0  0  0  0  0  0  0  0  0  0  0
  1  2  1  0
  2  3  1  0
  3  4  1  0
  5  4  1  6
  5  6  1  0
  5  7  1  0
  7  8  2  0
  7  9  1  0
  5 10  1  0
 10 11  1  0
 10 12  1  0
M  END
>  <supplier_code>  (1276) 
DB06243

>  <zinc_id>  (1276) 
ZINC000052971887

>  <catalog_short_name>  (1276) 
dbfda

$$$$

     RDKit          3D

 12 11  0  0  0  0  0  0  0  0999 V2000
    3.8018    0.1876    0.2074 N   0  0  0  0  0  0  0  0  0  0  0  0
    2.6559    0.7915   -0.4447 C   0  0  0  0  0  0  0  0  0  0  0  0
    1.9485   -0.2846   -1.2217 C   0  0  0  0  0  0  0  0  0  0  0  0
    0.4709   -0.0619   -1.3411 C   0  0  0  0  0  0  0  0  0  0  0  0
   -0.2568   -0.1089   -0.0237 C   0  0  1  0  0  0  0  0  0  0  0  0
    0.6611   -0.0516    1.0870 N   0  0  0  0  0  0  0  0  0  0  0  0
   -1.1552    1.0862    0.0193 C   0  0  0  0  0  0  0  0  0  0  0  0
   -1.8566    1.3055   -1.0128 O   0  0  0  0  0  0  0  0  0  0  0  0
   -1.7296    1.4065    1.2320 O   0  0  0  0  0  0  0  0  0  0  0  0
   -1.1019   -1.3429    0.1422 C   0  0  0  0  0  0  0  0  0  0  0  0
   -0.9945   -1.8954    1.3997 F   0  0  0  0  0  0  0  0  0  0  0  0
   -2.4436   -1.0320   -0.0435 F   0  0  0  0  0  0  0  0  0  0  0  0
  1  2  1  0
  2  3  1  0
  3  4  1  0
  5  4  1  6
  5  6  1  0
  5  7  1  0
  7  8  2  0
  7  9  1  0
  5 10  1  0
 10 11  1  0
 10 12  1  0
M  END
>  <supplier_code>  (1277) 
DB06243

>  <zinc_id>  (1277) 
ZINC000053022902

>  <catalog_short_name>  (1277) 
dbfda

$$$$

     RDKit          3D

 15 14  0  0  0  0  0  0  0  0999 V2000
    4.7675   -1.0735    0.1100 C   0  0  0  0  0  0  0  0  0  0  0  0
    5.3356    0.3191    0.2875 C   0  0  0  0  0  0  0  0  0  0  0  0
    4.2710    1.3727    0.3861 C   0  0  0  0  0  0  0  0  0  0  0  0
    3.3568    1.2822   -0.8295 C   0  0  0  0  0  0  0  0  0  0  0  0
    2.4079    0.1249   -0.5563 C   0  0  0  0  0  0  0  0  0  0  0  0
    1.4187   -0.0667   -1.6937 C   0  0  0  0  0  0  0  0  0  0  0  0
    0.2254   -0.5686   -1.0958 O   0  0  0  0  0  0  0  0  0  0  0  0
   -0.1229   -0.0798    0.1602 C   0  0  0  0  0  0  0  0  0  0  0  0
    0.6394    0.6891    0.7920 O   0  0  0  0  0  0  0  0  0  0  0  0
   -1.4591   -0.4041    0.7495 C   0  0  0  0  0  0  0  0  0  0  0  0
   -2.4935    0.4864    0.0767 C   0  0  0  0  0  0  0  0  0  0  0  0
   -3.6969   -0.3266   -0.2637 C   0  0  0  0  0  0  0  0  0  0  0  0
   -3.6353   -1.5437   -0.3469 O   0  0  0  0  0  0  0  0  0  0  0  0
   -5.0068    0.3719   -0.4145 C   0  0  0  0  0  0  0  0  0  0  0  0
   -6.0077   -0.5832   -0.8125 N   0  0  0  0  0  0  0  0  0  0  0  0
  1  2  1  0
  2  3  1  0
  3  4  1  0
  4  5  1  0
  5  6  1  0
  6  7  1  0
  7  8  1  0
  8  9  2  0
  8 10  1  0
 10 11  1  0
 11 12  1  0
 12 13  2  0
 12 14  1  0
 14 15  1  0
M  END
>  <supplier_code>  (1278) 
DB06261

>  <zinc_id>  (1278) 
ZINC000001554392

>  <catalog_short_name>  (1278) 
dbfda

$$$$

     RDKit          3D

 15 15  0  0  0  0  0  0  0  0999 V2000
    2.3652   -0.4003   -1.5120 N   0  0  0  0  0  0  0  0  0  0  0  0
    1.7861    0.7863   -0.6765 C   0  0  2  0  0  0  0  0  0  0  0  0
    3.1708    1.0599    0.0819 C   0  0  0  0  0  0  0  0  0  0  0  0
    3.0570    2.1449    0.7292 O   0  0  0  0  0  0  0  0  0  0  0  0
    3.8352    0.0054    0.6267 O   0  0  0  0  0  0  0  0  0  0  0  0
    1.1696   -0.1128    0.6638 C   0  0  2  0  0  0  0  0  0  0  0  0
    1.7547   -1.4555    0.2949 O   0  0  0  0  0  0  0  0  0  0  0  0
   -0.2119   -0.3806   -0.1290 C   0  0  0  0  0  0  0  0  0  0  0  0
   -0.8325   -1.5837    0.1544 C   0  0  0  0  0  0  0  0  0  0  0  0
   -2.1788   -1.7456   -0.1426 C   0  0  0  0  0  0  0  0  0  0  0  0
   -2.9735   -0.6209   -0.0577 C   0  0  0  0  0  0  0  0  0  0  0  0
   -4.2599   -0.7227   -0.5829 O   0  0  0  0  0  0  0  0  0  0  0  0
   -2.4045    0.6127    0.1881 C   0  0  0  0  0  0  0  0  0  0  0  0
   -3.2450    1.6865    0.4746 O   0  0  0  0  0  0  0  0  0  0  0  0
   -1.0324    0.7264    0.0882 C   0  0  0  0  0  0  0  0  0  0  0  0
  2  1  1  6
  2  3  1  0
  3  4  2  0
  3  5  1  0
  2  6  1  0
  6  7  1  6
  6  8  1  0
  8  9  2  0
  9 10  1  0
 10 11  2  0
 11 12  1  0
 11 13  1  0
 13 14  1  0
 13 15  2  0
 15  8  1  0
M  END
>  <supplier_code>  (1279) 
DB06262

>  <zinc_id>  (1279) 
ZINC000001482049

>  <catalog_short_name>  (1279) 
dbfda

$$$$

     RDKit          3D

 15 15  0  0  0  0  0  0  0  0999 V2000
    3.1442   -1.3055   -0.2444 N   0  0  0  0  0  0  0  0  0  0  0  0
    1.7502   -0.9085    0.3999 C   0  0  1  0  0  0  0  0  0  0  0  0
    2.3519    0.4729    1.0081 C   0  0  0  0  0  0  0  0  0  0  0  0
    2.9860    1.1864    0.2250 O   0  0  0  0  0  0  0  0  0  0  0  0
    2.9853    0.1472    2.2149 O   0  0  0  0  0  0  0  0  0  0  0  0
    1.1932   -0.1378   -1.0838 C   0  0  1  0  0  0  0  0  0  0  0  0
    1.3981   -1.4321   -1.8923 O   0  0  0  0  0  0  0  0  0  0  0  0
   -0.3821   -0.5294   -0.8266 C   0  0  0  0  0  0  0  0  0  0  0  0
   -1.0891    0.2552   -1.7383 C   0  0  0  0  0  0  0  0  0  0  0  0
   -2.2685    0.9060   -1.3929 C   0  0  0  0  0  0  0  0  0  0  0  0
   -2.7370    0.7900   -0.0899 C   0  0  0  0  0  0  0  0  0  0  0  0
   -3.5548    1.7837    0.4601 O   0  0  0  0  0  0  0  0  0  0  0  0
   -2.1564   -0.2051    0.6782 C   0  0  0  0  0  0  0  0  0  0  0  0
   -2.8180   -0.5881    1.8216 O   0  0  0  0  0  0  0  0  0  0  0  0
   -0.8029   -0.4348    0.4603 C   0  0  0  0  0  0  0  0  0  0  0  0
  2  1  1  6
  2  3  1  0
  3  4  2  0
  3  5  1  0
  2  6  1  0
  6  7  1  6
  6  8  1  0
  8  9  2  0
  9 10  1  0
 10 11  2  0
 11 12  1  0
 11 13  1  0
 13 14  1  0
 13 15  2  0
 15  8  1  0
M  END
>  <supplier_code>  (1280) 
DB06262

>  <zinc_id>  (1280) 
ZINC000002015035

>  <catalog_short_name>  (1280) 
dbfda

$$$$

     RDKit          3D

 31 33  0  0  0  0  0  0  0  0999 V2000
    2.8272   -2.5291    0.2607 C   0  0  0  0  0  0  0  0  0  0  0  0
    1.6099   -1.5162   -0.1453 C   0  0  1  0  0  0  0  0  0  0  0  0
    1.7101   -0.6838    1.2619 C   0  0  0  0  0  0  0  0  0  0  0  0
    0.6239    0.2582    1.0073 N   0  0  0  0  0  0  0  0  0  0  0  0
   -0.6208   -0.4058    1.1339 C   0  0  0  0  0  0  0  0  0  0  0  0
   -1.5313   -0.0496   -0.1812 C   0  0  2  0  0  0  0  0  0  0  0  0
   -2.6758    0.6763    0.7433 C   0  0  0  0  0  0  0  0  0  0  0  0
   -2.6670    2.0974    0.3656 C   0  0  0  0  0  0  0  0  0  0  0  0
   -3.2605    2.9632    1.2761 C   0  0  0  0  0  0  0  0  0  0  0  0
   -3.4971    4.2915    0.9448 C   0  0  0  0  0  0  0  0  0  0  0  0
   -2.9866    4.7827   -0.2493 C   0  0  0  0  0  0  0  0  0  0  0  0
   -2.2677    3.8984   -1.0455 C   0  0  0  0  0  0  0  0  0  0  0  0
   -2.6515    2.5645   -0.9437 C   0  0  0  0  0  0  0  0  0  0  0  0
   -2.2600   -1.4869   -0.1502 C   0  0  0  0  0  0  0  0  0  0  0  0
   -1.6997   -2.2476   -1.0032 O   0  0  0  0  0  0  0  0  0  0  0  0
   -3.6781   -1.4684   -0.3608 N   0  0  0  0  0  0  0  0  0  0  0  0
   -4.3428   -2.6418   -0.9066 C   0  0  0  0  0  0  0  0  0  0  0  0
   -5.5412   -2.9853   -0.1113 C   0  0  0  0  0  0  0  0  0  0  0  0
   -6.1470   -4.0357   -0.4822 O   0  0  0  0  0  0  0  0  0  0  0  0
   -6.2838   -1.9010    0.3681 O   0  0  0  0  0  0  0  0  0  0  0  0
    0.8165    1.1111   -0.0882 C   0  0  0  0  0  0  0  0  0  0  0  0
    1.7204    0.6976   -1.1750 C   0  0  0  0  0  0  0  0  0  0  0  0
    2.5969   -0.4760   -0.9262 C   0  0  2  0  0  0  0  0  0  0  0  0
    2.9685   -1.1581   -2.2296 C   0  0  0  0  0  0  0  0  0  0  0  0
    3.7516   -0.2240   -0.0562 C   0  0  0  0  0  0  0  0  0  0  0  0
    3.9472    1.1133    0.2761 C   0  0  0  0  0  0  0  0  0  0  0  0
    5.1619    1.6182    0.6479 C   0  0  0  0  0  0  0  0  0  0  0  0
    6.2450    0.7545    0.7385 C   0  0  0  0  0  0  0  0  0  0  0  0
    6.0629   -0.5980    0.4950 C   0  0  0  0  0  0  0  0  0  0  0  0
    7.1308   -1.4900    0.3928 O   0  0  0  0  0  0  0  0  0  0  0  0
    4.9379   -0.9296   -0.2305 C   0  0  0  0  0  0  0  0  0  0  0  0
  2  1  1  1
  2  3  1  0
  3  4  1  0
  4  5  1  0
  6  5  1  1
  6  7  1  0
  7  8  1  0
  8  9  2  0
  9 10  1  0
 10 11  2  0
 11 12  1  0
 12 13  2  0
  6 14  1  0
 14 15  2  0
 14 16  1  0
 16 17  1  0
 17 18  1  0
 18 19  2  0
 18 20  1  0
  4 21  1  0
 21 22  1  0
 22 23  1  0
 23 24  1  6
 23 25  1  0
 25 26  2  0
 26 27  1  0
 27 28  2  0
 28 29  1  0
 29 30  1  0
 29 31  2  0
 23  2  1  0
 31 25  1  0
 13  8  1  0
M  END
>  <supplier_code>  (1281) 
DB06274

>  <zinc_id>  (1281) 
ZINC000003802417

>  <catalog_short_name>  (1281) 
dbfda

$$$$

     RDKit          3D

 27 29  0  0  0  0  0  0  0  0999 V2000
    6.8289   -0.7288   -1.5265 O   0  0  0  0  0  0  0  0  0  0  0  0
    6.8137    0.0802   -0.8272 C   0  0  0  0  0  0  0  0  0  0  0  0
    7.9517    0.8720   -0.6453 O   0  0  0  0  0  0  0  0  0  0  0  0
    5.5709    0.4741   -0.1336 C   0  0  0  0  0  0  0  0  0  0  0  0
    4.8728   -0.6588    0.2449 O   0  0  0  0  0  0  0  0  0  0  0  0
    3.7978   -0.9443   -0.5896 C   0  0  0  0  0  0  0  0  0  0  0  0
    2.9448    0.2599   -0.8796 C   0  0  0  0  0  0  0  0  0  0  0  0
    2.4805    0.9250    0.3118 N   0  0  0  0  0  0  0  0  0  0  0  0
    1.5815    1.9855   -0.0969 C   0  0  0  0  0  0  0  0  0  0  0  0
    0.1713    1.7764    0.3549 C   0  0  0  0  0  0  0  0  0  0  0  0
   -0.3496    0.5069   -0.1328 N   0  0  0  0  0  0  0  0  0  0  0  0
   -1.5033    0.1981    0.9487 C   0  0  2  0  0  0  0  0  0  0  0  0
   -1.6651   -1.3581    0.4368 C   0  0  0  0  0  0  0  0  0  0  0  0
   -2.3437   -2.1534    1.3335 C   0  0  0  0  0  0  0  0  0  0  0  0
   -2.7796   -3.3922    0.8790 C   0  0  0  0  0  0  0  0  0  0  0  0
   -2.5103   -3.7669   -0.4315 C   0  0  0  0  0  0  0  0  0  0  0  0
   -1.9421   -2.8612   -1.3042 C   0  0  0  0  0  0  0  0  0  0  0  0
   -1.7625   -1.5437   -0.8968 C   0  0  0  0  0  0  0  0  0  0  0  0
   -2.6773    0.7707   -0.0646 C   0  0  0  0  0  0  0  0  0  0  0  0
   -3.8548    0.0504    0.0494 C   0  0  0  0  0  0  0  0  0  0  0  0
   -5.0306    0.6853   -0.3288 C   0  0  0  0  0  0  0  0  0  0  0  0
   -5.2219    1.9687    0.1688 C   0  0  0  0  0  0  0  0  0  0  0  0
   -6.7735    2.4875    0.8237 Cl  0  0  0  0  0  0  0  0  0  0  0  0
   -4.0712    2.7343    0.3134 C   0  0  0  0  0  0  0  0  0  0  0  0
   -2.8237    2.1311    0.1976 C   0  0  0  0  0  0  0  0  0  0  0  0
    0.6053   -0.5320    0.2480 C   0  0  0  0  0  0  0  0  0  0  0  0
    1.6900    0.0335    1.1582 C   0  0  0  0  0  0  0  0  0  0  0  0
  1  2  2  0
  2  3  1  0
  2  4  1  0
  4  5  1  0
  5  6  1  0
  6  7  1  0
  7  8  1  0
  8  9  1  0
  9 10  1  0
 10 11  1  0
 12 11  1  6
 12 13  1  0
 13 14  2  0
 14 15  1  0
 15 16  2  0
 16 17  1  0
 17 18  2  0
 12 19  1  0
 19 20  2  0
 20 21  1  0
 21 22  2  0
 22 23  1  0
 22 24  1  0
 24 25  2  0
 11 26  1  0
 26 27  1  0
 27  8  1  0
 18 13  1  0
 25 19  1  0
M  END
>  <supplier_code>  (1282) 
DB06282

>  <zinc_id>  (1282) 
ZINC000019364230

>  <catalog_short_name>  (1282) 
dbfda

$$$$

     RDKit          3D

 52 58  0  0  0  0  0  0  0  0999 V2000
    6.3085   -4.6966   -1.2607 C   0  0  0  0  0  0  0  0  0  0  0  0
    5.3689   -4.8706   -1.2255 O   0  0  0  0  0  0  0  0  0  0  0  0
    4.1228   -4.3580   -0.8460 C   0  0  0  0  0  0  0  0  0  0  0  0
    3.2678   -3.8223   -1.8059 C   0  0  0  0  0  0  0  0  0  0  0  0
    2.3064   -2.8717   -1.4803 C   0  0  0  0  0  0  0  0  0  0  0  0
    2.3965   -2.2678   -0.2379 C   0  0  0  0  0  0  0  0  0  0  0  0
    1.9346   -0.9687   -0.0682 C   0  0  0  0  0  0  0  0  0  0  0  0
    0.7139   -0.6834   -0.6540 O   0  0  0  0  0  0  0  0  0  0  0  0
   -0.2696    0.0584    0.2699 C   0  0  2  0  0  0  0  0  0  0  0  0
   -1.3099    0.3057   -0.9605 C   0  0  0  0  0  0  0  0  0  0  0  0
   -2.1978    1.4325   -0.1991 C   0  0  1  0  0  0  0  0  0  0  0  0
   -2.2747    0.7056    1.2403 C   0  0  0  0  0  0  0  0  0  0  0  0
   -1.5443    1.1281    2.1523 O   0  0  0  0  0  0  0  0  0  0  0  0
   -3.6652    0.7530    1.5880 N   0  0  0  0  0  0  0  0  0  0  0  0
   -4.7935    0.6944    0.8206 C   0  0  2  0  0  0  0  0  0  0  0  0
   -5.5730   -0.4966    0.5081 C   0  0  0  0  0  0  0  0  0  0  0  0
   -6.5838   -0.6012   -0.1945 O   0  0  0  0  0  0  0  0  0  0  0  0
   -4.8299   -1.7046    0.7048 N   0  0  0  0  0  0  0  0  0  0  0  0
   -5.5065   -3.2679    0.6832 S   0  0  0  0  0  0  0  0  0  0  0  0
   -5.4132   -3.8031    2.0929 O   0  0  0  0  0  0  0  0  0  0  0  0
   -4.6532   -4.1311   -0.2134 O   0  0  0  0  0  0  0  0  0  0  0  0
   -7.1873   -3.3055    0.1429 C   0  0  0  0  0  0  0  0  0  0  0  0
   -7.4397   -3.4877   -1.3593 C   0  0  0  0  0  0  0  0  0  0  0  0
   -7.6229   -4.6526   -0.3638 C   0  0  0  0  0  0  0  0  0  0  0  0
   -4.9336    1.8215   -0.3733 C   0  0  0  0  0  0  0  0  0  0  0  0
   -5.7187    2.0432    1.0739 C   0  0  2  0  0  0  0  0  0  0  0  0
   -4.5032    2.9491    1.7166 C   0  0  0  0  0  0  0  0  0  0  0  0
   -4.6727    4.2034    1.3270 C   0  0  0  0  0  0  0  0  0  0  0  0
   -4.7003    4.3763   -0.1637 C   0  0  0  0  0  0  0  0  0  0  0  0
   -3.4549    5.0840   -0.6482 C   0  0  0  0  0  0  0  0  0  0  0  0
   -2.3088    4.7006    0.2436 C   0  0  0  0  0  0  0  0  0  0  0  0
   -0.9964    5.2898   -0.2029 C   0  0  0  0  0  0  0  0  0  0  0  0
   -0.3280    4.4197   -1.1681 N   0  0  0  0  0  0  0  0  0  0  0  0
    0.6250    4.9783   -2.1209 C   0  0  0  0  0  0  0  0  0  0  0  0
   -0.9067    3.1143   -1.2976 C   0  0  0  0  0  0  0  0  0  0  0  0
   -0.5545    2.4078   -2.2432 O   0  0  0  0  0  0  0  0  0  0  0  0
   -0.8958    2.4815    0.1818 C   0  0  2  0  0  0  0  0  0  0  0  0
    0.3491    1.5020   -0.1161 C   0  0  0  0  0  0  0  0  0  0  0  0
    2.7064   -0.0198    0.6000 C   0  0  0  0  0  0  0  0  0  0  0  0
    3.8026   -0.4547    1.3431 C   0  0  0  0  0  0  0  0  0  0  0  0
    5.0839    0.2868    1.3073 C   0  0  0  0  0  0  0  0  0  0  0  0
    5.6353    0.9391    0.3214 N   0  0  0  0  0  0  0  0  0  0  0  0
    6.9176    0.9190    0.1671 C   0  0  0  0  0  0  0  0  0  0  0  0
    7.5369    1.7124   -0.9486 C   0  0  0  0  0  0  0  0  0  0  0  0
    9.0309    1.7823   -0.7611 C   0  0  0  0  0  0  0  0  0  0  0  0
    6.9191    3.0715   -0.9717 C   0  0  0  0  0  0  0  0  0  0  0  0
    7.6622    0.3315    1.1731 C   0  0  0  0  0  0  0  0  0  0  0  0
    6.4331   -0.1863    2.2547 S   0  0  0  0  0  0  0  0  0  0  0  0
    3.7696   -1.7900    1.6184 N   0  0  0  0  0  0  0  0  0  0  0  0
    3.2997   -2.6969    0.7271 C   0  0  0  0  0  0  0  0  0  0  0  0
    3.8812   -3.9314    0.4612 C   0  0  0  0  0  0  0  0  0  0  0  0
    4.7661   -4.4233    1.5666 C   0  0  0  0  0  0  0  0  0  0  0  0
  1  2  1  0
  2  3  1  0
  3  4  2  0
  4  5  1  0
  5  6  2  0
  6  7  1  0
  7  8  1  0
  9  8  1  6
  9 10  1  0
 11 10  1  6
 11 12  1  0
 12 13  2  0
 12 14  1  0
 14 15  1  0
 15 16  1  6
 16 17  2  0
 16 18  1  0
 18 19  1  0
 19 20  2  0
 19 21  2  0
 19 22  1  0
 22 23  1  0
 23 24  1  0
 15 25  1  0
 26 25  1  6
 26 27  1  0
 27 28  2  0
 28 29  1  0
 29 30  1  0
 30 31  1  0
 31 32  1  0
 32 33  1  0
 33 34  1  0
 33 35  1  0
 35 36  2  0
 37 35  1  6
 37 38  1  0
  7 39  2  0
 39 40  1  0
 40 41  1  0
 41 42  2  0
 42 43  1  0
 43 44  1  0
 44 45  1  0
 44 46  1  0
 43 47  2  0
 47 48  1  0
 40 49  2  0
 49 50  1  0
 50 51  2  0
 51 52  1  0
 51  3  1  0
 50  6  1  0
 38  9  1  0
 48 41  1  0
 37 11  1  0
 26 15  1  0
 24 22  1  0
M  END
>  <supplier_code>  (1283) 
DB06290

>  <zinc_id>  (1283) 
ZINC000164760756

>  <catalog_short_name>  (1283) 
dbfda

$$$$

     RDKit          3D

 52 58  0  0  0  0  0  0  0  0999 V2000
    5.5404   -4.2077   -1.5778 C   0  0  0  0  0  0  0  0  0  0  0  0
    4.3104   -4.4612   -1.0515 O   0  0  0  0  0  0  0  0  0  0  0  0
    3.5390   -3.3316   -0.7510 C   0  0  0  0  0  0  0  0  0  0  0  0
    3.0272   -2.6689   -1.8624 C   0  0  0  0  0  0  0  0  0  0  0  0
    2.7204   -1.3121   -1.7687 C   0  0  0  0  0  0  0  0  0  0  0  0
    2.5792   -0.8508   -0.4619 C   0  0  0  0  0  0  0  0  0  0  0  0
    2.2590    0.4957   -0.3157 C   0  0  0  0  0  0  0  0  0  0  0  0
    1.0387    0.8571   -0.8849 O   0  0  0  0  0  0  0  0  0  0  0  0
   -0.1073    0.5294    0.1496 C   0  0  1  0  0  0  0  0  0  0  0  0
   -1.2868    1.2528   -0.7843 C   0  0  0  0  0  0  0  0  0  0  0  0
   -2.2412   -0.0668   -0.9291 C   0  0  1  0  0  0  0  0  0  0  0  0
   -3.0630    0.5272   -2.1811 C   0  0  0  0  0  0  0  0  0  0  0  0
   -2.4717    1.1302   -3.0585 O   0  0  0  0  0  0  0  0  0  0  0  0
   -4.4303    0.6170   -1.8327 N   0  0  0  0  0  0  0  0  0  0  0  0
   -4.9517    0.5280   -0.5856 C   0  0  2  0  0  0  0  0  0  0  0  0
   -5.0414    1.4933    0.4816 C   0  0  0  0  0  0  0  0  0  0  0  0
   -4.4061    1.2881    1.5706 O   0  0  0  0  0  0  0  0  0  0  0  0
   -5.0058    2.9003    0.1771 N   0  0  0  0  0  0  0  0  0  0  0  0
   -4.7110    4.0196    1.4762 S   0  0  0  0  0  0  0  0  0  0  0  0
   -3.5459    3.4596    2.2654 O   0  0  0  0  0  0  0  0  0  0  0  0
   -4.3258    5.3585    0.9976 O   0  0  0  0  0  0  0  0  0  0  0  0
   -6.0906    4.0570    2.6127 C   0  0  0  0  0  0  0  0  0  0  0  0
   -6.4363    2.7897    3.3279 C   0  0  0  0  0  0  0  0  0  0  0  0
   -7.3065    3.2324    2.1326 C   0  0  0  0  0  0  0  0  0  0  0  0
   -4.6466   -0.9220    0.2240 C   0  0  0  0  0  0  0  0  0  0  0  0
   -6.1319   -0.6710   -0.5447 C   0  0  2  0  0  0  0  0  0  0  0  0
   -5.5872   -1.4283   -1.9569 C   0  0  0  0  0  0  0  0  0  0  0  0
   -5.4168   -2.7318   -1.6719 C   0  0  0  0  0  0  0  0  0  0  0  0
   -4.6717   -3.1431   -0.4357 C   0  0  0  0  0  0  0  0  0  0  0  0
   -3.4353   -3.9403   -0.7629 C   0  0  0  0  0  0  0  0  0  0  0  0
   -2.3784   -3.8992    0.2972 C   0  0  0  0  0  0  0  0  0  0  0  0
   -1.2368   -2.9537   -0.0725 C   0  0  0  0  0  0  0  0  0  0  0  0
   -1.0892   -3.1820   -1.5158 N   0  0  0  0  0  0  0  0  0  0  0  0
   -1.1003   -4.5291   -2.0814 C   0  0  0  0  0  0  0  0  0  0  0  0
   -1.6301   -2.0545   -2.1622 C   0  0  0  0  0  0  0  0  0  0  0  0
   -1.8225   -2.1572   -3.4159 O   0  0  0  0  0  0  0  0  0  0  0  0
   -0.9281   -0.6250   -1.9097 C   0  0  2  0  0  0  0  0  0  0  0  0
   -0.2638   -1.0085   -0.4707 C   0  0  0  0  0  0  0  0  0  0  0  0
    3.0372    1.3335    0.4775 C   0  0  0  0  0  0  0  0  0  0  0  0
    4.1824    0.8487    1.1153 C   0  0  0  0  0  0  0  0  0  0  0  0
    5.4880    1.5187    0.9554 C   0  0  0  0  0  0  0  0  0  0  0  0
    5.9263    2.6774    1.4675 N   0  0  0  0  0  0  0  0  0  0  0  0
    7.2346    2.6888    1.6985 C   0  0  0  0  0  0  0  0  0  0  0  0
    7.9046    3.7072    2.5725 C   0  0  0  0  0  0  0  0  0  0  0  0
    9.3365    3.3068    2.8209 C   0  0  0  0  0  0  0  0  0  0  0  0
    7.1294    3.9922    3.8216 C   0  0  0  0  0  0  0  0  0  0  0  0
    7.9578    2.2062    0.6104 C   0  0  0  0  0  0  0  0  0  0  0  0
    6.8106    1.1310   -0.0742 S   0  0  0  0  0  0  0  0  0  0  0  0
    4.1202   -0.4924    1.3379 N   0  0  0  0  0  0  0  0  0  0  0  0
    3.3955   -1.3348    0.5598 C   0  0  0  0  0  0  0  0  0  0  0  0
    3.6516   -2.6991    0.4835 C   0  0  0  0  0  0  0  0  0  0  0  0
    4.5713   -3.2755    1.4863 C   0  0  0  0  0  0  0  0  0  0  0  0
  1  2  1  0
  2  3  1  0
  3  4  2  0
  4  5  1  0
  5  6  2  0
  6  7  1  0
  7  8  1  0
  9  8  1  6
  9 10  1  0
 11 10  1  1
 11 12  1  0
 12 13  2  0
 12 14  1  0
 14 15  1  0
 15 16  1  1
 16 17  2  0
 16 18  1  0
 18 19  1  0
 19 20  2  0
 19 21  2  0
 19 22  1  0
 22 23  1  0
 23 24  1  0
 15 25  1  0
 26 25  1  1
 26 27  1  0
 27 28  2  0
 28 29  1  0
 29 30  1  0
 30 31  1  0
 31 32  1  0
 32 33  1  0
 33 34  1  0
 33 35  1  0
 35 36  2  0
 37 35  1  6
 37 38  1  0
  7 39  2  0
 39 40  1  0
 40 41  1  0
 41 42  2  0
 42 43  1  0
 43 44  1  0
 44 45  1  0
 44 46  1  0
 43 47  2  0
 47 48  1  0
 40 49  2  0
 49 50  1  0
 50 51  2  0
 51 52  1  0
 51  3  1  0
 50  6  1  0
 38  9  1  0
 48 41  1  0
 37 11  1  0
 26 15  1  0
 24 22  1  0
M  END
>  <supplier_code>  (1284) 
DB06290

>  <zinc_id>  (1284) 
ZINC000164760874

>  <catalog_short_name>  (1284) 
dbfda

$$$$

     RDKit          3D

 52 58  0  0  0  0  0  0  0  0999 V2000
    5.2485    4.1901    1.0603 C   0  0  0  0  0  0  0  0  0  0  0  0
    4.4902    3.9536    2.2177 O   0  0  0  0  0  0  0  0  0  0  0  0
    3.7609    2.7713    2.3771 C   0  0  0  0  0  0  0  0  0  0  0  0
    2.5237    2.6589    1.7532 C   0  0  0  0  0  0  0  0  0  0  0  0
    2.1342    1.4293    1.2295 C   0  0  0  0  0  0  0  0  0  0  0  0
    2.9087    0.2866    1.3930 C   0  0  0  0  0  0  0  0  0  0  0  0
    2.7987   -0.7552    0.4750 C   0  0  0  0  0  0  0  0  0  0  0  0
    1.6990   -0.8618   -0.3863 O   0  0  0  0  0  0  0  0  0  0  0  0
    0.3727   -0.4234    0.3312 C   0  0  2  0  0  0  0  0  0  0  0  0
   -0.0128   -1.9878    0.7427 C   0  0  0  0  0  0  0  0  0  0  0  0
   -1.6024   -1.6318    0.9136 C   0  0  1  0  0  0  0  0  0  0  0  0
   -1.4805   -0.0625    1.2854 C   0  0  0  0  0  0  0  0  0  0  0  0
   -0.8924    0.0152    2.4162 O   0  0  0  0  0  0  0  0  0  0  0  0
   -2.7526    0.4929    1.2982 N   0  0  0  0  0  0  0  0  0  0  0  0
   -3.9953    0.1340    0.8646 C   0  0  2  0  0  0  0  0  0  0  0  0
   -4.8956    0.7770   -0.0367 C   0  0  0  0  0  0  0  0  0  0  0  0
   -4.3650    1.6115   -0.8336 O   0  0  0  0  0  0  0  0  0  0  0  0
   -6.2706    1.1052    0.2183 N   0  0  0  0  0  0  0  0  0  0  0  0
   -7.2213    2.0727   -0.8243 S   0  0  0  0  0  0  0  0  0  0  0  0
   -8.3628    1.3015   -1.4495 O   0  0  0  0  0  0  0  0  0  0  0  0
   -6.3510    2.4887   -1.9895 O   0  0  0  0  0  0  0  0  0  0  0  0
   -7.8060    3.5437   -0.0093 C   0  0  0  0  0  0  0  0  0  0  0  0
   -7.0741    4.8476   -0.2765 C   0  0  0  0  0  0  0  0  0  0  0  0
   -6.7498    4.0867    0.9938 C   0  0  0  0  0  0  0  0  0  0  0  0
   -4.8457   -0.2245    2.2786 C   0  0  0  0  0  0  0  0  0  0  0  0
   -4.3133   -1.4569    1.2571 C   0  0  1  0  0  0  0  0  0  0  0  0
   -5.7685   -1.4986    0.4147 C   0  0  0  0  0  0  0  0  0  0  0  0
   -5.6089   -2.3288   -0.6005 C   0  0  0  0  0  0  0  0  0  0  0  0
   -5.0995   -3.6910   -0.2306 C   0  0  0  0  0  0  0  0  0  0  0  0
   -5.4089   -4.6547   -1.3561 C   0  0  0  0  0  0  0  0  0  0  0  0
   -4.1298   -4.7972   -2.1724 C   0  0  0  0  0  0  0  0  0  0  0  0
   -3.3467   -3.5116   -2.0028 C   0  0  0  0  0  0  0  0  0  0  0  0
   -2.0284   -3.8517   -1.4694 N   0  0  0  0  0  0  0  0  0  0  0  0
   -1.4878   -5.1474   -1.8314 C   0  0  0  0  0  0  0  0  0  0  0  0
   -1.0799   -2.8367   -1.1080 C   0  0  0  0  0  0  0  0  0  0  0  0
    0.0156   -2.8559   -1.6551 O   0  0  0  0  0  0  0  0  0  0  0  0
   -1.7851   -1.4096   -0.7887 C   0  0  2  0  0  0  0  0  0  0  0  0
   -0.4827   -0.5025   -1.0620 C   0  0  0  0  0  0  0  0  0  0  0  0
    3.9516   -1.3683   -0.0105 C   0  0  0  0  0  0  0  0  0  0  0  0
    5.2018   -1.0779    0.5319 C   0  0  0  0  0  0  0  0  0  0  0  0
    6.3745   -0.8408   -0.3364 C   0  0  0  0  0  0  0  0  0  0  0  0
    6.6140    0.2207   -1.1458 N   0  0  0  0  0  0  0  0  0  0  0  0
    7.8504    0.7305   -0.9505 C   0  0  0  0  0  0  0  0  0  0  0  0
    8.1437    2.2051   -0.8781 C   0  0  0  0  0  0  0  0  0  0  0  0
    8.2067    2.6176    0.5918 C   0  0  0  0  0  0  0  0  0  0  0  0
    6.9779    2.9905   -1.4710 C   0  0  0  0  0  0  0  0  0  0  0  0
    8.8021   -0.2830   -1.0502 C   0  0  0  0  0  0  0  0  0  0  0  0
    7.9059   -1.6072   -0.4113 S   0  0  0  0  0  0  0  0  0  0  0  0
    5.0965   -0.5077    1.7640 N   0  0  0  0  0  0  0  0  0  0  0  0
    4.1181    0.3810    2.0751 C   0  0  0  0  0  0  0  0  0  0  0  0
    4.3453    1.5695    2.7617 C   0  0  0  0  0  0  0  0  0  0  0  0
    5.6767    1.6932    3.4337 C   0  0  0  0  0  0  0  0  0  0  0  0
  1  2  1  0
  2  3  1  0
  3  4  2  0
  4  5  1  0
  5  6  2  0
  6  7  1  0
  7  8  1  0
  9  8  1  6
  9 10  1  0
 11 10  1  6
 11 12  1  0
 12 13  2  0
 12 14  1  0
 14 15  1  0
 15 16  1  6
 16 17  2  0
 16 18  1  0
 18 19  1  0
 19 20  2  0
 19 21  2  0
 19 22  1  0
 22 23  1  0
 23 24  1  0
 15 25  1  0
 26 25  1  1
 26 27  1  0
 27 28  2  0
 28 29  1  0
 29 30  1  0
 30 31  1  0
 31 32  1  0
 32 33  1  0
 33 34  1  0
 33 35  1  0
 35 36  2  0
 37 35  1  6
 37 38  1  0
  7 39  2  0
 39 40  1  0
 40 41  1  0
 41 42  2  0
 42 43  1  0
 43 44  1  0
 44 45  1  0
 44 46  1  0
 43 47  2  0
 47 48  1  0
 40 49  2  0
 49 50  1  0
 50 51  2  0
 51 52  1  0
 51  3  1  0
 50  6  1  0
 38  9  1  0
 48 41  1  0
 37 11  1  0
 26 15  1  0
 24 22  1  0
M  END
>  <supplier_code>  (1285) 
DB06290

>  <zinc_id>  (1285) 
ZINC000253632968

>  <catalog_short_name>  (1285) 
dbfda

$$$$

     RDKit          3D

 28 30  0  0  0  0  0  0  0  0999 V2000
    6.4065   -2.8061    0.1268 C   0  0  0  0  0  0  0  0  0  0  0  0
    6.8044   -1.6468   -0.6344 C   0  0  0  0  0  0  0  0  0  0  0  0
    6.2310   -0.5324   -0.0429 O   0  0  0  0  0  0  0  0  0  0  0  0
    4.9179   -0.1544   -0.0221 C   0  0  0  0  0  0  0  0  0  0  0  0
    4.0572   -0.2068    1.0776 C   0  0  0  0  0  0  0  0  0  0  0  0
    2.6936    0.0005    0.7837 C   0  0  0  0  0  0  0  0  0  0  0  0
    2.2902    0.1651   -0.5192 C   0  0  0  0  0  0  0  0  0  0  0  0
    1.2098   -0.1098   -1.3858 C   0  0  0  0  0  0  0  0  0  0  0  0
    0.0529   -0.8705   -1.0059 C   0  0  0  0  0  0  0  0  0  0  0  0
   -1.3039   -0.7192   -1.3136 C   0  0  0  0  0  0  0  0  0  0  0  0
   -2.0869   -0.2926   -0.2628 C   0  0  0  0  0  0  0  0  0  0  0  0
   -3.6983   -0.4474   -0.1586 C   0  0  2  0  0  0  0  0  0  0  0  0
   -4.3061    0.8489   -0.4702 O   0  0  0  0  0  0  0  0  0  0  0  0
   -3.6297    2.1376   -0.4710 C   0  0  2  0  0  0  0  0  0  0  0  0
   -2.6919    1.7835   -1.7812 C   0  0  0  0  0  0  0  0  0  0  0  0
   -3.5999    1.6969   -2.8028 O   0  0  0  0  0  0  0  0  0  0  0  0
   -2.4740    1.7609    0.7347 C   0  0  1  0  0  0  0  0  0  0  0  0
   -2.4334    3.1683    1.2234 O   0  0  0  0  0  0  0  0  0  0  0  0
   -3.8017    1.3841    1.7281 C   0  0  2  0  0  0  0  0  0  0  0  0
   -2.9071    1.3540    2.9388 O   0  0  0  0  0  0  0  0  0  0  0  0
   -3.6991   -0.2997    1.5936 C   0  0  1  0  0  0  0  0  0  0  0  0
   -5.1790   -0.4925    1.6441 O   0  0  0  0  0  0  0  0  0  0  0  0
   -1.8677   -1.3756    0.6571 C   0  0  0  0  0  0  0  0  0  0  0  0
   -0.6975   -1.9420    0.9614 C   0  0  0  0  0  0  0  0  0  0  0  0
    0.3333   -1.5627    0.1714 C   0  0  0  0  0  0  0  0  0  0  0  0
    1.5759   -2.8251    0.1708 Cl  0  0  0  0  0  0  0  0  0  0  0  0
    3.2191    1.0530   -1.1026 C   0  0  0  0  0  0  0  0  0  0  0  0
    4.5844    0.9310   -0.8325 C   0  0  0  0  0  0  0  0  0  0  0  0
  1  2  1  0
  2  3  1  0
  3  4  1  0
  4  5  2  0
  5  6  1  0
  6  7  2  0
  7  8  1  0
  8  9  1  0
  9 10  2  0
 10 11  1  0
 12 11  1  6
 12 13  1  0
 13 14  1  0
 14 15  1  6
 15 16  1  0
 14 17  1  0
 17 18  1  1
 17 19  1  0
 19 20  1  1
 19 21  1  0
 21 22  1  1
 11 23  2  0
 23 24  1  0
 24 25  2  0
 25 26  1  0
  7 27  1  0
 27 28  2  0
 28  4  1  0
 25  9  1  0
 21 12  1  0
M  END
>  <supplier_code>  (1286) 
DB06292

>  <zinc_id>  (1286) 
ZINC000003819138

>  <catalog_short_name>  (1286) 
dbfda

$$$$

     RDKit          3D

 23 27  0  0  0  0  0  0  0  0999 V2000
    4.7785    1.6517   -0.3076 N   0  0  0  0  0  0  0  0  0  0  0  0
    3.9406    0.8567   -0.4500 C   0  0  0  0  0  0  0  0  0  0  0  0
    3.7822   -0.4376    0.4806 C   0  0  2  0  0  0  0  0  0  0  0  0
    3.7155   -1.4934   -0.7715 C   0  0  0  0  0  0  0  0  0  0  0  0
    3.3895   -2.6891    0.2914 C   0  0  2  0  0  0  0  0  0  0  0  0
    1.7381   -2.8261   -0.1519 C   0  0  0  0  0  0  0  0  0  0  0  0
    2.1927   -1.8852    1.2058 C   0  0  2  0  0  0  0  0  0  0  0  0
    2.2325   -0.5297    0.4225 N   0  0  0  0  0  0  0  0  0  0  0  0
    1.2165    0.0445   -0.3079 C   0  0  0  0  0  0  0  0  0  0  0  0
    1.5377    0.7540   -1.2568 O   0  0  0  0  0  0  0  0  0  0  0  0
    0.3000    0.6317    0.8886 C   0  0  1  0  0  0  0  0  0  0  0  0
    0.4907    2.1455    0.4932 N   0  0  0  0  0  0  0  0  0  0  0  0
   -1.1861    0.4973    0.1967 C   0  0  0  0  0  0  0  0  0  0  0  0
   -1.7990    1.3071    1.1986 C   0  0  0  0  0  0  0  0  0  0  0  0
   -3.4011    1.5544    1.0836 C   0  0  1  0  0  0  0  0  0  0  0  0
   -3.4308    2.0788   -0.4182 C   0  0  0  0  0  0  0  0  0  0  0  0
   -2.7866    1.2321   -1.6105 C   0  0  2  0  0  0  0  0  0  0  0  0
   -3.3634   -0.2616   -1.2872 C   0  0  0  0  0  0  0  0  0  0  0  0
   -3.0647   -0.7429    0.0328 C   0  0  0  0  0  0  0  0  0  0  0  0
   -3.5303   -2.0496    0.0759 O   0  0  0  0  0  0  0  0  0  0  0  0
   -3.8986    0.0181    0.8536 C   0  0  0  0  0  0  0  0  0  0  0  0
   -1.5977   -0.9429    0.3908 C   0  0  0  0  0  0  0  0  0  0  0  0
   -1.2562    1.0861   -1.0524 C   0  0  0  0  0  0  0  0  0  0  0  0
  1  2  3  0
  3  2  1  6
  3  4  1  0
  5  4  1  6
  5  6  1  0
  7  6  1  6
  7  8  1  0
  8  9  1  0
  9 10  2  0
 11  9  1  6
 11 12  1  0
 11 13  1  0
 13 14  1  0
 15 14  1  6
 15 16  1  0
 17 16  1  1
 17 18  1  0
 18 19  1  0
 19 20  1  0
 19 21  1  0
 19 22  1  0
 17 23  1  0
  8  3  1  0
 22 13  1  0
  7  5  1  0
 23 13  1  0
 21 15  1  0
M  END
>  <supplier_code>  (1287) 
DB06335

>  <zinc_id>  (1287) 
ZINC000013648755

>  <catalog_short_name>  (1287) 
dbfda

$$$$

     RDKit          3D

 23 27  0  0  0  0  0  0  0  0999 V2000
    4.0292    2.2592    1.5719 N   0  0  0  0  0  0  0  0  0  0  0  0
    3.5438    1.3212    1.0309 C   0  0  0  0  0  0  0  0  0  0  0  0
    2.7445   -0.0596    1.1722 C   0  0  2  0  0  0  0  0  0  0  0  0
    3.8628   -1.1180    0.7077 C   0  0  0  0  0  0  0  0  0  0  0  0
    3.9924   -1.1869   -0.8737 C   0  0  2  0  0  0  0  0  0  0  0  0
    4.5181    0.4612   -0.8542 C   0  0  0  0  0  0  0  0  0  0  0  0
    2.9412    0.0427   -1.3958 C   0  0  2  0  0  0  0  0  0  0  0  0
    2.0091    0.1055   -0.1717 N   0  0  0  0  0  0  0  0  0  0  0  0
    1.0161   -0.8305   -0.3644 C   0  0  0  0  0  0  0  0  0  0  0  0
    1.0326   -1.8279   -1.1461 O   0  0  0  0  0  0  0  0  0  0  0  0
   -0.1706   -1.1402    0.6706 C   0  0  1  0  0  0  0  0  0  0  0  0
    0.3061   -0.0884    1.7463 N   0  0  0  0  0  0  0  0  0  0  0  0
   -1.1553   -0.0296   -0.0209 C   0  0  0  0  0  0  0  0  0  0  0  0
   -0.9810    0.0053   -1.3431 C   0  0  0  0  0  0  0  0  0  0  0  0
   -2.5717   -0.0988   -1.6378 C   0  0  2  0  0  0  0  0  0  0  0  0
   -2.5918    1.4414   -1.3138 C   0  0  0  0  0  0  0  0  0  0  0  0
   -3.4025    0.0654   -1.3599 C   0  0  2  0  0  0  0  0  0  0  0  0
   -4.2233    0.8162   -0.1711 C   0  0  0  0  0  0  0  0  0  0  0  0
   -3.3039    0.2487    0.8528 C   0  0  0  0  0  0  0  0  0  0  0  0
   -4.1624    0.4765    1.8245 O   0  0  0  0  0  0  0  0  0  0  0  0
   -3.2066   -0.6663   -0.1380 C   0  0  0  0  0  0  0  0  0  0  0  0
   -1.9496    0.7080    0.9831 C   0  0  0  0  0  0  0  0  0  0  0  0
   -2.2772   -0.9050   -0.5043 C   0  0  0  0  0  0  0  0  0  0  0  0
  1  2  3  0
  3  2  1  6
  3  4  1  0
  5  4  1  1
  5  6  1  0
  7  6  1  1
  7  8  1  0
  8  9  1  0
  9 10  2  0
 11  9  1  6
 11 12  1  0
 11 13  1  0
 13 14  1  0
 15 14  1  1
 15 16  1  0
 17 16  1  6
 17 18  1  0
 18 19  1  0
 19 20  1  0
 19 21  1  0
 19 22  1  0
 17 23  1  0
  8  3  1  0
 22 13  1  0
  7  5  1  0
 23 13  1  0
 21 15  1  0
M  END
>  <supplier_code>  (1288) 
DB06335

>  <zinc_id>  (1288) 
ZINC000100037885

>  <catalog_short_name>  (1288) 
dbfda

$$$$

     RDKit          3D

 23 27  0  0  0  0  0  0  0  0999 V2000
    3.2215    2.8843   -0.5648 N   0  0  0  0  0  0  0  0  0  0  0  0
    2.7147    1.8468   -0.7695 C   0  0  0  0  0  0  0  0  0  0  0  0
    3.6136    0.5468   -0.4858 C   0  0  2  0  0  0  0  0  0  0  0  0
    2.7924   -0.5130   -1.4500 C   0  0  0  0  0  0  0  0  0  0  0  0
    3.8470   -1.6098   -0.8314 C   0  0  2  0  0  0  0  0  0  0  0  0
    2.7858   -2.4817    0.1757 C   0  0  0  0  0  0  0  0  0  0  0  0
    3.6758   -1.1618    0.7985 C   0  0  2  0  0  0  0  0  0  0  0  0
    2.5939   -0.0254    0.5730 N   0  0  0  0  0  0  0  0  0  0  0  0
    1.2634   -0.0845    0.4546 C   0  0  0  0  0  0  0  0  0  0  0  0
    1.0630   -1.2119    0.9060 O   0  0  0  0  0  0  0  0  0  0  0  0
    0.1979   -0.2691   -0.7519 C   0  0  1  0  0  0  0  0  0  0  0  0
   -0.1678   -1.8231   -0.6533 N   0  0  0  0  0  0  0  0  0  0  0  0
   -0.9631    0.4006    0.2053 C   0  0  0  0  0  0  0  0  0  0  0  0
   -1.2753   -0.6600    0.8943 C   0  0  0  0  0  0  0  0  0  0  0  0
   -2.2040    0.3883    0.0444 C   0  0  1  0  0  0  0  0  0  0  0  0
   -2.5413   -0.4184   -1.3458 C   0  0  0  0  0  0  0  0  0  0  0  0
   -2.1731    1.1094   -1.8956 C   0  0  1  0  0  0  0  0  0  0  0  0
   -3.4779    1.5501   -1.0175 C   0  0  0  0  0  0  0  0  0  0  0  0
   -3.5933    0.5160    0.0596 C   0  0  0  0  0  0  0  0  0  0  0  0
   -4.6213   -0.3451   -0.1825 O   0  0  0  0  0  0  0  0  0  0  0  0
   -3.4106    0.1717    1.1664 C   0  0  0  0  0  0  0  0  0  0  0  0
   -2.2959   -0.2994    0.2822 C   0  0  0  0  0  0  0  0  0  0  0  0
   -1.0451    1.4892   -0.7552 C   0  0  0  0  0  0  0  0  0  0  0  0
  1  2  3  0
  3  2  1  6
  3  4  1  0
  5  4  1  6
  5  6  1  0
  7  6  1  1
  7  8  1  0
  8  9  1  0
  9 10  2  0
 11  9  1  1
 11 12  1  0
 11 13  1  0
 13 14  1  0
 15 14  1  1
 15 16  1  0
 17 16  1  1
 17 18  1  0
 18 19  1  0
 19 20  1  0
 19 21  1  0
 19 22  1  0
 17 23  1  0
  8  3  1  0
 22 13  1  0
  7  5  1  0
 23 13  1  0
 21 15  1  0
M  END
>  <supplier_code>  (1289) 
DB06335

>  <zinc_id>  (1289) 
ZINC000100037890

>  <catalog_short_name>  (1289) 
dbfda

$$$$

     RDKit          3D

 35 39  0  0  0  0  0  0  0  0999 V2000
   -6.2400   -0.4983    0.8657 C   0  0  0  0  0  0  0  0  0  0  0  0
   -4.7659   -0.7190    0.7364 C   0  0  0  0  0  0  0  0  0  0  0  0
   -4.1632   -1.9531    0.9396 C   0  0  0  0  0  0  0  0  0  0  0  0
   -4.6237   -3.2479    0.7424 C   0  0  0  0  0  0  0  0  0  0  0  0
   -3.8135   -4.2264    0.1825 C   0  0  0  0  0  0  0  0  0  0  0  0
   -4.3349   -5.3778   -0.4010 O   0  0  0  0  0  0  0  0  0  0  0  0
   -2.4508   -3.9682    0.1379 C   0  0  0  0  0  0  0  0  0  0  0  0
   -1.9627   -2.7917    0.6892 C   0  0  0  0  0  0  0  0  0  0  0  0
   -2.8215   -1.7224    0.7266 C   0  0  0  0  0  0  0  0  0  0  0  0
   -2.5656   -0.3914    0.7336 N   0  0  0  0  0  0  0  0  0  0  0  0
   -1.4300    0.2751    1.3629 C   0  0  0  0  0  0  0  0  0  0  0  0
   -0.2949    0.4460    0.4338 C   0  0  0  0  0  0  0  0  0  0  0  0
    0.0571   -0.4682   -0.5362 C   0  0  0  0  0  0  0  0  0  0  0  0
    1.3741   -0.6083   -0.9528 C   0  0  0  0  0  0  0  0  0  0  0  0
    2.4029   -0.0191   -0.2286 C   0  0  0  0  0  0  0  0  0  0  0  0
    3.6327   -0.6539   -0.0517 O   0  0  0  0  0  0  0  0  0  0  0  0
    4.4976   -0.9820   -1.1095 C   0  0  0  0  0  0  0  0  0  0  0  0
    5.9510   -0.6623   -0.7877 C   0  0  0  0  0  0  0  0  0  0  0  0
    6.0987   -0.0372    0.5008 N   0  0  0  0  0  0  0  0  0  0  0  0
    6.3961    1.3687    0.4317 C   0  0  0  0  0  0  0  0  0  0  0  0
    7.7601    1.6748   -0.1137 C   0  0  0  0  0  0  0  0  0  0  0  0
    8.4911    0.4632   -0.6232 C   0  0  0  0  0  0  0  0  0  0  0  0
    9.1695   -0.1749    0.5840 C   0  0  0  0  0  0  0  0  0  0  0  0
    8.2104    0.0308    1.7505 C   0  0  0  0  0  0  0  0  0  0  0  0
    6.9573   -0.7594    1.4014 C   0  0  0  0  0  0  0  0  0  0  0  0
    2.0417    1.1083    0.4998 C   0  0  0  0  0  0  0  0  0  0  0  0
    0.7082    1.3238    0.8273 C   0  0  0  0  0  0  0  0  0  0  0  0
   -3.7653    0.2295    0.6195 C   0  0  0  0  0  0  0  0  0  0  0  0
   -3.9648    1.5648    0.0861 C   0  0  0  0  0  0  0  0  0  0  0  0
   -5.0250    1.7968   -0.7820 C   0  0  0  0  0  0  0  0  0  0  0  0
   -5.3718    3.0410   -1.2317 C   0  0  0  0  0  0  0  0  0  0  0  0
   -4.5932    4.1086   -0.8178 C   0  0  0  0  0  0  0  0  0  0  0  0
   -5.1572    5.3874   -0.7856 O   0  0  0  0  0  0  0  0  0  0  0  0
   -3.3371    3.8493   -0.2853 C   0  0  0  0  0  0  0  0  0  0  0  0
   -3.0676    2.5931    0.2408 C   0  0  0  0  0  0  0  0  0  0  0  0
  1  2  1  0
  2  3  1  0
  3  4  2  0
  4  5  1  0
  5  6  1  0
  5  7  2  0
  7  8  1  0
  8  9  2  0
  9 10  1  0
 10 11  1  0
 11 12  1  0
 12 13  2  0
 13 14  1  0
 14 15  2  0
 15 16  1  0
 16 17  1  0
 17 18  1  0
 18 19  1  0
 19 20  1  0
 20 21  1  0
 21 22  1  0
 22 23  1  0
 23 24  1  0
 24 25  1  0
 15 26  1  0
 26 27  2  0
 10 28  1  0
 28 29  1  0
 29 30  2  0
 30 31  1  0
 31 32  2  0
 32 33  1  0
 32 34  1  0
 34 35  2  0
 28  2  2  0
 35 29  1  0
  9  3  1  0
 27 12  1  0
 25 19  1  0
M  END
>  <supplier_code>  (1290) 
DB06401

>  <zinc_id>  (1290) 
ZINC000001895505

>  <catalog_short_name>  (1290) 
dbfda

$$$$

     RDKit          3D

 28 30  0  0  0  0  0  0  0  0999 V2000
   -2.7395    0.5834   -2.4020 C   0  0  0  0  0  0  0  0  0  0  0  0
   -2.1466    0.8444   -1.8027 O   0  0  0  0  0  0  0  0  0  0  0  0
   -1.4576    0.2904   -0.7791 C   0  0  0  0  0  0  0  0  0  0  0  0
   -1.5942    0.7940    0.5395 C   0  0  0  0  0  0  0  0  0  0  0  0
   -1.0451    1.9478    1.0852 C   0  0  0  0  0  0  0  0  0  0  0  0
   -1.7148    2.5932    2.1140 C   0  0  0  0  0  0  0  0  0  0  0  0
   -2.6711    1.9236    2.8679 C   0  0  0  0  0  0  0  0  0  0  0  0
   -2.7401    0.5584    2.6716 C   0  0  0  0  0  0  0  0  0  0  0  0
   -2.3468    0.0664    1.4590 C   0  0  0  0  0  0  0  0  0  0  0  0
   -1.8210   -1.1650   -0.8151 C   0  0  0  0  0  0  0  0  0  0  0  0
   -3.1741   -1.4613   -0.9346 C   0  0  0  0  0  0  0  0  0  0  0  0
   -3.5708   -2.7877   -1.0601 C   0  0  0  0  0  0  0  0  0  0  0  0
   -2.5638   -3.7216   -1.1419 C   0  0  0  0  0  0  0  0  0  0  0  0
   -1.3940   -3.4463   -0.4550 C   0  0  0  0  0  0  0  0  0  0  0  0
   -1.0060   -2.1351   -0.2972 C   0  0  0  0  0  0  0  0  0  0  0  0
    0.1423    0.2347   -1.2311 C   0  0  2  0  0  0  0  0  0  0  0  0
    0.6750    0.1409    0.2381 O   0  0  0  0  0  0  0  0  0  0  0  0
    2.0685    0.0419    0.2992 C   0  0  0  0  0  0  0  0  0  0  0  0
    2.5642   -1.1669    0.6661 N   0  0  0  0  0  0  0  0  0  0  0  0
    3.8963   -1.4163    0.6924 C   0  0  0  0  0  0  0  0  0  0  0  0
    4.3406   -2.7682    1.1342 C   0  0  0  0  0  0  0  0  0  0  0  0
    4.7276   -0.3294    0.7560 C   0  0  0  0  0  0  0  0  0  0  0  0
    4.1771    0.8793    0.3688 C   0  0  0  0  0  0  0  0  0  0  0  0
    5.1186    2.0375    0.2912 C   0  0  0  0  0  0  0  0  0  0  0  0
    2.8723    1.0560    0.7029 N   0  0  0  0  0  0  0  0  0  0  0  0
    0.3310    1.8650   -1.2433 C   0  0  0  0  0  0  0  0  0  0  0  0
   -0.5324    2.4714   -1.9181 O   0  0  0  0  0  0  0  0  0  0  0  0
    1.6043    2.0692   -1.8059 O   0  0  0  0  0  0  0  0  0  0  0  0
  1  2  1  0
  2  3  1  0
  3  4  1  0
  4  5  2  0
  5  6  1  0
  6  7  2  0
  7  8  1  0
  8  9  2  0
  3 10  1  0
 10 11  2  0
 11 12  1  0
 12 13  2  0
 13 14  1  0
 14 15  2  0
 16  3  1  1
 16 17  1  0
 17 18  1  0
 18 19  2  0
 19 20  1  0
 20 21  1  0
 20 22  2  0
 22 23  1  0
 23 24  1  0
 23 25  2  0
 16 26  1  0
 26 27  2  0
 26 28  1  0
  9  4  1  0
 15 10  1  0
 25 18  1  0
M  END
>  <supplier_code>  (1291) 
DB06403

>  <zinc_id>  (1291) 
ZINC000000538627

>  <catalog_short_name>  (1291) 
dbfda

$$$$

     RDKit          3D

 30 32  0  0  0  0  0  0  0  0999 V2000
   -4.6369    0.5724   -0.4541 C   0  0  0  0  0  0  0  0  0  0  0  0
   -4.5928   -0.4470   -0.2184 C   0  0  0  0  0  0  0  0  0  0  0  0
   -3.6411   -0.9537    0.7930 C   0  0  0  0  0  0  0  0  0  0  0  0
   -2.7282   -0.0972    1.1735 C   0  0  0  0  0  0  0  0  0  0  0  0
   -2.2378    0.6268   -0.0189 C   0  0  0  0  0  0  0  0  0  0  0  0
   -1.0770    1.2066    0.3015 C   0  0  0  0  0  0  0  0  0  0  0  0
   -1.5736    2.5539    0.7432 C   0  0  0  0  0  0  0  0  0  0  0  0
   -1.2232    3.4690   -0.4280 C   0  0  0  0  0  0  0  0  0  0  0  0
    0.2812    3.5916   -0.6364 C   0  0  0  0  0  0  0  0  0  0  0  0
    0.9183    2.3620   -0.1581 C   0  0  1  0  0  0  0  0  0  0  0  0
    1.0058    2.1057    1.2618 C   0  0  0  0  0  0  0  0  0  0  0  0
   -0.0079    1.2431   -0.8935 C   0  0  1  0  0  0  0  0  0  0  0  0
    0.9587    0.1160   -0.2116 C   0  0  0  0  0  0  0  0  0  0  0  0
    2.0574    0.4694   -1.1286 C   0  0  0  0  0  0  0  0  0  0  0  0
    2.2911    2.0606   -0.9488 C   0  0  2  0  0  0  0  0  0  0  0  0
    3.2178    1.8348    0.4621 C   0  0  2  0  0  0  0  0  0  0  0  0
    3.9115    3.2964    0.2964 C   0  0  0  0  0  0  0  0  0  0  0  0
    4.4476    1.0944   -0.2270 C   0  0  0  0  0  0  0  0  0  0  0  0
    4.5254   -0.1103   -0.5339 C   0  0  0  0  0  0  0  0  0  0  0  0
    4.7594   -1.3275    0.4770 C   0  0  2  0  0  0  0  0  0  0  0  0
    6.1797   -0.7335    1.0252 C   0  0  0  0  0  0  0  0  0  0  0  0
    5.5045   -2.2315   -0.6647 C   0  0  0  0  0  0  0  0  0  0  0  0
    4.3933   -2.8912   -1.4461 C   0  0  0  0  0  0  0  0  0  0  0  0
    6.1838   -3.2735    0.2161 C   0  0  0  0  0  0  0  0  0  0  0  0
   -3.7485   -2.4033    0.9467 C   0  0  0  0  0  0  0  0  0  0  0  0
   -3.5984   -2.9138   -0.6203 C   0  0  1  0  0  0  0  0  0  0  0  0
   -4.0821   -4.3095   -0.2586 O   0  0  0  0  0  0  0  0  0  0  0  0
   -5.0814   -2.5081   -1.1972 C   0  0  0  0  0  0  0  0  0  0  0  0
   -5.7609   -1.5520   -0.0555 C   0  0  2  0  0  0  0  0  0  0  0  0
   -6.6455   -0.8507   -1.0771 O   0  0  0  0  0  0  0  0  0  0  0  0
  1  2  2  0
  2  3  1  0
  3  4  2  0
  4  5  1  0
  5  6  2  0
  6  7  1  0
  7  8  1  0
  8  9  1  0
  9 10  1  0
 10 11  1  1
 10 12  1  0
 12 13  1  1
 13 14  1  0
 15 14  1  6
 15 16  1  0
 16 17  1  6
 16 18  1  0
 18 19  2  0
 20 19  1  6
 20 21  1  0
 20 22  1  0
 22 23  1  0
 22 24  1  0
  3 25  1  0
 25 26  1  0
 26 27  1  1
 26 28  1  0
 28 29  1  0
 29 30  1  6
 29  2  1  0
 12  6  1  0
 15 10  1  0
M  END
>  <supplier_code>  (1292) 
DB06410

>  <zinc_id>  (1292) 
ZINC000004641374

>  <catalog_short_name>  (1292) 
dbfda

$$$$

     RDKit          3D

 30 32  0  0  0  0  0  0  0  0999 V2000
    3.1207    0.4549    1.8622 C   0  0  0  0  0  0  0  0  0  0  0  0
    3.9979    0.6346    1.3180 C   0  0  0  0  0  0  0  0  0  0  0  0
    4.0769    1.4411    0.0803 C   0  0  0  0  0  0  0  0  0  0  0  0
    2.9546    1.3140   -0.6336 C   0  0  0  0  0  0  0  0  0  0  0  0
    1.6990    0.8518   -0.0143 C   0  0  0  0  0  0  0  0  0  0  0  0
    1.0362   -0.0571   -0.6880 C   0  0  0  0  0  0  0  0  0  0  0  0
    1.5969   -1.0112   -1.6418 C   0  0  0  0  0  0  0  0  0  0  0  0
    0.6716   -1.7030   -2.5345 C   0  0  0  0  0  0  0  0  0  0  0  0
   -0.7898   -1.5943   -2.3261 C   0  0  0  0  0  0  0  0  0  0  0  0
   -1.0569   -1.0381   -1.0178 C   0  0  1  0  0  0  0  0  0  0  0  0
   -0.6264   -1.6433    0.1988 C   0  0  0  0  0  0  0  0  0  0  0  0
   -0.3806    0.4326   -1.2631 C   0  0  1  0  0  0  0  0  0  0  0  0
   -0.8489    1.0292    0.1800 C   0  0  0  0  0  0  0  0  0  0  0  0
   -1.9991    0.2534    0.5529 C   0  0  0  0  0  0  0  0  0  0  0  0
   -2.4816   -0.3091   -0.8925 C   0  0  2  0  0  0  0  0  0  0  0  0
   -3.3178   -1.5731   -0.1239 C   0  0  2  0  0  0  0  0  0  0  0  0
   -2.9898   -2.6491   -1.2925 C   0  0  0  0  0  0  0  0  0  0  0  0
   -4.6804   -1.1259   -0.8187 C   0  0  0  0  0  0  0  0  0  0  0  0
   -5.3527   -0.1271   -0.3560 C   0  0  0  0  0  0  0  0  0  0  0  0
   -4.9735    0.4630    1.0872 C   0  0  2  0  0  0  0  0  0  0  0  0
   -6.2426   -0.2596    1.8180 C   0  0  0  0  0  0  0  0  0  0  0  0
   -5.8021    1.8455    0.8176 C   0  0  0  0  0  0  0  0  0  0  0  0
   -4.8643    2.7956    0.1383 C   0  0  0  0  0  0  0  0  0  0  0  0
   -6.1985    2.3325    2.1812 C   0  0  0  0  0  0  0  0  0  0  0  0
    5.2838    1.0334   -0.7350 C   0  0  0  0  0  0  0  0  0  0  0  0
    5.1336   -0.5657   -0.3277 C   0  0  1  0  0  0  0  0  0  0  0  0
    6.1983   -0.9775   -1.3257 O   0  0  0  0  0  0  0  0  0  0  0  0
    6.2015   -0.4090    0.8985 C   0  0  0  0  0  0  0  0  0  0  0  0
    5.4905    0.6470    1.9483 C   0  0  2  0  0  0  0  0  0  0  0  0
    5.1434   -0.4854    2.9100 O   0  0  0  0  0  0  0  0  0  0  0  0
  1  2  2  0
  2  3  1  0
  3  4  2  0
  4  5  1  0
  5  6  2  0
  6  7  1  0
  7  8  1  0
  8  9  1  0
  9 10  1  0
 10 11  1  1
 10 12  1  0
 12 13  1  1
 13 14  1  0
 15 14  1  1
 15 16  1  0
 16 17  1  6
 16 18  1  0
 18 19  2  0
 20 19  1  6
 20 21  1  0
 20 22  1  0
 22 23  1  0
 22 24  1  0
  3 25  1  0
 25 26  1  0
 26 27  1  6
 26 28  1  0
 28 29  1  0
 29 30  1  1
 29  2  1  0
 12  6  1  0
 15 10  1  0
M  END
>  <supplier_code>  (1293) 
DB06410

>  <zinc_id>  (1293) 
ZINC000095915244

>  <catalog_short_name>  (1293) 
dbfda

$$$$

     RDKit          3D

 24 27  0  0  0  0  0  0  0  0999 V2000
    4.4958   -1.3260    0.8226 C   0  0  0  0  0  0  0  0  0  0  0  0
    4.2804   -0.1613   -0.1377 C   0  0  2  0  0  0  0  0  0  0  0  0
    5.1953   -0.1625   -1.1696 O   0  0  0  0  0  0  0  0  0  0  0  0
    4.4663    1.0923    0.7209 C   0  0  0  0  0  0  0  0  0  0  0  0
    3.0987    1.4241    1.2843 C   0  0  0  0  0  0  0  0  0  0  0  0
    2.3107    0.0175    1.0123 C   0  0  1  0  0  0  0  0  0  0  0  0
    0.8812    0.8101    0.5551 C   0  0  2  0  0  0  0  0  0  0  0  0
    0.2673    0.7727    2.0429 C   0  0  0  0  0  0  0  0  0  0  0  0
   -1.1226    1.2858    1.8154 C   0  0  0  0  0  0  0  0  0  0  0  0
   -2.0109    0.0129    1.2554 C   0  0  1  0  0  0  0  0  0  0  0  0
   -3.2205    1.0170    0.7506 C   0  0  0  0  0  0  0  0  0  0  0  0
   -4.0919    0.1685   -0.0850 C   0  0  0  0  0  0  0  0  0  0  0  0
   -5.3374    0.2668    0.0559 O   0  0  0  0  0  0  0  0  0  0  0  0
   -3.4984   -0.8370   -0.9414 C   0  0  0  0  0  0  0  0  0  0  0  0
   -4.2807   -1.8574   -1.2959 C   0  0  0  0  0  0  0  0  0  0  0  0
   -5.5286   -2.0836   -0.7209 O   0  0  0  0  0  0  0  0  0  0  0  0
   -2.0311   -0.9414   -1.0757 C   0  0  0  0  0  0  0  0  0  0  0  0
   -1.2844    0.0283   -0.2216 C   0  0  1  0  0  0  0  0  0  0  0  0
   -1.1379    1.3774   -0.6792 C   0  0  0  0  0  0  0  0  0  0  0  0
    0.1391   -0.6694    0.1626 C   0  0  1  0  0  0  0  0  0  0  0  0
    0.7023   -0.6005   -1.3738 C   0  0  0  0  0  0  0  0  0  0  0  0
    2.1555   -1.0562   -1.2200 C   0  0  0  0  0  0  0  0  0  0  0  0
    2.8634    0.0201   -0.5289 C   0  0  2  0  0  0  0  0  0  0  0  0
    2.6883    1.4018   -1.0558 C   0  0  0  0  0  0  0  0  0  0  0  0
  2  1  1  1
  2  3  1  0
  2  4  1  0
  4  5  1  0
  6  5  1  1
  6  7  1  0
  7  8  1  1
  8  9  1  0
 10  9  1  1
 10 11  1  0
 11 12  1  0
 12 13  2  0
 12 14  1  0
 14 15  2  0
 15 16  1  0
 14 17  1  0
 17 18  1  0
 18 19  1  6
 18 20  1  0
 20 21  1  6
 21 22  1  0
 22 23  1  0
 23 24  1  6
 23  2  1  0
 23  6  1  0
 20  7  1  0
 18 10  1  0
M  END
>  <supplier_code>  (1294) 
DB06412

>  <zinc_id>  (1294) 
ZINC000118912450

>  <catalog_short_name>  (1294) 
dbfda

$$$$

     RDKit          3D

 19 20  0  0  0  0  0  0  0  0999 V2000
    4.2370   -1.2251    0.5206 N   0  0  0  0  0  0  0  0  0  0  0  0
    3.8339    0.0610    0.1537 C   0  0  0  0  0  0  0  0  0  0  0  0
    4.6447    0.7404   -0.5385 O   0  0  0  0  0  0  0  0  0  0  0  0
    2.5782    0.7174    0.5213 C   0  0  0  0  0  0  0  0  0  0  0  0
    1.2957   -0.4840    1.0417 S   0  0  0  0  0  0  0  0  0  0  0  0
    1.8446   -1.8350    0.5023 O   0  0  0  0  0  0  0  0  0  0  0  0
    0.0040   -0.1437   -0.2233 C   0  0  0  0  0  0  0  0  0  0  0  0
   -1.0674   -1.1530   -0.0557 C   0  0  0  0  0  0  0  0  0  0  0  0
   -2.2876   -0.8651    0.5155 C   0  0  0  0  0  0  0  0  0  0  0  0
   -3.2226   -1.8642    0.5916 C   0  0  0  0  0  0  0  0  0  0  0  0
   -2.8859   -3.1574    0.2841 C   0  0  0  0  0  0  0  0  0  0  0  0
   -1.7902   -3.4118   -0.5254 C   0  0  0  0  0  0  0  0  0  0  0  0
   -0.8762   -2.3829   -0.6669 C   0  0  0  0  0  0  0  0  0  0  0  0
   -0.6093    1.1874    0.0432 C   0  0  0  0  0  0  0  0  0  0  0  0
    0.0184    2.1651    0.7723 C   0  0  0  0  0  0  0  0  0  0  0  0
   -0.4430    3.4613    0.7762 C   0  0  0  0  0  0  0  0  0  0  0  0
   -1.5120    3.7864   -0.0441 C   0  0  0  0  0  0  0  0  0  0  0  0
   -2.1310    2.8426   -0.8408 C   0  0  0  0  0  0  0  0  0  0  0  0
   -1.6313    1.5606   -0.7879 C   0  0  0  0  0  0  0  0  0  0  0  0
  1  2  1  0
  2  3  2  0
  2  4  1  0
  5  4  1  6
  5  6  2  0
  5  7  1  0
  7  8  1  0
  8  9  2  0
  9 10  1  0
 10 11  2  0
 11 12  1  0
 12 13  2  0
  7 14  1  0
 14 15  2  0
 15 16  1  0
 16 17  2  0
 17 18  1  0
 18 19  2  0
 13  8  1  0
 19 14  1  0
M  END
>  <supplier_code>  (1295) 
DB06413

>  <zinc_id>  (1295) 
ZINC000003831139

>  <catalog_short_name>  (1295) 
dbfda

$$$$

     RDKit          3D

 28 30  0  0  0  0  0  0  0  0999 V2000
    2.3828   -1.7385   -0.3702 C   0  0  0  0  0  0  0  0  0  0  0  0
    3.2822   -0.6040    0.0089 C   0  0  0  0  0  0  0  0  0  0  0  0
    4.6070   -0.5496   -0.4071 C   0  0  0  0  0  0  0  0  0  0  0  0
    5.5113    0.0273    0.4763 C   0  0  0  0  0  0  0  0  0  0  0  0
    6.9069   -0.0521    0.1279 C   0  0  0  0  0  0  0  0  0  0  0  0
    8.0507    0.0846   -0.0268 N   0  0  0  0  0  0  0  0  0  0  0  0
    5.0925    0.7027    1.6170 C   0  0  0  0  0  0  0  0  0  0  0  0
    3.7378    0.8827    1.8320 C   0  0  0  0  0  0  0  0  0  0  0  0
    3.3106    1.6801    2.9968 C   0  0  0  0  0  0  0  0  0  0  0  0
    2.8205    0.1901    1.0517 C   0  0  0  0  0  0  0  0  0  0  0  0
    1.5307    0.6617    0.9797 O   0  0  0  0  0  0  0  0  0  0  0  0
    0.4501   -0.0332    0.4892 C   0  0  0  0  0  0  0  0  0  0  0  0
   -0.0365    0.3639   -0.7129 N   0  0  0  0  0  0  0  0  0  0  0  0
   -1.1288   -0.2687   -1.1952 C   0  0  0  0  0  0  0  0  0  0  0  0
   -1.6219   -0.0757   -2.5124 N   0  0  0  0  0  0  0  0  0  0  0  0
   -3.0063    0.2739   -2.6281 C   0  0  0  0  0  0  0  0  0  0  0  0
   -3.9948   -0.6916   -2.4917 C   0  0  0  0  0  0  0  0  0  0  0  0
   -5.2114   -0.4169   -1.8782 C   0  0  0  0  0  0  0  0  0  0  0  0
   -5.4085    0.8116   -1.2575 C   0  0  0  0  0  0  0  0  0  0  0  0
   -6.1068    0.9433   -0.0182 C   0  0  0  0  0  0  0  0  0  0  0  0
   -6.6992    1.0842    0.9777 N   0  0  0  0  0  0  0  0  0  0  0  0
   -4.6201    1.8450   -1.7491 C   0  0  0  0  0  0  0  0  0  0  0  0
   -3.4071    1.5799   -2.3734 C   0  0  0  0  0  0  0  0  0  0  0  0
   -1.7428   -1.1830   -0.4053 N   0  0  0  0  0  0  0  0  0  0  0  0
   -1.5317   -1.2186    0.9130 C   0  0  0  0  0  0  0  0  0  0  0  0
   -2.3840   -1.8539    1.8478 N   0  0  0  0  0  0  0  0  0  0  0  0
   -0.4537   -0.5231    1.4240 C   0  0  0  0  0  0  0  0  0  0  0  0
   -0.3293   -0.0903    3.2841 Br  0  0  0  0  0  0  0  0  0  0  0  0
  1  2  1  0
  2  3  2  0
  3  4  1  0
  4  5  1  0
  5  6  3  0
  4  7  2  0
  7  8  1  0
  8  9  1  0
  8 10  2  0
 10 11  1  0
 11 12  1  0
 12 13  2  0
 13 14  1  0
 14 15  1  0
 15 16  1  0
 16 17  2  0
 17 18  1  0
 18 19  2  0
 19 20  1  0
 20 21  3  0
 19 22  1  0
 22 23  2  0
 14 24  2  0
 24 25  1  0
 25 26  1  0
 25 27  2  0
 27 28  1  0
 10  2  1  0
 27 12  1  0
 23 16  1  0
M  END
>  <supplier_code>  (1296) 
DB06414

>  <zinc_id>  (1296) 
ZINC000000602632

>  <catalog_short_name>  (1296) 
dbfda

$$$$

     RDKit          3D

 44 46  0  0  0  0  0  0  0  0999 V2000
    4.6974   -5.2066   -2.2451 C   0  0  0  0  0  0  0  0  0  0  0  0
    5.5335   -4.2930   -2.5394 S   0  0  0  0  0  0  0  0  0  0  0  0
    6.4807   -3.4258   -1.2806 C   0  0  0  0  0  0  0  0  0  0  0  0
    5.9872   -3.6524    0.1167 C   0  0  0  0  0  0  0  0  0  0  0  0
    6.1215   -2.4055    0.8652 N   0  0  0  0  0  0  0  0  0  0  0  0
    5.1806   -1.3723    0.6663 C   0  0  0  0  0  0  0  0  0  0  0  0
    5.4812   -0.0622    0.6552 N   0  0  0  0  0  0  0  0  0  0  0  0
    4.4835    0.8548    0.6790 C   0  0  0  0  0  0  0  0  0  0  0  0
    4.8702    2.4950    1.2759 S   0  0  0  0  0  0  0  0  0  0  0  0
    6.5748    2.8568    0.7784 C   0  0  0  0  0  0  0  0  0  0  0  0
    6.5234    3.6015   -0.5505 C   0  0  0  0  0  0  0  0  0  0  0  0
    6.2520    5.0467   -0.2132 C   0  0  0  0  0  0  0  0  0  0  0  0
    4.9825    5.1263    0.2975 F   0  0  0  0  0  0  0  0  0  0  0  0
    6.4014    5.8016   -1.3516 F   0  0  0  0  0  0  0  0  0  0  0  0
    7.1805    5.4307    0.7322 F   0  0  0  0  0  0  0  0  0  0  0  0
    3.2176    0.5492    0.3092 N   0  0  0  0  0  0  0  0  0  0  0  0
    2.8985   -0.7513    0.1074 C   0  0  0  0  0  0  0  0  0  0  0  0
    3.8927   -1.7023    0.3077 C   0  0  0  0  0  0  0  0  0  0  0  0
    3.2974   -2.9139    0.2086 N   0  0  0  0  0  0  0  0  0  0  0  0
    2.0857   -2.6322   -0.3275 C   0  0  0  0  0  0  0  0  0  0  0  0
    1.7319   -1.4410    0.2272 N   0  0  0  0  0  0  0  0  0  0  0  0
    0.4300   -0.7224   -0.3123 C   0  0  2  0  0  0  0  0  0  0  0  0
   -0.0668   -0.4060    1.0857 O   0  0  0  0  0  0  0  0  0  0  0  0
   -1.2650    0.2502    0.4593 C   0  0  2  0  0  0  0  0  0  0  0  0
   -2.1441    0.1497    1.8318 C   0  0  0  0  0  0  0  0  0  0  0  0
   -3.1068   -0.7074    1.8325 O   0  0  0  0  0  0  0  0  0  0  0  0
   -4.4771   -0.6703    0.9966 P   0  0  1  0  0  0  0  0  0  0  0  0
   -4.4201    0.4163   -0.0370 O   0  0  0  0  0  0  0  0  0  0  0  0
   -4.6881   -2.2260    0.3340 O   0  0  0  0  0  0  0  0  0  0  0  0
   -5.9325   -0.3473    1.7682 O   0  0  0  0  0  0  0  0  0  0  0  0
   -7.1626   -0.6172    0.6499 P   0  0  2  0  0  0  0  0  0  0  0  0
   -8.3986   -0.8855    1.5033 O   0  0  0  0  0  0  0  0  0  0  0  0
   -6.9541   -2.0740   -0.2102 O   0  0  0  0  0  0  0  0  0  0  0  0
   -7.4056    0.6195   -0.5850 C   0  0  0  0  0  0  0  0  0  0  0  0
   -9.1288    0.5543   -1.0847 Cl  0  0  0  0  0  0  0  0  0  0  0  0
   -6.5512    0.3102   -2.1286 Cl  0  0  0  0  0  0  0  0  0  0  0  0
   -7.0954    2.3169   -0.1076 P   0  0  0  0  0  0  0  0  0  0  0  0
   -8.1049    2.7817    0.9150 O   0  0  0  0  0  0  0  0  0  0  0  0
   -7.4061    3.2377   -1.5102 O   0  0  0  0  0  0  0  0  0  0  0  0
   -5.5102    2.5736    0.3770 O   0  0  0  0  0  0  0  0  0  0  0  0
   -1.9206   -1.1670   -0.2359 C   0  0  1  0  0  0  0  0  0  0  0  0
   -1.5874   -0.6007   -1.5906 O   0  0  0  0  0  0  0  0  0  0  0  0
   -0.5283   -2.1148   -0.0593 C   0  0  1  0  0  0  0  0  0  0  0  0
   -0.4496   -2.5753   -1.4833 O   0  0  0  0  0  0  0  0  0  0  0  0
  1  2  1  0
  2  3  1  0
  3  4  1  0
  4  5  1  0
  5  6  1  0
  6  7  2  0
  7  8  1  0
  8  9  1  0
  9 10  1  0
 10 11  1  0
 11 12  1  0
 12 13  1  0
 12 14  1  0
 12 15  1  0
  8 16  2  0
 16 17  1  0
 17 18  2  0
 18 19  1  0
 19 20  2  0
 20 21  1  0
 22 21  1  1
 22 23  1  0
 23 24  1  0
 24 25  1  1
 25 26  1  0
 27 26  1  1
 27 28  2  0
 27 29  1  0
 27 30  1  0
 31 30  1  1
 31 32  2  0
 31 33  1  0
 31 34  1  0
 34 35  1  0
 34 36  1  0
 34 37  1  0
 37 38  2  0
 37 39  1  0
 37 40  1  0
 24 41  1  0
 41 42  1  6
 41 43  1  0
 43 44  1  6
 18  6  1  0
 43 22  1  0
 21 17  1  0
M  END
>  <supplier_code>  (1297) 
DB06441

>  <zinc_id>  (1297) 
ZINC000085537017

>  <catalog_short_name>  (1297) 
dbfda

$$$$

     RDKit          3D

 31 34  0  0  0  0  0  0  0  0999 V2000
    6.1463   -3.5035    0.8457 C   0  0  0  0  0  0  0  0  0  0  0  0
    6.2496   -2.1928    0.1307 C   0  0  0  0  0  0  0  0  0  0  0  0
    5.2179   -1.4688   -0.4546 C   0  0  0  0  0  0  0  0  0  0  0  0
    3.8827   -1.7679   -0.6912 C   0  0  0  0  0  0  0  0  0  0  0  0
    2.9230   -0.7640   -0.7269 C   0  0  0  0  0  0  0  0  0  0  0  0
    3.2499    0.5325   -0.3701 C   0  0  0  0  0  0  0  0  0  0  0  0
    2.3541    1.3756    0.3506 N   0  0  0  0  0  0  0  0  0  0  0  0
    2.8239    2.4540    1.1977 C   0  0  0  0  0  0  0  0  0  0  0  0
    1.0286    0.9100    0.5995 C   0  0  0  0  0  0  0  0  0  0  0  0
    0.7743   -0.4015    0.9575 C   0  0  0  0  0  0  0  0  0  0  0  0
   -0.4778   -0.9121    0.6902 C   0  0  0  0  0  0  0  0  0  0  0  0
   -1.3433   -0.2046   -0.0716 N   0  0  0  0  0  0  0  0  0  0  0  0
   -1.1709    1.1112   -0.2177 C   0  0  0  0  0  0  0  0  0  0  0  0
   -2.1905    1.9212   -0.7715 N   0  0  0  0  0  0  0  0  0  0  0  0
   -3.5571    1.6724   -0.4582 C   0  0  0  0  0  0  0  0  0  0  0  0
   -4.1692    2.5694    0.3917 C   0  0  0  0  0  0  0  0  0  0  0  0
   -5.4962    2.4512    0.7191 C   0  0  0  0  0  0  0  0  0  0  0  0
   -6.1279    1.2725    0.3771 C   0  0  0  0  0  0  0  0  0  0  0  0
   -7.5815    1.1811    0.6274 C   0  0  0  0  0  0  0  0  0  0  0  0
   -5.4255    0.2622   -0.2385 C   0  0  0  0  0  0  0  0  0  0  0  0
   -6.2949   -1.2447   -0.5058 S   0  0  0  0  0  0  0  0  0  0  0  0
   -5.1510   -2.5396   -0.3859 N   0  0  0  0  0  0  0  0  0  0  0  0
   -7.3905   -1.3974    0.5258 O   0  0  0  0  0  0  0  0  0  0  0  0
   -6.8579   -1.1779   -1.8898 O   0  0  0  0  0  0  0  0  0  0  0  0
   -4.0717    0.3828   -0.4925 C   0  0  0  0  0  0  0  0  0  0  0  0
   -0.0356    1.6607    0.2693 N   0  0  0  0  0  0  0  0  0  0  0  0
    4.5951    0.8635   -0.4744 C   0  0  0  0  0  0  0  0  0  0  0  0
    5.5723   -0.1249   -0.4730 C   0  0  0  0  0  0  0  0  0  0  0  0
    6.9034   -0.1379   -0.2180 N   0  0  0  0  0  0  0  0  0  0  0  0
    7.2309   -1.2890    0.3689 N   0  0  0  0  0  0  0  0  0  0  0  0
    8.3893   -1.4938    1.2344 C   0  0  0  0  0  0  0  0  0  0  0  0
  1  2  1  0
  2  3  2  0
  3  4  1  0
  4  5  2  0
  5  6  1  0
  6  7  1  0
  7  8  1  0
  7  9  1  0
  9 10  2  0
 10 11  1  0
 11 12  2  0
 12 13  1  0
 13 14  1  0
 14 15  1  0
 15 16  2  0
 16 17  1  0
 17 18  2  0
 18 19  1  0
 18 20  1  0
 20 21  1  0
 21 22  1  0
 21 23  2  0
 21 24  2  0
 20 25  2  0
 13 26  2  0
  6 27  2  0
 27 28  1  0
 28 29  2  0
 29 30  1  0
 30 31  1  0
 30  2  1  0
 28  3  1  0
 26  9  1  0
 25 15  1  0
M  END
>  <supplier_code>  (1298) 
DB06589

>  <zinc_id>  (1298) 
ZINC000011617039

>  <catalog_short_name>  (1298) 
dbfda

$$$$

     RDKit          3D

 43 47  0  0  0  0  0  0  0  0999 V2000
   -7.2266   -0.8780   -2.7258 C   0  0  0  0  0  0  0  0  0  0  0  0
   -5.9623   -0.8288   -3.0833 C   0  0  0  0  0  0  0  0  0  0  0  0
   -5.1016   -1.7018   -2.3538 O   0  0  0  0  0  0  0  0  0  0  0  0
   -5.3909   -2.0153   -1.0525 N   0  0  0  0  0  0  0  0  0  0  0  0
   -4.5922   -1.7766   -0.0534 C   0  0  0  0  0  0  0  0  0  0  0  0
   -3.2681   -1.2853   -0.4168 C   0  0  0  0  0  0  0  0  0  0  0  0
   -2.5326   -2.0041   -1.1221 O   0  0  0  0  0  0  0  0  0  0  0  0
   -2.5381   -0.3047    0.2814 N   0  0  0  0  0  0  0  0  0  0  0  0
   -2.0211    0.8015   -0.7393 C   0  0  2  0  0  0  0  0  0  0  0  0
   -0.8614   -0.1004   -1.4298 C   0  0  0  0  0  0  0  0  0  0  0  0
   -1.0170   -0.2537   -2.6914 O   0  0  0  0  0  0  0  0  0  0  0  0
    0.0934    0.8865   -0.9670 N   0  0  0  0  0  0  0  0  0  0  0  0
    1.4904    1.0243   -0.6887 C   0  0  0  0  0  0  0  0  0  0  0  0
    2.3685    0.9969   -1.8679 C   0  0  0  0  0  0  0  0  0  0  0  0
    2.3675   -0.0893   -2.5257 O   0  0  0  0  0  0  0  0  0  0  0  0
    2.2801    2.1399   -2.6720 O   0  0  0  0  0  0  0  0  0  0  0  0
    1.9729    1.0870    0.5537 C   0  0  0  0  0  0  0  0  0  0  0  0
    3.6561    1.6939    0.7032 S   0  0  0  0  0  0  0  0  0  0  0  0
    4.7018    0.2614    0.4696 C   0  0  0  0  0  0  0  0  0  0  0  0
    5.9960    0.3204    0.2586 N   0  0  0  0  0  0  0  0  0  0  0  0
    6.6801   -0.7884    0.4745 C   0  0  0  0  0  0  0  0  0  0  0  0
    8.1548   -0.7695    0.5131 C   0  0  0  0  0  0  0  0  0  0  0  0
    8.8985   -1.0372   -0.6321 C   0  0  0  0  0  0  0  0  0  0  0  0
    9.9786   -0.2375   -0.9895 C   0  0  0  0  0  0  0  0  0  0  0  0
   10.3842    0.7777   -0.1860 N   0  0  0  0  0  0  0  0  0  0  0  0
   11.3955    1.7053   -0.6379 C   0  0  0  0  0  0  0  0  0  0  0  0
   10.0416    0.6417    1.1187 C   0  0  0  0  0  0  0  0  0  0  0  0
    8.7699    0.1386    1.3693 C   0  0  0  0  0  0  0  0  0  0  0  0
    5.9907   -1.9273    0.0721 C   0  0  0  0  0  0  0  0  0  0  0  0
    4.3686   -1.4101    0.3173 S   0  0  0  0  0  0  0  0  0  0  0  0
    1.5006    0.1267    1.6033 C   0  0  0  0  0  0  0  0  0  0  0  0
   -0.2614   -0.1580    1.2674 S   0  0  0  0  0  0  0  0  0  0  0  0
   -0.7395    1.3579    0.2145 C   0  0  2  0  0  0  0  0  0  0  0  0
   -5.1201   -1.2502    1.2190 C   0  0  0  0  0  0  0  0  0  0  0  0
   -4.9104   -1.8139    2.4373 N   0  0  0  0  0  0  0  0  0  0  0  0
   -5.9387   -0.8605    3.3947 S   0  0  0  0  0  0  0  0  0  0  0  0
   -6.2802    0.3574    2.2345 C   0  0  0  0  0  0  0  0  0  0  0  0
   -7.2389    1.4208    2.2218 N   0  0  0  0  0  0  0  0  0  0  0  0
   -8.4740    1.4188    0.9661 P   0  0  0  0  0  0  0  0  0  0  0  0
   -9.5501    0.4345    1.3277 O   0  0  0  0  0  0  0  0  0  0  0  0
   -9.0586    2.9595    0.6691 O   0  0  0  0  0  0  0  0  0  0  0  0
   -7.7155    0.8499   -0.4435 O   0  0  0  0  0  0  0  0  0  0  0  0
   -5.2906    0.0901    1.3552 N   0  0  0  0  0  0  0  0  0  0  0  0
  1  2  1  0
  2  3  1  0
  3  4  1  0
  4  5  2  0
  5  6  1  0
  6  7  2  0
  6  8  1  0
  9  8  1  1
  9 10  1  0
 10 11  2  0
 10 12  1  0
 12 13  1  0
 13 14  1  0
 14 15  2  0
 14 16  1  0
 13 17  2  0
 17 18  1  0
 18 19  1  0
 19 20  2  0
 20 21  1  0
 21 22  1  0
 22 23  2  0
 23 24  1  0
 24 25  2  0
 25 26  1  0
 25 27  1  0
 27 28  2  0
 21 29  2  0
 29 30  1  0
 17 31  1  0
 31 32  1  0
 33 32  1  1
  5 34  1  0
 34 35  2  0
 35 36  1  0
 36 37  1  0
 37 38  1  0
 38 39  1  0
 39 40  2  0
 39 41  1  0
 39 42  1  0
 37 43  2  0
 33  9  1  0
 43 34  1  0
 33 12  1  0
 30 19  1  0
 28 22  1  0
M  CHG  1  25   1
M  END
>  <supplier_code>  (1299) 
DB06590

>  <zinc_id>  (1299) 
ZINC000003989268

>  <catalog_short_name>  (1299) 
dbfda

$$$$

     RDKit          3D

 43 47  0  0  0  0  0  0  0  0999 V2000
    4.6223   -1.9600   -3.5750 C   0  0  0  0  0  0  0  0  0  0  0  0
    5.3863   -1.9641   -3.4278 C   0  0  0  0  0  0  0  0  0  0  0  0
    5.7911   -1.5813   -2.1141 O   0  0  0  0  0  0  0  0  0  0  0  0
    4.7786   -1.5723   -1.1726 N   0  0  0  0  0  0  0  0  0  0  0  0
    4.2873   -0.3979   -0.9027 C   0  0  0  0  0  0  0  0  0  0  0  0
    2.9258   -0.3560   -0.3538 C   0  0  0  0  0  0  0  0  0  0  0  0
    2.7468   -0.0008    0.8303 O   0  0  0  0  0  0  0  0  0  0  0  0
    1.8053   -0.7567   -1.1518 N   0  0  0  0  0  0  0  0  0  0  0  0
    0.7488   -1.4977   -0.2544 C   0  0  2  0  0  0  0  0  0  0  0  0
   -0.4384   -1.4420   -1.3316 C   0  0  0  0  0  0  0  0  0  0  0  0
   -0.8037   -2.5100   -1.9141 O   0  0  0  0  0  0  0  0  0  0  0  0
   -1.2115   -0.6877   -0.3711 N   0  0  0  0  0  0  0  0  0  0  0  0
   -2.3672    0.1142   -0.2620 C   0  0  0  0  0  0  0  0  0  0  0  0
   -3.5881   -0.6492    0.0262 C   0  0  0  0  0  0  0  0  0  0  0  0
   -4.0512   -0.4195    1.1892 O   0  0  0  0  0  0  0  0  0  0  0  0
   -3.7358   -1.9871   -0.3593 O   0  0  0  0  0  0  0  0  0  0  0  0
   -2.4230    1.4328   -0.3625 C   0  0  0  0  0  0  0  0  0  0  0  0
   -3.8721    2.1823   -1.0536 S   0  0  0  0  0  0  0  0  0  0  0  0
   -5.2732    1.1098   -1.1897 C   0  0  0  0  0  0  0  0  0  0  0  0
   -6.4780    1.4077   -0.6380 N   0  0  0  0  0  0  0  0  0  0  0  0
   -7.2157    0.2865   -0.4362 C   0  0  0  0  0  0  0  0  0  0  0  0
   -7.7963   -0.1353    0.8589 C   0  0  0  0  0  0  0  0  0  0  0  0
   -8.2782    0.8789    1.6805 C   0  0  0  0  0  0  0  0  0  0  0  0
   -8.2048    0.8036    3.0669 C   0  0  0  0  0  0  0  0  0  0  0  0
   -7.2235    0.0378    3.6030 N   0  0  0  0  0  0  0  0  0  0  0  0
   -6.9270    0.1020    5.0242 C   0  0  0  0  0  0  0  0  0  0  0  0
   -6.9312   -1.0881    2.9074 C   0  0  0  0  0  0  0  0  0  0  0  0
   -7.2771   -1.2158    1.5668 C   0  0  0  0  0  0  0  0  0  0  0  0
   -7.2590   -0.4642   -1.6099 C   0  0  0  0  0  0  0  0  0  0  0  0
   -5.8657    0.1009   -2.4503 S   0  0  0  0  0  0  0  0  0  0  0  0
   -1.1936    2.2741   -0.5457 C   0  0  0  0  0  0  0  0  0  0  0  0
    0.2604    1.2289   -0.9267 S   0  0  0  0  0  0  0  0  0  0  0  0
   -0.0041   -0.1370    0.3729 C   0  0  2  0  0  0  0  0  0  0  0  0
    5.2221    0.7177   -0.6785 C   0  0  0  0  0  0  0  0  0  0  0  0
    4.7547    1.9904   -0.6197 N   0  0  0  0  0  0  0  0  0  0  0  0
    6.1815    2.8512   -0.3050 S   0  0  0  0  0  0  0  0  0  0  0  0
    7.2243    1.5032   -0.0941 C   0  0  0  0  0  0  0  0  0  0  0  0
    8.6144    1.4404    0.2511 N   0  0  0  0  0  0  0  0  0  0  0  0
    9.0684    0.2145    1.4109 P   0  0  0  0  0  0  0  0  0  0  0  0
    8.1214    0.2469    2.5734 O   0  0  0  0  0  0  0  0  0  0  0  0
    8.9742   -1.2941    0.6793 O   0  0  0  0  0  0  0  0  0  0  0  0
   10.6197    0.5403    1.9537 O   0  0  0  0  0  0  0  0  0  0  0  0
    6.2849    0.5455    0.1056 N   0  0  0  0  0  0  0  0  0  0  0  0
  1  2  1  0
  2  3  1  0
  3  4  1  0
  4  5  2  0
  5  6  1  0
  6  7  2  0
  6  8  1  0
  9  8  1  6
  9 10  1  0
 10 11  2  0
 10 12  1  0
 12 13  1  0
 13 14  1  0
 14 15  2  0
 14 16  1  0
 13 17  2  0
 17 18  1  0
 18 19  1  0
 19 20  2  0
 20 21  1  0
 21 22  1  0
 22 23  2  0
 23 24  1  0
 24 25  2  0
 25 26  1  0
 25 27  1  0
 27 28  2  0
 21 29  2  0
 29 30  1  0
 17 31  1  0
 31 32  1  0
 33 32  1  6
  5 34  1  0
 34 35  2  0
 35 36  1  0
 36 37  1  0
 37 38  1  0
 38 39  1  0
 39 40  2  0
 39 41  1  0
 39 42  1  0
 37 43  2  0
 33  9  1  0
 43 34  1  0
 33 12  1  0
 30 19  1  0
 28 22  1  0
M  CHG  1  25   1
M  END
>  <supplier_code>  (1300) 
DB06590

>  <zinc_id>  (1300) 
ZINC000096006023

>  <catalog_short_name>  (1300) 
dbfda

$$$$

     RDKit          3D

 43 51  0  0  0  0  0  0  0  0999 V2000
    1.7723   -1.9426    0.3764 C   0  0  0  0  0  0  0  0  0  0  0  0
    1.6326   -1.6197    0.2121 O   0  0  0  0  0  0  0  0  0  0  0  0
    1.6443   -1.6825   -1.2988 C   0  0  2  0  0  0  0  0  0  0  0  0
    2.2022   -0.0709   -1.5384 C   0  0  2  0  0  0  0  0  0  0  0  0
    3.3661   -0.1334   -0.5049 N   0  0  0  0  0  0  0  0  0  0  0  0
    3.2200    0.5763    0.7619 C   0  0  0  0  0  0  0  0  0  0  0  0
    4.5975    0.2274   -1.1576 C   0  0  0  0  0  0  0  0  0  0  0  0
    4.7431    0.3398   -2.3871 O   0  0  0  0  0  0  0  0  0  0  0  0
    5.7968    0.5353   -0.3567 C   0  0  0  0  0  0  0  0  0  0  0  0
    6.3201   -0.5812    0.2880 C   0  0  0  0  0  0  0  0  0  0  0  0
    7.0153   -0.5188    1.4631 C   0  0  0  0  0  0  0  0  0  0  0  0
    6.8475    0.5799    2.2607 C   0  0  0  0  0  0  0  0  0  0  0  0
    6.2704    1.7086    1.7215 C   0  0  0  0  0  0  0  0  0  0  0  0
    5.6890    1.6568    0.4598 C   0  0  0  0  0  0  0  0  0  0  0  0
    1.0822    0.5514   -0.5357 C   0  0  0  0  0  0  0  0  0  0  0  0
    0.2304    1.0776   -1.8576 C   0  0  1  0  0  0  0  0  0  0  0  0
   -0.1889   -0.3157   -2.2627 O   0  0  0  0  0  0  0  0  0  0  0  0
    0.0775   -1.2988   -1.4941 C   0  0  1  0  0  0  0  0  0  0  0  0
   -0.2495   -2.4968   -2.4145 C   0  0  0  0  0  0  0  0  0  0  0  0
   -0.6679   -1.5731   -0.3095 N   0  0  0  0  0  0  0  0  0  0  0  0
   -1.1131   -2.7845    0.1173 C   0  0  0  0  0  0  0  0  0  0  0  0
   -0.8868   -4.0622   -0.3853 C   0  0  0  0  0  0  0  0  0  0  0  0
   -1.6647   -5.1504   -0.0053 C   0  0  0  0  0  0  0  0  0  0  0  0
   -2.9541   -4.8106    0.3884 C   0  0  0  0  0  0  0  0  0  0  0  0
   -3.0542   -3.6617    1.1471 C   0  0  0  0  0  0  0  0  0  0  0  0
   -2.1521   -2.6092    1.0271 C   0  0  0  0  0  0  0  0  0  0  0  0
   -2.3848   -1.2394    1.0715 C   0  0  0  0  0  0  0  0  0  0  0  0
   -3.4787   -0.5149    1.5392 C   0  0  0  0  0  0  0  0  0  0  0  0
   -3.5770    0.8483    1.2784 C   0  0  0  0  0  0  0  0  0  0  0  0
   -2.6438    1.4526    0.4516 C   0  0  0  0  0  0  0  0  0  0  0  0
   -2.3961    2.7539    0.0521 C   0  0  0  0  0  0  0  0  0  0  0  0
   -2.9624    3.9568    0.3822 C   0  0  0  0  0  0  0  0  0  0  0  0
   -2.7163    5.0494   -0.4380 C   0  0  0  0  0  0  0  0  0  0  0  0
   -1.9494    4.8755   -1.5834 C   0  0  0  0  0  0  0  0  0  0  0  0
   -1.1754    3.7497   -1.7306 C   0  0  0  0  0  0  0  0  0  0  0  0
   -1.4041    2.6539   -0.9084 C   0  0  0  0  0  0  0  0  0  0  0  0
   -1.0835    1.3545   -1.0248 N   0  0  0  0  0  0  0  0  0  0  0  0
   -1.5747    0.7148   -0.0016 C   0  0  0  0  0  0  0  0  0  0  0  0
   -1.3754   -0.6170    0.3504 C   0  0  0  0  0  0  0  0  0  0  0  0
   -4.8745    1.3511    1.6913 C   0  0  0  0  0  0  0  0  0  0  0  0
   -5.4102    2.4773    1.5142 O   0  0  0  0  0  0  0  0  0  0  0  0
   -5.6884    0.1858    1.8776 N   0  0  0  0  0  0  0  0  0  0  0  0
   -4.8811   -0.9937    1.7633 C   0  0  0  0  0  0  0  0  0  0  0  0
  1  2  1  0
  3  2  1  1
  3  4  1  0
  4  5  1  1
  5  6  1  0
  5  7  1  0
  7  8  2  0
  7  9  1  0
  9 10  2  0
 10 11  1  0
 11 12  2  0
 12 13  1  0
 13 14  2  0
  4 15  1  0
 16 15  1  1
 16 17  1  0
 17 18  1  0
 18 19  1  6
 18 20  1  0
 20 21  1  0
 21 22  2  0
 22 23  1  0
 23 24  2  0
 24 25  1  0
 25 26  2  0
 26 27  1  0
 27 28  2  0
 28 29  1  0
 29 30  2  0
 30 31  1  0
 31 32  2  0
 32 33  1  0
 33 34  2  0
 34 35  1  0
 35 36  2  0
 36 37  1  0
 37 38  1  0
 38 39  2  0
 29 40  1  0
 40 41  2  0
 40 42  1  0
 42 43  1  0
 18  3  1  0
 39 20  1  0
 14  9  1  0
 37 16  1  0
 26 21  1  0
 39 27  1  0
 43 28  1  0
 38 30  1  0
 36 31  1  0
M  END
>  <supplier_code>  (1301) 
DB06595

>  <zinc_id>  (1301) 
ZINC000100013130

>  <catalog_short_name>  (1301) 
dbfda

$$$$

     RDKit          3D

 26 28  0  0  0  0  0  0  0  0999 V2000
   -1.9731   -1.3284    2.1620 C   0  0  0  0  0  0  0  0  0  0  0  0
   -3.0873   -0.5264    1.5697 C   0  0  0  0  0  0  0  0  0  0  0  0
   -4.3120   -0.3603    2.1240 N   0  0  0  0  0  0  0  0  0  0  0  0
   -5.2267   -0.1732    1.1421 C   0  0  0  0  0  0  0  0  0  0  0  0
   -6.6060   -0.3185    1.0646 C   0  0  0  0  0  0  0  0  0  0  0  0
   -7.1630   -0.7420   -0.1323 C   0  0  0  0  0  0  0  0  0  0  0  0
   -6.5298   -0.4729   -1.3388 C   0  0  0  0  0  0  0  0  0  0  0  0
   -5.2574    0.0709   -1.2479 C   0  0  0  0  0  0  0  0  0  0  0  0
   -4.5578    0.0800   -0.0477 C   0  0  0  0  0  0  0  0  0  0  0  0
   -3.2140   -0.0393    0.2853 C   0  0  0  0  0  0  0  0  0  0  0  0
   -2.0737    0.1719   -0.6484 C   0  0  0  0  0  0  0  0  0  0  0  0
   -1.3106    1.4353   -0.3510 C   0  0  0  0  0  0  0  0  0  0  0  0
   -0.9298    1.5530    1.0361 N   0  0  0  0  0  0  0  0  0  0  0  0
    0.5178    1.4994    1.1700 C   0  0  0  0  0  0  0  0  0  0  0  0
    1.0399    0.5731    0.1175 C   0  0  0  0  0  0  0  0  0  0  0  0
    1.3851    1.1090   -1.1129 C   0  0  0  0  0  0  0  0  0  0  0  0
    2.4768    0.6535   -1.8378 C   0  0  0  0  0  0  0  0  0  0  0  0
    3.1738   -0.4465   -1.3959 C   0  0  0  0  0  0  0  0  0  0  0  0
    4.6220   -0.5727   -1.6066 C   0  0  0  0  0  0  0  0  0  0  0  0
    5.4752    0.3530   -1.2203 C   0  0  0  0  0  0  0  0  0  0  0  0
    6.7284    0.0947   -0.5454 C   0  0  0  0  0  0  0  0  0  0  0  0
    7.5968    1.0106   -0.5589 O   0  0  0  0  0  0  0  0  0  0  0  0
    7.0588   -1.1072    0.1165 N   0  0  0  0  0  0  0  0  0  0  0  0
    7.9427   -1.1177    1.1531 O   0  0  0  0  0  0  0  0  0  0  0  0
    2.6009   -1.1770   -0.3620 C   0  0  0  0  0  0  0  0  0  0  0  0
    1.6230   -0.6389    0.4650 C   0  0  0  0  0  0  0  0  0  0  0  0
  1  2  1  0
  2  3  1  0
  3  4  1  0
  4  5  2  0
  5  6  1  0
  6  7  2  0
  7  8  1  0
  8  9  2  0
  9 10  1  0
 10 11  1  0
 11 12  1  0
 12 13  1  0
 13 14  1  0
 14 15  1  0
 15 16  2  0
 16 17  1  0
 17 18  2  0
 18 19  1  0
 19 20  2  0
 20 21  1  0
 21 22  2  0
 21 23  1  0
 23 24  1  0
 18 25  1  0
 25 26  2  0
 10  2  2  0
 26 15  1  0
  9  4  1  0
M  END
>  <supplier_code>  (1302) 
DB06603

>  <zinc_id>  (1302) 
ZINC000022010649

>  <catalog_short_name>  (1302) 
dbfda

$$$$

     RDKit          3D

 26 28  0  0  0  0  0  0  0  0999 V2000
    1.9981    0.1091    3.3943 C   0  0  0  0  0  0  0  0  0  0  0  0
    2.8942    0.1928    2.2179 C   0  0  0  0  0  0  0  0  0  0  0  0
    4.0237    0.9321    2.1959 N   0  0  0  0  0  0  0  0  0  0  0  0
    4.7416    0.6604    1.0929 C   0  0  0  0  0  0  0  0  0  0  0  0
    5.5642    1.4534    0.3024 C   0  0  0  0  0  0  0  0  0  0  0  0
    5.7717    1.1421   -1.0154 C   0  0  0  0  0  0  0  0  0  0  0  0
    5.5299   -0.1615   -1.4243 C   0  0  0  0  0  0  0  0  0  0  0  0
    4.6751   -0.9290   -0.6439 C   0  0  0  0  0  0  0  0  0  0  0  0
    4.1815   -0.4889    0.5691 C   0  0  0  0  0  0  0  0  0  0  0  0
    3.1410   -0.8738    1.3778 C   0  0  0  0  0  0  0  0  0  0  0  0
    2.1107   -1.8723    0.9538 C   0  0  0  0  0  0  0  0  0  0  0  0
    1.3338   -1.2341   -0.1902 C   0  0  0  0  0  0  0  0  0  0  0  0
    0.7748    0.0078    0.3343 N   0  0  0  0  0  0  0  0  0  0  0  0
    0.5473    0.8995   -0.7947 C   0  0  0  0  0  0  0  0  0  0  0  0
   -0.8973    0.9670   -1.1484 C   0  0  0  0  0  0  0  0  0  0  0  0
   -1.2541    0.5231   -2.4113 C   0  0  0  0  0  0  0  0  0  0  0  0
   -2.5292    0.0921   -2.6913 C   0  0  0  0  0  0  0  0  0  0  0  0
   -3.4901    0.0102   -1.6913 C   0  0  0  0  0  0  0  0  0  0  0  0
   -4.8417   -0.2915   -2.1109 C   0  0  0  0  0  0  0  0  0  0  0  0
   -5.7142   -0.7673   -1.2539 C   0  0  0  0  0  0  0  0  0  0  0  0
   -5.6371   -0.3188    0.1406 C   0  0  0  0  0  0  0  0  0  0  0  0
   -5.4094   -1.2374    0.9856 O   0  0  0  0  0  0  0  0  0  0  0  0
   -6.4619    0.7496    0.6217 N   0  0  0  0  0  0  0  0  0  0  0  0
   -6.0624    1.3564    1.7717 O   0  0  0  0  0  0  0  0  0  0  0  0
   -3.1188    0.3213   -0.4101 C   0  0  0  0  0  0  0  0  0  0  0  0
   -1.8714    0.8792   -0.1724 C   0  0  0  0  0  0  0  0  0  0  0  0
  1  2  1  0
  2  3  1  0
  3  4  1  0
  4  5  2  0
  5  6  1  0
  6  7  2  0
  7  8  1  0
  8  9  2  0
  9 10  1  0
 10 11  1  0
 11 12  1  0
 12 13  1  0
 13 14  1  0
 14 15  1  0
 15 16  2  0
 16 17  1  0
 17 18  2  0
 18 19  1  0
 19 20  2  0
 20 21  1  0
 21 22  2  0
 21 23  1  0
 23 24  1  0
 18 25  1  0
 25 26  2  0
 10  2  2  0
 26 15  1  0
  9  4  1  0
M  END
>  <supplier_code>  (1303) 
DB06603

>  <zinc_id>  (1303) 
ZINC000051951647

>  <catalog_short_name>  (1303) 
dbfda

$$$$

     RDKit          3D

 34 38  0  0  0  0  0  0  0  0999 V2000
   -4.9433   -0.0534    4.3243 C   0  0  0  0  0  0  0  0  0  0  0  0
   -5.8355   -0.5271    3.3451 O   0  0  0  0  0  0  0  0  0  0  0  0
   -5.4070   -0.5603    2.0197 C   0  0  0  0  0  0  0  0  0  0  0  0
   -5.5606    0.5648    1.2312 C   0  0  0  0  0  0  0  0  0  0  0  0
   -4.9202    0.5678    0.0115 C   0  0  0  0  0  0  0  0  0  0  0  0
   -4.0895   -0.4874   -0.3427 C   0  0  0  0  0  0  0  0  0  0  0  0
   -3.2375   -0.3029   -1.4669 N   0  0  0  0  0  0  0  0  0  0  0  0
   -3.5293   -0.1845   -2.7459 N   0  0  0  0  0  0  0  0  0  0  0  0
   -2.5299    0.4679   -3.3877 C   0  0  0  0  0  0  0  0  0  0  0  0
   -2.5736    1.1542   -4.6670 C   0  0  0  0  0  0  0  0  0  0  0  0
   -1.6956    0.6708   -5.6853 N   0  0  0  0  0  0  0  0  0  0  0  0
   -3.0006    2.3206   -4.7836 O   0  0  0  0  0  0  0  0  0  0  0  0
   -1.4876    0.6402   -2.4871 C   0  0  0  0  0  0  0  0  0  0  0  0
   -1.9365    0.0439   -1.3223 C   0  0  0  0  0  0  0  0  0  0  0  0
   -0.9941    0.0378   -0.1966 C   0  0  0  0  0  0  0  0  0  0  0  0
   -1.2512   -0.6408    0.8191 O   0  0  0  0  0  0  0  0  0  0  0  0
    0.2147    0.8002   -0.2172 N   0  0  0  0  0  0  0  0  0  0  0  0
    1.4020    0.1957    0.3093 C   0  0  0  0  0  0  0  0  0  0  0  0
    2.3610   -0.1548   -0.6327 C   0  0  0  0  0  0  0  0  0  0  0  0
    3.7056   -0.2358   -0.2923 C   0  0  0  0  0  0  0  0  0  0  0  0
    4.0320   -0.2315    1.0508 C   0  0  0  0  0  0  0  0  0  0  0  0
    5.3931   -0.3803    1.3904 N   0  0  0  0  0  0  0  0  0  0  0  0
    6.3779   -0.8413    0.4153 C   0  0  0  0  0  0  0  0  0  0  0  0
    7.6183    0.0233    0.5828 C   0  0  0  0  0  0  0  0  0  0  0  0
    8.2007   -0.0918    1.9727 C   0  0  0  0  0  0  0  0  0  0  0  0
    7.2758   -0.7834    2.9385 C   0  0  0  0  0  0  0  0  0  0  0  0
    5.8560   -0.3500    2.7463 C   0  0  0  0  0  0  0  0  0  0  0  0
    5.0157   -0.3778    3.6958 O   0  0  0  0  0  0  0  0  0  0  0  0
    3.0250   -0.2236    1.9785 C   0  0  0  0  0  0  0  0  0  0  0  0
    1.8352    0.3838    1.5957 C   0  0  0  0  0  0  0  0  0  0  0  0
    0.2702    1.8632   -1.2171 C   0  0  0  0  0  0  0  0  0  0  0  0
   -0.1517    1.2689   -2.5548 C   0  0  0  0  0  0  0  0  0  0  0  0
   -4.4264   -1.7233    0.1575 C   0  0  0  0  0  0  0  0  0  0  0  0
   -5.0133   -1.7429    1.4147 C   0  0  0  0  0  0  0  0  0  0  0  0
  1  2  1  0
  2  3  1  0
  3  4  2  0
  4  5  1  0
  5  6  2  0
  6  7  1  0
  7  8  1  0
  8  9  2  0
  9 10  1  0
 10 11  1  0
 10 12  2  0
  9 13  1  0
 13 14  2  0
 14 15  1  0
 15 16  2  0
 15 17  1  0
 17 18  1  0
 18 19  2  0
 19 20  1  0
 20 21  2  0
 21 22  1  0
 22 23  1  0
 23 24  1  0
 24 25  1  0
 25 26  1  0
 26 27  1  0
 27 28  2  0
 21 29  1  0
 29 30  2  0
 17 31  1  0
 31 32  1  0
  6 33  1  0
 33 34  2  0
 34  3  1  0
 14  7  1  0
 30 18  1  0
 32 13  1  0
 27 22  1  0
M  END
>  <supplier_code>  (1304) 
DB06605

>  <zinc_id>  (1304) 
ZINC000011677837

>  <catalog_short_name>  (1304) 
dbfda

$$$$

     RDKit          3D

 23 23  0  0  0  0  0  0  0  0999 V2000
    1.9268    3.1463    2.1864 C   0  0  0  0  0  0  0  0  0  0  0  0
    1.6261    1.7234    2.1742 C   0  0  0  0  0  0  0  0  0  0  0  0
    1.8181    1.2331    0.7589 C   0  0  0  0  0  0  0  0  0  0  0  0
    3.2530    0.9823    0.4052 C   0  0  0  0  0  0  0  0  0  0  0  0
    3.9153    2.3146    0.2032 C   0  0  0  0  0  0  0  0  0  0  0  0
    1.2164   -0.3217    0.7835 C   0  0  2  0  0  0  0  0  0  0  0  0
    1.5657   -0.5138   -0.7630 N   0  0  0  0  0  0  0  0  0  0  0  0
    2.5356   -1.5576   -0.9007 C   0  0  0  0  0  0  0  0  0  0  0  0
    3.0306   -2.0007   -2.2420 C   0  0  0  0  0  0  0  0  0  0  0  0
    2.9682   -2.2290    0.0740 O   0  0  0  0  0  0  0  0  0  0  0  0
   -0.3652    0.2569    0.5550 C   0  0  1  0  0  0  0  0  0  0  0  0
   -0.7538   -0.5793   -0.8546 C   0  0  2  0  0  0  0  0  0  0  0  0
   -0.4491    0.7296   -1.7156 N   0  0  0  0  0  0  0  0  0  0  0  0
   -1.4134    1.2101   -2.5826 C   0  0  0  0  0  0  0  0  0  0  0  0
   -2.6388    0.8496   -2.4104 N   0  0  0  0  0  0  0  0  0  0  0  0
   -1.1335    2.5163   -3.1190 N   0  0  0  0  0  0  0  0  0  0  0  0
   -2.3082   -0.0783   -0.4905 C   0  0  0  0  0  0  0  0  0  0  0  0
   -2.2083   -1.4810    0.3408 C   0  0  2  0  0  0  0  0  0  0  0  0
   -3.5482   -1.1806    1.1941 C   0  0  0  0  0  0  0  0  0  0  0  0
   -4.0242   -2.2254    1.7368 O   0  0  0  0  0  0  0  0  0  0  0  0
   -3.6482    0.0579    1.7674 O   0  0  0  0  0  0  0  0  0  0  0  0
   -1.1631   -0.8403    1.5710 C   0  0  1  0  0  0  0  0  0  0  0  0
   -0.2018   -2.0126    1.3278 O   0  0  0  0  0  0  0  0  0  0  0  0
  1  2  1  0
  2  3  1  0
  3  4  1  0
  4  5  1  0
  6  3  1  6
  6  7  1  0
  7  8  1  0
  8  9  1  0
  8 10  2  0
 11  6  1  1
 11 12  1  0
 12 13  1  6
 13 14  1  0
 14 15  2  0
 14 16  1  0
 12 17  1  0
 17 18  1  0
 18 19  1  1
 19 20  2  0
 19 21  1  0
 18 22  1  0
 22 23  1  6
 22 11  1  0
M  END
>  <supplier_code>  (1305) 
DB06614

>  <zinc_id>  (1305) 
ZINC000003981610

>  <catalog_short_name>  (1305) 
dbfda

$$$$

     RDKit          3D

 23 23  0  0  0  0  0  0  0  0999 V2000
   -3.7868   -0.9367   -0.5281 C   0  0  0  0  0  0  0  0  0  0  0  0
   -3.1408   -1.3820   -0.4812 C   0  0  0  0  0  0  0  0  0  0  0  0
   -1.6255   -1.2041   -0.5232 C   0  0  0  0  0  0  0  0  0  0  0  0
   -1.3416   -1.3233   -2.0208 C   0  0  0  0  0  0  0  0  0  0  0  0
   -2.2950   -0.3140   -2.6545 C   0  0  0  0  0  0  0  0  0  0  0  0
   -1.3903    0.3951   -0.3000 C   0  0  1  0  0  0  0  0  0  0  0  0
   -2.2921    0.4616    0.9734 N   0  0  0  0  0  0  0  0  0  0  0  0
   -2.1472   -0.4635    1.9887 C   0  0  0  0  0  0  0  0  0  0  0  0
   -3.0756   -0.5873    3.1494 C   0  0  0  0  0  0  0  0  0  0  0  0
   -1.2800   -1.3495    1.9531 O   0  0  0  0  0  0  0  0  0  0  0  0
    0.0129    0.1429    0.5881 C   0  0  1  0  0  0  0  0  0  0  0  0
    0.9021   -0.2256   -0.7776 C   0  0  2  0  0  0  0  0  0  0  0  0
    1.2922   -1.6386   -0.2392 N   0  0  0  0  0  0  0  0  0  0  0  0
    2.4519   -2.0974   -0.5265 C   0  0  0  0  0  0  0  0  0  0  0  0
    2.4977   -3.4553   -0.9968 N   0  0  0  0  0  0  0  0  0  0  0  0
    3.4334   -1.8181    0.4867 N   0  0  0  0  0  0  0  0  0  0  0  0
    2.2523    0.4741   -0.1758 C   0  0  0  0  0  0  0  0  0  0  0  0
    1.4313    1.7779   -0.6787 C   0  0  2  0  0  0  0  0  0  0  0  0
    2.5035    2.8048   -0.1132 C   0  0  0  0  0  0  0  0  0  0  0  0
    2.8286    2.8096    1.0686 O   0  0  0  0  0  0  0  0  0  0  0  0
    2.8392    3.7584   -1.0469 O   0  0  0  0  0  0  0  0  0  0  0  0
    0.5352    1.7244    0.7603 C   0  0  1  0  0  0  0  0  0  0  0  0
   -0.6054    2.4465    0.0944 O   0  0  0  0  0  0  0  0  0  0  0  0
  1  2  1  0
  2  3  1  0
  3  4  1  0
  4  5  1  0
  6  3  1  6
  6  7  1  0
  7  8  1  0
  8  9  1  0
  8 10  2  0
 11  6  1  6
 11 12  1  0
 12 13  1  1
 13 14  2  3
 14 15  1  0
 14 16  1  0
 12 17  1  0
 17 18  1  0
 18 19  1  1
 19 20  2  0
 19 21  1  0
 18 22  1  0
 22 23  1  6
 22 11  1  0
M  END
>  <supplier_code>  (1306) 
DB06614

>  <zinc_id>  (1306) 
ZINC000005819214

>  <catalog_short_name>  (1306) 
dbfda

$$$$

     RDKit          3D

 36 39  0  0  0  0  0  0  0  0999 V2000
   -4.8491    2.8352    3.2138 C   0  0  0  0  0  0  0  0  0  0  0  0
   -5.7364    1.7403    3.0312 O   0  0  0  0  0  0  0  0  0  0  0  0
   -5.4350    0.8301    2.0152 C   0  0  0  0  0  0  0  0  0  0  0  0
   -4.6170    1.1492    0.9479 C   0  0  0  0  0  0  0  0  0  0  0  0
   -3.9559    0.1765    0.2066 C   0  0  0  0  0  0  0  0  0  0  0  0
   -2.7696    0.5803   -0.4449 N   0  0  0  0  0  0  0  0  0  0  0  0
   -2.2188   -0.0397   -1.5876 C   0  0  0  0  0  0  0  0  0  0  0  0
   -2.9254   -0.0562   -2.7850 C   0  0  0  0  0  0  0  0  0  0  0  0
   -4.3505    0.1823   -2.7640 C   0  0  0  0  0  0  0  0  0  0  0  0
   -5.5095    0.2457   -2.6799 N   0  0  0  0  0  0  0  0  0  0  0  0
   -2.2502   -0.3674   -3.9578 C   0  0  0  0  0  0  0  0  0  0  0  0
   -0.9529   -0.7517   -3.8897 N   0  0  0  0  0  0  0  0  0  0  0  0
   -0.2375   -0.6748   -2.7430 C   0  0  0  0  0  0  0  0  0  0  0  0
    1.1162   -0.9711   -2.6922 C   0  0  0  0  0  0  0  0  0  0  0  0
    1.8400   -0.5002   -1.6032 C   0  0  0  0  0  0  0  0  0  0  0  0
    2.9695   -1.1690   -1.1210 O   0  0  0  0  0  0  0  0  0  0  0  0
    2.8238   -2.0611   -0.0190 C   0  0  0  0  0  0  0  0  0  0  0  0
    3.5709   -1.5952    1.1998 C   0  0  0  0  0  0  0  0  0  0  0  0
    4.9284   -1.0523    0.8259 C   0  0  0  0  0  0  0  0  0  0  0  0
    5.9338   -1.3564    1.8392 N   0  0  0  0  0  0  0  0  0  0  0  0
    7.2338   -1.3093    1.1807 C   0  0  0  0  0  0  0  0  0  0  0  0
    8.1429   -0.2741    1.7944 C   0  0  0  0  0  0  0  0  0  0  0  0
    7.5611    1.0597    1.7755 N   0  0  0  0  0  0  0  0  0  0  0  0
    7.6905    1.6300    0.4356 C   0  0  0  0  0  0  0  0  0  0  0  0
    6.1743    1.0254    2.1897 C   0  0  0  0  0  0  0  0  0  0  0  0
    5.9354   -0.3248    2.8450 C   0  0  0  0  0  0  0  0  0  0  0  0
    1.3071    0.5194   -0.8237 C   0  0  0  0  0  0  0  0  0  0  0  0
    2.1904    1.3760   -0.1906 O   0  0  0  0  0  0  0  0  0  0  0  0
    2.9004    2.3495   -0.9458 C   0  0  0  0  0  0  0  0  0  0  0  0
   -0.0679    0.7134   -0.7750 C   0  0  0  0  0  0  0  0  0  0  0  0
   -0.8387    0.0543   -1.7247 C   0  0  0  0  0  0  0  0  0  0  0  0
   -4.1363   -1.1395    0.5984 C   0  0  0  0  0  0  0  0  0  0  0  0
   -2.9825   -2.3878    0.1493 Cl  0  0  0  0  0  0  0  0  0  0  0  0
   -5.2303   -1.4483    1.3859 C   0  0  0  0  0  0  0  0  0  0  0  0
   -5.8480   -0.4862    2.1741 C   0  0  0  0  0  0  0  0  0  0  0  0
   -7.4070   -0.7778    2.9389 Cl  0  0  0  0  0  0  0  0  0  0  0  0
  1  2  1  0
  2  3  1  0
  3  4  2  0
  4  5  1  0
  5  6  1  0
  6  7  1  0
  7  8  2  0
  8  9  1  0
  9 10  3  0
  8 11  1  0
 11 12  2  0
 12 13  1  0
 13 14  2  0
 14 15  1  0
 15 16  1  0
 16 17  1  0
 17 18  1  0
 18 19  1  0
 19 20  1  0
 20 21  1  0
 21 22  1  0
 22 23  1  0
 23 24  1  0
 23 25  1  0
 25 26  1  0
 15 27  2  0
 27 28  1  0
 28 29  1  0
 27 30  1  0
 30 31  2  0
  5 32  2  0
 32 33  1  0
 32 34  1  0
 34 35  2  0
 35 36  1  0
 35  3  1  0
 31  7  1  0
 31 13  1  0
 26 20  1  0
M  END
>  <supplier_code>  (1307) 
DB06616

>  <zinc_id>  (1307) 
ZINC000022448983

>  <catalog_short_name>  (1307) 
dbfda

$$$$

     RDKit          3D

 28 31  0  0  0  0  0  0  0  0999 V2000
   -7.7619    0.4734    1.3912 C   0  0  0  0  0  0  0  0  0  0  0  0
   -6.3314    0.4337    1.1260 N   0  0  0  0  0  0  0  0  0  0  0  0
   -5.7249   -0.5000    0.2476 C   0  0  0  0  0  0  0  0  0  0  0  0
   -6.3831   -1.5587    0.0131 O   0  0  0  0  0  0  0  0  0  0  0  0
   -4.8125   -0.0931   -0.8306 C   0  0  0  0  0  0  0  0  0  0  0  0
   -5.2774    0.1537   -2.1166 C   0  0  0  0  0  0  0  0  0  0  0  0
   -4.8979    1.2825   -2.8314 C   0  0  0  0  0  0  0  0  0  0  0  0
   -3.8053    2.0158   -2.4068 C   0  0  0  0  0  0  0  0  0  0  0  0
   -3.1197    1.5715   -1.2833 C   0  0  0  0  0  0  0  0  0  0  0  0
   -3.6425    0.5618   -0.4858 C   0  0  0  0  0  0  0  0  0  0  0  0
   -2.8153    0.1224    1.0217 S   0  0  0  0  0  0  0  0  0  0  0  0
   -1.1407   -0.3177    0.6369 C   0  0  0  0  0  0  0  0  0  0  0  0
   -0.0868    0.1947    1.3828 C   0  0  0  0  0  0  0  0  0  0  0  0
    1.2095   -0.2525    1.2290 C   0  0  0  0  0  0  0  0  0  0  0  0
    1.4498   -1.2044    0.2706 C   0  0  0  0  0  0  0  0  0  0  0  0
    2.6596   -1.6962   -0.1967 C   0  0  0  0  0  0  0  0  0  0  0  0
    3.9861   -1.1846    0.1438 C   0  0  0  0  0  0  0  0  0  0  0  0
    4.3368    0.0230   -0.2954 C   0  0  0  0  0  0  0  0  0  0  0  0
    5.4378    0.7801    0.3120 C   0  0  0  0  0  0  0  0  0  0  0  0
    5.3415    1.2912    1.6008 C   0  0  0  0  0  0  0  0  0  0  0  0
    6.5488    1.5216    2.2485 C   0  0  0  0  0  0  0  0  0  0  0  0
    7.7324    1.3206    1.5490 C   0  0  0  0  0  0  0  0  0  0  0  0
    7.6381    1.4795    0.1718 C   0  0  0  0  0  0  0  0  0  0  0  0
    6.4365    1.3138   -0.4328 N   0  0  0  0  0  0  0  0  0  0  0  0
    2.3273   -2.6015   -1.1479 N   0  0  0  0  0  0  0  0  0  0  0  0
    1.0489   -2.4356   -1.4766 N   0  0  0  0  0  0  0  0  0  0  0  0
    0.4264   -1.6922   -0.5299 C   0  0  0  0  0  0  0  0  0  0  0  0
   -0.7799   -1.0033   -0.5160 C   0  0  0  0  0  0  0  0  0  0  0  0
  1  2  1  0
  2  3  1  0
  3  4  2  0
  3  5  1  0
  5  6  2  0
  6  7  1  0
  7  8  2  0
  8  9  1  0
  9 10  2  0
 10 11  1  0
 11 12  1  0
 12 13  2  0
 13 14  1  0
 14 15  2  0
 15 16  1  0
 16 17  1  0
 17 18  2  0
 18 19  1  0
 19 20  2  0
 20 21  1  0
 21 22  2  0
 22 23  1  0
 23 24  2  0
 16 25  2  0
 25 26  1  0
 26 27  1  0
 27 28  2  0
 10  5  1  0
 28 12  1  0
 27 15  1  0
 24 19  1  0
M  END
>  <supplier_code>  (1308) 
DB06626

>  <zinc_id>  (1308) 
ZINC000003816287

>  <catalog_short_name>  (1308) 
dbfda

$$$$

     RDKit          3D

 28 31  0  0  0  0  0  0  0  0999 V2000
   -5.1166   -3.4129   -0.6238 C   0  0  0  0  0  0  0  0  0  0  0  0
   -4.8118   -2.1437    0.0252 N   0  0  0  0  0  0  0  0  0  0  0  0
   -5.7196   -1.0390   -0.0593 C   0  0  0  0  0  0  0  0  0  0  0  0
   -6.8806   -1.2970   -0.4780 O   0  0  0  0  0  0  0  0  0  0  0  0
   -5.2513    0.3426    0.0679 C   0  0  0  0  0  0  0  0  0  0  0  0
   -6.0344    1.3405    0.6044 C   0  0  0  0  0  0  0  0  0  0  0  0
   -5.6794    2.6607    0.5115 C   0  0  0  0  0  0  0  0  0  0  0  0
   -4.3896    2.9816    0.1472 C   0  0  0  0  0  0  0  0  0  0  0  0
   -3.6520    2.0045   -0.5083 C   0  0  0  0  0  0  0  0  0  0  0  0
   -4.1158    0.7018   -0.6438 C   0  0  0  0  0  0  0  0  0  0  0  0
   -2.9059   -0.5420   -1.0259 S   0  0  0  0  0  0  0  0  0  0  0  0
   -1.3030   -0.0929   -0.3511 C   0  0  0  0  0  0  0  0  0  0  0  0
   -0.5297    0.9154   -0.9107 C   0  0  0  0  0  0  0  0  0  0  0  0
    0.8563    0.8454   -0.8432 C   0  0  0  0  0  0  0  0  0  0  0  0
    1.4106   -0.1138   -0.0402 C   0  0  0  0  0  0  0  0  0  0  0  0
    2.6898   -0.6530    0.0256 C   0  0  0  0  0  0  0  0  0  0  0  0
    3.5674   -0.8765   -1.1309 C   0  0  0  0  0  0  0  0  0  0  0  0
    4.8202   -1.2166   -0.8390 C   0  0  0  0  0  0  0  0  0  0  0  0
    5.5129   -0.3154    0.0907 C   0  0  0  0  0  0  0  0  0  0  0  0
    6.7866   -0.6597    0.5237 C   0  0  0  0  0  0  0  0  0  0  0  0
    7.7904    0.2903    0.6679 C   0  0  0  0  0  0  0  0  0  0  0  0
    7.5431    1.6065    0.3219 C   0  0  0  0  0  0  0  0  0  0  0  0
    6.2087    1.9499    0.1479 C   0  0  0  0  0  0  0  0  0  0  0  0
    5.2558    1.0141    0.0418 N   0  0  0  0  0  0  0  0  0  0  0  0
    2.7002   -1.3044    1.2144 N   0  0  0  0  0  0  0  0  0  0  0  0
    1.4521   -1.4839    1.6397 N   0  0  0  0  0  0  0  0  0  0  0  0
    0.5903   -0.8061    0.8432 C   0  0  0  0  0  0  0  0  0  0  0  0
   -0.7947   -0.6965    0.7915 C   0  0  0  0  0  0  0  0  0  0  0  0
  1  2  1  0
  2  3  1  0
  3  4  2  0
  3  5  1  0
  5  6  2  0
  6  7  1  0
  7  8  2  0
  8  9  1  0
  9 10  2  0
 10 11  1  0
 11 12  1  0
 12 13  2  0
 13 14  1  0
 14 15  2  0
 15 16  1  0
 16 17  1  0
 17 18  2  0
 18 19  1  0
 19 20  2  0
 20 21  1  0
 21 22  2  0
 22 23  1  0
 23 24  2  0
 16 25  2  0
 25 26  1  0
 26 27  1  0
 27 28  2  0
 10  5  1  0
 28 12  1  0
 27 15  1  0
 24 19  1  0
M  END
>  <supplier_code>  (1309) 
DB06626

>  <zinc_id>  (1309) 
ZINC000011616882

>  <catalog_short_name>  (1309) 
dbfda

$$$$

     RDKit          3D

 31 34  0  0  0  0  0  0  0  0999 V2000
   -0.2535    1.5181    1.4011 C   0  0  0  0  0  0  0  0  0  0  0  0
   -0.6413    1.1343   -0.1667 C   0  0  1  0  0  0  0  0  0  0  0  0
    0.0962   -0.3208   -0.0508 C   0  0  0  0  0  0  0  0  0  0  0  0
    1.4085   -0.1702    0.0773 N   0  0  0  0  0  0  0  0  0  0  0  0
    2.2000   -1.0893   -0.3781 C   0  0  0  0  0  0  0  0  0  0  0  0
    3.6687   -0.9223   -0.2613 C   0  0  0  0  0  0  0  0  0  0  0  0
    4.3219   -0.1233   -1.1948 C   0  0  0  0  0  0  0  0  0  0  0  0
    5.5946    0.3786   -0.9870 C   0  0  0  0  0  0  0  0  0  0  0  0
    6.2581    0.1070    0.2026 C   0  0  0  0  0  0  0  0  0  0  0  0
    7.6835   -0.1339    0.2179 C   0  0  0  0  0  0  0  0  0  0  0  0
    8.7628   -0.5389    0.3066 N   0  0  0  0  0  0  0  0  0  0  0  0
    5.4551   -0.3492    1.2394 C   0  0  0  0  0  0  0  0  0  0  0  0
    4.1441   -0.7271    1.0316 C   0  0  0  0  0  0  0  0  0  0  0  0
    1.6970   -1.8148   -1.4481 C   0  0  0  0  0  0  0  0  0  0  0  0
    0.0432   -1.3494   -1.4294 S   0  0  0  0  0  0  0  0  0  0  0  0
   -2.1459    0.5971    0.2070 C   0  0  2  0  0  0  0  0  0  0  0  0
   -2.8272    1.2116   -0.8664 O   0  0  0  0  0  0  0  0  0  0  0  0
   -2.6477    1.2587    1.4089 C   0  0  0  0  0  0  0  0  0  0  0  0
   -3.1074    2.6205    1.1434 N   0  0  0  0  0  0  0  0  0  0  0  0
   -2.5968    3.5032    0.2657 C   0  0  0  0  0  0  0  0  0  0  0  0
   -3.5394    4.3123   -0.2181 N   0  0  0  0  0  0  0  0  0  0  0  0
   -4.6489    4.0110    0.4995 C   0  0  0  0  0  0  0  0  0  0  0  0
   -4.4119    2.9002    1.1925 N   0  0  0  0  0  0  0  0  0  0  0  0
   -2.2597   -0.8253    0.0730 C   0  0  0  0  0  0  0  0  0  0  0  0
   -3.2102   -1.3743   -0.7846 C   0  0  0  0  0  0  0  0  0  0  0  0
   -4.0173   -2.4424   -0.4595 C   0  0  0  0  0  0  0  0  0  0  0  0
   -5.2920   -2.5883   -0.9265 F   0  0  0  0  0  0  0  0  0  0  0  0
   -3.4842   -3.3319    0.4628 C   0  0  0  0  0  0  0  0  0  0  0  0
   -2.5199   -2.8734    1.3495 C   0  0  0  0  0  0  0  0  0  0  0  0
   -2.0152   -1.5833    1.2177 C   0  0  0  0  0  0  0  0  0  0  0  0
   -1.7150   -0.9944    2.4149 F   0  0  0  0  0  0  0  0  0  0  0  0
  2  1  1  1
  2  3  1  0
  3  4  2  0
  4  5  1  0
  5  6  1  0
  6  7  2  0
  7  8  1  0
  8  9  2  0
  9 10  1  0
 10 11  3  0
  9 12  1  0
 12 13  2  0
  5 14  2  0
 14 15  1  0
  2 16  1  0
 16 17  1  6
 16 18  1  0
 18 19  1  0
 19 20  1  0
 20 21  2  0
 21 22  1  0
 22 23  2  0
 16 24  1  0
 24 25  2  0
 25 26  1  0
 26 27  1  0
 26 28  2  0
 28 29  1  0
 29 30  2  0
 30 31  1  0
 15  3  1  0
 23 19  1  0
 30 24  1  0
 13  6  1  0
M  END
>  <supplier_code>  (1310) 
DB06636

>  <zinc_id>  (1310) 
ZINC000001485935

>  <catalog_short_name>  (1310) 
dbfda

$$$$

     RDKit          3D

 51 55  0  0  0  0  0  0  0  0999 V2000
   -8.5686    6.1535    0.3411 C   0  0  0  0  0  0  0  0  0  0  0  0
   -8.0354    5.1155    0.8944 N   0  0  0  0  0  0  0  0  0  0  0  0
   -8.9133    3.9655    0.9754 C   0  0  0  0  0  0  0  0  0  0  0  0
   -8.2101    2.7716    0.4565 C   0  0  0  0  0  0  0  0  0  0  0  0
   -8.7589    1.8994   -0.2450 O   0  0  0  0  0  0  0  0  0  0  0  0
   -6.8405    2.6522    0.6017 O   0  0  0  0  0  0  0  0  0  0  0  0
   -6.1211    1.4573    0.5579 C   0  0  0  0  0  0  0  0  0  0  0  0
   -6.9895    0.2536    0.3590 C   0  0  0  0  0  0  0  0  0  0  0  0
   -7.4887   -0.3060    1.5307 C   0  0  0  0  0  0  0  0  0  0  0  0
   -7.9331   -1.6231    1.4788 C   0  0  0  0  0  0  0  0  0  0  0  0
   -7.8013   -2.3382    0.3115 C   0  0  0  0  0  0  0  0  0  0  0  0
   -7.0835   -1.8253   -0.7103 N   0  0  0  0  0  0  0  0  0  0  0  0
   -6.6105   -0.5576   -0.7047 C   0  0  0  0  0  0  0  0  0  0  0  0
   -5.3929   -0.3412   -1.4315 N   0  0  0  0  0  0  0  0  0  0  0  0
   -5.2165    1.0234   -1.9260 C   0  0  0  0  0  0  0  0  0  0  0  0
   -4.3190   -1.2613   -1.4300 C   0  0  0  0  0  0  0  0  0  0  0  0
   -4.4183   -2.2603   -2.2061 O   0  0  0  0  0  0  0  0  0  0  0  0
   -3.2768   -1.2923   -0.4962 O   0  0  0  0  0  0  0  0  0  0  0  0
   -3.2175   -2.7418    0.1444 C   0  0  2  0  0  0  0  0  0  0  0  0
   -3.8109   -2.1682    1.6234 C   0  0  0  0  0  0  0  0  0  0  0  0
   -1.6787   -2.5990    0.6103 N   0  0  0  0  0  0  0  0  0  0  0  0
   -1.2553   -3.5732    1.4617 C   0  0  0  0  0  0  0  0  0  0  0  0
   -0.0348   -3.1437    1.8727 N   0  0  0  0  0  0  0  0  0  0  0  0
    0.0664   -1.8634    1.5080 N   0  0  0  0  0  0  0  0  0  0  0  0
    1.2530   -1.1102    1.7270 C   0  0  0  0  0  0  0  0  0  0  0  0
    2.1479   -0.9105    0.5664 C   0  0  2  0  0  0  0  0  0  0  0  0
    1.5551   -0.1920   -0.4431 O   0  0  0  0  0  0  0  0  0  0  0  0
    2.8942   -2.0132    0.0575 C   0  0  0  0  0  0  0  0  0  0  0  0
    3.5992   -2.9786    0.7659 C   0  0  0  0  0  0  0  0  0  0  0  0
    4.5775   -3.7270    0.1232 C   0  0  0  0  0  0  0  0  0  0  0  0
    5.7384   -4.0917    0.6855 F   0  0  0  0  0  0  0  0  0  0  0  0
    4.4422   -3.9772   -1.2379 C   0  0  0  0  0  0  0  0  0  0  0  0
    3.3541   -3.4079   -1.8748 C   0  0  0  0  0  0  0  0  0  0  0  0
    2.6256   -2.4342   -1.2457 C   0  0  0  0  0  0  0  0  0  0  0  0
    1.5305   -1.9865   -1.9279 F   0  0  0  0  0  0  0  0  0  0  0  0
    3.1688    0.2280    1.2037 C   0  0  1  0  0  0  0  0  0  0  0  0
    3.7416   -0.8301    2.3508 C   0  0  0  0  0  0  0  0  0  0  0  0
    4.3812   -0.1270    0.1701 C   0  0  0  0  0  0  0  0  0  0  0  0
    5.6438    0.0230    0.5243 N   0  0  0  0  0  0  0  0  0  0  0  0
    6.3631    0.8558   -0.2141 C   0  0  0  0  0  0  0  0  0  0  0  0
    7.5127    1.6237    0.3125 C   0  0  0  0  0  0  0  0  0  0  0  0
    7.3324    2.4353    1.4295 C   0  0  0  0  0  0  0  0  0  0  0  0
    7.7375    3.7653    1.4483 C   0  0  0  0  0  0  0  0  0  0  0  0
    8.5702    4.2374    0.4385 C   0  0  0  0  0  0  0  0  0  0  0  0
    8.4846    5.6073   -0.0081 C   0  0  0  0  0  0  0  0  0  0  0  0
    8.2882    6.6951   -0.3800 N   0  0  0  0  0  0  0  0  0  0  0  0
    9.1795    3.2463   -0.3220 C   0  0  0  0  0  0  0  0  0  0  0  0
    8.5465    2.0220   -0.5283 C   0  0  0  0  0  0  0  0  0  0  0  0
    6.0560    0.7435   -1.5685 C   0  0  0  0  0  0  0  0  0  0  0  0
    4.3738    0.4057   -1.4603 S   0  0  0  0  0  0  0  0  0  0  0  0
   -1.1889   -1.4991    1.1351 C   0  0  0  0  0  0  0  0  0  0  0  0
  1  2  1  0
  2  3  1  0
  3  4  1  0
  4  5  2  0
  4  6  1  0
  6  7  1  0
  7  8  1  0
  8  9  2  0
  9 10  1  0
 10 11  2  0
 11 12  1  0
 12 13  2  0
 13 14  1  0
 14 15  1  0
 14 16  1  0
 16 17  2  0
 16 18  1  0
 19 18  1  6
 19 20  1  0
 19 21  1  0
 21 22  1  0
 22 23  2  0
 23 24  1  0
 24 25  1  0
 26 25  1  1
 26 27  1  0
 26 28  1  0
 28 29  2  0
 29 30  1  0
 30 31  1  0
 30 32  2  0
 32 33  1  0
 33 34  2  0
 34 35  1  0
 26 36  1  0
 36 37  1  1
 36 38  1  0
 38 39  2  0
 39 40  1  0
 40 41  1  0
 41 42  2  0
 42 43  1  0
 43 44  2  0
 44 45  1  0
 45 46  3  0
 44 47  1  0
 47 48  2  0
 40 49  2  0
 49 50  1  0
 24 51  1  0
 13  8  1  0
 51 21  2  0
 34 28  1  0
 50 38  1  0
 48 41  1  0
M  CHG  1  21   1
M  END
>  <supplier_code>  (1311) 
DB06636

>  <zinc_id>  (1311) 
ZINC000029571072

>  <catalog_short_name>  (1311) 
dbfda

$$$$

     RDKit          3D

 51 55  0  0  0  0  0  0  0  0999 V2000
    8.4898    5.3107    0.5277 C   0  0  0  0  0  0  0  0  0  0  0  0
    8.6005    5.4255   -0.2328 N   0  0  0  0  0  0  0  0  0  0  0  0
    8.8514    4.4815   -1.3159 C   0  0  0  0  0  0  0  0  0  0  0  0
    8.2068    3.1995   -0.9734 C   0  0  0  0  0  0  0  0  0  0  0  0
    7.0984    3.2423   -0.3737 O   0  0  0  0  0  0  0  0  0  0  0  0
    8.6881    1.9560   -1.3205 O   0  0  0  0  0  0  0  0  0  0  0  0
    7.7930    0.8965   -1.5790 C   0  0  0  0  0  0  0  0  0  0  0  0
    7.6161    0.0325   -0.3700 C   0  0  0  0  0  0  0  0  0  0  0  0
    8.4943    0.0662    0.6929 C   0  0  0  0  0  0  0  0  0  0  0  0
    8.2531   -0.8481    1.7029 C   0  0  0  0  0  0  0  0  0  0  0  0
    7.5008   -1.9620    1.3624 C   0  0  0  0  0  0  0  0  0  0  0  0
    6.4949   -1.8497    0.4647 N   0  0  0  0  0  0  0  0  0  0  0  0
    6.4811   -0.7706   -0.3408 C   0  0  0  0  0  0  0  0  0  0  0  0
    5.3460   -0.3379   -1.0643 N   0  0  0  0  0  0  0  0  0  0  0  0
    5.6215    0.3530   -2.3224 C   0  0  0  0  0  0  0  0  0  0  0  0
    4.0171   -0.3959   -0.5944 C   0  0  0  0  0  0  0  0  0  0  0  0
    3.0927   -0.0161   -1.3584 O   0  0  0  0  0  0  0  0  0  0  0  0
    3.6202   -0.7679    0.6710 O   0  0  0  0  0  0  0  0  0  0  0  0
    2.5552   -1.8931    0.6412 C   0  0  1  0  0  0  0  0  0  0  0  0
    2.2082   -1.6851    2.2484 C   0  0  0  0  0  0  0  0  0  0  0  0
    1.4241   -0.9089    0.1477 N   0  0  0  0  0  0  0  0  0  0  0  0
    0.9146    0.1051    0.7826 C   0  0  0  0  0  0  0  0  0  0  0  0
   -0.1212    0.5041   -0.0028 N   0  0  0  0  0  0  0  0  0  0  0  0
   -0.6668   -0.6195   -0.4736 N   0  0  0  0  0  0  0  0  0  0  0  0
   -2.0872   -0.9135   -0.6745 C   0  0  0  0  0  0  0  0  0  0  0  0
   -2.6221   -1.8178    0.2909 C   0  0  2  0  0  0  0  0  0  0  0  0
   -1.6294   -2.0777    1.2533 O   0  0  0  0  0  0  0  0  0  0  0  0
   -3.2238   -3.0856   -0.0870 C   0  0  0  0  0  0  0  0  0  0  0  0
   -3.9518   -3.7837    0.8716 C   0  0  0  0  0  0  0  0  0  0  0  0
   -3.9667   -5.1477    0.9763 C   0  0  0  0  0  0  0  0  0  0  0  0
   -5.0654   -5.7397    1.5317 F   0  0  0  0  0  0  0  0  0  0  0  0
   -3.0379   -5.8785    0.2449 C   0  0  0  0  0  0  0  0  0  0  0  0
   -2.5837   -5.2704   -0.9204 C   0  0  0  0  0  0  0  0  0  0  0  0
   -2.5648   -3.8824   -1.0182 C   0  0  0  0  0  0  0  0  0  0  0  0
   -2.3291   -3.2384   -2.1982 F   0  0  0  0  0  0  0  0  0  0  0  0
   -3.7644   -1.1537    1.2419 C   0  0  1  0  0  0  0  0  0  0  0  0
   -2.9996    0.2918    1.3175 C   0  0  0  0  0  0  0  0  0  0  0  0
   -4.7039   -0.6735    0.0328 C   0  0  0  0  0  0  0  0  0  0  0  0
   -5.7496    0.0425    0.5350 N   0  0  0  0  0  0  0  0  0  0  0  0
   -6.5521    0.5116   -0.4217 C   0  0  0  0  0  0  0  0  0  0  0  0
   -7.1149    1.8699   -0.3317 C   0  0  0  0  0  0  0  0  0  0  0  0
   -6.2009    2.9184   -0.2908 C   0  0  0  0  0  0  0  0  0  0  0  0
   -6.5671    4.2306   -0.2845 C   0  0  0  0  0  0  0  0  0  0  0  0
   -7.8940    4.4724    0.0546 C   0  0  0  0  0  0  0  0  0  0  0  0
   -8.3340    5.8297   -0.0193 C   0  0  0  0  0  0  0  0  0  0  0  0
   -8.5519    6.9659   -0.0694 N   0  0  0  0  0  0  0  0  0  0  0  0
   -8.7112    3.4500    0.5142 C   0  0  0  0  0  0  0  0  0  0  0  0
   -8.3043    2.1308    0.3377 C   0  0  0  0  0  0  0  0  0  0  0  0
   -6.8569   -0.4764   -1.3542 C   0  0  0  0  0  0  0  0  0  0  0  0
   -5.5897   -1.6055   -1.0595 S   0  0  0  0  0  0  0  0  0  0  0  0
    0.3767   -1.4873   -0.4927 C   0  0  0  0  0  0  0  0  0  0  0  0
  1  2  1  0
  2  3  1  0
  3  4  1  0
  4  5  2  0
  4  6  1  0
  6  7  1  0
  7  8  1  0
  8  9  2  0
  9 10  1  0
 10 11  2  0
 11 12  1  0
 12 13  2  0
 13 14  1  0
 14 15  1  0
 14 16  1  0
 16 17  2  0
 16 18  1  0
 19 18  1  1
 19 20  1  0
 19 21  1  0
 21 22  1  0
 22 23  2  0
 23 24  1  0
 24 25  1  0
 26 25  1  6
 26 27  1  0
 26 28  1  0
 28 29  2  0
 29 30  1  0
 30 31  1  0
 30 32  2  0
 32 33  1  0
 33 34  2  0
 34 35  1  0
 26 36  1  0
 36 37  1  6
 36 38  1  0
 38 39  2  0
 39 40  1  0
 40 41  1  0
 41 42  2  0
 42 43  1  0
 43 44  2  0
 44 45  1  0
 45 46  3  0
 44 47  1  0
 47 48  2  0
 40 49  2  0
 49 50  1  0
 24 51  1  0
 13  8  1  0
 51 21  2  0
 34 28  1  0
 50 38  1  0
 48 41  1  0
M  CHG  1  21   1
M  END
>  <supplier_code>  (1312) 
DB06636

>  <zinc_id>  (1312) 
ZINC000049637509

>  <catalog_short_name>  (1312) 
dbfda

$$$$

     RDKit          3D

  7  7  0  0  0  0  0  0  0  0999 V2000
    2.3728   -0.0034    0.1797 N   0  0  0  0  0  0  0  0  0  0  0  0
    0.9766    0.0139   -0.1436 C   0  0  0  0  0  0  0  0  0  0  0  0
    0.2699   -1.1826   -0.1235 C   0  0  0  0  0  0  0  0  0  0  0  0
   -1.0894   -1.1641    0.1655 C   0  0  0  0  0  0  0  0  0  0  0  0
   -1.7184    0.0000   -0.1281 N   0  0  0  0  0  0  0  0  0  0  0  0
   -1.0685    1.1338    0.2304 C   0  0  0  0  0  0  0  0  0  0  0  0
    0.2570    1.2024   -0.1804 C   0  0  0  0  0  0  0  0  0  0  0  0
  1  2  1  0
  2  3  2  0
  3  4  1  0
  4  5  2  0
  5  6  1  0
  6  7  2  0
  7  2  1  0
M  END
>  <supplier_code>  (1313) 
DB06637

>  <zinc_id>  (1313) 
ZINC000000599985

>  <catalog_short_name>  (1313) 
dbfda

$$$$

     RDKit          3D

 22 23  0  0  0  0  0  0  0  0999 V2000
    4.6039   -0.7790    1.9567 C   0  0  0  0  0  0  0  0  0  0  0  0
    3.9157   -0.0026    0.6411 C   0  0  2  0  0  0  0  0  0  0  0  0
    4.5250   -1.0919   -0.3633 N   0  0  0  0  0  0  0  0  0  0  0  0
    3.4466   -1.8376   -0.8758 C   0  0  0  0  0  0  0  0  0  0  0  0
    2.1071   -1.5500   -0.3617 C   0  0  0  0  0  0  0  0  0  0  0  0
    1.6920   -1.8570    0.9326 C   0  0  0  0  0  0  0  0  0  0  0  0
    0.5452   -1.1778    1.3262 C   0  0  0  0  0  0  0  0  0  0  0  0
   -0.4823   -1.1950    0.3910 C   0  0  0  0  0  0  0  0  0  0  0  0
   -1.7304   -0.7151    0.7997 O   0  0  0  0  0  0  0  0  0  0  0  0
   -1.9616    0.6888    0.8571 C   0  0  0  0  0  0  0  0  0  0  0  0
   -3.3918    0.9244    0.4972 C   0  0  0  0  0  0  0  0  0  0  0  0
   -4.3210   -0.0178    0.8344 C   0  0  0  0  0  0  0  0  0  0  0  0
   -5.6383    0.0483    0.4153 C   0  0  0  0  0  0  0  0  0  0  0  0
   -5.9784    1.1581   -0.3347 C   0  0  0  0  0  0  0  0  0  0  0  0
   -4.9880    1.9385   -0.9187 C   0  0  0  0  0  0  0  0  0  0  0  0
   -5.3552    2.6990   -1.9726 F   0  0  0  0  0  0  0  0  0  0  0  0
   -3.6978    1.8767   -0.4659 C   0  0  0  0  0  0  0  0  0  0  0  0
   -0.2560   -1.5768   -0.9266 C   0  0  0  0  0  0  0  0  0  0  0  0
    1.0772   -1.7332   -1.2854 C   0  0  0  0  0  0  0  0  0  0  0  0
    5.2425    0.9553    0.4730 C   0  0  0  0  0  0  0  0  0  0  0  0
    5.2269    1.9256    1.5208 N   0  0  0  0  0  0  0  0  0  0  0  0
    5.4187    1.3189   -0.7097 O   0  0  0  0  0  0  0  0  0  0  0  0
  2  1  1  1
  2  3  1  0
  3  4  1  0
  4  5  1  0
  5  6  2  0
  6  7  1  0
  7  8  2  0
  8  9  1  0
  9 10  1  0
 10 11  1  0
 11 12  2  0
 12 13  1  0
 13 14  2  0
 14 15  1  0
 15 16  1  0
 15 17  2  0
  8 18  1  0
 18 19  2  0
  2 20  1  0
 20 21  1  0
 20 22  2  0
 19  5  1  0
 17 11  1  0
M  END
>  <supplier_code>  (1314) 
DB06654

>  <zinc_id>  (1314) 
ZINC000053084692

>  <catalog_short_name>  (1314) 
dbfda

$$$$

     RDKit          3D

 33 37  0  0  0  0  0  0  0  0999 V2000
   -9.0049   -1.9576   -0.3673 N   0  0  0  0  0  0  0  0  0  0  0  0
   -8.4151   -0.9504   -0.3727 C   0  0  0  0  0  0  0  0  0  0  0  0
   -7.4014    0.0778   -0.3146 C   0  0  0  0  0  0  0  0  0  0  0  0
   -7.1141    0.8454   -1.4356 C   0  0  0  0  0  0  0  0  0  0  0  0
   -6.1116    1.8039   -1.3644 C   0  0  0  0  0  0  0  0  0  0  0  0
   -5.1403    1.7089   -0.3760 C   0  0  0  0  0  0  0  0  0  0  0  0
   -3.8662    2.1597   -0.2743 N   0  0  0  0  0  0  0  0  0  0  0  0
   -3.1897    1.4660    0.6489 C   0  0  0  0  0  0  0  0  0  0  0  0
   -4.0069    0.4633    1.1505 C   0  0  0  0  0  0  0  0  0  0  0  0
   -3.5597   -0.8220    1.7726 C   0  0  0  0  0  0  0  0  0  0  0  0
   -3.2667   -1.7735    0.6374 C   0  0  0  0  0  0  0  0  0  0  0  0
   -1.7973   -1.9557    0.3852 C   0  0  0  0  0  0  0  0  0  0  0  0
   -1.3014   -1.1740   -0.8115 C   0  0  0  0  0  0  0  0  0  0  0  0
    0.1174   -1.4445   -0.9417 N   0  0  0  0  0  0  0  0  0  0  0  0
    0.6360   -2.1115    0.2220 C   0  0  0  0  0  0  0  0  0  0  0  0
    0.6825   -1.1918    1.4378 C   0  0  0  0  0  0  0  0  0  0  0  0
    1.4134   -0.0071    0.9861 N   0  0  0  0  0  0  0  0  0  0  0  0
    2.8232   -0.2156    0.8186 C   0  0  0  0  0  0  0  0  0  0  0  0
    3.2699   -1.4053    0.2541 C   0  0  0  0  0  0  0  0  0  0  0  0
    4.5439   -1.5728   -0.2169 C   0  0  0  0  0  0  0  0  0  0  0  0
    5.4527   -0.5758    0.0258 C   0  0  0  0  0  0  0  0  0  0  0  0
    6.7435   -0.4868   -0.1508 O   0  0  0  0  0  0  0  0  0  0  0  0
    7.1408    0.7554   -0.1844 C   0  0  0  0  0  0  0  0  0  0  0  0
    8.4907    1.2128   -0.5230 C   0  0  0  0  0  0  0  0  0  0  0  0
    9.5483    0.2876   -0.6552 N   0  0  0  0  0  0  0  0  0  0  0  0
    8.7477    2.4325   -0.6516 O   0  0  0  0  0  0  0  0  0  0  0  0
    6.0497    1.5596    0.0351 C   0  0  0  0  0  0  0  0  0  0  0  0
    4.9628    0.7098    0.1979 C   0  0  0  0  0  0  0  0  0  0  0  0
    3.6579    0.8774    0.6405 C   0  0  0  0  0  0  0  0  0  0  0  0
    0.7720    0.6968   -0.1250 C   0  0  0  0  0  0  0  0  0  0  0  0
    0.8583   -0.2604   -1.3089 C   0  0  0  0  0  0  0  0  0  0  0  0
   -5.2530    0.7362    0.6079 C   0  0  0  0  0  0  0  0  0  0  0  0
   -6.4823    0.1117    0.7272 C   0  0  0  0  0  0  0  0  0  0  0  0
  1  2  3  0
  2  3  1  0
  3  4  2  0
  4  5  1  0
  5  6  2  0
  6  7  1  0
  7  8  1  0
  8  9  2  0
  9 10  1  0
 10 11  1  0
 11 12  1  0
 12 13  1  0
 13 14  1  0
 14 15  1  0
 15 16  1  0
 16 17  1  0
 17 18  1  0
 18 19  2  0
 19 20  1  0
 20 21  2  0
 21 22  1  0
 22 23  1  0
 23 24  1  0
 24 25  1  0
 24 26  2  0
 23 27  2  0
 27 28  1  0
 28 29  2  0
 17 30  1  0
 30 31  1  0
  9 32  1  0
 32 33  2  0
 33  3  1  0
 32  6  1  0
 31 14  1  0
 29 18  1  0
 28 21  1  0
M  END
>  <supplier_code>  (1315) 
DB06684

>  <zinc_id>  (1315) 
ZINC000001542113

>  <catalog_short_name>  (1315) 
dbfda

$$$$

     RDKit          3D

 20 19  0  0  0  0  0  0  0  0999 V2000
    7.1965   -0.1522    0.3111 C   0  0  0  0  0  0  0  0  0  0  0  0
    6.9349    0.5787   -0.9842 C   0  0  0  0  0  0  0  0  0  0  0  0
    5.9530   -0.1905   -1.8480 C   0  0  0  0  0  0  0  0  0  0  0  0
    4.6406    0.5755   -1.8228 C   0  0  0  0  0  0  0  0  0  0  0  0
    4.3389    0.8826   -0.3716 C   0  0  0  0  0  0  0  0  0  0  0  0
    3.8455   -0.3804    0.2724 C   0  0  0  0  0  0  0  0  0  0  0  0
    2.8835   -1.0964   -0.6485 C   0  0  0  0  0  0  0  0  0  0  0  0
    1.7504   -0.1714   -1.0781 C   0  0  0  0  0  0  0  0  0  0  0  0
    1.5758    0.7750    0.0718 C   0  0  0  0  0  0  0  0  0  0  0  0
    0.3142    1.0518    0.4131 C   0  0  0  0  0  0  0  0  0  0  0  0
   -0.6029    1.4377   -0.6783 C   0  0  0  0  0  0  0  0  0  0  0  0
   -1.5688    0.3612   -1.0739 C   0  0  0  0  0  0  0  0  0  0  0  0
   -2.1295   -0.4114    0.0851 C   0  0  0  0  0  0  0  0  0  0  0  0
   -2.4618    0.4488    1.2722 C   0  0  0  0  0  0  0  0  0  0  0  0
   -3.4954   -0.2804    2.0854 C   0  0  0  0  0  0  0  0  0  0  0  0
   -4.2879   -1.2778    1.2891 C   0  0  0  0  0  0  0  0  0  0  0  0
   -5.0659   -0.6605    0.1603 C   0  0  0  0  0  0  0  0  0  0  0  0
   -6.2143    0.1098    0.6928 C   0  0  0  0  0  0  0  0  0  0  0  0
   -6.1616    0.6925    1.7944 O   0  0  0  0  0  0  0  0  0  0  0  0
   -7.4454    0.0416    0.0575 O   0  0  0  0  0  0  0  0  0  0  0  0
  1  2  1  0
  2  3  1  0
  3  4  1  0
  4  5  1  0
  5  6  1  0
  6  7  1  0
  7  8  1  0
  8  9  1  0
  9 10  2  0
 10 11  1  0
 11 12  1  0
 12 13  1  0
 13 14  1  0
 14 15  1  0
 15 16  1  0
 16 17  1  0
 17 18  1  0
 18 19  2  0
 18 20  1  0
M  END
>  <supplier_code>  (1316) 
DB06689

>  <zinc_id>  (1316) 
ZINC000006845860

>  <catalog_short_name>  (1316) 
dbfda

$$$$

     RDKit          3D

 21 22  0  0  0  0  0  0  0  0999 V2000
   -6.2885   -0.0618   -0.1003 C   0  0  0  0  0  0  0  0  0  0  0  0
   -5.2727    0.6170    0.6062 O   0  0  0  0  0  0  0  0  0  0  0  0
   -3.9165    0.4868    0.2949 C   0  0  0  0  0  0  0  0  0  0  0  0
   -3.3392    1.4566   -0.5016 C   0  0  0  0  0  0  0  0  0  0  0  0
   -1.9929    1.3895   -0.8384 C   0  0  0  0  0  0  0  0  0  0  0  0
   -1.2114    0.3010   -0.4684 C   0  0  0  0  0  0  0  0  0  0  0  0
   -0.1813   -0.1607   -1.4419 C   0  0  0  0  0  0  0  0  0  0  0  0
    1.1068   -0.3706   -0.8283 N   0  0  0  0  0  0  0  0  0  0  0  0
    1.9546   -1.3875   -1.4468 C   0  0  0  0  0  0  0  0  0  0  0  0
    2.8054   -2.1044   -0.4342 C   0  0  0  0  0  0  0  0  0  0  0  0
    2.0735   -3.1511    0.2664 N   0  0  0  0  0  0  0  0  0  0  0  0
    0.7823   -3.4000   -0.3551 C   0  0  0  0  0  0  0  0  0  0  0  0
    1.9522   -2.8856    1.6806 C   0  0  0  0  0  0  0  0  0  0  0  0
    1.7620    0.7465   -0.2156 C   0  0  0  0  0  0  0  0  0  0  0  0
    1.5817    2.0021   -0.7834 C   0  0  0  0  0  0  0  0  0  0  0  0
    2.6122    2.9319   -0.8435 C   0  0  0  0  0  0  0  0  0  0  0  0
    3.8028    2.5951   -0.2494 C   0  0  0  0  0  0  0  0  0  0  0  0
    3.8056    1.5599    0.6695 C   0  0  0  0  0  0  0  0  0  0  0  0
    2.9182    0.5648    0.4556 N   0  0  0  0  0  0  0  0  0  0  0  0
   -1.8095   -0.5712    0.4296 C   0  0  0  0  0  0  0  0  0  0  0  0
   -3.1454   -0.5582    0.7227 C   0  0  0  0  0  0  0  0  0  0  0  0
  1  2  1  0
  2  3  1  0
  3  4  2  0
  4  5  1  0
  5  6  2  0
  6  7  1  0
  7  8  1  0
  8  9  1  0
  9 10  1  0
 10 11  1  0
 11 12  1  0
 11 13  1  0
  8 14  1  0
 14 15  2  0
 15 16  1  0
 16 17  2  0
 17 18  1  0
 18 19  2  0
  6 20  1  0
 20 21  2  0
 21  3  1  0
 19 14  1  0
M  END
>  <supplier_code>  (1317) 
DB06691

>  <zinc_id>  (1317) 
ZINC000019144216

>  <catalog_short_name>  (1317) 
dbfda

$$$$

     RDKit          3D

 18 19  0  0  0  0  0  0  0  0999 V2000
    0.4602   -2.5771   -1.0804 C   0  0  0  0  0  0  0  0  0  0  0  0
   -0.1889   -1.4369   -0.3811 C   0  0  0  0  0  0  0  0  0  0  0  0
   -1.4883   -1.0477   -0.6884 C   0  0  0  0  0  0  0  0  0  0  0  0
   -2.0856   -0.0049    0.0032 C   0  0  0  0  0  0  0  0  0  0  0  0
   -3.1313    0.8409   -0.6077 C   0  0  0  0  0  0  0  0  0  0  0  0
   -2.7955    1.0362   -2.0685 C   0  0  0  0  0  0  0  0  0  0  0  0
   -3.2582    2.1735    0.1006 C   0  0  0  0  0  0  0  0  0  0  0  0
   -4.4710    0.1413   -0.4927 C   0  0  0  0  0  0  0  0  0  0  0  0
   -1.6404    0.2174    1.2970 C   0  0  0  0  0  0  0  0  0  0  0  0
   -0.4114   -0.2813    1.7052 C   0  0  0  0  0  0  0  0  0  0  0  0
    0.0552   -0.1371    3.1097 C   0  0  0  0  0  0  0  0  0  0  0  0
    0.3929   -0.8881    0.7489 C   0  0  0  0  0  0  0  0  0  0  0  0
    1.8458   -1.0029    0.9604 C   0  0  0  0  0  0  0  0  0  0  0  0
    2.5735    0.0594    0.1990 C   0  0  0  0  0  0  0  0  0  0  0  0
    3.5544    0.8058    0.6060 N   0  0  0  0  0  0  0  0  0  0  0  0
    4.4952    0.9786   -0.4841 C   0  0  0  0  0  0  0  0  0  0  0  0
    3.7040    0.6885   -1.7556 C   0  0  0  0  0  0  0  0  0  0  0  0
    2.3894    0.4344   -1.1712 N   0  0  0  0  0  0  0  0  0  0  0  0
  1  2  1  0
  2  3  2  0
  3  4  1  0
  4  5  1  0
  5  6  1  0
  5  7  1  0
  5  8  1  0
  4  9  2  0
  9 10  1  0
 10 11  1  0
 10 12  2  0
 12 13  1  0
 13 14  1  0
 14 15  2  0
 15 16  1  0
 16 17  1  0
 17 18  1  0
 12  2  1  0
 18 14  1  0
M  END
>  <supplier_code>  (1318) 
DB06694

>  <zinc_id>  (1318) 
ZINC000000057534

>  <catalog_short_name>  (1318) 
dbfda

$$$$

     RDKit          3D

 46 49  0  0  0  0  0  0  0  0999 V2000
   10.5098    4.8094    1.0022 C   0  0  0  0  0  0  0  0  0  0  0  0
    9.5043    3.6867    0.9110 C   0  0  0  0  0  0  0  0  0  0  0  0
   10.2011    2.3602    0.8020 C   0  0  0  0  0  0  0  0  0  0  0  0
   10.1876    1.9088   -0.6521 C   0  0  0  0  0  0  0  0  0  0  0  0
   10.7209    0.5021   -0.7541 C   0  0  0  0  0  0  0  0  0  0  0  0
   10.3009   -0.3357    0.4353 C   0  0  0  0  0  0  0  0  0  0  0  0
    8.8961   -0.4662    0.3717 O   0  0  0  0  0  0  0  0  0  0  0  0
    8.4094   -1.6213   -0.2464 C   0  0  0  0  0  0  0  0  0  0  0  0
    9.0976   -2.1685   -1.1585 O   0  0  0  0  0  0  0  0  0  0  0  0
    6.9946   -1.7977   -0.3399 N   0  0  0  0  0  0  0  0  0  0  0  0
    6.3054   -2.0835    0.7077 C   0  0  0  0  0  0  0  0  0  0  0  0
    6.9135   -2.9531    1.6549 N   0  0  0  0  0  0  0  0  0  0  0  0
    4.8576   -1.8404    0.6875 C   0  0  0  0  0  0  0  0  0  0  0  0
    3.9863   -2.7958    0.1791 C   0  0  0  0  0  0  0  0  0  0  0  0
    2.8765   -2.4548   -0.5729 C   0  0  0  0  0  0  0  0  0  0  0  0
    2.6126   -1.1212   -0.8590 C   0  0  0  0  0  0  0  0  0  0  0  0
    2.0978   -0.7320   -2.1370 N   0  0  0  0  0  0  0  0  0  0  0  0
    0.7372   -1.0646   -2.4701 C   0  0  0  0  0  0  0  0  0  0  0  0
   -0.0979   -0.7389   -1.2718 C   0  0  0  0  0  0  0  0  0  0  0  0
   -1.0023   -1.6026   -0.7491 N   0  0  0  0  0  0  0  0  0  0  0  0
   -1.9513   -0.9027   -0.0789 C   0  0  0  0  0  0  0  0  0  0  0  0
   -3.3034   -1.1085    0.1769 C   0  0  0  0  0  0  0  0  0  0  0  0
   -4.1258   -0.0333    0.4981 C   0  0  0  0  0  0  0  0  0  0  0  0
   -5.4545    0.1291   -0.1078 C   0  0  0  0  0  0  0  0  0  0  0  0
   -5.5793    0.6728   -1.2477 O   0  0  0  0  0  0  0  0  0  0  0  0
   -6.6534   -0.2665    0.5438 N   0  0  0  0  0  0  0  0  0  0  0  0
   -7.6360    0.7914    0.7660 C   0  0  0  0  0  0  0  0  0  0  0  0
   -6.9005    1.9816    1.3153 C   0  0  0  0  0  0  0  0  0  0  0  0
   -6.8124    3.1088    0.3647 C   0  0  0  0  0  0  0  0  0  0  0  0
   -5.7266    3.7497    0.2731 O   0  0  0  0  0  0  0  0  0  0  0  0
   -7.9433    3.7328   -0.1680 O   0  0  0  0  0  0  0  0  0  0  0  0
   -7.8214    4.9418   -0.8814 C   0  0  0  0  0  0  0  0  0  0  0  0
   -8.9338    5.8858   -0.4646 C   0  0  0  0  0  0  0  0  0  0  0  0
   -7.1990   -1.5270    0.1348 C   0  0  0  0  0  0  0  0  0  0  0  0
   -8.4363   -1.6392   -0.4686 C   0  0  0  0  0  0  0  0  0  0  0  0
   -8.9162   -2.8753   -0.8275 C   0  0  0  0  0  0  0  0  0  0  0  0
   -8.0763   -3.9677   -0.7739 C   0  0  0  0  0  0  0  0  0  0  0  0
   -6.7191   -3.7111   -0.6379 C   0  0  0  0  0  0  0  0  0  0  0  0
   -6.3745   -2.5990    0.0532 N   0  0  0  0  0  0  0  0  0  0  0  0
   -3.4528    1.0326    1.0855 C   0  0  0  0  0  0  0  0  0  0  0  0
   -2.1081    1.2669    0.8240 C   0  0  0  0  0  0  0  0  0  0  0  0
   -1.3578    0.3410    0.1091 C   0  0  0  0  0  0  0  0  0  0  0  0
   -0.3616    0.5015   -0.7937 N   0  0  0  0  0  0  0  0  0  0  0  0
    0.1307    1.7414   -1.3868 C   0  0  0  0  0  0  0  0  0  0  0  0
    3.2374   -0.1974   -0.0508 C   0  0  0  0  0  0  0  0  0  0  0  0
    4.3661   -0.5405    0.6820 C   0  0  0  0  0  0  0  0  0  0  0  0
  1  2  1  0
  2  3  1  0
  3  4  1  0
  4  5  1  0
  5  6  1  0
  6  7  1  0
  7  8  1  0
  8  9  2  0
  8 10  1  0
 10 11  2  0
 11 12  1  0
 11 13  1  0
 13 14  2  0
 14 15  1  0
 15 16  2  0
 16 17  1  0
 17 18  1  0
 18 19  1  0
 19 20  2  0
 20 21  1  0
 21 22  2  0
 22 23  1  0
 23 24  1  0
 24 25  2  0
 24 26  1  0
 26 27  1  0
 27 28  1  0
 28 29  1  0
 29 30  2  0
 29 31  1  0
 31 32  1  0
 32 33  1  0
 26 34  1  0
 34 35  2  0
 35 36  1  0
 36 37  2  0
 37 38  1  0
 38 39  2  0
 23 40  2  0
 40 41  1  0
 41 42  2  0
 42 43  1  0
 43 44  1  0
 16 45  1  0
 45 46  2  0
 46 13  1  0
 43 19  1  0
 42 21  1  0
 39 34  1  0
M  END
>  <supplier_code>  (1319) 
DB06695

>  <zinc_id>  (1319) 
ZINC000003943279

>  <catalog_short_name>  (1319) 
dbfda

$$$$

     RDKit          3D

 21 24  0  0  0  0  0  0  0  0999 V2000
    3.1111   -0.2012    1.4670 C   0  0  0  0  0  0  0  0  0  0  0  0
    2.2659    0.2948    0.7033 O   0  0  0  0  0  0  0  0  0  0  0  0
    2.5811   -0.3714   -0.6188 C   0  0  1  0  0  0  0  0  0  0  0  0
    1.3843   -1.2928   -0.6946 O   0  0  0  0  0  0  0  0  0  0  0  0
    0.4812   -0.8343    0.4540 C   0  0  2  0  0  0  0  0  0  0  0  0
   -0.2699   -2.1392    0.1638 O   0  0  0  0  0  0  0  0  0  0  0  0
   -1.5016   -2.0109   -0.1662 C   0  0  1  0  0  0  0  0  0  0  0  0
   -2.0263   -3.3981   -0.4476 C   0  0  0  0  0  0  0  0  0  0  0  0
   -2.1460   -1.6037    1.1303 C   0  0  0  0  0  0  0  0  0  0  0  0
   -1.9902   -0.2867    1.3005 C   0  0  0  0  0  0  0  0  0  0  0  0
   -1.6202    0.7562    0.1259 C   0  0  1  0  0  0  0  0  0  0  0  0
   -0.8744    1.6005    1.4008 C   0  0  2  0  0  0  0  0  0  0  0  0
   -2.2232    2.4476    1.6872 C   0  0  0  0  0  0  0  0  0  0  0  0
   -0.2530    2.7999    0.5216 C   0  0  0  0  0  0  0  0  0  0  0  0
    1.0211    1.9711    0.3242 C   0  0  0  0  0  0  0  0  0  0  0  0
    0.4594    1.3481   -1.0838 C   0  0  1  0  0  0  0  0  0  0  0  0
    1.8756    0.7158   -1.7233 C   0  0  1  0  0  0  0  0  0  0  0  0
    2.8147    1.9431   -1.2103 C   0  0  0  0  0  0  0  0  0  0  0  0
   -0.3493    0.0623   -0.5680 C   0  0  1  0  0  0  0  0  0  0  0  0
   -0.8065   -0.6257   -1.6028 O   0  0  0  0  0  0  0  0  0  0  0  0
   -1.9338   -1.1756   -1.1633 O   0  0  0  0  0  0  0  0  0  0  0  0
  1  2  1  0
  3  2  1  1
  3  4  1  0
  5  4  1  6
  5  6  1  0
  6  7  1  0
  7  8  1  6
  7  9  1  0
  9 10  1  0
 11 10  1  1
 11 12  1  0
 12 13  1  1
 12 14  1  0
 14 15  1  0
 16 15  1  1
 16 17  1  0
 17 18  1  1
 16 19  1  0
 19 20  1  6
 20 21  1  0
 17  3  1  0
 19  5  1  0
 21  7  1  0
 19 11  1  0
M  END
>  <supplier_code>  (1320) 
DB06697

>  <zinc_id>  (1320) 
ZINC000014263142

>  <catalog_short_name>  (1320) 
dbfda

$$$$

     RDKit          3D

 19 20  0  0  0  0  0  0  0  0999 V2000
    0.8514    3.2606    0.7155 C   0  0  0  0  0  0  0  0  0  0  0  0
    0.1058    2.4284    1.6014 N   0  0  0  0  0  0  0  0  0  0  0  0
    0.3803    2.8320    2.9741 C   0  0  0  0  0  0  0  0  0  0  0  0
    0.4487    1.0193    1.4259 C   0  0  0  0  0  0  0  0  0  0  0  0
    0.3318    0.9459   -0.2316 C   0  0  2  0  0  0  0  0  0  0  0  0
   -1.0120    0.0229   -0.1563 C   0  0  0  0  0  0  0  0  0  0  0  0
   -2.0232    0.5893    0.6218 C   0  0  0  0  0  0  0  0  0  0  0  0
   -3.2159   -0.1278    0.6374 C   0  0  0  0  0  0  0  0  0  0  0  0
   -3.4698   -1.0984   -0.3214 C   0  0  0  0  0  0  0  0  0  0  0  0
   -4.3709   -2.1451   -0.0954 O   0  0  0  0  0  0  0  0  0  0  0  0
   -2.6558   -1.0457   -1.4416 C   0  0  0  0  0  0  0  0  0  0  0  0
   -1.5014   -0.2708   -1.4332 C   0  0  0  0  0  0  0  0  0  0  0  0
    1.3509   -0.3397   -0.3890 C   0  0  0  0  0  0  0  0  0  0  0  0
    0.7209   -1.3575   -1.0022 O   0  0  0  0  0  0  0  0  0  0  0  0
    2.1089   -0.5637    0.8257 C   0  0  0  0  0  0  0  0  0  0  0  0
    3.3647   -1.2996    0.4660 C   0  0  0  0  0  0  0  0  0  0  0  0
    3.1709   -2.0673   -0.8380 C   0  0  0  0  0  0  0  0  0  0  0  0
    3.0879   -1.0038   -1.9291 C   0  0  0  0  0  0  0  0  0  0  0  0
    2.3267    0.2210   -1.4301 C   0  0  0  0  0  0  0  0  0  0  0  0
  1  2  1  0
  2  3  1  0
  2  4  1  0
  5  4  1  1
  5  6  1  0
  6  7  2  0
  7  8  1  0
  8  9  2  0
  9 10  1  0
  9 11  1  0
 11 12  2  0
  5 13  1  0
 13 14  1  0
 13 15  1  0
 15 16  1  0
 16 17  1  0
 17 18  1  0
 18 19  1  0
 12  6  1  0
 19 13  1  0
M  END
>  <supplier_code>  (1321) 
DB06700

>  <zinc_id>  (1321) 
ZINC000000009342

>  <catalog_short_name>  (1321) 
dbfda

$$$$

     RDKit          3D

 19 20  0  0  0  0  0  0  0  0999 V2000
   -1.2541    2.6402   -1.2646 C   0  0  0  0  0  0  0  0  0  0  0  0
   -0.9979    2.5793   -0.2516 N   0  0  0  0  0  0  0  0  0  0  0  0
   -1.6084    3.5213    0.6798 C   0  0  0  0  0  0  0  0  0  0  0  0
   -1.0911    1.2639    0.3767 C   0  0  0  0  0  0  0  0  0  0  0  0
   -0.5757    0.3289   -0.8909 C   0  0  1  0  0  0  0  0  0  0  0  0
    0.9553    0.2881   -0.3560 C   0  0  0  0  0  0  0  0  0  0  0  0
    1.4773    1.4971    0.0677 C   0  0  0  0  0  0  0  0  0  0  0  0
    2.8048    1.4381    0.4807 C   0  0  0  0  0  0  0  0  0  0  0  0
    3.6397    0.4284    0.0297 C   0  0  0  0  0  0  0  0  0  0  0  0
    4.8149    0.1128    0.7068 O   0  0  0  0  0  0  0  0  0  0  0  0
    3.1528   -0.3010   -1.0359 C   0  0  0  0  0  0  0  0  0  0  0  0
    1.7851   -0.3323   -1.2903 C   0  0  0  0  0  0  0  0  0  0  0  0
   -1.0412   -1.0745   -0.1653 C   0  0  0  0  0  0  0  0  0  0  0  0
   -0.0096   -1.6665    0.4362 O   0  0  0  0  0  0  0  0  0  0  0  0
   -1.4309   -1.8950   -1.3916 C   0  0  0  0  0  0  0  0  0  0  0  0
   -1.8898   -3.2450   -0.8503 C   0  0  0  0  0  0  0  0  0  0  0  0
   -2.9904   -3.1003    0.1691 C   0  0  0  0  0  0  0  0  0  0  0  0
   -3.4630   -1.6635    0.1952 C   0  0  0  0  0  0  0  0  0  0  0  0
   -2.2777   -0.8197    0.5999 C   0  0  0  0  0  0  0  0  0  0  0  0
  1  2  1  0
  2  3  1  0
  2  4  1  0
  5  4  1  1
  5  6  1  0
  6  7  2  0
  7  8  1  0
  8  9  2  0
  9 10  1  0
  9 11  1  0
 11 12  2  0
  5 13  1  0
 13 14  1  0
 13 15  1  0
 15 16  1  0
 16 17  1  0
 17 18  1  0
 18 19  1  0
 12  6  1  0
 19 13  1  0
M  END
>  <supplier_code>  (1322) 
DB06700

>  <zinc_id>  (1322) 
ZINC000002525885

>  <catalog_short_name>  (1322) 
dbfda

$$$$

     RDKit          3D

 17 18  0  0  0  0  0  0  0  0999 V2000
    0.6479    3.8151    1.3169 C   0  0  0  0  0  0  0  0  0  0  0  0
    0.8060    2.5800    0.7135 O   0  0  0  0  0  0  0  0  0  0  0  0
   -0.2777    1.8463    0.2623 C   0  0  0  0  0  0  0  0  0  0  0  0
   -1.3604    2.4144    0.0173 O   0  0  0  0  0  0  0  0  0  0  0  0
    0.1240    0.6646   -0.7599 C   0  0  2  0  0  0  0  0  0  0  0  0
   -1.1375   -0.2267   -0.3188 C   0  0  0  0  0  0  0  0  0  0  0  0
   -2.2068   -0.2107   -1.1686 C   0  0  0  0  0  0  0  0  0  0  0  0
   -3.1824   -1.1683   -0.9148 C   0  0  0  0  0  0  0  0  0  0  0  0
   -3.0885   -1.9461    0.2351 C   0  0  0  0  0  0  0  0  0  0  0  0
   -2.3503   -1.3999    1.2795 C   0  0  0  0  0  0  0  0  0  0  0  0
   -1.3268   -0.5028    0.9842 C   0  0  0  0  0  0  0  0  0  0  0  0
    1.2047   -0.0480    0.3931 C   0  0  1  0  0  0  0  0  0  0  0  0
    0.9307   -1.5667   -0.1565 C   0  0  0  0  0  0  0  0  0  0  0  0
    1.9661   -2.0323   -1.0517 C   0  0  0  0  0  0  0  0  0  0  0  0
    3.3595   -1.9280   -0.4435 C   0  0  0  0  0  0  0  0  0  0  0  0
    3.4550   -0.5315    0.1627 C   0  0  0  0  0  0  0  0  0  0  0  0
    2.4366    0.2407   -0.5508 N   0  0  0  0  0  0  0  0  0  0  0  0
  1  2  1  0
  2  3  1  0
  3  4  2  0
  5  3  1  1
  5  6  1  0
  6  7  2  0
  7  8  1  0
  8  9  2  0
  9 10  1  0
 10 11  2  0
  5 12  1  0
 12 13  1  6
 13 14  1  0
 14 15  1  0
 15 16  1  0
 16 17  1  0
 11  6  1  0
 17 12  1  0
M  END
>  <supplier_code>  (1323) 
DB06701

>  <zinc_id>  (1323) 
ZINC000000896711

>  <catalog_short_name>  (1323) 
dbfda

$$$$

     RDKit          3D

 30 31  0  0  0  0  0  0  0  0999 V2000
   -0.1017   -4.1875    1.9065 C   0  0  0  0  0  0  0  0  0  0  0  0
    0.7606   -3.7108    0.8881 C   0  0  0  0  0  0  0  0  0  0  0  0
    2.0591   -4.5126    0.8838 C   0  0  0  0  0  0  0  0  0  0  0  0
    1.1662   -2.2970    1.0085 C   0  0  0  0  0  0  0  0  0  0  0  0
    1.8422   -1.8349    1.9770 O   0  0  0  0  0  0  0  0  0  0  0  0
    0.7361   -1.2885    0.1341 O   0  0  0  0  0  0  0  0  0  0  0  0
    1.6482   -0.3485   -0.3647 C   0  0  0  0  0  0  0  0  0  0  0  0
    2.9684   -0.6926   -0.6496 C   0  0  0  0  0  0  0  0  0  0  0  0
    4.0253    0.1652   -0.3791 C   0  0  0  0  0  0  0  0  0  0  0  0
    3.7872    1.3649    0.2781 C   0  0  0  0  0  0  0  0  0  0  0  0
    4.9274    2.2106    0.7283 C   0  0  0  0  0  0  0  0  0  0  0  0
    5.7862    1.4402    1.5268 O   0  0  0  0  0  0  0  0  0  0  0  0
    2.4810    1.8346    0.2675 C   0  0  0  0  0  0  0  0  0  0  0  0
    1.4734    0.8840    0.1512 C   0  0  0  0  0  0  0  0  0  0  0  0
   -0.0192    1.5299    0.1339 C   0  0  2  0  0  0  0  0  0  0  0  0
   -0.8342    0.0894    0.2797 C   0  0  0  0  0  0  0  0  0  0  0  0
   -2.0886    0.4499    1.0410 C   0  0  0  0  0  0  0  0  0  0  0  0
   -3.2154   -0.1544    0.3351 N   0  0  0  0  0  0  0  0  0  0  0  0
   -2.9893   -1.5607    0.1114 C   0  0  0  0  0  0  0  0  0  0  0  0
   -3.7689   -2.0852   -1.0625 C   0  0  0  0  0  0  0  0  0  0  0  0
   -3.2792   -2.3677    1.3653 C   0  0  0  0  0  0  0  0  0  0  0  0
   -4.4514    0.0898    1.0635 C   0  0  0  0  0  0  0  0  0  0  0  0
   -5.5117   -0.9475    0.7242 C   0  0  0  0  0  0  0  0  0  0  0  0
   -5.0212    1.4188    0.5805 C   0  0  0  0  0  0  0  0  0  0  0  0
   -0.1197    1.4779   -1.4969 C   0  0  0  0  0  0  0  0  0  0  0  0
    0.8976    2.2000   -2.1083 C   0  0  0  0  0  0  0  0  0  0  0  0
    0.6120    2.9556   -3.2313 C   0  0  0  0  0  0  0  0  0  0  0  0
   -0.6711    3.2077   -3.6375 C   0  0  0  0  0  0  0  0  0  0  0  0
   -1.6839    2.8206   -2.7999 C   0  0  0  0  0  0  0  0  0  0  0  0
   -1.4155    1.8488   -1.8431 C   0  0  0  0  0  0  0  0  0  0  0  0
  1  2  1  0
  2  3  1  0
  2  4  1  0
  4  5  2  0
  4  6  1  0
  6  7  1  0
  7  8  2  0
  8  9  1  0
  9 10  2  0
 10 11  1  0
 11 12  1  0
 10 13  1  0
 13 14  2  0
 15 14  1  6
 15 16  1  0
 16 17  1  0
 17 18  1  0
 18 19  1  0
 19 20  1  0
 19 21  1  0
 18 22  1  0
 22 23  1  0
 22 24  1  0
 15 25  1  0
 25 26  2  0
 26 27  1  0
 27 28  2  0
 28 29  1  0
 29 30  2  0
 14  7  1  0
 30 25  1  0
M  END
>  <supplier_code>  (1324) 
DB06702

>  <zinc_id>  (1324) 
ZINC000001552908

>  <catalog_short_name>  (1324) 
dbfda

$$$$

     RDKit          3D

 51 53  0  0  0  0  0  0  0  0999 V2000
    6.2496    0.1224    4.2305 O   0  0  0  0  0  0  0  0  0  0  0  0
    6.5393    0.9829    3.3813 C   0  0  0  0  0  0  0  0  0  0  0  0
    5.8691    2.2084    3.4295 O   0  0  0  0  0  0  0  0  0  0  0  0
    7.3777    0.7071    2.1833 C   0  0  0  0  0  0  0  0  0  0  0  0
    7.0703   -0.5636    1.5773 N   0  0  0  0  0  0  0  0  0  0  0  0
    5.8627   -1.1637    2.0658 C   0  0  0  0  0  0  0  0  0  0  0  0
    4.8548   -1.4842    1.0016 C   0  0  0  0  0  0  0  0  0  0  0  0
    3.7091   -0.5763    1.0270 N   0  0  0  0  0  0  0  0  0  0  0  0
    4.1241    0.6081    0.3200 C   0  0  0  0  0  0  0  0  0  0  0  0
    3.6296    1.8603    0.9233 C   0  0  0  0  0  0  0  0  0  0  0  0
    3.4230    2.0047    2.1635 O   0  0  0  0  0  0  0  0  0  0  0  0
    3.8805    3.0228    0.1862 O   0  0  0  0  0  0  0  0  0  0  0  0
    2.6146   -1.2588    0.3367 C   0  0  0  0  0  0  0  0  0  0  0  0
    1.9966   -0.0698   -0.6605 C   0  0  2  0  0  0  0  0  0  0  0  0
    0.6800    0.1666    0.3357 C   0  0  0  0  0  0  0  0  0  0  0  0
    0.1970   -1.0862    0.6142 O   0  0  0  0  0  0  0  0  0  0  0  0
   -1.4714   -1.1421    0.7404 P   0  0  2  0  0  0  0  0  0  0  0  0
   -1.8938   -0.0386    1.6795 O   0  0  0  0  0  0  0  0  0  0  0  0
   -1.8856   -2.6379    1.4224 O   0  0  0  0  0  0  0  0  0  0  0  0
   -2.2674   -0.8975   -0.7142 O   0  0  0  0  0  0  0  0  0  0  0  0
   -3.3202   -1.7657   -0.9265 C   0  0  0  0  0  0  0  0  0  0  0  0
   -4.2588   -1.1935   -1.9826 C   0  0  0  0  0  0  0  0  0  0  0  0
   -4.7210    0.1621   -1.5230 C   0  0  0  0  0  0  0  0  0  0  0  0
   -5.5623   -0.0118   -0.2676 C   0  0  0  0  0  0  0  0  0  0  0  0
   -5.8370    1.3646    0.2448 C   0  0  0  0  0  0  0  0  0  0  0  0
   -6.9509    1.5319    1.0527 C   0  0  0  0  0  0  0  0  0  0  0  0
   -7.0216    2.6133    1.9223 C   0  0  0  0  0  0  0  0  0  0  0  0
   -5.8973    3.3321    2.2259 C   0  0  0  0  0  0  0  0  0  0  0  0
   -4.7928    3.2215    1.3996 C   0  0  0  0  0  0  0  0  0  0  0  0
   -4.7357    2.1347    0.5452 C   0  0  0  0  0  0  0  0  0  0  0  0
   -6.8769   -0.6196   -0.5665 C   0  0  0  0  0  0  0  0  0  0  0  0
   -7.1275   -1.9499   -0.2543 C   0  0  0  0  0  0  0  0  0  0  0  0
   -8.4367   -2.3758   -0.0791 C   0  0  0  0  0  0  0  0  0  0  0  0
   -9.4600   -1.4395   -0.0654 C   0  0  0  0  0  0  0  0  0  0  0  0
   -9.2589   -0.3131   -0.8441 C   0  0  0  0  0  0  0  0  0  0  0  0
   -7.9515    0.1081   -1.0565 C   0  0  0  0  0  0  0  0  0  0  0  0
   -4.8180   -0.7456    0.8118 C   0  0  0  0  0  0  0  0  0  0  0  0
   -4.1505   -2.0070    0.3150 C   0  0  0  0  0  0  0  0  0  0  0  0
    1.2151   -1.1395   -1.5571 N   0  0  0  0  0  0  0  0  0  0  0  0
    0.7317   -0.3943   -2.6889 C   0  0  0  0  0  0  0  0  0  0  0  0
    1.4703    0.8596   -2.9375 C   0  0  0  0  0  0  0  0  0  0  0  0
    1.3387    1.8768   -2.1903 O   0  0  0  0  0  0  0  0  0  0  0  0
    1.7285    1.1715   -4.2771 O   0  0  0  0  0  0  0  0  0  0  0  0
    2.2083   -2.1203   -1.9000 C   0  0  0  0  0  0  0  0  0  0  0  0
    2.9864   -1.7895   -3.1064 C   0  0  0  0  0  0  0  0  0  0  0  0
    2.9946   -2.6117   -4.0558 O   0  0  0  0  0  0  0  0  0  0  0  0
    4.0770   -0.9526   -2.9932 O   0  0  0  0  0  0  0  0  0  0  0  0
    7.2076   -0.5702    0.1502 C   0  0  0  0  0  0  0  0  0  0  0  0
    7.9561    0.5901   -0.3831 C   0  0  0  0  0  0  0  0  0  0  0  0
    7.3869    1.4765   -1.0892 O   0  0  0  0  0  0  0  0  0  0  0  0
    9.3162    0.7924   -0.1667 O   0  0  0  0  0  0  0  0  0  0  0  0
  1  2  2  0
  2  3  1  0
  2  4  1  0
  4  5  1  0
  5  6  1  0
  6  7  1  0
  7  8  1  0
  8  9  1  0
  9 10  1  0
 10 11  2  0
 10 12  1  0
  8 13  1  0
 14 13  1  1
 14 15  1  0
 15 16  1  0
 17 16  1  6
 17 18  2  0
 17 19  1  0
 17 20  1  0
 20 21  1  0
 21 22  1  0
 22 23  1  0
 23 24  1  0
 24 25  1  0
 25 26  2  0
 26 27  1  0
 27 28  2  0
 28 29  1  0
 29 30  2  0
 24 31  1  0
 31 32  2  0
 32 33  1  0
 33 34  2  0
 34 35  1  0
 35 36  2  0
 24 37  1  0
 37 38  1  0
 14 39  1  0
 39 40  1  0
 40 41  1  0
 41 42  2  0
 41 43  1  0
 39 44  1  0
 44 45  1  0
 45 46  2  0
 45 47  1  0
  5 48  1  0
 48 49  1  0
 49 50  2  0
 49 51  1  0
 38 21  1  0
 30 25  1  0
 36 31  1  0
M  END
>  <supplier_code>  (1325) 
DB06705

>  <zinc_id>  (1325) 
ZINC000028108825

>  <catalog_short_name>  (1325) 
dbfda

$$$$

     RDKit          3D

 51 53  0  0  0  0  0  0  0  0999 V2000
   -8.7404   -0.8478   -0.8444 O   0  0  0  0  0  0  0  0  0  0  0  0
   -8.5047   -0.4320   -0.2840 C   0  0  0  0  0  0  0  0  0  0  0  0
   -8.6130   -0.8829    1.0391 O   0  0  0  0  0  0  0  0  0  0  0  0
   -7.8161    0.8832   -0.4985 C   0  0  0  0  0  0  0  0  0  0  0  0
   -7.1235    1.3409    0.6723 N   0  0  0  0  0  0  0  0  0  0  0  0
   -5.7145    1.5909    0.3827 C   0  0  0  0  0  0  0  0  0  0  0  0
   -5.0890    0.3302   -0.1348 C   0  0  0  0  0  0  0  0  0  0  0  0
   -4.3502   -0.4158    0.8126 N   0  0  0  0  0  0  0  0  0  0  0  0
   -4.9992   -1.4884    1.4584 C   0  0  0  0  0  0  0  0  0  0  0  0
   -5.3367   -2.5421    0.4488 C   0  0  0  0  0  0  0  0  0  0  0  0
   -5.6750   -3.6927    0.8194 O   0  0  0  0  0  0  0  0  0  0  0  0
   -5.2760   -2.2735   -0.9223 O   0  0  0  0  0  0  0  0  0  0  0  0
   -3.3253    0.2718    1.5221 C   0  0  0  0  0  0  0  0  0  0  0  0
   -2.2450    0.4912    0.3038 C   0  0  1  0  0  0  0  0  0  0  0  0
   -0.9758    0.6528    1.3309 C   0  0  0  0  0  0  0  0  0  0  0  0
    0.0991    0.0602    0.7135 O   0  0  0  0  0  0  0  0  0  0  0  0
    1.4505    1.0154    0.5284 P   0  0  2  0  0  0  0  0  0  0  0  0
    2.4659    0.5782    1.5740 O   0  0  0  0  0  0  0  0  0  0  0  0
    1.1653    2.6524    0.7812 O   0  0  0  0  0  0  0  0  0  0  0  0
    2.0322    0.8245   -1.0328 O   0  0  0  0  0  0  0  0  0  0  0  0
    3.2821    0.3094   -1.1389 C   0  0  0  0  0  0  0  0  0  0  0  0
    4.3697    1.2346   -1.5301 C   0  0  0  0  0  0  0  0  0  0  0  0
    5.6337    0.4041   -1.7238 C   0  0  0  0  0  0  0  0  0  0  0  0
    6.0374   -0.0764   -0.3595 C   0  0  0  0  0  0  0  0  0  0  0  0
    7.2508   -0.9359   -0.5217 C   0  0  0  0  0  0  0  0  0  0  0  0
    7.2878   -1.7571   -1.6240 C   0  0  0  0  0  0  0  0  0  0  0  0
    8.3696   -2.5894   -1.7780 C   0  0  0  0  0  0  0  0  0  0  0  0
    9.3448   -2.6200   -0.7957 C   0  0  0  0  0  0  0  0  0  0  0  0
    8.9931   -2.1852    0.4616 C   0  0  0  0  0  0  0  0  0  0  0  0
    7.8887   -1.3865    0.6163 C   0  0  0  0  0  0  0  0  0  0  0  0
    6.4712    1.1165    0.4328 C   0  0  0  0  0  0  0  0  0  0  0  0
    6.9582    2.2648   -0.1787 C   0  0  0  0  0  0  0  0  0  0  0  0
    7.3965    3.3601    0.5403 C   0  0  0  0  0  0  0  0  0  0  0  0
    7.6180    3.1740    1.8953 C   0  0  0  0  0  0  0  0  0  0  0  0
    7.0608    2.0800    2.5430 C   0  0  0  0  0  0  0  0  0  0  0  0
    6.3711    1.1275    1.8184 C   0  0  0  0  0  0  0  0  0  0  0  0
    4.9608   -0.8039    0.3770 C   0  0  0  0  0  0  0  0  0  0  0  0
    3.6376   -0.8478   -0.3079 C   0  0  0  0  0  0  0  0  0  0  0  0
   -2.0569   -1.0560    0.1377 N   0  0  0  0  0  0  0  0  0  0  0  0
   -1.2128   -1.2881   -0.9709 C   0  0  0  0  0  0  0  0  0  0  0  0
   -1.8033   -0.6039   -2.1605 C   0  0  0  0  0  0  0  0  0  0  0  0
   -1.9693    0.6300   -2.2381 O   0  0  0  0  0  0  0  0  0  0  0  0
   -1.9181   -1.3461   -3.3161 O   0  0  0  0  0  0  0  0  0  0  0  0
   -1.7025   -1.6122    1.3828 C   0  0  0  0  0  0  0  0  0  0  0  0
   -0.8943   -2.8308    1.1909 C   0  0  0  0  0  0  0  0  0  0  0  0
   -0.3140   -3.2680    2.2312 O   0  0  0  0  0  0  0  0  0  0  0  0
   -1.4296   -3.7758    0.3091 O   0  0  0  0  0  0  0  0  0  0  0  0
   -7.7470    2.5694    1.1593 C   0  0  0  0  0  0  0  0  0  0  0  0
   -7.2480    3.7490    0.4209 C   0  0  0  0  0  0  0  0  0  0  0  0
   -8.0971    4.6491    0.1479 O   0  0  0  0  0  0  0  0  0  0  0  0
   -5.9675    4.1981    0.7354 O   0  0  0  0  0  0  0  0  0  0  0  0
  1  2  2  0
  2  3  1  0
  2  4  1  0
  4  5  1  0
  5  6  1  0
  6  7  1  0
  7  8  1  0
  8  9  1  0
  9 10  1  0
 10 11  2  0
 10 12  1  0
  8 13  1  0
 14 13  1  1
 14 15  1  0
 15 16  1  0
 17 16  1  6
 17 18  2  0
 17 19  1  0
 17 20  1  0
 20 21  1  0
 21 22  1  0
 22 23  1  0
 23 24  1  0
 24 25  1  0
 25 26  2  0
 26 27  1  0
 27 28  2  0
 28 29  1  0
 29 30  2  0
 24 31  1  0
 31 32  2  0
 32 33  1  0
 33 34  2  0
 34 35  1  0
 35 36  2  0
 24 37  1  0
 37 38  1  0
 14 39  1  0
 39 40  1  0
 40 41  1  0
 41 42  2  0
 41 43  1  0
 39 44  1  0
 44 45  1  0
 45 46  2  0
 45 47  1  0
  5 48  1  0
 48 49  1  0
 49 50  2  0
 49 51  1  0
 38 21  1  0
 30 25  1  0
 36 31  1  0
M  END
>  <supplier_code>  (1326) 
DB06705

>  <zinc_id>  (1326) 
ZINC000060392785

>  <catalog_short_name>  (1326) 
dbfda

$$$$

     RDKit          3D

 13 13  0  0  0  0  0  0  0  0999 V2000
    3.9201    0.3064    0.6833 C   0  0  0  0  0  0  0  0  0  0  0  0
    2.5584   -0.5998    0.7473 C   0  0  2  0  0  0  0  0  0  0  0  0
    3.0918   -1.5266   -0.4000 N   0  0  0  0  0  0  0  0  0  0  0  0
    1.6624    0.3922   -0.3595 C   0  0  2  0  0  0  0  0  0  0  0  0
    2.0080    1.6729    0.3926 O   0  0  0  0  0  0  0  0  0  0  0  0
    0.2861    0.1531    0.4710 C   0  0  0  0  0  0  0  0  0  0  0  0
   -0.4333    1.2566    0.8245 C   0  0  0  0  0  0  0  0  0  0  0  0
   -1.8195    1.2946    0.9087 C   0  0  0  0  0  0  0  0  0  0  0  0
   -2.4656    0.3659    0.1000 C   0  0  0  0  0  0  0  0  0  0  0  0
   -3.8547    0.4656    0.0332 O   0  0  0  0  0  0  0  0  0  0  0  0
   -1.8765   -0.8864    0.0788 C   0  0  0  0  0  0  0  0  0  0  0  0
   -2.5785   -2.0475   -0.1538 O   0  0  0  0  0  0  0  0  0  0  0  0
   -0.4987   -0.8470   -0.1050 C   0  0  0  0  0  0  0  0  0  0  0  0
  2  1  1  6
  2  3  1  0
  2  4  1  0
  4  5  1  1
  4  6  1  0
  6  7  2  0
  7  8  1  0
  8  9  2  0
  9 10  1  0
  9 11  1  0
 11 12  1  0
 11 13  2  0
 13  6  1  0
M  END
>  <supplier_code>  (1327) 
DB06707

>  <zinc_id>  (1327) 
ZINC000000034157

>  <catalog_short_name>  (1327) 
dbfda

$$$$

     RDKit          3D

 35 38  0  0  0  0  0  0  0  0999 V2000
   -5.8878   -2.7377    0.1773 C   0  0  0  0  0  0  0  0  0  0  0  0
   -5.6302   -2.2177    0.2807 C   0  0  0  0  0  0  0  0  0  0  0  0
   -4.6969   -1.4640    1.2207 C   0  0  0  0  0  0  0  0  0  0  0  0
   -4.7549    0.0132    0.9313 C   0  0  0  0  0  0  0  0  0  0  0  0
   -4.4001    0.2406   -0.4408 N   0  0  0  0  0  0  0  0  0  0  0  0
   -4.7770    1.5817   -0.8847 C   0  0  0  0  0  0  0  0  0  0  0  0
   -6.0406    2.0644   -0.2435 C   0  0  0  0  0  0  0  0  0  0  0  0
   -5.9492    3.4541    0.3233 C   0  0  0  0  0  0  0  0  0  0  0  0
   -5.0032    4.3282   -0.4647 C   0  0  0  0  0  0  0  0  0  0  0  0
   -3.0470   -0.0871   -0.7691 C   0  0  0  0  0  0  0  0  0  0  0  0
   -2.1814    0.2351    0.6424 C   0  0  2  0  0  0  0  0  0  0  0  0
   -2.8338    1.6411    0.7675 O   0  0  0  0  0  0  0  0  0  0  0  0
   -0.8896    0.7849   -0.2360 C   0  0  0  0  0  0  0  0  0  0  0  0
   -0.4622    2.0439    0.1272 C   0  0  0  0  0  0  0  0  0  0  0  0
    0.7356    2.4551   -0.4433 C   0  0  0  0  0  0  0  0  0  0  0  0
    0.9861    4.1316   -0.9184 Cl  0  0  0  0  0  0  0  0  0  0  0  0
    1.7914    1.5579   -0.3351 C   0  0  0  0  0  0  0  0  0  0  0  0
    1.4722    0.2134   -0.1825 C   0  0  0  0  0  0  0  0  0  0  0  0
    0.1345   -0.1683   -0.1973 C   0  0  0  0  0  0  0  0  0  0  0  0
    0.1574   -1.6204   -0.0490 C   0  0  0  0  0  0  0  0  0  0  0  0
   -0.8929   -2.5241    0.0114 C   0  0  0  0  0  0  0  0  0  0  0  0
   -0.5567   -3.8688   -0.0854 C   0  0  0  0  0  0  0  0  0  0  0  0
    0.7282   -4.3024    0.2173 C   0  0  0  0  0  0  0  0  0  0  0  0
    1.2079   -5.9742    0.1442 Cl  0  0  0  0  0  0  0  0  0  0  0  0
    1.6239   -3.3533    0.6573 C   0  0  0  0  0  0  0  0  0  0  0  0
    1.4492   -2.0654    0.1946 C   0  0  0  0  0  0  0  0  0  0  0  0
    2.3128   -0.9058    0.2633 C   0  0  0  0  0  0  0  0  0  0  0  0
    3.4138   -0.7079    0.9930 C   0  0  0  0  0  0  0  0  0  0  0  0
    4.3768    0.2310    0.3989 C   0  0  0  0  0  0  0  0  0  0  0  0
    4.7898    1.3809    1.0602 C   0  0  0  0  0  0  0  0  0  0  0  0
    5.8875    2.1031    0.6057 C   0  0  0  0  0  0  0  0  0  0  0  0
    6.7511    1.5013   -0.2855 C   0  0  0  0  0  0  0  0  0  0  0  0
    8.1524    2.2990   -0.9605 Cl  0  0  0  0  0  0  0  0  0  0  0  0
    6.6627    0.1229   -0.4113 C   0  0  0  0  0  0  0  0  0  0  0  0
    5.3702   -0.3859   -0.3543 C   0  0  0  0  0  0  0  0  0  0  0  0
  1  2  1  0
  2  3  1  0
  3  4  1  0
  4  5  1  0
  5  6  1  0
  6  7  1  0
  7  8  1  0
  8  9  1  0
  5 10  1  0
 11 10  1  6
 11 12  1  0
 11 13  1  0
 13 14  2  0
 14 15  1  0
 15 16  1  0
 15 17  2  0
 17 18  1  0
 18 19  2  0
 19 20  1  0
 20 21  2  0
 21 22  1  0
 22 23  2  0
 23 24  1  0
 23 25  1  0
 25 26  2  0
 26 27  1  0
 27 28  2  0
 28 29  1  0
 29 30  2  0
 30 31  1  0
 31 32  2  0
 32 33  1  0
 32 34  1  0
 34 35  2  0
 19 13  1  0
 26 20  1  0
 35 29  1  0
 27 18  1  0
M  END
>  <supplier_code>  (1328) 
DB06708

>  <zinc_id>  (1328) 
ZINC000100004343

>  <catalog_short_name>  (1328) 
dbfda

$$$$

     RDKit          3D

 35 38  0  0  0  0  0  0  0  0999 V2000
   -6.2927   -2.2388    0.9139 C   0  0  0  0  0  0  0  0  0  0  0  0
   -5.9882   -2.3538    0.4835 C   0  0  0  0  0  0  0  0  0  0  0  0
   -5.2435   -1.6714   -0.6295 C   0  0  0  0  0  0  0  0  0  0  0  0
   -4.7156   -0.3312   -0.2448 C   0  0  0  0  0  0  0  0  0  0  0  0
   -4.5439   -0.1503    1.1813 N   0  0  0  0  0  0  0  0  0  0  0  0
   -4.6681    1.2684    1.5063 C   0  0  0  0  0  0  0  0  0  0  0  0
   -5.9001    1.8285    0.8337 C   0  0  0  0  0  0  0  0  0  0  0  0
   -5.6603    2.1903   -0.6154 C   0  0  0  0  0  0  0  0  0  0  0  0
   -5.7733    3.6953   -0.7322 C   0  0  0  0  0  0  0  0  0  0  0  0
   -3.2090   -0.6012    1.5881 C   0  0  0  0  0  0  0  0  0  0  0  0
   -2.3222   -0.4424    0.1982 C   0  0  1  0  0  0  0  0  0  0  0  0
   -2.3743    1.0802    0.2494 O   0  0  0  0  0  0  0  0  0  0  0  0
   -0.9055   -0.4880    0.9982 C   0  0  0  0  0  0  0  0  0  0  0  0
   -0.7385   -1.6873    1.6978 C   0  0  0  0  0  0  0  0  0  0  0  0
    0.5635   -2.0620    2.0243 C   0  0  0  0  0  0  0  0  0  0  0  0
    0.9162   -3.7025    2.5707 Cl  0  0  0  0  0  0  0  0  0  0  0  0
    1.6514   -1.2935    1.6071 C   0  0  0  0  0  0  0  0  0  0  0  0
    1.4267   -0.3147    0.6423 C   0  0  0  0  0  0  0  0  0  0  0  0
    0.1446   -0.0385    0.1829 C   0  0  0  0  0  0  0  0  0  0  0  0
    0.2098    0.4193   -1.2121 C   0  0  0  0  0  0  0  0  0  0  0  0
   -0.7043    0.4203   -2.2611 C   0  0  0  0  0  0  0  0  0  0  0  0
   -0.2676    0.5049   -3.5768 C   0  0  0  0  0  0  0  0  0  0  0  0
    1.0555    0.7775   -3.8769 C   0  0  0  0  0  0  0  0  0  0  0  0
    1.7768    0.3501   -5.4222 Cl  0  0  0  0  0  0  0  0  0  0  0  0
    1.8669    1.0812   -2.7938 C   0  0  0  0  0  0  0  0  0  0  0  0
    1.5150    0.7852   -1.4833 C   0  0  0  0  0  0  0  0  0  0  0  0
    2.3142    0.3543   -0.3243 C   0  0  0  0  0  0  0  0  0  0  0  0
    3.5675   -0.0930   -0.4267 C   0  0  0  0  0  0  0  0  0  0  0  0
    4.3953   -0.3020    0.7764 C   0  0  0  0  0  0  0  0  0  0  0  0
    5.5628   -1.0336    0.5670 C   0  0  0  0  0  0  0  0  0  0  0  0
    6.8242   -0.5213    0.8608 C   0  0  0  0  0  0  0  0  0  0  0  0
    6.9636    0.7664    1.3623 C   0  0  0  0  0  0  0  0  0  0  0  0
    8.1487    1.9120    0.7463 Cl  0  0  0  0  0  0  0  0  0  0  0  0
    5.8324    1.1913    2.0536 C   0  0  0  0  0  0  0  0  0  0  0  0
    4.5720    0.7005    1.7262 C   0  0  0  0  0  0  0  0  0  0  0  0
  1  2  1  0
  2  3  1  0
  3  4  1  0
  4  5  1  0
  5  6  1  0
  6  7  1  0
  7  8  1  0
  8  9  1  0
  5 10  1  0
 11 10  1  1
 11 12  1  0
 11 13  1  0
 13 14  2  0
 14 15  1  0
 15 16  1  0
 15 17  2  0
 17 18  1  0
 18 19  2  0
 19 20  1  0
 20 21  2  0
 21 22  1  0
 22 23  2  0
 23 24  1  0
 23 25  1  0
 25 26  2  0
 26 27  1  0
 27 28  2  0
 28 29  1  0
 29 30  2  0
 30 31  1  0
 31 32  2  0
 32 33  1  0
 32 34  1  0
 34 35  2  0
 19 13  1  0
 26 20  1  0
 35 29  1  0
 27 18  1  0
M  END
>  <supplier_code>  (1329) 
DB06708

>  <zinc_id>  (1329) 
ZINC000100004345

>  <catalog_short_name>  (1329) 
dbfda

$$$$

     RDKit          3D

 11 10  0  0  0  0  0  0  0  0999 V2000
    3.7940   -0.1970    0.2652 C   0  0  0  0  0  0  0  0  0  0  0  0
    2.3063   -0.2218    0.4064 C   0  0  0  0  0  0  0  0  0  0  0  0
    1.8277   -1.3091    0.8156 O   0  0  0  0  0  0  0  0  0  0  0  0
    1.5318    0.6217   -0.3662 O   0  0  0  0  0  0  0  0  0  0  0  0
    0.1356    0.8586    0.3036 C   0  0  1  0  0  0  0  0  0  0  0  0
   -0.1502    2.1808   -0.6861 C   0  0  0  0  0  0  0  0  0  0  0  0
   -0.6052   -0.1746   -0.7865 C   0  0  0  0  0  0  0  0  0  0  0  0
   -1.8742   -0.3857   -0.1193 N   0  0  0  0  0  0  0  0  0  0  0  0
   -2.6711    0.8312   -0.2038 C   0  0  0  0  0  0  0  0  0  0  0  0
   -1.7287   -0.7998    1.2523 C   0  0  0  0  0  0  0  0  0  0  0  0
   -2.5660   -1.4042   -0.8812 C   0  0  0  0  0  0  0  0  0  0  0  0
  1  2  1  0
  2  3  2  0
  2  4  1  0
  5  4  1  6
  5  6  1  0
  5  7  1  0
  7  8  1  0
  8  9  1  0
  8 10  1  0
  8 11  1  0
M  CHG  1   8   1
M  END
>  <supplier_code>  (1330) 
DB06709

>  <zinc_id>  (1330) 
ZINC000003831050

>  <catalog_short_name>  (1330) 
dbfda

$$$$

     RDKit          3D

 11 10  0  0  0  0  0  0  0  0999 V2000
    3.5659    1.0445   -0.7584 C   0  0  0  0  0  0  0  0  0  0  0  0
    2.6135    0.3124   -0.4694 C   0  0  0  0  0  0  0  0  0  0  0  0
    2.6989   -0.9490   -0.3596 O   0  0  0  0  0  0  0  0  0  0  0  0
    1.3208    0.7892   -0.7098 O   0  0  0  0  0  0  0  0  0  0  0  0
    0.2289    0.1631    0.1743 C   0  0  2  0  0  0  0  0  0  0  0  0
    0.3939   -1.3030   -0.5547 C   0  0  0  0  0  0  0  0  0  0  0  0
   -0.9538    0.6203   -0.8748 C   0  0  0  0  0  0  0  0  0  0  0  0
   -2.1551    0.0094   -0.3681 N   0  0  0  0  0  0  0  0  0  0  0  0
   -1.9295   -0.7690    0.8252 C   0  0  0  0  0  0  0  0  0  0  0  0
   -3.1680    1.0046   -0.1238 C   0  0  0  0  0  0  0  0  0  0  0  0
   -2.6155   -0.9226   -1.3950 C   0  0  0  0  0  0  0  0  0  0  0  0
  1  2  1  0
  2  3  2  0
  2  4  1  0
  5  4  1  6
  5  6  1  0
  5  7  1  0
  7  8  1  0
  8  9  1  0
  8 10  1  0
  8 11  1  0
M  CHG  1   8   1
M  END
>  <supplier_code>  (1331) 
DB06709

>  <zinc_id>  (1331) 
ZINC000003831051

>  <catalog_short_name>  (1331) 
dbfda

$$$$

     RDKit          3D

 22 25  0  0  0  0  0  0  0  0999 V2000
   -4.0282   -0.8505    1.2907 C   0  0  0  0  0  0  0  0  0  0  0  0
   -3.8112    0.0989    0.1452 C   0  0  2  0  0  0  0  0  0  0  0  0
   -4.6578    1.1851    0.1497 O   0  0  0  0  0  0  0  0  0  0  0  0
   -3.9333   -0.7379   -1.1291 C   0  0  0  0  0  0  0  0  0  0  0  0
   -2.5430   -1.3239   -1.3727 C   0  0  0  0  0  0  0  0  0  0  0  0
   -1.8281   -1.0050    0.0562 C   0  0  1  0  0  0  0  0  0  0  0  0
   -0.3449   -0.5793   -0.6384 C   0  0  2  0  0  0  0  0  0  0  0  0
    0.2687   -2.0481   -0.4158 C   0  0  0  0  0  0  0  0  0  0  0  0
    1.7404   -1.9994   -0.6912 C   0  0  0  0  0  0  0  0  0  0  0  0
    2.4371   -0.9986    0.1782 C   0  0  0  0  0  0  0  0  0  0  0  0
    3.7594   -0.9113    0.0963 C   0  0  0  0  0  0  0  0  0  0  0  0
    4.4379    0.3786    0.2908 C   0  0  0  0  0  0  0  0  0  0  0  0
    5.6227    0.3747    0.7436 O   0  0  0  0  0  0  0  0  0  0  0  0
    3.6745    1.6292    0.5955 C   0  0  0  0  0  0  0  0  0  0  0  0
    2.3749    1.2181    1.2744 C   0  0  0  0  0  0  0  0  0  0  0  0
    1.7179    0.2957    0.2701 C   0  0  1  0  0  0  0  0  0  0  0  0
    1.5624    1.0015   -1.0205 C   0  0  0  0  0  0  0  0  0  0  0  0
    0.2389   -0.0400    0.8570 C   0  0  1  0  0  0  0  0  0  0  0  0
   -0.3067    1.4765    0.6014 C   0  0  0  0  0  0  0  0  0  0  0  0
   -1.7632    1.3113    1.0410 C   0  0  0  0  0  0  0  0  0  0  0  0
   -2.3897    0.5216   -0.0161 C   0  0  2  0  0  0  0  0  0  0  0  0
   -2.2288    1.0030   -1.4180 C   0  0  0  0  0  0  0  0  0  0  0  0
  2  1  1  1
  2  3  1  0
  2  4  1  0
  4  5  1  0
  6  5  1  6
  6  7  1  0
  7  8  1  1
  8  9  1  0
  9 10  1  0
 10 11  2  0
 11 12  1  0
 12 13  2  0
 12 14  1  0
 14 15  1  0
 15 16  1  0
 16 17  1  6
 16 18  1  0
 18 19  1  6
 19 20  1  0
 20 21  1  0
 21 22  1  6
 21  2  1  0
 21  6  1  0
 18  7  1  0
 16 10  1  0
M  END
>  <supplier_code>  (1332) 
DB06710

>  <zinc_id>  (1332) 
ZINC000003814422

>  <catalog_short_name>  (1332) 
dbfda

$$$$

     RDKit          3D

 16 18  0  0  0  0  0  0  0  0999 V2000
   -3.3020    1.5237    0.1934 C   0  0  0  0  0  0  0  0  0  0  0  0
   -2.0863    2.0511    0.6100 C   0  0  0  0  0  0  0  0  0  0  0  0
   -0.9569    1.2530    0.5035 C   0  0  0  0  0  0  0  0  0  0  0  0
   -1.0636   -0.1039    0.2330 C   0  0  0  0  0  0  0  0  0  0  0  0
   -2.3306   -0.6358    0.3240 C   0  0  0  0  0  0  0  0  0  0  0  0
   -3.4717    0.1556    0.3580 C   0  0  0  0  0  0  0  0  0  0  0  0
   -2.4728   -1.9940    0.0760 C   0  0  0  0  0  0  0  0  0  0  0  0
   -1.3351   -2.7604   -0.1245 C   0  0  0  0  0  0  0  0  0  0  0  0
   -0.1635   -2.1361   -0.5062 C   0  0  0  0  0  0  0  0  0  0  0  0
   -0.0050   -0.7616   -0.3717 C   0  0  0  0  0  0  0  0  0  0  0  0
    1.0608   -0.0241   -1.1004 C   0  0  0  0  0  0  0  0  0  0  0  0
    2.1784    0.3568   -0.1841 C   0  0  0  0  0  0  0  0  0  0  0  0
    2.4252    1.5335    0.3096 N   0  0  0  0  0  0  0  0  0  0  0  0
    3.8610    1.7126    0.4654 C   0  0  0  0  0  0  0  0  0  0  0  0
    4.4436    0.3126    0.3660 C   0  0  0  0  0  0  0  0  0  0  0  0
    3.2185   -0.4826    0.3301 N   0  0  0  0  0  0  0  0  0  0  0  0
  1  2  2  0
  2  3  1  0
  3  4  2  0
  4  5  1  0
  5  6  2  0
  5  7  1  0
  7  8  2  0
  8  9  1  0
  9 10  2  0
 10 11  1  0
 11 12  1  0
 12 13  2  0
 13 14  1  0
 14 15  1  0
 15 16  1  0
  6  1  1  0
 16 12  1  0
 10  4  1  0
M  END
>  <supplier_code>  (1333) 
DB06711

>  <zinc_id>  (1333) 
ZINC000000119717

>  <catalog_short_name>  (1333) 
dbfda

$$$$

     RDKit          3D

 24 27  0  0  0  0  0  0  0  0999 V2000
    3.0691    1.0931    2.5281 C   0  0  0  0  0  0  0  0  0  0  0  0
    3.0971    0.7821    1.3936 C   0  0  0  0  0  0  0  0  0  0  0  0
    3.1554    0.3323   -0.0095 C   0  0  2  0  0  0  0  0  0  0  0  0
    4.5245    0.1657   -0.2844 O   0  0  0  0  0  0  0  0  0  0  0  0
    2.6533    1.3680   -0.9267 C   0  0  0  0  0  0  0  0  0  0  0  0
    1.5540    0.8519   -1.7106 C   0  0  0  0  0  0  0  0  0  0  0  0
    1.6391   -0.7665   -1.6155 C   0  0  2  0  0  0  0  0  0  0  0  0
    0.0462   -1.0266   -1.0978 C   0  0  2  0  0  0  0  0  0  0  0  0
   -0.4756   -0.3609   -2.4679 C   0  0  0  0  0  0  0  0  0  0  0  0
   -1.8865    0.0294   -2.3078 C   0  0  0  0  0  0  0  0  0  0  0  0
   -2.3155   -0.4956   -1.0016 C   0  0  0  0  0  0  0  0  0  0  0  0
   -3.6324   -0.5020   -0.7442 C   0  0  0  0  0  0  0  0  0  0  0  0
   -4.1834    0.3582    0.3237 C   0  0  0  0  0  0  0  0  0  0  0  0
   -5.2937    0.1120    0.9059 N   0  0  0  0  0  0  0  0  0  0  0  0
   -5.9931    1.1645    1.4675 O   0  0  0  0  0  0  0  0  0  0  0  0
   -3.5908    1.7363    0.2752 C   0  0  0  0  0  0  0  0  0  0  0  0
   -2.1223    1.6468   -0.1295 C   0  0  0  0  0  0  0  0  0  0  0  0
   -1.6864    0.1380    0.3209 C   0  0  2  0  0  0  0  0  0  0  0  0
   -0.1008    0.3725   -0.1980 C   0  0  1  0  0  0  0  0  0  0  0  0
    0.4237   -0.3140    1.1630 C   0  0  0  0  0  0  0  0  0  0  0  0
    1.4538   -1.3211    0.8663 C   0  0  0  0  0  0  0  0  0  0  0  0
    2.3475   -0.8577   -0.1687 C   0  0  2  0  0  0  0  0  0  0  0  0
    3.3281   -2.0003   -0.4627 C   0  0  0  0  0  0  0  0  0  0  0  0
    3.9888   -2.5061    0.7864 C   0  0  0  0  0  0  0  0  0  0  0  0
  1  2  3  0
  3  2  1  1
  3  4  1  0
  3  5  1  0
  5  6  1  0
  7  6  1  1
  7  8  1  0
  8  9  1  6
  9 10  1  0
 10 11  1  0
 11 12  2  0
 12 13  1  0
 13 14  2  3
 14 15  1  0
 13 16  1  0
 16 17  1  0
 18 17  1  6
 18 19  1  0
 19 20  1  1
 20 21  1  0
 21 22  1  0
 22 23  1  6
 23 24  1  0
 22  3  1  0
 22  7  1  0
 19  8  1  0
 18 11  1  0
M  END
>  <supplier_code>  (1334) 
DB06713

>  <zinc_id>  (1334) 
ZINC000256433946

>  <catalog_short_name>  (1334) 
dbfda

$$$$

     RDKit          3D

 24 27  0  0  0  0  0  0  0  0999 V2000
    5.0649    2.0710    0.3530 C   0  0  0  0  0  0  0  0  0  0  0  0
    4.2042    1.3216    0.6983 C   0  0  0  0  0  0  0  0  0  0  0  0
    3.3071    0.2845    1.1859 C   0  0  2  0  0  0  0  0  0  0  0  0
    2.9852    0.4293    2.5094 O   0  0  0  0  0  0  0  0  0  0  0  0
    3.8775   -1.0751    0.8100 C   0  0  0  0  0  0  0  0  0  0  0  0
    2.8290   -1.7434   -0.0894 C   0  0  0  0  0  0  0  0  0  0  0  0
    1.6396   -1.1958    0.8723 C   0  0  2  0  0  0  0  0  0  0  0  0
    0.3239   -1.5781   -0.1261 C   0  0  2  0  0  0  0  0  0  0  0  0
    0.1822   -0.2786   -1.0325 C   0  0  0  0  0  0  0  0  0  0  0  0
   -1.1052    0.0497   -1.5165 C   0  0  0  0  0  0  0  0  0  0  0  0
   -2.1334    0.1298   -0.4245 C   0  0  0  0  0  0  0  0  0  0  0  0
   -3.3492    0.4288   -0.9003 C   0  0  0  0  0  0  0  0  0  0  0  0
   -4.3071    0.6226    0.2025 C   0  0  0  0  0  0  0  0  0  0  0  0
   -5.5407    0.8810    0.0206 N   0  0  0  0  0  0  0  0  0  0  0  0
   -6.5611    0.4065    0.7830 O   0  0  0  0  0  0  0  0  0  0  0  0
   -3.6998    0.1573    1.4752 C   0  0  0  0  0  0  0  0  0  0  0  0
   -3.0340   -1.1100    1.4607 C   0  0  0  0  0  0  0  0  0  0  0  0
   -2.0456   -1.3415    0.1980 C   0  0  2  0  0  0  0  0  0  0  0  0
   -0.6698   -1.1270    1.1724 C   0  0  2  0  0  0  0  0  0  0  0  0
   -0.4920    0.4611    1.1081 C   0  0  0  0  0  0  0  0  0  0  0  0
    0.8710    0.9376    1.2237 C   0  0  0  0  0  0  0  0  0  0  0  0
    1.9561    0.3208    0.4470 C   0  0  1  0  0  0  0  0  0  0  0  0
    2.3265    0.6799   -0.8201 C   0  0  0  0  0  0  0  0  0  0  0  0
    3.3706    0.2679   -1.6884 C   0  0  0  0  0  0  0  0  0  0  0  0
  1  2  3  0
  3  2  1  6
  3  4  1  0
  3  5  1  0
  5  6  1  0
  7  6  1  6
  7  8  1  0
  8  9  1  6
  9 10  1  0
 10 11  1  0
 11 12  2  0
 12 13  1  0
 13 14  2  3
 14 15  1  0
 13 16  1  0
 16 17  1  0
 18 17  1  1
 18 19  1  0
 19 20  1  6
 20 21  1  0
 21 22  1  0
 22 23  1  6
 23 24  1  0
 22  3  1  0
 22  7  1  0
 19  8  1  0
 18 11  1  0
M  END
>  <supplier_code>  (1335) 
DB06713

>  <zinc_id>  (1335) 
ZINC000256433948

>  <catalog_short_name>  (1335) 
dbfda

$$$$

     RDKit          3D

 24 27  0  0  0  0  0  0  0  0999 V2000
   -4.9346   -1.7040   -0.6818 C   0  0  0  0  0  0  0  0  0  0  0  0
   -4.3776   -1.0691   -0.4511 C   0  0  0  0  0  0  0  0  0  0  0  0
   -3.5809    0.0763    0.0176 C   0  0  2  0  0  0  0  0  0  0  0  0
   -4.0007    0.5918    1.2162 O   0  0  0  0  0  0  0  0  0  0  0  0
   -3.5202    1.1013   -1.0968 C   0  0  0  0  0  0  0  0  0  0  0  0
   -2.1378    1.6499   -1.1415 C   0  0  0  0  0  0  0  0  0  0  0  0
   -1.6947    1.2574    0.3765 C   0  0  2  0  0  0  0  0  0  0  0  0
   -0.0138    1.2240    0.1359 C   0  0  2  0  0  0  0  0  0  0  0  0
    0.0588    0.9243   -1.4460 C   0  0  0  0  0  0  0  0  0  0  0  0
    1.4315    0.2745   -1.5486 C   0  0  0  0  0  0  0  0  0  0  0  0
    2.2733    0.5670   -0.3688 C   0  0  0  0  0  0  0  0  0  0  0  0
    3.5743    0.6793   -0.4191 C   0  0  0  0  0  0  0  0  0  0  0  0
    4.4216   -0.1775    0.4208 C   0  0  0  0  0  0  0  0  0  0  0  0
    5.5844    0.2453    0.7128 N   0  0  0  0  0  0  0  0  0  0  0  0
    6.5800    0.4201   -0.2237 O   0  0  0  0  0  0  0  0  0  0  0  0
    3.8253   -1.4256    0.9293 C   0  0  0  0  0  0  0  0  0  0  0  0
    2.3560   -1.5186    0.6436 C   0  0  0  0  0  0  0  0  0  0  0  0
    1.8192   -0.0357    1.0385 C   0  0  2  0  0  0  0  0  0  0  0  0
    0.2607   -0.3868    0.5052 C   0  0  1  0  0  0  0  0  0  0  0  0
   -0.4559   -0.2707    1.9407 C   0  0  0  0  0  0  0  0  0  0  0  0
   -1.7783   -0.8858    1.4644 C   0  0  0  0  0  0  0  0  0  0  0  0
   -2.0972   -0.2851    0.1521 C   0  0  1  0  0  0  0  0  0  0  0  0
   -1.7641   -0.8541   -1.0873 C   0  0  0  0  0  0  0  0  0  0  0  0
   -1.8292   -2.3336   -1.0890 C   0  0  0  0  0  0  0  0  0  0  0  0
  1  2  3  0
  3  2  1  6
  3  4  1  0
  3  5  1  0
  5  6  1  0
  7  6  1  6
  7  8  1  0
  8  9  1  6
  9 10  1  0
 10 11  1  0
 11 12  2  0
 12 13  1  0
 13 14  2  3
 14 15  1  0
 13 16  1  0
 16 17  1  0
 18 17  1  6
 18 19  1  0
 19 20  1  1
 20 21  1  0
 21 22  1  0
 22 23  1  6
 23 24  1  0
 22  3  1  0
 22  7  1  0
 19  8  1  0
 18 11  1  0
M  END
>  <supplier_code>  (1336) 
DB06713

>  <zinc_id>  (1336) 
ZINC000256433952

>  <catalog_short_name>  (1336) 
dbfda

$$$$

     RDKit          3D

 24 27  0  0  0  0  0  0  0  0999 V2000
    4.3140    0.9016   -2.4130 C   0  0  0  0  0  0  0  0  0  0  0  0
    3.9086    0.5866   -1.7489 C   0  0  0  0  0  0  0  0  0  0  0  0
    3.4237   -0.0590   -0.5128 C   0  0  2  0  0  0  0  0  0  0  0  0
    4.1305    0.3798    0.6164 O   0  0  0  0  0  0  0  0  0  0  0  0
    3.5679   -1.5481   -0.5565 C   0  0  0  0  0  0  0  0  0  0  0  0
    2.4021   -2.0539    0.1882 C   0  0  0  0  0  0  0  0  0  0  0  0
    1.9304   -0.7614    1.0601 C   0  0  2  0  0  0  0  0  0  0  0  0
    0.2872   -1.1859    1.1527 C   0  0  2  0  0  0  0  0  0  0  0  0
    0.0920   -1.9154   -0.2677 C   0  0  0  0  0  0  0  0  0  0  0  0
   -1.3882   -2.2147   -0.2111 C   0  0  0  0  0  0  0  0  0  0  0  0
   -2.1853   -0.9825   -0.0888 C   0  0  0  0  0  0  0  0  0  0  0  0
   -3.4422   -0.9688   -0.4974 C   0  0  0  0  0  0  0  0  0  0  0  0
   -4.4080    0.0628   -0.1642 C   0  0  0  0  0  0  0  0  0  0  0  0
   -5.2562    0.5125   -1.0370 N   0  0  0  0  0  0  0  0  0  0  0  0
   -5.8686    1.7436   -0.9053 O   0  0  0  0  0  0  0  0  0  0  0  0
   -3.9586    1.0476    0.8710 C   0  0  0  0  0  0  0  0  0  0  0  0
   -2.4752    1.2489    0.5995 C   0  0  0  0  0  0  0  0  0  0  0  0
   -1.8547   -0.1224    1.2138 C   0  0  2  0  0  0  0  0  0  0  0  0
   -0.2778    0.3638    0.8108 C   0  0  2  0  0  0  0  0  0  0  0  0
   -0.3841    0.3083   -0.7914 C   0  0  0  0  0  0  0  0  0  0  0  0
    1.0454    0.1706   -1.2174 C   0  0  0  0  0  0  0  0  0  0  0  0
    1.9655    0.2368   -0.2001 C   0  0  2  0  0  0  0  0  0  0  0  0
    2.0151    1.6483    0.3966 C   0  0  0  0  0  0  0  0  0  0  0  0
    2.4163    2.6010   -0.6866 C   0  0  0  0  0  0  0  0  0  0  0  0
  1  2  3  0
  3  2  1  6
  3  4  1  0
  3  5  1  0
  5  6  1  0
  7  6  1  6
  7  8  1  0
  8  9  1  6
  9 10  1  0
 10 11  1  0
 11 12  2  0
 12 13  1  0
 13 14  2  3
 14 15  1  0
 13 16  1  0
 16 17  1  0
 18 17  1  6
 18 19  1  0
 19 20  1  6
 20 21  1  0
 21 22  1  0
 22 23  1  1
 23 24  1  0
 22  3  1  0
 22  7  1  0
 19  8  1  0
 18 11  1  0
M  END
>  <supplier_code>  (1337) 
DB06713

>  <zinc_id>  (1337) 
ZINC000256433955

>  <catalog_short_name>  (1337) 
dbfda

$$$$

     RDKit          3D

 24 27  0  0  0  0  0  0  0  0999 V2000
   -3.7290    0.9485   -2.5656 C   0  0  0  0  0  0  0  0  0  0  0  0
   -3.8350    0.7526   -1.4934 C   0  0  0  0  0  0  0  0  0  0  0  0
   -3.7047    0.3152   -0.0935 C   0  0  2  0  0  0  0  0  0  0  0  0
   -4.8452   -0.3077    0.3721 O   0  0  0  0  0  0  0  0  0  0  0  0
   -3.5004    1.6054    0.7017 C   0  0  0  0  0  0  0  0  0  0  0  0
   -1.9900    1.7607    0.8578 C   0  0  0  0  0  0  0  0  0  0  0  0
   -1.5285    0.8279   -0.3816 C   0  0  1  0  0  0  0  0  0  0  0  0
   -0.1453    0.2800    0.4086 C   0  0  2  0  0  0  0  0  0  0  0  0
    0.5894    1.6520   -0.0020 C   0  0  0  0  0  0  0  0  0  0  0  0
    1.9032    1.3160    0.5284 C   0  0  0  0  0  0  0  0  0  0  0  0
    2.3143   -0.0452    0.5277 C   0  0  0  0  0  0  0  0  0  0  0  0
    3.5740   -0.3515    0.8557 C   0  0  0  0  0  0  0  0  0  0  0  0
    4.5915   -0.8211   -0.0827 C   0  0  0  0  0  0  0  0  0  0  0  0
    5.8478   -0.4831   -0.0112 N   0  0  0  0  0  0  0  0  0  0  0  0
    6.0994    0.8676    0.1603 O   0  0  0  0  0  0  0  0  0  0  0  0
    4.0504   -1.2099   -1.4200 C   0  0  0  0  0  0  0  0  0  0  0  0
    2.6456   -0.6974   -1.6497 C   0  0  0  0  0  0  0  0  0  0  0  0
    1.7524   -1.2133   -0.3826 C   0  0  2  0  0  0  0  0  0  0  0  0
    0.3537   -0.4840   -0.9899 C   0  0  1  0  0  0  0  0  0  0  0  0
   -0.5346   -1.7797   -0.6302 C   0  0  0  0  0  0  0  0  0  0  0  0
   -1.9845   -1.4530   -0.6993 C   0  0  0  0  0  0  0  0  0  0  0  0
   -2.4308   -0.3871    0.1968 C   0  0  2  0  0  0  0  0  0  0  0  0
   -2.1516   -0.5059    1.6399 C   0  0  0  0  0  0  0  0  0  0  0  0
   -3.3423   -0.5869    2.5355 C   0  0  0  0  0  0  0  0  0  0  0  0
  1  2  3  0
  3  2  1  6
  3  4  1  0
  3  5  1  0
  5  6  1  0
  7  6  1  1
  7  8  1  0
  8  9  1  6
  9 10  1  0
 10 11  1  0
 11 12  2  0
 12 13  1  0
 13 14  2  3
 14 15  1  0
 13 16  1  0
 16 17  1  0
 18 17  1  6
 18 19  1  0
 19 20  1  1
 20 21  1  0
 21 22  1  0
 22 23  1  1
 23 24  1  0
 22  3  1  0
 22  7  1  0
 19  8  1  0
 18 11  1  0
M  END
>  <supplier_code>  (1338) 
DB06713

>  <zinc_id>  (1338) 
ZINC000410428674

>  <catalog_short_name>  (1338) 
dbfda

$$$$

     RDKit          3D

 11 11  0  0  0  0  0  0  0  0999 V2000
    2.1775    2.0360   -0.1416 C   0  0  0  0  0  0  0  0  0  0  0  0
    2.0459    0.7757    0.4301 N   0  0  0  0  0  0  0  0  0  0  0  0
    1.6784   -0.2093   -0.7420 C   0  0  1  0  0  0  0  0  0  0  0  0
    3.0989   -1.0207   -0.5944 C   0  0  0  0  0  0  0  0  0  0  0  0
    0.9141   -1.2419    0.2828 C   0  0  0  0  0  0  0  0  0  0  0  0
   -0.2518   -0.3918    0.7024 C   0  0  0  0  0  0  0  0  0  0  0  0
   -0.7383    0.5281   -0.3883 C   0  0  0  0  0  0  0  0  0  0  0  0
   -1.8857    1.3277    0.1986 C   0  0  0  0  0  0  0  0  0  0  0  0
   -3.0612    0.4173    0.4166 C   0  0  0  0  0  0  0  0  0  0  0  0
   -2.5904   -1.0086    0.3607 C   0  0  0  0  0  0  0  0  0  0  0  0
   -1.3873   -1.2123    1.2373 C   0  0  0  0  0  0  0  0  0  0  0  0
  1  2  1  0
  3  2  1  1
  3  4  1  0
  3  5  1  0
  5  6  1  0
  6  7  1  0
  7  8  1  0
  8  9  1  0
  9 10  1  0
 10 11  1  0
 11  6  1  0
M  END
>  <supplier_code>  (1339) 
DB06714

>  <zinc_id>  (1339) 
ZINC000001481910

>  <catalog_short_name>  (1339) 
dbfda

$$$$

     RDKit          3D

 11 11  0  0  0  0  0  0  0  0999 V2000
    3.6549    0.0550    1.2244 C   0  0  0  0  0  0  0  0  0  0  0  0
    3.0900    0.1510    0.0569 N   0  0  0  0  0  0  0  0  0  0  0  0
    1.8806   -0.8507    0.0332 C   0  0  2  0  0  0  0  0  0  0  0  0
    2.0364   -1.1014   -1.5787 C   0  0  0  0  0  0  0  0  0  0  0  0
    0.7983    0.3590   -0.1910 C   0  0  0  0  0  0  0  0  0  0  0  0
   -0.4968   -0.3527    0.1838 C   0  0  0  0  0  0  0  0  0  0  0  0
   -1.2574   -0.6058   -1.0478 C   0  0  0  0  0  0  0  0  0  0  0  0
   -2.7107   -0.4120   -1.0527 C   0  0  0  0  0  0  0  0  0  0  0  0
   -3.3480    0.1053    0.1834 C   0  0  0  0  0  0  0  0  0  0  0  0
   -2.4309    1.0663    0.8786 C   0  0  0  0  0  0  0  0  0  0  0  0
   -1.2164    0.2990    1.3099 C   0  0  0  0  0  0  0  0  0  0  0  0
  1  2  1  0
  3  2  1  6
  3  4  1  0
  3  5  1  0
  5  6  1  0
  6  7  1  0
  7  8  1  0
  8  9  1  0
  9 10  1  0
 10 11  1  0
 11  6  1  0
M  END
>  <supplier_code>  (1340) 
DB06714

>  <zinc_id>  (1340) 
ZINC000001482094

>  <catalog_short_name>  (1340) 
dbfda

$$$$

     RDKit          3D

 19 19  0  0  0  0  0  0  0  0999 V2000
   -0.8630    3.0957    1.5927 C   0  0  0  0  0  0  0  0  0  0  0  0
   -0.6630    2.5185    0.2048 C   0  0  0  0  0  0  0  0  0  0  0  0
   -1.1358    3.5816   -0.7784 C   0  0  0  0  0  0  0  0  0  0  0  0
   -1.4588    1.2603    0.0510 C   0  0  0  0  0  0  0  0  0  0  0  0
   -2.8364    1.3096   -0.1293 C   0  0  0  0  0  0  0  0  0  0  0  0
   -3.3632    0.2678   -0.8829 C   0  0  0  0  0  0  0  0  0  0  0  0
   -2.6053   -0.8649   -1.1589 C   0  0  0  0  0  0  0  0  0  0  0  0
   -1.4201   -1.0614   -0.4585 C   0  0  0  0  0  0  0  0  0  0  0  0
   -1.0359   -2.4400   -0.0201 C   0  0  0  0  0  0  0  0  0  0  0  0
   -1.6699   -2.6236    1.3525 C   0  0  0  0  0  0  0  0  0  0  0  0
   -1.7104   -3.4340   -0.9572 C   0  0  0  0  0  0  0  0  0  0  0  0
   -0.7683    0.0537    0.0595 C   0  0  0  0  0  0  0  0  0  0  0  0
    0.2572   -0.0806    0.9989 O   0  0  0  0  0  0  0  0  0  0  0  0
    1.3700   -0.9121    0.8419 C   0  0  0  0  0  0  0  0  0  0  0  0
    1.9978   -0.6776   -0.3664 O   0  0  0  0  0  0  0  0  0  0  0  0
    3.5657   -0.0795   -0.1574 P   0  0  0  0  0  0  0  0  0  0  0  0
    3.6620    1.3787   -0.5351 O   0  0  0  0  0  0  0  0  0  0  0  0
    4.0901   -0.2456    1.4510 O   0  0  0  0  0  0  0  0  0  0  0  0
    4.5874   -1.0466   -1.1079 O   0  0  0  0  0  0  0  0  0  0  0  0
  1  2  1  0
  2  3  1  0
  2  4  1  0
  4  5  2  0
  5  6  1  0
  6  7  2  0
  7  8  1  0
  8  9  1  0
  9 10  1  0
  9 11  1  0
  8 12  2  0
 12 13  1  0
 13 14  1  0
 14 15  1  0
 15 16  1  0
 16 17  2  0
 16 18  1  0
 16 19  1  0
 12  4  1  0
M  END
>  <supplier_code>  (1341) 
DB06716

>  <zinc_id>  (1341) 
ZINC000002519740

>  <catalog_short_name>  (1341) 
dbfda

$$$$

     RDKit          3D

 41 44  0  0  0  0  0  0  0  0999 V2000
   -2.5875   -0.9142    2.1569 C   0  0  0  0  0  0  0  0  0  0  0  0
   -2.2474    0.4825    1.2623 C   0  0  1  0  0  0  0  0  0  0  0  0
   -1.3310   -0.2865    0.2658 O   0  0  0  0  0  0  0  0  0  0  0  0
   -0.4896    1.0299    0.1730 C   0  0  1  0  0  0  0  0  0  0  0  0
    0.2350    0.7045    1.5099 O   0  0  0  0  0  0  0  0  0  0  0  0
    1.0914    1.7822    1.6913 C   0  0  0  0  0  0  0  0  0  0  0  0
    2.2309    1.3758    0.7613 C   0  0  0  0  0  0  0  0  0  0  0  0
    1.8060    1.3866   -0.5341 N   0  0  0  0  0  0  0  0  0  0  0  0
    2.6619    1.5379   -1.6210 C   0  0  0  0  0  0  0  0  0  0  0  0
    4.1021    1.4244   -1.4438 C   0  0  0  0  0  0  0  0  0  0  0  0
    4.9547    1.7857   -0.4562 N   0  0  0  0  0  0  0  0  0  0  0  0
    5.9913    0.9481   -0.4723 N   0  0  0  0  0  0  0  0  0  0  0  0
    7.4510    0.9591    0.4957 P   0  0  0  0  0  0  0  0  0  0  0  0
    7.2935    1.7936    1.7367 O   0  0  0  0  0  0  0  0  0  0  0  0
    8.7604    1.6098   -0.3698 O   0  0  0  0  0  0  0  0  0  0  0  0
    7.9048   -0.5892    0.9744 O   0  0  0  0  0  0  0  0  0  0  0  0
    5.9329    0.2567   -1.6371 C   0  0  0  0  0  0  0  0  0  0  0  0
    6.6731   -0.7122   -1.9587 O   0  0  0  0  0  0  0  0  0  0  0  0
    4.9185    0.8162   -2.3431 N   0  0  0  0  0  0  0  0  0  0  0  0
    0.7424    0.2619   -0.8507 C   0  0  1  0  0  0  0  0  0  0  0  0
    1.2663   -0.7878    0.2695 C   0  0  0  0  0  0  0  0  0  0  0  0
    2.5852   -1.0974   -0.0575 C   0  0  0  0  0  0  0  0  0  0  0  0
    3.1850   -2.2596    0.2934 C   0  0  0  0  0  0  0  0  0  0  0  0
    2.4238   -3.1576    1.0296 C   0  0  0  0  0  0  0  0  0  0  0  0
    3.0560   -4.0540    1.8412 F   0  0  0  0  0  0  0  0  0  0  0  0
    1.0585   -2.9630    1.1106 C   0  0  0  0  0  0  0  0  0  0  0  0
    0.5350   -1.9794    0.2801 C   0  0  0  0  0  0  0  0  0  0  0  0
   -3.5742    0.3121    0.2920 C   0  0  0  0  0  0  0  0  0  0  0  0
   -4.4009    1.4052    0.3273 C   0  0  0  0  0  0  0  0  0  0  0  0
   -5.6376    1.2655   -0.2916 C   0  0  0  0  0  0  0  0  0  0  0  0
   -6.6066    2.3653   -0.0751 C   0  0  0  0  0  0  0  0  0  0  0  0
   -6.5720    2.6740    1.2798 F   0  0  0  0  0  0  0  0  0  0  0  0
   -7.8537    1.9648   -0.4686 F   0  0  0  0  0  0  0  0  0  0  0  0
   -6.1458    3.4426   -0.8129 F   0  0  0  0  0  0  0  0  0  0  0  0
   -6.0039    0.0151   -0.7745 C   0  0  0  0  0  0  0  0  0  0  0  0
   -5.1717   -1.0922   -0.6429 C   0  0  0  0  0  0  0  0  0  0  0  0
   -5.8881   -2.4001   -0.4915 C   0  0  0  0  0  0  0  0  0  0  0  0
   -7.0602   -2.3474   -1.2041 F   0  0  0  0  0  0  0  0  0  0  0  0
   -6.2582   -2.5870    0.8373 F   0  0  0  0  0  0  0  0  0  0  0  0
   -5.1319   -3.4405   -0.9690 F   0  0  0  0  0  0  0  0  0  0  0  0
   -3.8995   -0.9318   -0.0948 C   0  0  0  0  0  0  0  0  0  0  0  0
  2  1  1  1
  2  3  1  0
  4  3  1  1
  4  5  1  0
  5  6  1  0
  6  7  1  0
  7  8  1  0
  8  9  1  0
  9 10  1  0
 10 11  2  0
 11 12  1  0
 12 13  1  0
 13 14  2  0
 13 15  1  0
 13 16  1  0
 12 17  1  0
 17 18  2  0
 17 19  1  0
  8 20  1  0
 20 21  1  1
 21 22  2  0
 22 23  1  0
 23 24  2  0
 24 25  1  0
 24 26  1  0
 26 27  2  0
  2 28  1  0
 28 29  2  0
 29 30  1  0
 30 31  1  0
 31 32  1  0
 31 33  1  0
 31 34  1  0
 30 35  2  0
 35 36  1  0
 36 37  1  0
 37 38  1  0
 37 39  1  0
 37 40  1  0
 36 41  2  0
 20  4  1  0
 27 21  1  0
 41 28  1  0
 19 10  1  0
M  END
>  <supplier_code>  (1342) 
DB06717

>  <zinc_id>  (1342) 
ZINC000003939013

>  <catalog_short_name>  (1342) 
dbfda

$$$$

     RDKit          3D

  4  3  0  0  0  0  0  0  0  0999 V2000
   -0.5657    1.1560   -0.0379 O   0  0  0  0  0  0  0  0  0  0  0  0
    0.0011    0.0383    0.1179 C   0  0  0  0  0  0  0  0  0  0  0  0
   -0.8055   -1.0877   -0.0314 O   0  0  0  0  0  0  0  0  0  0  0  0
    1.3701   -0.1066   -0.0486 O   0  0  0  0  0  0  0  0  0  0  0  0
  1  2  2  0
  2  3  1  0
  2  4  1  0
M  END
>  <supplier_code>  (1343) 
DB06724

>  <zinc_id>  (1343) 
ZINC000006827693

>  <catalog_short_name>  (1343) 
dbfda

$$$$

     RDKit          3D

  8  7  0  0  0  0  0  0  0  0999 V2000
    0.8575   -0.4975    1.4571 C   0  0  0  0  0  0  0  0  0  0  0  0
    1.0475    0.0250    0.1424 N   0  0  0  0  0  0  0  0  0  0  0  0
    1.3114    1.4545    0.2081 C   0  0  0  0  0  0  0  0  0  0  0  0
    2.2394   -0.5811   -0.4523 C   0  0  0  0  0  0  0  0  0  0  0  0
   -0.0076   -0.2131   -0.7878 C   0  0  0  0  0  0  0  0  0  0  0  0
   -1.3619   -0.2318   -0.1991 C   0  0  0  0  0  0  0  0  0  0  0  0
   -2.2481   -0.8235   -0.8888 O   0  0  0  0  0  0  0  0  0  0  0  0
   -1.8382    0.8676    0.5204 O   0  0  0  0  0  0  0  0  0  0  0  0
  1  2  1  0
  2  3  1  0
  2  4  1  0
  2  5  1  0
  5  6  1  0
  6  7  2  0
  6  8  1  0
M  CHG  1   2   1
M  END
>  <supplier_code>  (1344) 
DB06756

>  <zinc_id>  (1344) 
ZINC000001532728

>  <catalog_short_name>  (1344) 
dbfda

$$$$

     RDKit          3D

 15 17  0  0  0  0  0  0  0  0999 V2000
   -3.1273   -1.2778    0.2305 C   0  0  0  0  0  0  0  0  0  0  0  0
   -2.3002   -1.8618   -0.6939 C   0  0  0  0  0  0  0  0  0  0  0  0
   -1.0511   -1.2900   -0.9214 C   0  0  0  0  0  0  0  0  0  0  0  0
   -0.7561   -0.1289   -0.2121 C   0  0  0  0  0  0  0  0  0  0  0  0
   -1.8013    0.6711    0.1173 C   0  0  0  0  0  0  0  0  0  0  0  0
   -2.9102    0.0082    0.6346 C   0  0  0  0  0  0  0  0  0  0  0  0
   -1.8929    2.1374   -0.0465 C   0  0  0  0  0  0  0  0  0  0  0  0
   -0.5476    2.7796   -0.1939 C   0  0  0  0  0  0  0  0  0  0  0  0
    0.4218    1.8160    0.4312 C   0  0  0  0  0  0  0  0  0  0  0  0
    0.5876    0.6303   -0.7243 C   0  0  1  0  0  0  0  0  0  0  0  0
    1.5339   -0.3014    0.2280 C   0  0  0  0  0  0  0  0  0  0  0  0
    2.4704    0.2127    0.9053 N   0  0  0  0  0  0  0  0  0  0  0  0
    3.6908   -0.5234    0.9336 C   0  0  0  0  0  0  0  0  0  0  0  0
    3.5518   -1.4693   -0.2153 C   0  0  0  0  0  0  0  0  0  0  0  0
    2.1305   -1.4026   -0.4732 N   0  0  0  0  0  0  0  0  0  0  0  0
  1  2  2  0
  2  3  1  0
  3  4  2  0
  4  5  1  0
  5  6  2  0
  5  7  1  0
  7  8  1  0
  8  9  1  0
  9 10  1  0
 10 11  1  1
 11 12  2  0
 12 13  1  0
 13 14  1  0
 14 15  1  0
  6  1  1  0
 15 11  1  0
 10  4  1  0
M  END
>  <supplier_code>  (1345) 
DB06764

>  <zinc_id>  (1345) 
ZINC000000113426

>  <catalog_short_name>  (1345) 
dbfda

$$$$

     RDKit          3D

 15 17  0  0  0  0  0  0  0  0999 V2000
   -2.9594   -1.6417    0.4604 C   0  0  0  0  0  0  0  0  0  0  0  0
   -1.7990   -2.2130   -0.0256 C   0  0  0  0  0  0  0  0  0  0  0  0
   -0.6535   -1.4432    0.1362 C   0  0  0  0  0  0  0  0  0  0  0  0
   -0.7476   -0.1194   -0.2713 C   0  0  0  0  0  0  0  0  0  0  0  0
   -1.9890    0.4683   -0.0437 C   0  0  0  0  0  0  0  0  0  0  0  0
   -3.0751   -0.2655    0.4189 C   0  0  0  0  0  0  0  0  0  0  0  0
   -1.9575    1.9562    0.1213 C   0  0  0  0  0  0  0  0  0  0  0  0
   -1.0016    2.5253   -0.8809 C   0  0  0  0  0  0  0  0  0  0  0  0
    0.3411    1.8724   -0.9059 C   0  0  0  0  0  0  0  0  0  0  0  0
    0.3800    0.8476    0.3982 C   0  0  2  0  0  0  0  0  0  0  0  0
    1.6034   -0.0307   -0.2325 C   0  0  0  0  0  0  0  0  0  0  0  0
    2.7007    0.5578   -0.5284 N   0  0  0  0  0  0  0  0  0  0  0  0
    3.8557   -0.0414    0.0648 C   0  0  0  0  0  0  0  0  0  0  0  0
    3.3638   -1.2643    0.7747 C   0  0  0  0  0  0  0  0  0  0  0  0
    1.9380   -1.2084    0.5140 N   0  0  0  0  0  0  0  0  0  0  0  0
  1  2  2  0
  2  3  1  0
  3  4  2  0
  4  5  1  0
  5  6  2  0
  5  7  1  0
  7  8  1  0
  8  9  1  0
  9 10  1  0
 10 11  1  6
 11 12  2  0
 12 13  1  0
 13 14  1  0
 14 15  1  0
  6  1  1  0
 15 11  1  0
 10  4  1  0
M  END
>  <supplier_code>  (1346) 
DB06764

>  <zinc_id>  (1346) 
ZINC000000113428

>  <catalog_short_name>  (1346) 
dbfda

$$$$

     RDKit          3D

 23 26  0  0  0  0  0  0  0  0999 V2000
    4.1328   -2.4958    0.1261 C   0  0  0  0  0  0  0  0  0  0  0  0
    3.8430   -1.0915    0.2841 N   0  0  0  0  0  0  0  0  0  0  0  0
    3.8292   -0.3525   -0.9340 C   0  0  0  0  0  0  0  0  0  0  0  0
    2.4987   -0.0695   -1.5271 C   0  0  0  0  0  0  0  0  0  0  0  0
    1.3428   -0.4919   -0.7254 C   0  0  0  0  0  0  0  0  0  0  0  0
    0.1619    0.1182   -0.8523 C   0  0  0  0  0  0  0  0  0  0  0  0
   -0.9938   -0.7905   -0.9060 C   0  0  0  0  0  0  0  0  0  0  0  0
   -0.9443   -2.0568   -1.3359 N   0  0  0  0  0  0  0  0  0  0  0  0
   -1.9758   -2.7376   -0.7784 C   0  0  0  0  0  0  0  0  0  0  0  0
   -2.7817   -1.8289   -0.1020 C   0  0  0  0  0  0  0  0  0  0  0  0
   -3.6655   -2.1500    1.0230 C   0  0  0  0  0  0  0  0  0  0  0  0
   -3.4280   -1.7839    2.2051 O   0  0  0  0  0  0  0  0  0  0  0  0
   -2.2607   -0.6264   -0.4482 N   0  0  0  0  0  0  0  0  0  0  0  0
   -2.9312    0.5997   -0.1069 C   0  0  0  0  0  0  0  0  0  0  0  0
   -2.2099    1.4275    0.9165 C   0  0  0  0  0  0  0  0  0  0  0  0
   -1.0134    2.1093    0.3279 C   0  0  0  0  0  0  0  0  0  0  0  0
   -0.9233    3.4314    0.7235 C   0  0  0  0  0  0  0  0  0  0  0  0
    0.3288    4.0283    0.7766 C   0  0  0  0  0  0  0  0  0  0  0  0
    1.3896    3.3557    0.1904 C   0  0  0  0  0  0  0  0  0  0  0  0
    1.2932    2.0480   -0.2509 C   0  0  0  0  0  0  0  0  0  0  0  0
    0.0501    1.4816   -0.3116 C   0  0  0  0  0  0  0  0  0  0  0  0
    1.4948   -1.3073    0.5211 C   0  0  0  0  0  0  0  0  0  0  0  0
    2.7627   -0.8169    1.1842 C   0  0  0  0  0  0  0  0  0  0  0  0
  1  2  1  0
  2  3  1  0
  3  4  1  0
  4  5  1  0
  5  6  2  3
  6  7  1  0
  7  8  2  0
  8  9  1  0
  9 10  2  0
 10 11  1  0
 11 12  2  0
 10 13  1  0
 13 14  1  0
 14 15  1  0
 15 16  1  0
 16 17  2  0
 17 18  1  0
 18 19  2  0
 19 20  1  0
 20 21  2  0
  5 22  1  0
 22 23  1  0
 23  2  1  0
 21  6  1  0
 13  7  1  0
 21 16  1  0
M  END
>  <supplier_code>  (1347) 
DB06766

>  <zinc_id>  (1347) 
ZINC000011726211

>  <catalog_short_name>  (1347) 
dbfda

$$$$

     RDKit          3D

  6  5  0  0  0  0  0  0  0  0999 V2000
    1.1425    1.2011    0.4543 C   0  0  0  0  0  0  0  0  0  0  0  0
    0.7414   -0.4065    0.4730 C   0  0  2  0  0  0  0  0  0  0  0  0
    1.4077   -0.6509   -0.8756 O   0  0  0  0  0  0  0  0  0  0  0  0
   -0.7146   -0.1929   -0.2192 C   0  0  0  0  0  0  0  0  0  0  0  0
   -1.0583    0.9097   -0.5532 O   0  0  0  0  0  0  0  0  0  0  0  0
   -1.5187   -0.8604    0.7207 O   0  0  0  0  0  0  0  0  0  0  0  0
  2  1  1  6
  2  3  1  0
  2  4  1  0
  4  5  2  0
  4  6  1  0
M  END
>  <supplier_code>  (1348) 
DB06768

>  <zinc_id>  (1348) 
ZINC000004658560

>  <catalog_short_name>  (1348) 
dbfda

$$$$

     RDKit          3D

  6  5  0  0  0  0  0  0  0  0999 V2000
   -1.5064    0.5872   -0.9166 C   0  0  0  0  0  0  0  0  0  0  0  0
   -0.7943    0.2127    0.5281 C   0  0  1  0  0  0  0  0  0  0  0  0
   -1.0404   -1.2752    0.3129 O   0  0  0  0  0  0  0  0  0  0  0  0
    0.6807    0.2154   -0.1392 C   0  0  0  0  0  0  0  0  0  0  0  0
    1.2256   -0.8265   -0.4473 O   0  0  0  0  0  0  0  0  0  0  0  0
    1.4349    1.0864    0.6622 O   0  0  0  0  0  0  0  0  0  0  0  0
  2  1  1  6
  2  3  1  0
  2  4  1  0
  4  5  2  0
  4  6  1  0
M  END
>  <supplier_code>  (1349) 
DB06768

>  <zinc_id>  (1349) 
ZINC000004658562

>  <catalog_short_name>  (1349) 
dbfda

$$$$

     RDKit          3D

 23 24  0  0  0  0  0  0  0  0999 V2000
    1.3971   -1.7054    2.0709 C   0  0  0  0  0  0  0  0  0  0  0  0
    1.2850   -0.8148    0.9244 N   0  0  0  0  0  0  0  0  0  0  0  0
    1.8957   -0.9511   -0.2746 C   0  0  0  0  0  0  0  0  0  0  0  0
    3.0647   -1.8236   -0.5082 C   0  0  0  0  0  0  0  0  0  0  0  0
    4.0051   -1.6846    0.6571 C   0  0  0  0  0  0  0  0  0  0  0  0
    4.5767   -0.2852    0.7321 C   0  0  0  0  0  0  0  0  0  0  0  0
    5.6756   -0.1604   -0.2744 C   0  0  0  0  0  0  0  0  0  0  0  0
    6.2062   -1.2029   -0.7345 O   0  0  0  0  0  0  0  0  0  0  0  0
    6.2606    1.0899   -0.3863 O   0  0  0  0  0  0  0  0  0  0  0  0
    1.2815   -0.1670   -1.1961 N   0  0  0  0  0  0  0  0  0  0  0  0
    0.2210    0.4274   -0.5971 C   0  0  0  0  0  0  0  0  0  0  0  0
   -0.9656    0.9896   -1.0529 C   0  0  0  0  0  0  0  0  0  0  0  0
   -2.0254    1.1590   -0.1700 C   0  0  0  0  0  0  0  0  0  0  0  0
   -3.3687    0.8660   -0.5729 N   0  0  0  0  0  0  0  0  0  0  0  0
   -4.2083   -0.0743    0.1585 C   0  0  0  0  0  0  0  0  0  0  0  0
   -3.8239   -1.5027   -0.0801 C   0  0  0  0  0  0  0  0  0  0  0  0
   -5.3191   -2.4751   -0.2064 Cl  0  0  0  0  0  0  0  0  0  0  0  0
   -3.7535    1.3980   -1.8771 C   0  0  0  0  0  0  0  0  0  0  0  0
   -4.6807    2.5712   -1.5926 C   0  0  0  0  0  0  0  0  0  0  0  0
   -6.0205    1.9526   -0.5829 Cl  0  0  0  0  0  0  0  0  0  0  0  0
   -1.6740    1.3352    1.1605 C   0  0  0  0  0  0  0  0  0  0  0  0
   -0.4537    0.8514    1.6182 C   0  0  0  0  0  0  0  0  0  0  0  0
    0.4243    0.2068    0.7603 C   0  0  0  0  0  0  0  0  0  0  0  0
  1  2  1  0
  2  3  1  0
  3  4  1  0
  4  5  1  0
  5  6  1  0
  6  7  1  0
  7  8  2  0
  7  9  1  0
  3 10  2  0
 10 11  1  0
 11 12  2  0
 12 13  1  0
 13 14  1  0
 14 15  1  0
 15 16  1  0
 16 17  1  0
 14 18  1  0
 18 19  1  0
 19 20  1  0
 13 21  2  0
 21 22  1  0
 22 23  2  0
 23  2  1  0
 23 11  1  0
M  END
>  <supplier_code>  (1350) 
DB06769

>  <zinc_id>  (1350) 
ZINC000004214955

>  <catalog_short_name>  (1350) 
dbfda

$$$$

     RDKit          3D

  8  8  0  0  0  0  0  0  0  0999 V2000
    2.6385    0.1091    0.7369 O   0  0  0  0  0  0  0  0  0  0  0  0
    2.0329   -0.0616   -0.4898 C   0  0  0  0  0  0  0  0  0  0  0  0
    0.5573   -0.0651   -0.3445 C   0  0  0  0  0  0  0  0  0  0  0  0
   -0.1439    1.1284   -0.4741 C   0  0  0  0  0  0  0  0  0  0  0  0
   -1.3160    1.1907    0.2720 C   0  0  0  0  0  0  0  0  0  0  0  0
   -2.1444    0.0763    0.2172 C   0  0  0  0  0  0  0  0  0  0  0  0
   -1.5036   -1.1502    0.0943 C   0  0  0  0  0  0  0  0  0  0  0  0
   -0.1208   -1.2276   -0.0121 C   0  0  0  0  0  0  0  0  0  0  0  0
  1  2  1  0
  2  3  1  0
  3  4  2  0
  4  5  1  0
  5  6  2  0
  6  7  1  0
  7  8  2  0
  8  3  1  0
M  END
>  <supplier_code>  (1351) 
DB06770

>  <zinc_id>  (1351) 
ZINC000000895302

>  <catalog_short_name>  (1351) 
dbfda

$$$$

     RDKit          3D

 27 30  0  0  0  0  0  0  0  0999 V2000
   -5.3521   -2.1805   -0.7360 N   0  0  0  0  0  0  0  0  0  0  0  0
   -4.7835   -1.1548    0.3108 C   0  0  2  0  0  0  0  0  0  0  0  0
   -5.7180    0.0589   -0.2731 C   0  0  0  0  0  0  0  0  0  0  0  0
   -4.9955    1.3342   -0.0067 C   0  0  0  0  0  0  0  0  0  0  0  0
   -4.3222    1.4296    1.3168 C   0  0  0  0  0  0  0  0  0  0  0  0
   -2.9866    0.7710    1.4110 C   0  0  0  0  0  0  0  0  0  0  0  0
   -2.6615   -0.0674    0.2784 N   0  0  0  0  0  0  0  0  0  0  0  0
   -1.3200    0.1146   -0.1671 C   0  0  0  0  0  0  0  0  0  0  0  0
   -1.0474    1.3418   -0.7603 C   0  0  0  0  0  0  0  0  0  0  0  0
   -1.8616    1.7144   -1.7783 F   0  0  0  0  0  0  0  0  0  0  0  0
    0.2330    1.8780   -0.6997 C   0  0  0  0  0  0  0  0  0  0  0  0
    1.2316    1.1282   -0.0993 C   0  0  0  0  0  0  0  0  0  0  0  0
    2.5092    1.6416   -0.1159 C   0  0  0  0  0  0  0  0  0  0  0  0
    2.6659    2.8800    0.1101 O   0  0  0  0  0  0  0  0  0  0  0  0
    3.5379    0.7234    0.0655 C   0  0  0  0  0  0  0  0  0  0  0  0
    4.8697    1.2039    0.4356 C   0  0  0  0  0  0  0  0  0  0  0  0
    5.6527    1.5462   -0.5019 O   0  0  0  0  0  0  0  0  0  0  0  0
    5.4814    0.5497    1.5092 O   0  0  0  0  0  0  0  0  0  0  0  0
    3.2840   -0.6276   -0.1383 C   0  0  0  0  0  0  0  0  0  0  0  0
    2.0340   -1.1047    0.0223 N   0  0  0  0  0  0  0  0  0  0  0  0
    1.7279   -2.5024    0.2207 C   0  0  0  0  0  0  0  0  0  0  0  0
    2.2358   -3.4866   -0.8677 C   0  0  0  0  0  0  0  0  0  0  0  0
    2.9302   -3.4203    0.4889 C   0  0  0  0  0  0  0  0  0  0  0  0
    1.0501   -0.2023    0.2554 C   0  0  0  0  0  0  0  0  0  0  0  0
   -0.2717   -0.6092    0.3808 C   0  0  0  0  0  0  0  0  0  0  0  0
   -0.5958   -2.2054    0.9829 Cl  0  0  0  0  0  0  0  0  0  0  0  0
   -3.5275   -0.7542   -0.6654 C   0  0  0  0  0  0  0  0  0  0  0  0
  2  1  1  6
  2  3  1  0
  3  4  1  0
  4  5  1  0
  5  6  1  0
  6  7  1  0
  7  8  1  0
  8  9  2  0
  9 10  1  0
  9 11  1  0
 11 12  2  0
 12 13  1  0
 13 14  2  0
 13 15  1  0
 15 16  1  0
 16 17  2  0
 16 18  1  0
 15 19  2  0
 19 20  1  0
 20 21  1  0
 21 22  1  0
 22 23  1  0
 20 24  1  0
 24 25  2  0
 25 26  1  0
  7 27  1  0
 27  2  1  0
 25  8  1  0
 24 12  1  0
 23 21  1  0
M  END
>  <supplier_code>  (1352) 
DB06771

>  <zinc_id>  (1352) 
ZINC000003787097

>  <catalog_short_name>  (1352) 
dbfda

$$$$

     RDKit          2D

 60 65  0  0  0  0  0  0  0  0999 V2000
   -9.2100    1.2799    0.0000 C   0  0  0  0  0  0  0  0  0  0  0  0
   -7.7404    1.5806    0.0000 O   0  0  0  0  0  0  0  0  0  0  0  0
   -6.7453    0.4582    0.0000 C   0  0  0  0  0  0  0  0  0  0  0  0
   -7.2197   -0.9648    0.0000 C   0  0  0  0  0  0  0  0  0  0  0  0
   -6.2245   -2.0871    0.0000 C   0  0  0  0  0  0  0  0  0  0  0  0
   -5.9239   -3.5567    0.0000 O   0  0  0  0  0  0  0  0  0  0  0  0
   -4.4543   -3.2560    0.0000 C   0  0  0  0  0  0  0  0  0  0  0  0
   -4.7550   -1.7865    0.0000 C   0  0  0  0  0  0  0  0  0  0  0  0
   -3.2577   -1.8764    0.0000 O   0  0  0  0  0  0  0  0  0  0  0  0
   -2.5869   -3.2181    0.0000 C   0  0  0  0  0  0  0  0  0  0  0  0
   -1.0896   -3.3080    0.0000 C   0  0  0  0  0  0  0  0  0  0  0  0
   -3.4134   -4.4698    0.0000 O   0  0  0  0  0  0  0  0  0  0  0  0
   -4.2806   -0.3635    0.0000 C   0  0  0  0  0  0  0  0  0  0  0  0
   -2.7833   -0.4534    0.0000 C   0  0  0  0  0  0  0  0  0  0  0  0
   -2.2934   -1.8712    0.0000 O   0  0  0  0  0  0  0  0  0  0  0  0
   -0.8206   -2.1558    0.0000 C   0  0  0  0  0  0  0  0  0  0  0  0
    0.1623   -1.0226    0.0000 O   0  0  0  0  0  0  0  0  0  0  0  0
   -0.3307   -3.5735    0.0000 C   0  0  0  0  0  0  0  0  0  0  0  0
   -1.3135   -4.7066    0.0000 C   0  0  0  0  0  0  0  0  0  0  0  0
   -0.8236   -6.1244    0.0000 C   0  0  0  0  0  0  0  0  0  0  0  0
    0.6491   -6.4090    0.0000 C   0  0  0  0  0  0  0  0  0  0  0  0
    1.6320   -5.2759    0.0000 C   0  0  0  0  0  0  0  0  0  0  0  0
    1.1421   -3.8581    0.0000 C   0  0  0  0  0  0  0  0  0  0  0  0
   -1.6609    0.5417    0.0000 C   0  0  0  0  0  0  0  0  0  0  0  0
   -0.3120   -0.1143    0.0000 O   0  0  0  0  0  0  0  0  0  0  0  0
   -0.2998    1.1957    0.0000 C   0  0  0  0  0  0  0  0  0  0  0  0
   -0.0152    2.6684    0.0000 C   0  0  0  0  0  0  0  0  0  0  0  0
    1.4025    3.1583    0.0000 O   0  0  0  0  0  0  0  0  0  0  0  0
    2.5356    2.1755    0.0000 C   0  0  0  0  0  0  0  0  0  0  0  0
    2.2510    0.7027    0.0000 O   0  0  0  0  0  0  0  0  0  0  0  0
    3.9534    2.6654    0.0000 C   0  0  0  0  0  0  0  0  0  0  0  0
    4.2380    4.1381    0.0000 O   0  0  0  0  0  0  0  0  0  0  0  0
    5.0865    1.6825    0.0000 C   0  0  0  0  0  0  0  0  0  0  0  0
    4.8019    0.2098    0.0000 N   0  0  0  0  0  0  0  0  0  0  0  0
    5.9351   -0.7731    0.0000 C   0  0  0  0  0  0  0  0  0  0  0  0
    7.3528   -0.2832    0.0000 O   0  0  0  0  0  0  0  0  0  0  0  0
    5.6505   -2.2458    0.0000 O   0  0  0  0  0  0  0  0  0  0  0  0
    6.7836   -3.2287    0.0000 C   0  0  0  0  0  0  0  0  0  0  0  0
    5.8007   -4.3618    0.0000 C   0  0  0  0  0  0  0  0  0  0  0  0
    7.7664   -2.0955    0.0000 C   0  0  0  0  0  0  0  0  0  0  0  0
    7.9167   -4.2115    0.0000 C   0  0  0  0  0  0  0  0  0  0  0  0
    6.5043    2.1724    0.0000 C   0  0  0  0  0  0  0  0  0  0  0  0
    7.6374    1.1896    0.0000 C   0  0  0  0  0  0  0  0  0  0  0  0
    9.0551    1.6795    0.0000 C   0  0  0  0  0  0  0  0  0  0  0  0
    9.3398    3.1522    0.0000 C   0  0  0  0  0  0  0  0  0  0  0  0
    8.2066    4.1351    0.0000 C   0  0  0  0  0  0  0  0  0  0  0  0
    6.7889    3.6452    0.0000 C   0  0  0  0  0  0  0  0  0  0  0  0
   -1.1484    3.6513    0.0000 C   0  0  0  0  0  0  0  0  0  0  0  0
   -0.8638    5.1240    0.0000 C   0  0  0  0  0  0  0  0  0  0  0  0
   -2.5661    3.1614    0.0000 C   0  0  0  0  0  0  0  0  0  0  0  0
   -4.0634    3.2513    0.0000 C   0  0  0  0  0  0  0  0  0  0  0  0
   -4.5533    4.6691    0.0000 O   0  0  0  0  0  0  0  0  0  0  0  0
   -6.0261    4.9537    0.0000 C   0  0  0  0  0  0  0  0  0  0  0  0
   -5.1858    2.2562    0.0000 C   0  0  0  0  0  0  0  0  0  0  0  0
   -6.5347    2.9123    0.0000 O   0  0  0  0  0  0  0  0  0  0  0  0
   -5.2757    0.7589    0.0000 C   0  0  0  0  0  0  0  0  0  0  0  0
   -6.4088    1.7417    0.0000 C   0  0  0  0  0  0  0  0  0  0  0  0
   -1.5710    2.0390    0.0000 C   0  0  0  0  0  0  0  0  0  0  0  0
   -0.7655    2.7786    0.0000 C   0  0  0  0  0  0  0  0  0  0  0  0
   -0.0755    1.9231    0.0000 C   0  0  0  0  0  0  0  0  0  0  0  0
  1  2  1  0
  3  2  1  6
  3  4  1  0
  5  4  1  6
  5  6  1  0
  6  7  1  0
  7  8  1  0
  8  9  1  1
  9 10  1  0
 10 11  1  0
 10 12  2  0
 13  8  1  6
 13 14  1  0
 14 15  1  1
 15 16  1  0
 16 17  2  0
 16 18  1  0
 18 19  2  0
 19 20  1  0
 20 21  2  0
 21 22  1  0
 22 23  2  0
 14 24  1  0
 24 25  1  6
 24 26  1  0
 26 27  1  0
 27 28  1  1
 28 29  1  0
 29 30  2  0
 31 29  1  6
 31 32  1  0
 31 33  1  0
 33 34  1  6
 34 35  1  0
 35 36  2  0
 35 37  1  0
 37 38  1  0
 38 39  1  0
 38 40  1  0
 38 41  1  0
 33 42  1  0
 42 43  2  0
 43 44  1  0
 44 45  2  0
 45 46  1  0
 46 47  2  0
 27 48  1  0
 48 49  1  0
 48 50  2  0
 50 51  1  0
 51 52  1  6
 52 53  1  0
 51 54  1  0
 54 55  2  0
 54 56  1  0
 56 57  1  6
 50 58  1  0
 58 59  1  0
 58 60  1  0
 56  3  1  0
  8  5  1  0
 56 13  1  0
 23 18  1  0
 58 24  1  0
 47 42  1  0
M  END
>  <supplier_code>  (1353) 
DB06772

>  <zinc_id>  (1353) 
ZINC000085536932

>  <catalog_short_name>  (1353) 
dbfda

$$$$

     RDKit          3D

 22 22  0  0  0  0  0  0  0  0999 V2000
   -2.9211    3.4688    0.8570 C   0  0  0  0  0  0  0  0  0  0  0  0
   -3.8245    2.4677    1.2605 O   0  0  0  0  0  0  0  0  0  0  0  0
   -3.8938    1.2800    0.5676 C   0  0  0  0  0  0  0  0  0  0  0  0
   -2.7186    0.6170    0.2377 C   0  0  0  0  0  0  0  0  0  0  0  0
   -2.7697   -0.5033   -0.5477 C   0  0  0  0  0  0  0  0  0  0  0  0
   -1.6429   -1.0078   -1.3501 C   0  0  0  0  0  0  0  0  0  0  0  0
   -0.3562   -0.8622   -0.6976 N   0  0  0  0  0  0  0  0  0  0  0  0
    0.3159   -1.9583   -0.0636 C   0  0  0  0  0  0  0  0  0  0  0  0
   -0.4573   -2.7419    0.5674 O   0  0  0  0  0  0  0  0  0  0  0  0
    1.7019   -2.3688   -0.4504 C   0  0  0  0  0  0  0  0  0  0  0  0
    2.4837   -2.9053    0.7142 C   0  0  0  0  0  0  0  0  0  0  0  0
    3.4178   -1.8588    1.2560 C   0  0  0  0  0  0  0  0  0  0  0  0
    4.7240   -1.8078    0.4727 C   0  0  0  0  0  0  0  0  0  0  0  0
    5.3317   -0.4691    0.7640 C   0  0  0  0  0  0  0  0  0  0  0  0
    5.5780    0.4222   -0.2025 C   0  0  0  0  0  0  0  0  0  0  0  0
    5.3029    1.8725   -0.0553 C   0  0  0  0  0  0  0  0  0  0  0  0
    6.2297    2.4639    1.0009 C   0  0  0  0  0  0  0  0  0  0  0  0
    3.8488    2.1401    0.3142 C   0  0  0  0  0  0  0  0  0  0  0  0
   -4.0340   -1.0101   -0.8298 C   0  0  0  0  0  0  0  0  0  0  0  0
   -5.1682   -0.2061   -0.7839 C   0  0  0  0  0  0  0  0  0  0  0  0
   -5.0645    1.0143   -0.1314 C   0  0  0  0  0  0  0  0  0  0  0  0
   -6.0834    1.9531   -0.2418 O   0  0  0  0  0  0  0  0  0  0  0  0
  1  2  1  0
  2  3  1  0
  3  4  2  0
  4  5  1  0
  5  6  1  0
  6  7  1  0
  7  8  1  0
  8  9  2  0
  8 10  1  0
 10 11  1  0
 11 12  1  0
 12 13  1  0
 13 14  1  0
 14 15  2  0
 15 16  1  0
 16 17  1  0
 16 18  1  0
  5 19  2  0
 19 20  1  0
 20 21  2  0
 21 22  1  0
 21  3  1  0
M  END
>  <supplier_code>  (1354) 
DB06774

>  <zinc_id>  (1354) 
ZINC000001530575

>  <catalog_short_name>  (1354) 
dbfda

$$$$

     RDKit          3D

 13 12  0  0  0  0  0  0  0  0999 V2000
   -1.5093    3.0763    0.1969 N   0  0  0  0  0  0  0  0  0  0  0  0
   -1.5727    1.6888    0.0858 C   0  0  0  0  0  0  0  0  0  0  0  0
   -2.7016    1.1575    0.0790 O   0  0  0  0  0  0  0  0  0  0  0  0
   -0.5468    0.7875    0.4883 N   0  0  0  0  0  0  0  0  0  0  0  0
   -0.3544   -0.2942   -0.6826 C   0  0  1  0  0  0  0  0  0  0  0  0
    0.6529   -1.2114    0.2990 C   0  0  0  0  0  0  0  0  0  0  0  0
    1.9994   -1.1053   -0.3535 C   0  0  0  0  0  0  0  0  0  0  0  0
    2.9139   -0.1618    0.3571 C   0  0  0  0  0  0  0  0  0  0  0  0
    2.5160    0.9832    0.6870 O   0  0  0  0  0  0  0  0  0  0  0  0
    4.2664   -0.3240    0.0886 O   0  0  0  0  0  0  0  0  0  0  0  0
   -1.7334   -1.0883   -0.2685 C   0  0  0  0  0  0  0  0  0  0  0  0
   -2.3279   -1.2262   -1.3895 O   0  0  0  0  0  0  0  0  0  0  0  0
   -1.6025   -2.2822    0.3833 O   0  0  0  0  0  0  0  0  0  0  0  0
  1  2  1  0
  2  3  2  0
  2  4  1  0
  5  4  1  1
  5  6  1  0
  6  7  1  0
  7  8  1  0
  8  9  2  0
  8 10  1  0
  5 11  1  0
 11 12  2  0
 11 13  1  0
M  END
>  <supplier_code>  (1355) 
DB06775

>  <zinc_id>  (1355) 
ZINC000001530283

>  <catalog_short_name>  (1355) 
dbfda

$$$$

     RDKit          3D

 28 31  0  0  0  0  0  0  0  0999 V2000
    2.7984    2.0309    0.6330 C   0  0  0  0  0  0  0  0  0  0  0  0
    3.5118    0.6493    0.1682 C   0  0  2  0  0  0  0  0  0  0  0  0
    4.0990    1.3825   -1.1527 C   0  0  0  0  0  0  0  0  0  0  0  0
    4.8349    0.4014   -1.9712 C   0  0  0  0  0  0  0  0  0  0  0  0
    6.1142   -0.0585   -1.3744 C   0  0  0  0  0  0  0  0  0  0  0  0
    6.1067   -1.2740   -1.0112 O   0  0  0  0  0  0  0  0  0  0  0  0
    7.0613    0.7922   -0.8003 O   0  0  0  0  0  0  0  0  0  0  0  0
    2.2002   -0.0201   -0.6891 C   0  0  1  0  0  0  0  0  0  0  0  0
    2.4091   -1.4626    0.0222 C   0  0  0  0  0  0  0  0  0  0  0  0
    1.1004   -1.8591    0.5833 C   0  0  0  0  0  0  0  0  0  0  0  0
    0.1322   -0.8503   -0.2290 C   0  0  1  0  0  0  0  0  0  0  0  0
   -0.9409   -0.5351    1.0208 C   0  0  2  0  0  0  0  0  0  0  0  0
   -1.5567   -2.1121    1.0970 C   0  0  2  0  0  0  0  0  0  0  0  0
   -2.0444   -2.2065   -0.3449 O   0  0  0  0  0  0  0  0  0  0  0  0
   -2.9141   -1.7245    1.8637 C   0  0  0  0  0  0  0  0  0  0  0  0
   -3.9789   -0.6876    1.2967 C   0  0  2  0  0  0  0  0  0  0  0  0
   -4.0615   -1.2033   -0.2640 C   0  0  0  0  0  0  0  0  0  0  0  0
   -5.3250   -0.2453   -0.7193 C   0  0  2  0  0  0  0  0  0  0  0  0
   -5.2869   -0.8124   -2.1312 O   0  0  0  0  0  0  0  0  0  0  0  0
   -4.3197    1.0061   -1.1155 C   0  0  0  0  0  0  0  0  0  0  0  0
   -3.9340    1.5466    0.2324 C   0  0  0  0  0  0  0  0  0  0  0  0
   -3.0261    0.5984    0.9822 C   0  0  1  0  0  0  0  0  0  0  0  0
   -2.3888    1.0991    2.1717 C   0  0  0  0  0  0  0  0  0  0  0  0
   -1.9684    0.1098   -0.1199 C   0  0  1  0  0  0  0  0  0  0  0  0
   -1.2157    1.5514   -0.0566 C   0  0  0  0  0  0  0  0  0  0  0  0
    0.2140    1.4774   -0.1258 C   0  0  0  0  0  0  0  0  0  0  0  0
    1.0228    0.3966    0.3209 C   0  0  2  0  0  0  0  0  0  0  0  0
    1.3562    0.1528    1.7132 C   0  0  0  0  0  0  0  0  0  0  0  0
  2  1  1  1
  2  3  1  0
  3  4  1  0
  4  5  1  0
  5  6  2  0
  5  7  1  0
  2  8  1  0
  8  9  1  1
  9 10  1  0
 11 10  1  1
 11 12  1  0
 12 13  1  6
 13 14  1  6
 13 15  1  0
 16 15  1  1
 16 17  1  0
 17 18  1  0
 18 19  1  6
 18 20  1  0
 20 21  1  0
 21 22  1  0
 22 23  1  1
 22 24  1  0
 24 25  1  1
 25 26  1  0
 26 27  1  0
 27 28  1  1
 27  8  1  0
 27 11  1  0
 24 12  1  0
 22 16  1  0
M  END
>  <supplier_code>  (1356) 
DB06777

>  <zinc_id>  (1356) 
ZINC000003914808

>  <catalog_short_name>  (1356) 
dbfda

$$$$

     RDKit          3D

 36 39  0  0  0  0  0  0  0  0999 V2000
   -3.2991    5.5204    0.3165 C   0  0  0  0  0  0  0  0  0  0  0  0
   -3.8118    4.3872    0.6560 C   0  0  0  0  0  0  0  0  0  0  0  0
   -2.6559    3.5213    1.1088 C   0  0  0  0  0  0  0  0  0  0  0  0
   -2.4921    2.3863    0.1746 C   0  0  0  0  0  0  0  0  0  0  0  0
   -2.7661    2.4040   -1.0385 O   0  0  0  0  0  0  0  0  0  0  0  0
   -2.2746    1.1715    0.7683 O   0  0  0  0  0  0  0  0  0  0  0  0
   -2.1684   -0.0662    0.1496 C   0  0  2  0  0  0  0  0  0  0  0  0
   -3.3046   -0.3775   -0.7119 C   0  0  0  0  0  0  0  0  0  0  0  0
   -4.3676    0.1550   -0.3770 O   0  0  0  0  0  0  0  0  0  0  0  0
   -3.5317   -1.6430   -1.4419 C   0  0  0  0  0  0  0  0  0  0  0  0
   -3.5931   -2.7791   -0.6324 O   0  0  0  0  0  0  0  0  0  0  0  0
   -4.7353   -3.2411   -0.0252 C   0  0  0  0  0  0  0  0  0  0  0  0
   -5.1857   -4.6457   -0.0305 C   0  0  0  0  0  0  0  0  0  0  0  0
   -5.5116   -2.3638    0.4056 O   0  0  0  0  0  0  0  0  0  0  0  0
   -2.1458   -1.0525    1.3297 C   0  0  0  0  0  0  0  0  0  0  0  0
   -0.6961   -1.0333    1.8202 C   0  0  0  0  0  0  0  0  0  0  0  0
   -0.1163    0.2162    0.9730 C   0  0  1  0  0  0  0  0  0  0  0  0
    1.3653   -0.5388    0.6596 C   0  0  2  0  0  0  0  0  0  0  0  0
    1.9762    0.2429    1.9287 C   0  0  0  0  0  0  0  0  0  0  0  0
    3.5349   -0.2583    2.0642 C   0  0  2  0  0  0  0  0  0  0  0  0
    4.0143    1.1614    1.8236 F   0  0  0  0  0  0  0  0  0  0  0  0
    3.7527   -0.6826    0.5169 C   0  0  0  0  0  0  0  0  0  0  0  0
    4.9042   -1.3247    0.2983 C   0  0  0  0  0  0  0  0  0  0  0  0
    5.7276   -0.8432   -0.8315 C   0  0  0  0  0  0  0  0  0  0  0  0
    6.7754   -1.4481   -1.1279 O   0  0  0  0  0  0  0  0  0  0  0  0
    5.5602    0.6220   -0.9369 C   0  0  0  0  0  0  0  0  0  0  0  0
    4.3586    1.1908   -0.7225 C   0  0  0  0  0  0  0  0  0  0  0  0
    3.2795    0.2158   -0.5475 C   0  0  1  0  0  0  0  0  0  0  0  0
    3.4920   -0.6379   -1.8088 C   0  0  0  0  0  0  0  0  0  0  0  0
    1.8985    0.5930   -0.3562 C   0  0  2  0  0  0  0  0  0  0  0  0
    1.5220    1.7978    0.0324 F   0  0  0  0  0  0  0  0  0  0  0  0
    1.2085    0.2777   -1.8136 C   0  0  1  0  0  0  0  0  0  0  0  0
    1.1669   -1.2272   -1.6145 O   0  0  0  0  0  0  0  0  0  0  0  0
   -0.3443    0.5048   -1.3463 C   0  0  0  0  0  0  0  0  0  0  0  0
   -0.8010   -0.3709   -0.3667 C   0  0  2  0  0  0  0  0  0  0  0  0
   -0.7356   -1.8341   -0.3949 C   0  0  0  0  0  0  0  0  0  0  0  0
  1  2  1  0
  2  3  1  0
  3  4  1  0
  4  5  2  0
  4  6  1  0
  7  6  1  1
  7  8  1  0
  8  9  2  0
  8 10  1  0
 10 11  1  0
 11 12  1  0
 12 13  1  0
 12 14  2  0
  7 15  1  0
 15 16  1  0
 17 16  1  1
 17 18  1  0
 18 19  1  1
 19 20  1  0
 20 21  1  6
 20 22  1  0
 22 23  2  0
 23 24  1  0
 24 25  2  0
 24 26  1  0
 26 27  2  0
 27 28  1  0
 28 29  1  6
 28 30  1  0
 30 31  1  1
 30 32  1  0
 32 33  1  1
 32 34  1  0
 34 35  1  0
 35 36  1  6
 35  7  1  0
 35 17  1  0
 30 18  1  0
 28 22  1  0
M  END
>  <supplier_code>  (1357) 
DB06781

>  <zinc_id>  (1357) 
ZINC000004212945

>  <catalog_short_name>  (1357) 
dbfda

$$$$

     RDKit          3D

  6  5  0  0  0  0  0  0  0  0999 V2000
   -1.0056   -0.9437   -0.7909 O   0  0  0  0  0  0  0  0  0  0  0  0
   -1.4780   -0.3166    0.2991 C   0  0  0  0  0  0  0  0  0  0  0  0
   -0.3241    0.6109    0.8788 C   0  0  2  0  0  0  0  0  0  0  0  0
    0.0372    1.4545   -0.7877 S   0  0  0  0  0  0  0  0  0  0  0  0
    0.7898   -0.5130    0.8359 C   0  0  0  0  0  0  0  0  0  0  0  0
    1.9808   -0.2921   -0.4352 S   0  0  0  0  0  0  0  0  0  0  0  0
  1  2  1  0
  3  2  1  6
  3  4  1  0
  3  5  1  0
  5  6  1  0
M  END
>  <supplier_code>  (1358) 
DB06782

>  <zinc_id>  (1358) 
ZINC000000901552

>  <catalog_short_name>  (1358) 
dbfda

$$$$

     RDKit          3D

  6  5  0  0  0  0  0  0  0  0999 V2000
   -1.6538   -0.5828    0.3067 O   0  0  0  0  0  0  0  0  0  0  0  0
   -1.0648   -0.4109   -0.8700 C   0  0  0  0  0  0  0  0  0  0  0  0
    0.2562    0.4575   -0.6830 C   0  0  1  0  0  0  0  0  0  0  0  0
   -0.6139    1.8713    0.2619 S   0  0  0  0  0  0  0  0  0  0  0  0
    0.7367   -0.2944    0.6352 C   0  0  0  0  0  0  0  0  0  0  0  0
    2.3396   -1.0407    0.3491 S   0  0  0  0  0  0  0  0  0  0  0  0
  1  2  1  0
  3  2  1  1
  3  4  1  0
  3  5  1  0
  5  6  1  0
M  END
>  <supplier_code>  (1359) 
DB06782

>  <zinc_id>  (1359) 
ZINC000000901555

>  <catalog_short_name>  (1359) 
dbfda

$$$$

     RDKit          3D

 13 12  0  0  0  0  0  0  0  0999 V2000
   -1.2725    1.5192   -1.5339 O   0  0  0  0  0  0  0  0  0  0  0  0
   -1.9081    1.1446   -0.5099 C   0  0  0  0  0  0  0  0  0  0  0  0
   -2.9175    2.0191   -0.0909 O   0  0  0  0  0  0  0  0  0  0  0  0
   -1.3751    0.2332    0.5178 C   0  0  0  0  0  0  0  0  0  0  0  0
   -0.1227   -0.4902    0.1019 C   0  0  0  0  0  0  0  0  0  0  0  0
    0.0281   -0.5824   -1.2628 O   0  0  0  0  0  0  0  0  0  0  0  0
    1.0503    0.1269    0.8142 C   0  0  0  0  0  0  0  0  0  0  0  0
    1.9684    0.8451   -0.0890 C   0  0  0  0  0  0  0  0  0  0  0  0
    2.5171    0.2191   -1.0442 O   0  0  0  0  0  0  0  0  0  0  0  0
    2.7458    1.8470    0.4961 O   0  0  0  0  0  0  0  0  0  0  0  0
   -0.2305   -1.8888    0.6270 C   0  0  0  0  0  0  0  0  0  0  0  0
    0.6277   -2.7741    0.3307 O   0  0  0  0  0  0  0  0  0  0  0  0
   -1.1108   -2.2186    1.6431 O   0  0  0  0  0  0  0  0  0  0  0  0
  1  2  2  0
  2  3  1  0
  2  4  1  0
  4  5  1  0
  5  6  1  0
  5  7  1  0
  7  8  1  0
  8  9  2  0
  8 10  1  0
  5 11  1  0
 11 12  2  0
 11 13  1  0
M  END
>  <supplier_code>  (1360) 
DB06784

>  <zinc_id>  (1360) 
ZINC000000895081

>  <catalog_short_name>  (1360) 
dbfda

$$$$

     RDKit          3D

 31 35  0  0  0  0  0  0  0  0999 V2000
   -4.4069   -2.1959   -0.7618 C   0  0  0  0  0  0  0  0  0  0  0  0
   -3.1583   -1.9440   -0.1542 C   0  0  0  0  0  0  0  0  0  0  0  0
   -2.6457   -3.2707    0.3338 C   0  0  0  0  0  0  0  0  0  0  0  0
   -2.3470   -1.3768   -1.1181 O   0  0  0  0  0  0  0  0  0  0  0  0
   -2.9837    0.0009   -1.0967 C   0  0  2  0  0  0  0  0  0  0  0  0
   -1.6223    0.8555   -1.4918 C   0  0  0  0  0  0  0  0  0  0  0  0
   -0.6428   -0.1356   -0.6860 C   0  0  1  0  0  0  0  0  0  0  0  0
    0.6473    0.9437   -0.4969 C   0  0  2  0  0  0  0  0  0  0  0  0
    1.2619    0.4973   -1.9281 C   0  0  0  0  0  0  0  0  0  0  0  0
    2.6858    0.9090   -1.9985 C   0  0  0  0  0  0  0  0  0  0  0  0
    3.4661    0.1587   -0.9730 C   0  0  0  0  0  0  0  0  0  0  0  0
    4.1679   -0.9228   -1.2202 C   0  0  0  0  0  0  0  0  0  0  0  0
    5.2628   -1.1962   -0.2776 C   0  0  0  0  0  0  0  0  0  0  0  0
    6.1536   -2.0409   -0.4877 O   0  0  0  0  0  0  0  0  0  0  0  0
    5.2253   -0.3424    0.9531 C   0  0  0  0  0  0  0  0  0  0  0  0
    3.7588   -0.3434    1.3714 C   0  0  0  0  0  0  0  0  0  0  0  0
    2.8932    0.3564    0.3969 C   0  0  1  0  0  0  0  0  0  0  0  0
    2.9566    1.8528    0.6179 C   0  0  0  0  0  0  0  0  0  0  0  0
    1.4920   -0.1479    0.3140 C   0  0  2  0  0  0  0  0  0  0  0  0
    1.3349   -1.3702   -0.1626 F   0  0  0  0  0  0  0  0  0  0  0  0
    0.9447   -0.1029    1.8596 C   0  0  1  0  0  0  0  0  0  0  0  0
    0.7477    1.4023    1.8764 O   0  0  0  0  0  0  0  0  0  0  0  0
   -0.6322   -0.4542    1.5784 C   0  0  0  0  0  0  0  0  0  0  0  0
   -1.3143    0.3817    0.6901 C   0  0  1  0  0  0  0  0  0  0  0  0
   -1.2589    1.8760    0.7133 C   0  0  0  0  0  0  0  0  0  0  0  0
   -2.7301    0.1385    0.5217 C   0  0  1  0  0  0  0  0  0  0  0  0
   -3.6364    1.3225    0.7421 C   0  0  0  0  0  0  0  0  0  0  0  0
   -3.8037    1.7828    1.8735 O   0  0  0  0  0  0  0  0  0  0  0  0
   -3.7241    2.4228   -0.2849 C   0  0  0  0  0  0  0  0  0  0  0  0
   -4.8232    1.9920   -1.6059 Cl  0  0  0  0  0  0  0  0  0  0  0  0
   -3.2689   -1.0490    0.9016 O   0  0  0  0  0  0  0  0  0  0  0  0
  1  2  1  0
  2  3  1  0
  2  4  1  0
  5  4  1  6
  5  6  1  0
  7  6  1  6
  7  8  1  0
  8  9  1  6
  9 10  1  0
 10 11  1  0
 11 12  2  0
 12 13  1  0
 13 14  2  0
 13 15  1  0
 15 16  1  0
 16 17  1  0
 17 18  1  1
 17 19  1  0
 19 20  1  6
 19 21  1  0
 21 22  1  6
 21 23  1  0
 23 24  1  0
 24 25  1  1
 24 26  1  0
 26 27  1  1
 27 28  2  0
 27 29  1  0
 29 30  1  0
 26 31  1  0
 31  2  1  0
 26  5  1  0
 24  7  1  0
 19  8  1  0
 17 11  1  0
M  END
>  <supplier_code>  (1361) 
DB06786

>  <zinc_id>  (1361) 
ZINC000004213474

>  <catalog_short_name>  (1361) 
dbfda

$$$$

     RDKit          3D

 31 34  0  0  0  0  0  0  0  0999 V2000
   -6.0677    3.7841   -0.5587 C   0  0  0  0  0  0  0  0  0  0  0  0
   -5.5649    2.4693   -1.0688 C   0  0  0  0  0  0  0  0  0  0  0  0
   -6.5524    1.3730   -0.7171 C   0  0  0  0  0  0  0  0  0  0  0  0
   -5.7552    0.1895   -0.2252 C   0  0  0  0  0  0  0  0  0  0  0  0
   -4.4044    0.2297   -0.9123 C   0  0  0  0  0  0  0  0  0  0  0  0
   -3.3866   -0.5195   -0.1119 C   0  0  0  0  0  0  0  0  0  0  0  0
   -3.4467   -0.5214    1.1385 O   0  0  0  0  0  0  0  0  0  0  0  0
   -2.2677   -0.9780   -0.7843 O   0  0  0  0  0  0  0  0  0  0  0  0
   -1.4362   -1.9287   -0.1408 C   0  0  2  0  0  0  0  0  0  0  0  0
   -1.7890   -3.2648   -0.6790 C   0  0  0  0  0  0  0  0  0  0  0  0
   -2.5827   -4.1537    0.2320 C   0  0  0  0  0  0  0  0  0  0  0  0
   -2.0749   -3.3209   -1.8738 O   0  0  0  0  0  0  0  0  0  0  0  0
   -1.5981   -1.8792    1.3755 C   0  0  0  0  0  0  0  0  0  0  0  0
   -0.4593   -1.0042    1.8885 C   0  0  0  0  0  0  0  0  0  0  0  0
   -0.1848   -0.1334    0.5243 C   0  0  1  0  0  0  0  0  0  0  0  0
    1.4896   -0.0239    0.8396 C   0  0  2  0  0  0  0  0  0  0  0  0
    1.2515    1.3007    1.7258 C   0  0  0  0  0  0  0  0  0  0  0  0
    2.5151    2.0779    1.8006 C   0  0  0  0  0  0  0  0  0  0  0  0
    3.5501    1.3855    1.0209 C   0  0  0  0  0  0  0  0  0  0  0  0
    4.8439    1.4631    1.3354 C   0  0  0  0  0  0  0  0  0  0  0  0
    5.7550    1.5474    0.1838 C   0  0  0  0  0  0  0  0  0  0  0  0
    6.9965    1.4444    0.2857 O   0  0  0  0  0  0  0  0  0  0  0  0
    5.2371    2.3560   -0.9645 C   0  0  0  0  0  0  0  0  0  0  0  0
    3.8016    2.0623   -1.2791 C   0  0  0  0  0  0  0  0  0  0  0  0
    3.3491    0.9477   -0.3883 C   0  0  1  0  0  0  0  0  0  0  0  0
    3.9899   -0.3416   -0.5720 C   0  0  0  0  0  0  0  0  0  0  0  0
    1.7284    0.8645   -0.5989 C   0  0  1  0  0  0  0  0  0  0  0  0
    1.7955   -0.5030   -1.5143 C   0  0  0  0  0  0  0  0  0  0  0  0
    0.3825   -0.9974   -1.6399 C   0  0  0  0  0  0  0  0  0  0  0  0
   -0.0232   -1.5260   -0.3299 C   0  0  2  0  0  0  0  0  0  0  0  0
    0.9081   -2.3990    0.3985 C   0  0  0  0  0  0  0  0  0  0  0  0
  1  2  1  0
  2  3  1  0
  3  4  1  0
  4  5  1  0
  5  6  1  0
  6  7  2  0
  6  8  1  0
  9  8  1  6
  9 10  1  0
 10 11  1  0
 10 12  2  0
  9 13  1  0
 13 14  1  0
 15 14  1  1
 15 16  1  0
 16 17  1  1
 17 18  1  0
 18 19  1  0
 19 20  2  0
 20 21  1  0
 21 22  2  0
 21 23  1  0
 23 24  1  0
 24 25  1  0
 25 26  1  6
 25 27  1  0
 27 28  1  6
 28 29  1  0
 29 30  1  0
 30 31  1  1
 30  9  1  0
 30 15  1  0
 27 16  1  0
 25 19  1  0
M  END
>  <supplier_code>  (1362) 
DB06789

>  <zinc_id>  (1362) 
ZINC000004083606

>  <catalog_short_name>  (1362) 
dbfda

$$$$

     RDKit          3D

  4  3  0  0  0  0  0  0  0  0999 V2000
   -0.5657    1.1560   -0.0379 O   0  0  0  0  0  0  0  0  0  0  0  0
    0.0011    0.0383    0.1179 C   0  0  0  0  0  0  0  0  0  0  0  0
   -0.8055   -1.0877   -0.0314 O   0  0  0  0  0  0  0  0  0  0  0  0
    1.3701   -0.1066   -0.0486 O   0  0  0  0  0  0  0  0  0  0  0  0
  1  2  2  0
  2  3  1  0
  2  4  1  0
M  END
>  <supplier_code>  (1363) 
DB06792

>  <zinc_id>  (1363) 
ZINC000006827693

>  <catalog_short_name>  (1363) 
dbfda

$$$$

     RDKit          3D

 21 21  0  0  0  0  0  0  0  0999 V2000
   -0.0310   -2.3536    4.3776 N   0  0  0  0  0  0  0  0  0  0  0  0
    0.2231   -1.6991    3.4506 C   0  0  0  0  0  0  0  0  0  0  0  0
    0.1913   -0.8403    2.2977 C   0  0  0  0  0  0  0  0  0  0  0  0
   -0.8063    0.0672    2.0448 C   0  0  0  0  0  0  0  0  0  0  0  0
   -1.1305    0.4796    0.7589 C   0  0  0  0  0  0  0  0  0  0  0  0
   -2.4858    0.6485    0.3297 N   0  0  0  0  0  0  0  0  0  0  0  0
   -3.0369   -0.1234   -0.7414 C   0  0  0  0  0  0  0  0  0  0  0  0
   -2.5903   -1.2863   -0.8921 O   0  0  0  0  0  0  0  0  0  0  0  0
   -4.1678    0.3516   -1.5463 C   0  0  0  0  0  0  0  0  0  0  0  0
   -5.2809   -0.2003   -1.3004 O   0  0  0  0  0  0  0  0  0  0  0  0
   -3.9984    0.7917   -2.8604 O   0  0  0  0  0  0  0  0  0  0  0  0
   -0.1585    0.2490   -0.2077 C   0  0  0  0  0  0  0  0  0  0  0  0
   -0.4302    0.7738   -1.8621 Cl  0  0  0  0  0  0  0  0  0  0  0  0
    0.9822   -0.4946    0.0748 C   0  0  0  0  0  0  0  0  0  0  0  0
    2.1308   -0.3954   -0.7764 N   0  0  0  0  0  0  0  0  0  0  0  0
    2.8768    0.8127   -0.8447 C   0  0  0  0  0  0  0  0  0  0  0  0
    2.2655    1.9092   -0.6675 O   0  0  0  0  0  0  0  0  0  0  0  0
    4.3410    0.8390   -0.9255 C   0  0  0  0  0  0  0  0  0  0  0  0
    4.8568    1.6542   -1.7377 O   0  0  0  0  0  0  0  0  0  0  0  0
    5.1515   -0.0623   -0.2680 O   0  0  0  0  0  0  0  0  0  0  0  0
    1.0976   -1.1210    1.2960 C   0  0  0  0  0  0  0  0  0  0  0  0
  1  2  3  0
  2  3  1  0
  3  4  2  0
  4  5  1  0
  5  6  1  0
  6  7  1  0
  7  8  2  0
  7  9  1  0
  9 10  2  0
  9 11  1  0
  5 12  2  0
 12 13  1  0
 12 14  1  0
 14 15  1  0
 15 16  1  0
 16 17  2  0
 16 18  1  0
 18 19  2  0
 18 20  1  0
 14 21  2  0
 21  3  1  0
M  END
>  <supplier_code>  (1364) 
DB06794

>  <zinc_id>  (1364) 
ZINC000002000707

>  <catalog_short_name>  (1364) 
dbfda

$$$$

     RDKit          3D

 12 12  0  0  0  0  0  0  0  0999 V2000
    3.4055    1.3598    0.5609 N   0  0  0  0  0  0  0  0  0  0  0  0
    3.4235   -0.0267    0.1608 C   0  0  0  0  0  0  0  0  0  0  0  0
    2.0255   -0.4538   -0.1570 C   0  0  0  0  0  0  0  0  0  0  0  0
    1.3719   -0.0119   -1.2962 C   0  0  0  0  0  0  0  0  0  0  0  0
    0.0161    0.2336   -1.1946 C   0  0  0  0  0  0  0  0  0  0  0  0
   -0.7861   -0.4586   -0.2949 C   0  0  0  0  0  0  0  0  0  0  0  0
   -2.2998    0.3290    0.1436 S   0  0  0  0  0  0  0  0  0  0  0  0
   -3.5263   -0.8263    0.5105 N   0  0  0  0  0  0  0  0  0  0  0  0
   -2.0520    1.2561    1.3112 O   0  0  0  0  0  0  0  0  0  0  0  0
   -2.7743    1.1140   -1.0414 O   0  0  0  0  0  0  0  0  0  0  0  0
   -0.0950   -1.2415    0.6200 C   0  0  0  0  0  0  0  0  0  0  0  0
    1.2910   -1.2736    0.6771 C   0  0  0  0  0  0  0  0  0  0  0  0
  1  2  1  0
  2  3  1  0
  3  4  2  0
  4  5  1  0
  5  6  2  0
  6  7  1  0
  7  8  1  0
  7  9  2  0
  7 10  2  0
  6 11  1  0
 11 12  2  0
 12  3  1  0
M  END
>  <supplier_code>  (1365) 
DB06795

>  <zinc_id>  (1365) 
ZINC000000001644

>  <catalog_short_name>  (1365) 
dbfda

$$$$

     RDKit          3D

 10 12  0  0  0  0  0  0  0  0999 V2000
   -1.6694   -0.2247   -0.2005 C   0  0  0  0  0  0  0  0  0  0  0  0
   -0.6155   -0.9202   -0.9109 N   0  0  0  0  0  0  0  0  0  0  0  0
    0.2298   -1.6996   -0.0327 C   0  0  0  0  0  0  0  0  0  0  0  0
    0.8875   -0.7748    0.8853 N   0  0  0  0  0  0  0  0  0  0  0  0
   -0.1657   -0.0807    1.5956 C   0  0  0  0  0  0  0  0  0  0  0  0
   -1.0302    0.6766    0.7264 N   0  0  0  0  0  0  0  0  0  0  0  0
   -0.2330    1.6911    0.0851 C   0  0  0  0  0  0  0  0  0  0  0  0
    0.7885    1.0037   -0.6899 N   0  0  0  0  0  0  0  0  0  0  0  0
    0.1383    0.1078   -1.6230 C   0  0  0  0  0  0  0  0  0  0  0  0
    1.6697    0.2208    0.1646 C   0  0  0  0  0  0  0  0  0  0  0  0
  1  2  1  0
  2  3  1  0
  3  4  1  0
  4  5  1  0
  5  6  1  0
  6  7  1  0
  7  8  1  0
  8  9  1  0
  8 10  1  0
  6  1  1  0
  9  2  1  0
 10  4  1  0
M  END
>  <supplier_code>  (1366) 
DB06799

>  <zinc_id>  (1366) 
ZINC000086040406

>  <catalog_short_name>  (1366) 
dbfda

$$$$

     RDKit          3D

 26 31  0  0  0  0  0  0  0  0999 V2000
    2.1168   -1.6336   -0.8064 C   0  0  0  0  0  0  0  0  0  0  0  0
    1.9367   -1.4555   -0.2304 N   0  0  0  0  0  0  0  0  0  0  0  0
    3.1022   -1.5194    0.6580 C   0  0  0  0  0  0  0  0  0  0  0  0
    4.2118   -0.8143   -0.0891 C   0  0  0  0  0  0  0  0  0  0  0  0
    4.5712    0.5857    0.1848 C   0  0  0  0  0  0  0  0  0  0  0  0
    5.5360   -0.5890    0.5090 C   0  0  0  0  0  0  0  0  0  0  0  0
    0.8744   -2.1357    0.3974 C   0  0  0  0  0  0  0  0  0  0  0  0
   -0.4881   -1.9830   -0.1654 C   0  0  0  0  0  0  0  0  0  0  0  0
   -0.7075   -0.5855   -0.5429 C   0  0  1  0  0  0  0  0  0  0  0  0
   -1.2145    0.3349    0.4364 C   0  0  0  0  0  0  0  0  0  0  0  0
   -2.5537    0.3871    0.5146 C   0  0  0  0  0  0  0  0  0  0  0  0
   -3.0364    0.8076    1.7526 C   0  0  0  0  0  0  0  0  0  0  0  0
   -4.3807    0.6421    2.0004 O   0  0  0  0  0  0  0  0  0  0  0  0
   -2.1477    1.3759    2.6649 C   0  0  0  0  0  0  0  0  0  0  0  0
   -0.7810    1.4536    2.3868 C   0  0  0  0  0  0  0  0  0  0  0  0
   -0.2547    0.9339    1.2052 C   0  0  0  0  0  0  0  0  0  0  0  0
    0.9383    0.0300    1.2815 C   0  0  0  0  0  0  0  0  0  0  0  0
    1.6927    0.1031   -0.1718 C   0  0  2  0  0  0  0  0  0  0  0  0
    0.4124    0.0217   -1.1854 C   0  0  1  0  0  0  0  0  0  0  0  0
    0.8415   -0.7168   -2.2849 O   0  0  0  0  0  0  0  0  0  0  0  0
    0.3432    1.4531   -1.6080 C   0  0  0  0  0  0  0  0  0  0  0  0
   -0.8909    1.7104   -2.4226 C   0  0  0  0  0  0  0  0  0  0  0  0
   -2.0042    1.1214   -1.6082 C   0  0  0  0  0  0  0  0  0  0  0  0
   -3.1241    1.5260   -1.9199 O   0  0  0  0  0  0  0  0  0  0  0  0
   -1.9800   -0.5039   -1.5645 C   0  0  2  0  0  0  0  0  0  0  0  0
   -3.0137   -0.5497   -0.4166 O   0  0  0  0  0  0  0  0  0  0  0  0
  1  2  1  0
  2  3  1  0
  3  4  1  0
  4  5  1  0
  5  6  1  0
  2  7  1  0
  7  8  1  0
  9  8  1  1
  9 10  1  0
 10 11  2  0
 11 12  1  0
 12 13  1  0
 12 14  2  0
 14 15  1  0
 15 16  2  0
 16 17  1  0
 18 17  1  1
 18 19  1  0
 19 20  1  6
 19 21  1  0
 21 22  1  0
 22 23  1  0
 23 24  2  0
 25 23  1  1
 25 26  1  0
 18  2  1  0
  6  4  1  0
 19  9  1  0
 25  9  1  0
 16 10  1  0
 26 11  1  0
M  CHG  1   2   1
M  END
>  <supplier_code>  (1367) 
DB06800

>  <zinc_id>  (1367) 
ZINC000005764759

>  <catalog_short_name>  (1367) 
dbfda

$$$$

     RDKit          3D

 26 31  0  0  0  0  0  0  0  0999 V2000
    3.2028   -1.2978   -1.4739 C   0  0  0  0  0  0  0  0  0  0  0  0
    2.4064   -0.5686   -0.6626 N   0  0  2  0  0  0  0  0  0  0  0  0
    3.1161    0.6771   -0.4999 C   0  0  0  0  0  0  0  0  0  0  0  0
    4.1391    0.5140    0.5431 C   0  0  0  0  0  0  0  0  0  0  0  0
    4.4498    1.7892    1.3743 C   0  0  0  0  0  0  0  0  0  0  0  0
    3.9284    0.5647    1.9889 C   0  0  0  0  0  0  0  0  0  0  0  0
    2.0344   -1.2713    0.4486 C   0  0  0  0  0  0  0  0  0  0  0  0
    0.9605   -0.6382    1.3200 C   0  0  0  0  0  0  0  0  0  0  0  0
   -0.2019   -0.5779    0.4040 C   0  0  1  0  0  0  0  0  0  0  0  0
   -0.8858    0.6765    0.3414 C   0  0  0  0  0  0  0  0  0  0  0  0
   -2.1119    0.6450    0.9255 C   0  0  0  0  0  0  0  0  0  0  0  0
   -2.7507    1.8753    0.8060 C   0  0  0  0  0  0  0  0  0  0  0  0
   -4.0445    1.8798    1.3390 O   0  0  0  0  0  0  0  0  0  0  0  0
   -2.4685    2.6820   -0.2985 C   0  0  0  0  0  0  0  0  0  0  0  0
   -1.3610    2.4270   -1.1117 C   0  0  0  0  0  0  0  0  0  0  0  0
   -0.5676    1.3229   -0.8458 C   0  0  0  0  0  0  0  0  0  0  0  0
    0.8922    1.2159   -1.0076 C   0  0  0  0  0  0  0  0  0  0  0  0
    1.2156   -0.2673   -1.6494 C   0  0  2  0  0  0  0  0  0  0  0  0
    0.0515   -1.1247   -0.8719 C   0  0  1  0  0  0  0  0  0  0  0  0
    0.4306   -2.4564   -1.0044 O   0  0  0  0  0  0  0  0  0  0  0  0
   -1.0518   -1.0438   -1.9249 C   0  0  0  0  0  0  0  0  0  0  0  0
   -2.0706   -2.0464   -1.3834 C   0  0  0  0  0  0  0  0  0  0  0  0
   -2.4534   -1.3791   -0.1079 C   0  0  0  0  0  0  0  0  0  0  0  0
   -3.5332   -1.7239    0.3721 O   0  0  0  0  0  0  0  0  0  0  0  0
   -1.3563   -1.5299    1.0871 C   0  0  2  0  0  0  0  0  0  0  0  0
   -1.9700   -0.3440    1.8918 O   0  0  0  0  0  0  0  0  0  0  0  0
  2  1  1  6
  2  3  1  0
  3  4  1  0
  4  5  1  0
  5  6  1  0
  2  7  1  0
  7  8  1  0
  9  8  1  1
  9 10  1  0
 10 11  2  0
 11 12  1  0
 12 13  1  0
 12 14  2  0
 14 15  1  0
 15 16  2  0
 16 17  1  0
 18 17  1  1
 18 19  1  0
 19 20  1  1
 19 21  1  0
 21 22  1  0
 22 23  1  0
 23 24  2  0
 25 23  1  6
 25 26  1  0
 18  2  1  0
  6  4  1  0
 19  9  1  0
 25  9  1  0
 16 10  1  0
 26 11  1  0
M  CHG  1   2   1
M  END
>  <supplier_code>  (1368) 
DB06800

>  <zinc_id>  (1368) 
ZINC000245204949

>  <catalog_short_name>  (1368) 
dbfda

$$$$

     RDKit          3D

 19 20  0  0  0  0  0  0  0  0999 V2000
    4.6982   -0.9978    1.6210 N   0  0  0  0  0  0  0  0  0  0  0  0
    3.9668    0.2112    1.8177 C   0  0  0  0  0  0  0  0  0  0  0  0
    4.3510    1.2192    1.1579 O   0  0  0  0  0  0  0  0  0  0  0  0
    2.5126    0.0747    2.1336 C   0  0  0  0  0  0  0  0  0  0  0  0
    1.7923   -0.4990    0.9615 C   0  0  0  0  0  0  0  0  0  0  0  0
    2.3026   -1.5591    0.2212 C   0  0  0  0  0  0  0  0  0  0  0  0
    1.9542   -1.6129   -1.1153 C   0  0  0  0  0  0  0  0  0  0  0  0
    1.0777   -0.7124   -1.6972 C   0  0  0  0  0  0  0  0  0  0  0  0
    0.2447   -0.0100   -0.8398 C   0  0  0  0  0  0  0  0  0  0  0  0
   -0.9360    0.7157   -1.3192 C   0  0  0  0  0  0  0  0  0  0  0  0
   -0.9450    1.0779   -2.5341 O   0  0  0  0  0  0  0  0  0  0  0  0
   -2.2457    0.5495   -0.6947 C   0  0  0  0  0  0  0  0  0  0  0  0
   -2.8591    1.6327   -0.0750 C   0  0  0  0  0  0  0  0  0  0  0  0
   -4.0166    1.3152    0.6273 C   0  0  0  0  0  0  0  0  0  0  0  0
   -4.8722    0.3275    0.1559 C   0  0  0  0  0  0  0  0  0  0  0  0
   -4.4554   -0.3382   -0.9901 C   0  0  0  0  0  0  0  0  0  0  0  0
   -3.1132   -0.3185   -1.3477 C   0  0  0  0  0  0  0  0  0  0  0  0
    0.6660    0.1487    0.4761 C   0  0  0  0  0  0  0  0  0  0  0  0
   -0.1229    0.8520    1.4410 N   0  0  0  0  0  0  0  0  0  0  0  0
  1  2  1  0
  2  3  2  0
  2  4  1  0
  4  5  1  0
  5  6  2  0
  6  7  1  0
  7  8  2  0
  8  9  1  0
  9 10  1  0
 10 11  2  0
 10 12  1  0
 12 13  2  0
 13 14  1  0
 14 15  2  0
 15 16  1  0
 16 17  2  0
  9 18  2  0
 18 19  1  0
 18  5  1  0
 17 12  1  0
M  END
>  <supplier_code>  (1369) 
DB06802

>  <zinc_id>  (1369) 
ZINC000005162311

>  <catalog_short_name>  (1369) 
dbfda

$$$$

     RDKit          3D

 43 43  0  0  0  0  0  0  0  0999 V2000
  -14.7483    1.2593   -2.4417 C   0  0  0  0  0  0  0  0  0  0  0  0
  -14.7129    0.8207   -0.9985 C   0  0  0  0  0  0  0  0  0  0  0  0
  -13.2792    0.5529   -0.5841 C   0  0  0  0  0  0  0  0  0  0  0  0
  -13.1767    0.8189    0.8992 C   0  0  0  0  0  0  0  0  0  0  0  0
  -12.1087   -0.0836    1.5028 C   0  0  0  0  0  0  0  0  0  0  0  0
  -10.7837    0.6461    1.3145 C   0  0  0  0  0  0  0  0  0  0  0  0
  -10.4524    0.6298   -0.1694 C   0  0  0  0  0  0  0  0  0  0  0  0
   -9.8891   -0.7291   -0.4882 C   0  0  0  0  0  0  0  0  0  0  0  0
   -8.4308   -0.5671   -0.8196 C   0  0  0  0  0  0  0  0  0  0  0  0
   -7.6728    0.0927    0.2895 C   0  0  0  0  0  0  0  0  0  0  0  0
   -7.3286   -0.5909    1.4492 C   0  0  0  0  0  0  0  0  0  0  0  0
   -6.0947   -0.3875    2.0550 C   0  0  0  0  0  0  0  0  0  0  0  0
   -5.1659    0.4931    1.5184 C   0  0  0  0  0  0  0  0  0  0  0  0
   -3.8063    0.2180    1.4699 O   0  0  0  0  0  0  0  0  0  0  0  0
   -3.1056   -0.4885    2.4578 C   0  0  0  0  0  0  0  0  0  0  0  0
   -2.1986   -1.5546    1.9094 C   0  0  0  0  0  0  0  0  0  0  0  0
   -1.9140   -1.4006    0.5643 O   0  0  0  0  0  0  0  0  0  0  0  0
   -0.6673   -0.7874    0.3656 C   0  0  0  0  0  0  0  0  0  0  0  0
   -0.7369    0.5802    1.0394 C   0  0  0  0  0  0  0  0  0  0  0  0
    0.4994    0.9795    1.5320 O   0  0  0  0  0  0  0  0  0  0  0  0
    1.2119   -0.0681    2.1092 C   0  0  0  0  0  0  0  0  0  0  0  0
    1.9911   -0.7872    1.0431 C   0  0  0  0  0  0  0  0  0  0  0  0
    2.3339    0.0189   -0.0283 O   0  0  0  0  0  0  0  0  0  0  0  0
    2.7351    1.2909    0.3391 C   0  0  0  0  0  0  0  0  0  0  0  0
    3.6269    1.3057    1.5568 C   0  0  0  0  0  0  0  0  0  0  0  0
    4.9325    1.0798    1.1034 O   0  0  0  0  0  0  0  0  0  0  0  0
    5.2367   -0.2429    1.3796 C   0  0  0  0  0  0  0  0  0  0  0  0
    6.2373   -0.7758    0.3757 C   0  0  0  0  0  0  0  0  0  0  0  0
    6.0236   -0.1411   -0.8369 O   0  0  0  0  0  0  0  0  0  0  0  0
    6.7971   -0.7616   -1.8156 C   0  0  0  0  0  0  0  0  0  0  0  0
    7.3387    0.2429   -2.8082 C   0  0  0  0  0  0  0  0  0  0  0  0
    7.4158   -0.3790   -4.0575 O   0  0  0  0  0  0  0  0  0  0  0  0
    8.7282   -0.5740   -4.4499 C   0  0  0  0  0  0  0  0  0  0  0  0
    9.6525    0.3493   -3.6690 C   0  0  0  0  0  0  0  0  0  0  0  0
    9.8567   -0.2300   -2.4261 O   0  0  0  0  0  0  0  0  0  0  0  0
   10.8597    0.4977   -1.7761 C   0  0  0  0  0  0  0  0  0  0  0  0
   11.2724   -0.1787   -0.4813 C   0  0  0  0  0  0  0  0  0  0  0  0
   12.5333   -0.7367   -0.7136 O   0  0  0  0  0  0  0  0  0  0  0  0
   13.3119   -0.5450    0.4389 C   0  0  0  0  0  0  0  0  0  0  0  0
   13.7154    0.9215    0.4312 C   0  0  0  0  0  0  0  0  0  0  0  0
   12.5712    1.6511    0.7695 O   0  0  0  0  0  0  0  0  0  0  0  0
   -5.6779    1.4144    0.6132 C   0  0  0  0  0  0  0  0  0  0  0  0
   -6.9309    1.2405    0.0372 C   0  0  0  0  0  0  0  0  0  0  0  0
  1  2  1  0
  2  3  1  0
  3  4  1  0
  4  5  1  0
  5  6  1  0
  6  7  1  0
  7  8  1  0
  8  9  1  0
  9 10  1  0
 10 11  2  0
 11 12  1  0
 12 13  2  0
 13 14  1  0
 14 15  1  0
 15 16  1  0
 16 17  1  0
 17 18  1  0
 18 19  1  0
 19 20  1  0
 20 21  1  0
 21 22  1  0
 22 23  1  0
 23 24  1  0
 24 25  1  0
 25 26  1  0
 26 27  1  0
 27 28  1  0
 28 29  1  0
 29 30  1  0
 30 31  1  0
 31 32  1  0
 32 33  1  0
 33 34  1  0
 34 35  1  0
 35 36  1  0
 36 37  1  0
 37 38  1  0
 38 39  1  0
 39 40  1  0
 40 41  1  0
 13 42  1  0
 42 43  2  0
 43 10  1  0
M  END
>  <supplier_code>  (1370) 
DB06804

>  <zinc_id>  (1370) 
ZINC000008214629

>  <catalog_short_name>  (1370) 
dbfda

$$$$

     RDKit          3D

 27 26  0  0  0  0  0  0  0  0999 V2000
   -0.4149   -3.3782   -0.9986 O   0  0  0  0  0  0  0  0  0  0  0  0
    0.3108   -3.1945    0.0245 C   0  0  0  0  0  0  0  0  0  0  0  0
    1.3947   -4.0495    0.2328 O   0  0  0  0  0  0  0  0  0  0  0  0
   -0.0194   -2.1520    1.0371 C   0  0  0  0  0  0  0  0  0  0  0  0
   -0.2712   -0.8639    0.3983 N   0  0  0  0  0  0  0  0  0  0  0  0
    0.9347   -0.4945   -0.3345 C   0  0  0  0  0  0  0  0  0  0  0  0
    2.1156   -0.8143    0.5345 C   0  0  0  0  0  0  0  0  0  0  0  0
    3.3752   -0.4144   -0.0049 N   0  0  0  0  0  0  0  0  0  0  0  0
    4.0995    0.5434    0.7684 C   0  0  0  0  0  0  0  0  0  0  0  0
    3.2824    1.7349    1.1525 C   0  0  0  0  0  0  0  0  0  0  0  0
    3.1374    1.9080    2.4007 O   0  0  0  0  0  0  0  0  0  0  0  0
    3.4387    2.8999    0.3962 O   0  0  0  0  0  0  0  0  0  0  0  0
    3.3925   -0.1945   -1.4184 C   0  0  0  0  0  0  0  0  0  0  0  0
    4.4967    0.7168   -1.8149 C   0  0  0  0  0  0  0  0  0  0  0  0
    4.2328    1.6173   -2.6646 O   0  0  0  0  0  0  0  0  0  0  0  0
    5.7548    0.6841   -1.2449 O   0  0  0  0  0  0  0  0  0  0  0  0
   -1.4029   -1.0679   -0.5033 C   0  0  0  0  0  0  0  0  0  0  0  0
   -1.8583    0.2095   -1.1478 C   0  0  0  0  0  0  0  0  0  0  0  0
   -3.1685    0.6358   -0.7427 N   0  0  0  0  0  0  0  0  0  0  0  0
   -3.1566    1.5459    0.3791 C   0  0  0  0  0  0  0  0  0  0  0  0
   -4.1665    2.6076    0.0722 C   0  0  0  0  0  0  0  0  0  0  0  0
   -4.1366    3.6906    0.6930 O   0  0  0  0  0  0  0  0  0  0  0  0
   -5.3278    2.1971   -0.5745 O   0  0  0  0  0  0  0  0  0  0  0  0
   -4.1071   -0.4409   -0.5649 C   0  0  0  0  0  0  0  0  0  0  0  0
   -3.9065   -1.1586    0.7288 C   0  0  0  0  0  0  0  0  0  0  0  0
   -4.4560   -2.2991    0.8134 O   0  0  0  0  0  0  0  0  0  0  0  0
   -3.5735   -0.4687    1.8977 O   0  0  0  0  0  0  0  0  0  0  0  0
  1  2  2  0
  2  3  1  0
  2  4  1  0
  4  5  1  0
  5  6  1  0
  6  7  1  0
  7  8  1  0
  8  9  1  0
  9 10  1  0
 10 11  2  0
 10 12  1  0
  8 13  1  0
 13 14  1  0
 14 15  2  0
 14 16  1  0
  5 17  1  0
 17 18  1  0
 18 19  1  0
 19 20  1  0
 20 21  1  0
 21 22  2  0
 21 23  1  0
 19 24  1  0
 24 25  1  0
 25 26  2  0
 25 27  1  0
M  END
>  <supplier_code>  (1371) 
DB06805

>  <zinc_id>  (1371) 
ZINC000019419017

>  <catalog_short_name>  (1371) 
dbfda

$$$$

     RDKit          3D

 27 26  0  0  0  0  0  0  0  0999 V2000
   -0.4149   -3.3782   -0.9986 O   0  0  0  0  0  0  0  0  0  0  0  0
    0.3108   -3.1945    0.0245 C   0  0  0  0  0  0  0  0  0  0  0  0
    1.3947   -4.0495    0.2328 O   0  0  0  0  0  0  0  0  0  0  0  0
   -0.0194   -2.1520    1.0371 C   0  0  0  0  0  0  0  0  0  0  0  0
   -0.2712   -0.8639    0.3983 N   0  0  0  0  0  0  0  0  0  0  0  0
    0.9347   -0.4945   -0.3345 C   0  0  0  0  0  0  0  0  0  0  0  0
    2.1156   -0.8143    0.5345 C   0  0  0  0  0  0  0  0  0  0  0  0
    3.3752   -0.4144   -0.0049 N   0  0  0  0  0  0  0  0  0  0  0  0
    4.0995    0.5434    0.7684 C   0  0  0  0  0  0  0  0  0  0  0  0
    3.2824    1.7349    1.1525 C   0  0  0  0  0  0  0  0  0  0  0  0
    3.1374    1.9080    2.4007 O   0  0  0  0  0  0  0  0  0  0  0  0
    3.4387    2.8999    0.3962 O   0  0  0  0  0  0  0  0  0  0  0  0
    3.3925   -0.1945   -1.4184 C   0  0  0  0  0  0  0  0  0  0  0  0
    4.4967    0.7168   -1.8149 C   0  0  0  0  0  0  0  0  0  0  0  0
    4.2328    1.6173   -2.6646 O   0  0  0  0  0  0  0  0  0  0  0  0
    5.7548    0.6841   -1.2449 O   0  0  0  0  0  0  0  0  0  0  0  0
   -1.4029   -1.0679   -0.5033 C   0  0  0  0  0  0  0  0  0  0  0  0
   -1.8583    0.2095   -1.1478 C   0  0  0  0  0  0  0  0  0  0  0  0
   -3.1685    0.6358   -0.7427 N   0  0  0  0  0  0  0  0  0  0  0  0
   -3.1566    1.5459    0.3791 C   0  0  0  0  0  0  0  0  0  0  0  0
   -4.1665    2.6076    0.0722 C   0  0  0  0  0  0  0  0  0  0  0  0
   -4.1366    3.6906    0.6930 O   0  0  0  0  0  0  0  0  0  0  0  0
   -5.3278    2.1971   -0.5745 O   0  0  0  0  0  0  0  0  0  0  0  0
   -4.1071   -0.4409   -0.5649 C   0  0  0  0  0  0  0  0  0  0  0  0
   -3.9065   -1.1586    0.7288 C   0  0  0  0  0  0  0  0  0  0  0  0
   -4.4560   -2.2991    0.8134 O   0  0  0  0  0  0  0  0  0  0  0  0
   -3.5735   -0.4687    1.8977 O   0  0  0  0  0  0  0  0  0  0  0  0
  1  2  2  0
  2  3  1  0
  2  4  1  0
  4  5  1  0
  5  6  1  0
  6  7  1  0
  7  8  1  0
  8  9  1  0
  9 10  1  0
 10 11  2  0
 10 12  1  0
  8 13  1  0
 13 14  1  0
 14 15  2  0
 14 16  1  0
  5 17  1  0
 17 18  1  0
 18 19  1  0
 19 20  1  0
 20 21  1  0
 21 22  2  0
 21 23  1  0
 19 24  1  0
 24 25  1  0
 25 26  2  0
 25 27  1  0
M  END
>  <supplier_code>  (1372) 
DB06806

>  <zinc_id>  (1372) 
ZINC000019419017

>  <catalog_short_name>  (1372) 
dbfda

$$$$

     RDKit          3D

 36 38  0  0  0  0  0  0  0  0999 V2000
   -0.6021   -2.3313    0.4694 C   0  0  0  0  0  0  0  0  0  0  0  0
    0.7232   -2.6762    0.2293 C   0  0  0  0  0  0  0  0  0  0  0  0
    1.5913   -1.7426   -0.3245 C   0  0  0  0  0  0  0  0  0  0  0  0
    3.0171   -1.7493    0.0487 C   0  0  0  0  0  0  0  0  0  0  0  0
    3.6245   -0.4500    0.0799 N   0  0  0  0  0  0  0  0  0  0  0  0
    2.7699    0.5946    0.5744 C   0  0  0  0  0  0  0  0  0  0  0  0
    2.9645    1.8597   -0.2140 C   0  0  0  0  0  0  0  0  0  0  0  0
    4.1130    1.7552   -1.2064 C   0  0  0  0  0  0  0  0  0  0  0  0
    5.0514    2.8081   -0.8451 N   0  0  0  0  0  0  0  0  0  0  0  0
    6.1734    2.7535   -1.7641 C   0  0  0  0  0  0  0  0  0  0  0  0
    7.4213    2.9865   -0.9365 C   0  0  0  0  0  0  0  0  0  0  0  0
    7.5105    2.0235    0.1518 N   0  0  0  0  0  0  0  0  0  0  0  0
    7.5750    0.6868   -0.4341 C   0  0  0  0  0  0  0  0  0  0  0  0
    7.8415   -0.3260    0.6607 C   0  0  0  0  0  0  0  0  0  0  0  0
    7.6169   -1.7239    0.1008 C   0  0  0  0  0  0  0  0  0  0  0  0
    6.2504   -1.8487   -0.3684 N   0  0  0  0  0  0  0  0  0  0  0  0
    5.3930   -1.8926    0.8010 C   0  0  0  0  0  0  0  0  0  0  0  0
    4.7636   -0.5231    0.9929 C   0  0  0  0  0  0  0  0  0  0  0  0
    0.9807   -0.7067   -1.0129 C   0  0  0  0  0  0  0  0  0  0  0  0
   -0.3413   -0.3554   -0.7647 C   0  0  0  0  0  0  0  0  0  0  0  0
   -1.0640   -1.0489    0.1982 C   0  0  0  0  0  0  0  0  0  0  0  0
   -2.0869   -0.3793    1.0601 C   0  0  0  0  0  0  0  0  0  0  0  0
   -3.3360   -0.4434    0.3585 N   0  0  0  0  0  0  0  0  0  0  0  0
   -3.8139    0.8242   -0.1182 C   0  0  0  0  0  0  0  0  0  0  0  0
   -4.2043    0.6133   -1.5767 C   0  0  0  0  0  0  0  0  0  0  0  0
   -4.7033   -0.8144   -1.7686 C   0  0  0  0  0  0  0  0  0  0  0  0
   -5.8952   -0.7821   -2.6119 N   0  0  0  0  0  0  0  0  0  0  0  0
   -7.0692   -0.8161   -1.7658 C   0  0  0  0  0  0  0  0  0  0  0  0
   -7.9039    0.4294   -1.8683 C   0  0  0  0  0  0  0  0  0  0  0  0
   -7.4298    1.5100   -1.0434 N   0  0  0  0  0  0  0  0  0  0  0  0
   -8.0508    1.5437    0.2644 C   0  0  0  0  0  0  0  0  0  0  0  0
   -7.5362    0.4625    1.1743 C   0  0  0  0  0  0  0  0  0  0  0  0
   -6.7188    0.9890    2.3211 C   0  0  0  0  0  0  0  0  0  0  0  0
   -5.3113    0.7153    2.0627 N   0  0  0  0  0  0  0  0  0  0  0  0
   -4.9840   -0.6786    2.1793 C   0  0  0  0  0  0  0  0  0  0  0  0
   -4.3303   -1.2668    0.9698 C   0  0  0  0  0  0  0  0  0  0  0  0
  1  2  2  0
  2  3  1  0
  3  4  1  0
  4  5  1  0
  5  6  1  0
  6  7  1  0
  7  8  1  0
  8  9  1  0
  9 10  1  0
 10 11  1  0
 11 12  1  0
 12 13  1  0
 13 14  1  0
 14 15  1  0
 15 16  1  0
 16 17  1  0
 17 18  1  0
  3 19  2  0
 19 20  1  0
 20 21  2  0
 21 22  1  0
 22 23  1  0
 23 24  1  0
 24 25  1  0
 25 26  1  0
 26 27  1  0
 27 28  1  0
 28 29  1  0
 29 30  1  0
 30 31  1  0
 31 32  1  0
 32 33  1  0
 33 34  1  0
 34 35  1  0
 35 36  1  0
 21  1  1  0
 36 23  1  0
 18  5  1  0
M  END
>  <supplier_code>  (1373) 
DB06809

>  <zinc_id>  (1373) 
ZINC000022443609

>  <catalog_short_name>  (1373) 
dbfda

$$$$

     RDKit          3D

 40 39  0  0  0  0  0  0  0  0999 V2000
  -12.8507    0.9261   -1.0705 C   0  0  0  0  0  0  0  0  0  0  0  0
  -14.2197    0.3976   -0.7411 C   0  0  0  0  0  0  0  0  0  0  0  0
  -14.5728    0.5258    0.7149 C   0  0  0  0  0  0  0  0  0  0  0  0
  -13.3783    0.7471    1.6010 C   0  0  0  0  0  0  0  0  0  0  0  0
  -12.2576   -0.2306    1.3342 C   0  0  0  0  0  0  0  0  0  0  0  0
  -10.9806    0.4066    1.8609 C   0  0  0  0  0  0  0  0  0  0  0  0
   -9.9050   -0.6635    1.9148 C   0  0  0  0  0  0  0  0  0  0  0  0
   -8.5922    0.0440    2.2028 C   0  0  0  0  0  0  0  0  0  0  0  0
   -8.1911   -0.2979    3.6316 C   0  0  0  0  0  0  0  0  0  0  0  0
   -6.9837    0.5529    3.9564 C   0  0  0  0  0  0  0  0  0  0  0  0
   -6.0498   -0.3039    4.7931 C   0  0  0  0  0  0  0  0  0  0  0  0
   -4.6604   -0.1653    4.2049 C   0  0  0  0  0  0  0  0  0  0  0  0
   -4.7487   -0.3958    2.8233 O   0  0  0  0  0  0  0  0  0  0  0  0
   -3.4756   -0.8280    2.4272 C   0  0  0  0  0  0  0  0  0  0  0  0
   -2.4938    0.2061    2.9655 C   0  0  0  0  0  0  0  0  0  0  0  0
   -2.5539    1.2869    2.0713 O   0  0  0  0  0  0  0  0  0  0  0  0
   -2.5980    0.7116    0.7913 C   0  0  0  0  0  0  0  0  0  0  0  0
   -1.3325   -0.1296    0.6762 C   0  0  0  0  0  0  0  0  0  0  0  0
   -0.6125    0.3415   -0.4204 O   0  0  0  0  0  0  0  0  0  0  0  0
   -0.5545   -0.7210   -1.3333 C   0  0  0  0  0  0  0  0  0  0  0  0
    0.8198   -1.3570   -1.2182 C   0  0  0  0  0  0  0  0  0  0  0  0
    1.7465   -0.4239   -1.6970 O   0  0  0  0  0  0  0  0  0  0  0  0
    1.8976    0.6414   -0.8003 C   0  0  0  0  0  0  0  0  0  0  0  0
    2.6725    0.1602    0.4189 C   0  0  0  0  0  0  0  0  0  0  0  0
    3.7451   -0.5847   -0.0411 O   0  0  0  0  0  0  0  0  0  0  0  0
    4.2494    0.0464   -1.1783 C   0  0  0  0  0  0  0  0  0  0  0  0
    5.4366   -0.7497   -1.7032 C   0  0  0  0  0  0  0  0  0  0  0  0
    5.3073   -0.8629   -3.0906 O   0  0  0  0  0  0  0  0  0  0  0  0
    5.5182    0.3724   -3.7192 C   0  0  0  0  0  0  0  0  0  0  0  0
    6.1440    0.1636   -5.0764 C   0  0  0  0  0  0  0  0  0  0  0  0
    7.4091   -0.3928   -4.9209 O   0  0  0  0  0  0  0  0  0  0  0  0
    8.3464    0.6299   -4.9927 C   0  0  0  0  0  0  0  0  0  0  0  0
    9.6624    0.1216   -4.4204 C   0  0  0  0  0  0  0  0  0  0  0  0
    9.6178    0.2823   -3.0470 O   0  0  0  0  0  0  0  0  0  0  0  0
   10.8674    0.1136   -2.4781 C   0  0  0  0  0  0  0  0  0  0  0  0
   10.9064    0.6336   -1.0680 C   0  0  0  0  0  0  0  0  0  0  0  0
   11.3926   -0.3916   -0.2513 O   0  0  0  0  0  0  0  0  0  0  0  0
   12.3698    0.1994    0.5650 C   0  0  0  0  0  0  0  0  0  0  0  0
   12.1272   -0.1768    2.0211 C   0  0  0  0  0  0  0  0  0  0  0  0
   10.7753   -0.3546    2.2936 O   0  0  0  0  0  0  0  0  0  0  0  0
  1  2  1  0
  2  3  1  0
  3  4  1  0
  4  5  1  0
  5  6  1  0
  6  7  1  0
  7  8  1  0
  8  9  1  0
  9 10  1  0
 10 11  1  0
 11 12  1  0
 12 13  1  0
 13 14  1  0
 14 15  1  0
 15 16  1  0
 16 17  1  0
 17 18  1  0
 18 19  1  0
 19 20  1  0
 20 21  1  0
 21 22  1  0
 22 23  1  0
 23 24  1  0
 24 25  1  0
 25 26  1  0
 26 27  1  0
 27 28  1  0
 28 29  1  0
 29 30  1  0
 30 31  1  0
 31 32  1  0
 32 33  1  0
 33 34  1  0
 34 35  1  0
 35 36  1  0
 36 37  1  0
 37 38  1  0
 38 39  1  0
 39 40  1  0
M  END
>  <supplier_code>  (1374) 
DB06811

>  <zinc_id>  (1374) 
ZINC000008214662

>  <catalog_short_name>  (1374) 
dbfda

$$$$

     RDKit          3D

 16 15  0  0  0  0  0  0  0  0999 V2000
    5.4871    1.7775   -0.0939 C   0  0  0  0  0  0  0  0  0  0  0  0
    5.8193    0.3504    0.2906 C   0  0  0  0  0  0  0  0  0  0  0  0
    4.9013   -0.6427   -0.4118 C   0  0  0  0  0  0  0  0  0  0  0  0
    4.5062   -1.7436    0.5661 C   0  0  0  0  0  0  0  0  0  0  0  0
    2.9858   -1.7584    0.6147 C   0  0  0  0  0  0  0  0  0  0  0  0
    2.5822   -0.4691    1.3205 C   0  0  0  0  0  0  0  0  0  0  0  0
    1.8705    0.4104    0.3212 C   0  0  0  0  0  0  0  0  0  0  0  0
    0.3659    0.3184    0.4565 C   0  0  0  0  0  0  0  0  0  0  0  0
   -0.1486   -0.3283   -0.8236 C   0  0  0  0  0  0  0  0  0  0  0  0
   -1.6626   -0.4106   -0.6703 C   0  0  0  0  0  0  0  0  0  0  0  0
   -2.1213    0.7420    0.1979 C   0  0  0  0  0  0  0  0  0  0  0  0
   -3.2900    1.4808   -0.3958 C   0  0  0  0  0  0  0  0  0  0  0  0
   -4.1934    0.6400   -1.0295 O   0  0  0  0  0  0  0  0  0  0  0  0
   -5.4397    0.7276   -0.4366 C   0  0  0  0  0  0  0  0  0  0  0  0
   -5.7118   -0.6228    0.2137 C   0  0  0  0  0  0  0  0  0  0  0  0
   -5.9509   -0.4716    1.5794 O   0  0  0  0  0  0  0  0  0  0  0  0
  1  2  1  0
  2  3  1  0
  3  4  1  0
  4  5  1  0
  5  6  1  0
  6  7  1  0
  7  8  1  0
  8  9  1  0
  9 10  1  0
 10 11  1  0
 11 12  1  0
 12 13  1  0
 13 14  1  0
 14 15  1  0
 15 16  1  0
M  END
>  <supplier_code>  (1375) 
DB06811

>  <zinc_id>  (1375) 
ZINC000008437287

>  <catalog_short_name>  (1375) 
dbfda

$$$$

     RDKit          3D

 35 37  0  0  0  0  0  0  0  0999 V2000
   -1.7746    0.7735   -1.8312 C   0  0  0  0  0  0  0  0  0  0  0  0
   -1.6518    0.8207   -0.8118 C   0  0  0  0  0  0  0  0  0  0  0  0
   -1.8268    1.2546    0.5734 C   0  0  0  0  0  0  0  0  0  0  0  0
   -1.3396    0.0436    1.5563 C   0  0  1  0  0  0  0  0  0  0  0  0
   -2.0045   -1.1149    0.6082 C   0  0  0  0  0  0  0  0  0  0  0  0
   -3.4618   -1.0185    0.9500 C   0  0  0  0  0  0  0  0  0  0  0  0
   -3.9241   -0.5559    2.1597 C   0  0  0  0  0  0  0  0  0  0  0  0
   -5.1683   -0.0335    2.2930 N   0  0  0  0  0  0  0  0  0  0  0  0
   -5.8894    0.2731    1.1853 C   0  0  0  0  0  0  0  0  0  0  0  0
   -7.2179    0.5272    1.2643 N   0  0  0  0  0  0  0  0  0  0  0  0
   -8.0900    0.2040    0.2946 C   0  0  0  0  0  0  0  0  0  0  0  0
   -9.4349   -0.1833    0.5459 N   0  0  0  0  0  0  0  0  0  0  0  0
   -7.6086   -0.0266   -0.9514 N   0  0  0  0  0  0  0  0  0  0  0  0
   -6.2805   -0.2264   -1.1299 C   0  0  0  0  0  0  0  0  0  0  0  0
   -5.7393   -0.6886   -2.3729 N   0  0  0  0  0  0  0  0  0  0  0  0
   -5.4098   -0.1722   -0.0466 C   0  0  0  0  0  0  0  0  0  0  0  0
   -4.4080   -1.0885   -0.0189 N   0  0  0  0  0  0  0  0  0  0  0  0
    0.1078    0.0087    0.8929 C   0  0  0  0  0  0  0  0  0  0  0  0
    0.5042   -0.7934   -0.0681 C   0  0  0  0  0  0  0  0  0  0  0  0
    1.6757   -0.4070   -0.7250 C   0  0  0  0  0  0  0  0  0  0  0  0
    2.3911    0.6981   -0.2741 C   0  0  0  0  0  0  0  0  0  0  0  0
    3.7069    1.0545   -0.8211 C   0  0  0  0  0  0  0  0  0  0  0  0
    4.1719    2.1735   -0.4552 O   0  0  0  0  0  0  0  0  0  0  0  0
    4.4735    0.1102   -1.5778 N   0  0  0  0  0  0  0  0  0  0  0  0
    6.0075    0.4060   -1.3667 C   0  0  1  0  0  0  0  0  0  0  0  0
    6.1401   -0.7612   -0.2143 C   0  0  0  0  0  0  0  0  0  0  0  0
    7.5750   -0.7793    0.2048 C   0  0  0  0  0  0  0  0  0  0  0  0
    7.6141   -0.4255    1.6578 C   0  0  0  0  0  0  0  0  0  0  0  0
    7.1662   -1.2059    2.5302 O   0  0  0  0  0  0  0  0  0  0  0  0
    7.6860    0.9329    1.9535 O   0  0  0  0  0  0  0  0  0  0  0  0
    6.4490   -0.5824   -2.5608 C   0  0  0  0  0  0  0  0  0  0  0  0
    6.3842    0.0308   -3.6713 O   0  0  0  0  0  0  0  0  0  0  0  0
    5.9483   -1.8498   -2.5854 O   0  0  0  0  0  0  0  0  0  0  0  0
    2.1535    1.0362    1.0542 C   0  0  0  0  0  0  0  0  0  0  0  0
    1.0748    0.5096    1.7587 C   0  0  0  0  0  0  0  0  0  0  0  0
  1  2  3  0
  2  3  1  0
  4  3  1  6
  4  5  1  0
  5  6  1  0
  6  7  2  0
  7  8  1  0
  8  9  2  0
  9 10  1  0
 10 11  2  0
 11 12  1  0
 11 13  1  0
 13 14  2  0
 14 15  1  0
 14 16  1  0
 16 17  2  0
  4 18  1  0
 18 19  2  0
 19 20  1  0
 20 21  2  0
 21 22  1  0
 22 23  2  0
 22 24  1  0
 25 24  1  6
 25 26  1  0
 26 27  1  0
 27 28  1  0
 28 29  2  0
 28 30  1  0
 25 31  1  0
 31 32  2  0
 31 33  1  0
 21 34  1  0
 34 35  2  0
 17  6  1  0
 35 18  1  0
 16  9  1  0
M  END
>  <supplier_code>  (1376) 
DB06813

>  <zinc_id>  (1376) 
ZINC000001536109

>  <catalog_short_name>  (1376) 
dbfda

$$$$

     RDKit          3D

 35 37  0  0  0  0  0  0  0  0999 V2000
   -0.9179    1.8805    3.1463 C   0  0  0  0  0  0  0  0  0  0  0  0
   -1.3661    1.8304    2.3961 C   0  0  0  0  0  0  0  0  0  0  0  0
   -2.2856    1.7370    1.2490 C   0  0  0  0  0  0  0  0  0  0  0  0
   -1.5635    2.7258    0.1395 C   0  0  2  0  0  0  0  0  0  0  0  0
   -2.7368    2.5267   -0.9980 C   0  0  0  0  0  0  0  0  0  0  0  0
   -3.2968    1.1909   -0.8622 C   0  0  0  0  0  0  0  0  0  0  0  0
   -3.2026    0.2803   -1.9068 C   0  0  0  0  0  0  0  0  0  0  0  0
   -3.5454   -1.0021   -1.6387 N   0  0  0  0  0  0  0  0  0  0  0  0
   -4.3917   -1.2064   -0.5992 C   0  0  0  0  0  0  0  0  0  0  0  0
   -4.8647   -2.4271   -0.3303 N   0  0  0  0  0  0  0  0  0  0  0  0
   -6.0642   -2.6556    0.2401 C   0  0  0  0  0  0  0  0  0  0  0  0
   -6.6225   -3.9640    0.3719 N   0  0  0  0  0  0  0  0  0  0  0  0
   -6.6855   -1.5840    0.7780 N   0  0  0  0  0  0  0  0  0  0  0  0
   -6.1828   -0.3401    0.7024 C   0  0  0  0  0  0  0  0  0  0  0  0
   -7.0546    0.7517    0.9040 N   0  0  0  0  0  0  0  0  0  0  0  0
   -4.9412   -0.1454    0.1095 C   0  0  0  0  0  0  0  0  0  0  0  0
   -4.4468    1.0780   -0.1468 N   0  0  0  0  0  0  0  0  0  0  0  0
   -0.6208    1.5944   -0.5325 C   0  0  0  0  0  0  0  0  0  0  0  0
   -0.3892    0.4436    0.1361 C   0  0  0  0  0  0  0  0  0  0  0  0
    0.8045   -0.2583    0.0039 C   0  0  0  0  0  0  0  0  0  0  0  0
    1.9519    0.4930   -0.1743 C   0  0  0  0  0  0  0  0  0  0  0  0
    3.2328    0.0427    0.3861 C   0  0  0  0  0  0  0  0  0  0  0  0
    3.3009   -1.0547    0.9700 O   0  0  0  0  0  0  0  0  0  0  0  0
    4.2142    1.0114    0.6189 N   0  0  0  0  0  0  0  0  0  0  0  0
    5.6351    0.4811    1.0903 C   0  0  1  0  0  0  0  0  0  0  0  0
    5.7052   -0.7195   -0.0574 C   0  0  0  0  0  0  0  0  0  0  0  0
    6.3288   -1.8103    0.7983 C   0  0  0  0  0  0  0  0  0  0  0  0
    6.2915   -3.1362    0.1682 C   0  0  0  0  0  0  0  0  0  0  0  0
    5.2188   -3.7631   -0.0780 O   0  0  0  0  0  0  0  0  0  0  0  0
    7.4424   -3.9204    0.3086 O   0  0  0  0  0  0  0  0  0  0  0  0
    6.4074    1.5596    0.1451 C   0  0  0  0  0  0  0  0  0  0  0  0
    6.0360    1.5952   -1.0448 O   0  0  0  0  0  0  0  0  0  0  0  0
    6.2690    2.7887    0.8102 O   0  0  0  0  0  0  0  0  0  0  0  0
    1.8054    1.7246   -0.7562 C   0  0  0  0  0  0  0  0  0  0  0  0
    0.5351    2.2517   -0.9544 C   0  0  0  0  0  0  0  0  0  0  0  0
  1  2  3  0
  2  3  1  0
  4  3  1  1
  4  5  1  0
  5  6  1  0
  6  7  2  0
  7  8  1  0
  8  9  2  0
  9 10  1  0
 10 11  2  0
 11 12  1  0
 11 13  1  0
 13 14  2  0
 14 15  1  0
 14 16  1  0
 16 17  2  0
  4 18  1  0
 18 19  2  0
 19 20  1  0
 20 21  2  0
 21 22  1  0
 22 23  2  0
 22 24  1  0
 25 24  1  6
 25 26  1  0
 26 27  1  0
 27 28  1  0
 28 29  2  0
 28 30  1  0
 25 31  1  0
 31 32  2  0
 31 33  1  0
 21 34  1  0
 34 35  2  0
 17  6  1  0
 35 18  1  0
 16  9  1  0
M  END
>  <supplier_code>  (1377) 
DB06813

>  <zinc_id>  (1377) 
ZINC000011616925

>  <catalog_short_name>  (1377) 
dbfda

$$$$

     RDKit          3D

 32 34  0  0  0  0  0  0  0  0999 V2000
   -8.5249    2.5154   -0.3568 C   0  0  0  0  0  0  0  0  0  0  0  0
   -7.4261    1.6037    0.0569 C   0  0  0  0  0  0  0  0  0  0  0  0
   -7.4011    0.9744    1.2340 N   0  0  0  0  0  0  0  0  0  0  0  0
   -6.2293    0.3765    1.3014 N   0  0  0  0  0  0  0  0  0  0  0  0
   -5.4535    0.7740    0.2642 C   0  0  0  0  0  0  0  0  0  0  0  0
   -3.9909    0.7572    0.1605 C   0  0  0  0  0  0  0  0  0  0  0  0
   -3.3980    1.8100    0.5242 O   0  0  0  0  0  0  0  0  0  0  0  0
   -3.2265   -0.4398    0.1616 N   0  0  0  0  0  0  0  0  0  0  0  0
   -2.0615   -0.6536    0.9861 C   0  0  0  0  0  0  0  0  0  0  0  0
   -2.3586   -1.5784    2.1607 C   0  0  0  0  0  0  0  0  0  0  0  0
   -1.4892    0.6363    1.5312 C   0  0  0  0  0  0  0  0  0  0  0  0
   -0.9505   -1.3178    0.2358 C   0  0  0  0  0  0  0  0  0  0  0  0
    0.2250   -1.4403    0.8534 N   0  0  0  0  0  0  0  0  0  0  0  0
    1.3815   -1.7076    0.1982 C   0  0  0  0  0  0  0  0  0  0  0  0
    2.6276   -0.9915    0.5105 C   0  0  0  0  0  0  0  0  0  0  0  0
    3.1060   -1.1787    1.8119 O   0  0  0  0  0  0  0  0  0  0  0  0
    2.9247    0.1353   -0.0380 N   0  0  0  0  0  0  0  0  0  0  0  0
    3.2969    1.3219    0.7280 C   0  0  0  0  0  0  0  0  0  0  0  0
    4.7264    1.6748    0.5377 C   0  0  0  0  0  0  0  0  0  0  0  0
    5.6021    1.4799    1.5808 C   0  0  0  0  0  0  0  0  0  0  0  0
    6.9571    1.5176    1.3579 C   0  0  0  0  0  0  0  0  0  0  0  0
    7.3978    1.2931    0.0679 C   0  0  0  0  0  0  0  0  0  0  0  0
    8.6713    0.8551   -0.1220 F   0  0  0  0  0  0  0  0  0  0  0  0
    6.5536    1.6169   -0.9800 C   0  0  0  0  0  0  0  0  0  0  0  0
    5.2014    1.8230   -0.7417 C   0  0  0  0  0  0  0  0  0  0  0  0
    1.2232   -2.3547   -1.0210 C   0  0  0  0  0  0  0  0  0  0  0  0
    2.3484   -2.6541   -1.7940 O   0  0  0  0  0  0  0  0  0  0  0  0
   -0.0498   -2.4397   -1.5682 C   0  0  0  0  0  0  0  0  0  0  0  0
   -0.2370   -3.0424   -2.6674 O   0  0  0  0  0  0  0  0  0  0  0  0
   -1.0726   -1.7718   -1.0122 N   0  0  0  0  0  0  0  0  0  0  0  0
   -2.2085   -1.3234   -1.8035 C   0  0  0  0  0  0  0  0  0  0  0  0
   -6.1650    1.7287   -0.3112 O   0  0  0  0  0  0  0  0  0  0  0  0
  1  2  1  0
  2  3  2  0
  3  4  1  0
  4  5  2  0
  5  6  1  0
  6  7  2  0
  6  8  1  0
  8  9  1  0
  9 10  1  0
  9 11  1  0
  9 12  1  0
 12 13  2  0
 13 14  1  0
 14 15  1  0
 15 16  1  0
 15 17  2  0
 17 18  1  0
 18 19  1  0
 19 20  2  0
 20 21  1  0
 21 22  2  0
 22 23  1  0
 22 24  1  0
 24 25  2  0
 14 26  2  0
 26 27  1  0
 26 28  1  0
 28 29  2  0
 28 30  1  0
 30 31  1  0
  5 32  1  0
 32  2  1  0
 30 12  1  0
 25 19  1  0
M  END
>  <supplier_code>  (1378) 
DB06817

>  <zinc_id>  (1378) 
ZINC000013831130

>  <catalog_short_name>  (1378) 
dbfda

$$$$

     RDKit          3D

 12 12  0  0  0  0  0  0  0  0999 V2000
    3.5637    0.4917   -1.0173 O   0  0  0  0  0  0  0  0  0  0  0  0
    3.4986   -0.2464    0.0107 C   0  0  0  0  0  0  0  0  0  0  0  0
    4.4449   -1.2210    0.2315 O   0  0  0  0  0  0  0  0  0  0  0  0
    2.2466   -0.1113    0.8127 C   0  0  0  0  0  0  0  0  0  0  0  0
    1.1041   -0.4069   -0.1512 C   0  0  0  0  0  0  0  0  0  0  0  0
    0.2050    0.8130   -0.1770 C   0  0  0  0  0  0  0  0  0  0  0  0
   -1.1945    0.3080   -0.0833 C   0  0  0  0  0  0  0  0  0  0  0  0
   -2.0425    0.3057   -1.1839 C   0  0  0  0  0  0  0  0  0  0  0  0
   -3.3857    0.3952   -0.9160 C   0  0  0  0  0  0  0  0  0  0  0  0
   -3.8658    0.1525    0.3610 C   0  0  0  0  0  0  0  0  0  0  0  0
   -2.9711   -0.3440    1.2966 C   0  0  0  0  0  0  0  0  0  0  0  0
   -1.6033   -0.1364    1.1645 C   0  0  0  0  0  0  0  0  0  0  0  0
  1  2  2  0
  2  3  1  0
  2  4  1  0
  4  5  1  0
  5  6  1  0
  6  7  1  0
  7  8  2  0
  8  9  1  0
  9 10  2  0
 10 11  1  0
 11 12  2  0
 12  7  1  0
M  END
>  <supplier_code>  (1379) 
DB06819

>  <zinc_id>  (1379) 
ZINC000000056568

>  <catalog_short_name>  (1379) 
dbfda

$$$$

     RDKit          3D

 24 26  0  0  0  0  0  0  0  0999 V2000
    6.9313   -1.8294   -0.2139 Cl  0  0  0  0  0  0  0  0  0  0  0  0
    5.5982   -1.0060   -0.0107 C   0  0  0  0  0  0  0  0  0  0  0  0
    5.2537   -0.4583    1.2173 C   0  0  0  0  0  0  0  0  0  0  0  0
    4.0267    0.1480    1.4075 C   0  0  0  0  0  0  0  0  0  0  0  0
    3.1237    0.2087    0.3804 C   0  0  0  0  0  0  0  0  0  0  0  0
    1.7252    0.5653    0.6734 C   0  0  0  0  0  0  0  0  0  0  0  0
    0.5405   -0.6458    0.0535 S   0  0  0  0  0  0  0  0  0  0  0  0
   -0.9373    0.3123   -0.6914 C   0  0  2  0  0  0  0  0  0  0  0  0
   -1.0925    1.3097    0.5433 C   0  0  0  0  0  0  0  0  0  0  0  0
   -1.5089    2.5905    0.0405 N   0  0  0  0  0  0  0  0  0  0  0  0
   -1.1045    3.7950    0.4970 C   0  0  0  0  0  0  0  0  0  0  0  0
   -1.6510    4.6976   -0.4074 C   0  0  0  0  0  0  0  0  0  0  0  0
   -2.6302    4.0953   -1.1156 N   0  0  0  0  0  0  0  0  0  0  0  0
   -2.6056    2.8108   -0.7030 C   0  0  0  0  0  0  0  0  0  0  0  0
   -2.0309   -0.6933   -0.2063 C   0  0  0  0  0  0  0  0  0  0  0  0
   -2.0188   -1.1366    1.0822 C   0  0  0  0  0  0  0  0  0  0  0  0
   -3.0258   -1.9848    1.5268 C   0  0  0  0  0  0  0  0  0  0  0  0
   -3.6267   -2.8100    0.5870 C   0  0  0  0  0  0  0  0  0  0  0  0
   -4.8633   -3.8917    1.2016 Cl  0  0  0  0  0  0  0  0  0  0  0  0
   -3.5146   -2.4740   -0.7408 C   0  0  0  0  0  0  0  0  0  0  0  0
   -2.6561   -1.4651   -1.1595 C   0  0  0  0  0  0  0  0  0  0  0  0
   -2.2159   -1.3101   -2.8534 Cl  0  0  0  0  0  0  0  0  0  0  0  0
    3.5236   -0.1313   -0.8984 C   0  0  0  0  0  0  0  0  0  0  0  0
    4.7592   -0.6969   -1.0650 C   0  0  0  0  0  0  0  0  0  0  0  0
  1  2  1  0
  2  3  2  0
  3  4  1  0
  4  5  2  0
  5  6  1  0
  6  7  1  0
  8  7  1  1
  8  9  1  0
  9 10  1  0
 10 11  1  0
 11 12  2  0
 12 13  1  0
 13 14  2  0
  8 15  1  0
 15 16  2  0
 16 17  1  0
 17 18  2  0
 18 19  1  0
 18 20  1  0
 20 21  2  0
 21 22  1  0
  5 23  1  0
 23 24  2  0
 24  2  1  0
 14 10  1  0
 21 15  1  0
M  END
>  <supplier_code>  (1380) 
DB06820

>  <zinc_id>  (1380) 
ZINC000000601250

>  <catalog_short_name>  (1380) 
dbfda

$$$$

     RDKit          3D

 24 26  0  0  0  0  0  0  0  0999 V2000
    7.1349    0.5437    0.6927 Cl  0  0  0  0  0  0  0  0  0  0  0  0
    5.4895    0.2481    0.6531 C   0  0  0  0  0  0  0  0  0  0  0  0
    4.5611    1.1568    0.1988 C   0  0  0  0  0  0  0  0  0  0  0  0
    3.2824    0.7832   -0.1924 C   0  0  0  0  0  0  0  0  0  0  0  0
    2.9461   -0.5511   -0.0136 C   0  0  0  0  0  0  0  0  0  0  0  0
    1.6019   -0.9818   -0.4630 C   0  0  0  0  0  0  0  0  0  0  0  0
    0.3781   -0.4603    0.7673 S   0  0  0  0  0  0  0  0  0  0  0  0
   -1.2665   -0.4111   -0.2142 C   0  0  1  0  0  0  0  0  0  0  0  0
   -2.1444   -0.9494    1.0065 C   0  0  0  0  0  0  0  0  0  0  0  0
   -2.2213   -2.3773    0.8401 N   0  0  0  0  0  0  0  0  0  0  0  0
   -1.7057   -3.1681   -0.1281 C   0  0  0  0  0  0  0  0  0  0  0  0
   -2.5939   -4.2074   -0.3776 C   0  0  0  0  0  0  0  0  0  0  0  0
   -3.4909   -4.1695    0.6358 N   0  0  0  0  0  0  0  0  0  0  0  0
   -3.1152   -3.1714    1.4727 C   0  0  0  0  0  0  0  0  0  0  0  0
   -1.5396    1.1011    0.0947 C   0  0  0  0  0  0  0  0  0  0  0  0
   -0.5474    1.9336   -0.4088 C   0  0  0  0  0  0  0  0  0  0  0  0
   -0.8253    3.2134   -0.8041 C   0  0  0  0  0  0  0  0  0  0  0  0
   -2.0770    3.7258   -0.5179 C   0  0  0  0  0  0  0  0  0  0  0  0
   -2.4283    5.4258   -0.7696 Cl  0  0  0  0  0  0  0  0  0  0  0  0
   -3.1119    2.8364   -0.2882 C   0  0  0  0  0  0  0  0  0  0  0  0
   -2.8624    1.4853   -0.0895 C   0  0  0  0  0  0  0  0  0  0  0  0
   -4.1330    0.2953   -0.3422 Cl  0  0  0  0  0  0  0  0  0  0  0  0
    3.6778   -1.3349    0.8695 C   0  0  0  0  0  0  0  0  0  0  0  0
    4.9912   -0.9663    1.1085 C   0  0  0  0  0  0  0  0  0  0  0  0
  1  2  1  0
  2  3  2  0
  3  4  1  0
  4  5  2  0
  5  6  1  0
  6  7  1  0
  8  7  1  1
  8  9  1  0
  9 10  1  0
 10 11  1  0
 11 12  2  0
 12 13  1  0
 13 14  2  0
  8 15  1  0
 15 16  2  0
 16 17  1  0
 17 18  2  0
 18 19  1  0
 18 20  1  0
 20 21  2  0
 21 22  1  0
  5 23  1  0
 23 24  2  0
 24  2  1  0
 14 10  1  0
 21 15  1  0
M  END
>  <supplier_code>  (1381) 
DB06820

>  <zinc_id>  (1381) 
ZINC000003873371

>  <catalog_short_name>  (1381) 
dbfda

$$$$

     RDKit          3D

 10  9  0  0  0  0  0  0  0  0999 V2000
    2.4350    1.5921    0.1461 C   0  0  0  0  0  0  0  0  0  0  0  0
    2.1387    0.2621    0.9881 C   0  0  2  0  0  0  0  0  0  0  0  0
    3.5168   -0.7607    0.1220 S   0  0  0  0  0  0  0  0  0  0  0  0
    0.9790   -0.2314    0.0531 C   0  0  0  0  0  0  0  0  0  0  0  0
    1.1488   -0.2625   -1.1720 O   0  0  0  0  0  0  0  0  0  0  0  0
   -0.3304   -0.2082    0.6356 N   0  0  0  0  0  0  0  0  0  0  0  0
   -1.3468   -0.9961   -0.0311 C   0  0  0  0  0  0  0  0  0  0  0  0
   -2.5685   -0.1460   -0.1609 C   0  0  0  0  0  0  0  0  0  0  0  0
   -2.8985    0.5685    0.8297 O   0  0  0  0  0  0  0  0  0  0  0  0
   -3.0742    0.1822   -1.4106 O   0  0  0  0  0  0  0  0  0  0  0  0
  2  1  1  6
  2  3  1  0
  2  4  1  0
  4  5  2  0
  4  6  1  0
  6  7  1  0
  7  8  1  0
  8  9  2  0
  8 10  1  0
M  END
>  <supplier_code>  (1382) 
DB06823

>  <zinc_id>  (1382) 
ZINC000000155905

>  <catalog_short_name>  (1382) 
dbfda

$$$$

     RDKit          3D

 10  9  0  0  0  0  0  0  0  0999 V2000
    3.4529   -0.0729   -0.3351 C   0  0  0  0  0  0  0  0  0  0  0  0
    2.2273   -0.6629    0.4881 C   0  0  1  0  0  0  0  0  0  0  0  0
    2.0698    0.8599    1.6349 S   0  0  0  0  0  0  0  0  0  0  0  0
    1.0805   -0.2171   -0.4637 C   0  0  0  0  0  0  0  0  0  0  0  0
    1.2619    0.1682   -1.6105 O   0  0  0  0  0  0  0  0  0  0  0  0
   -0.2033   -0.4856    0.0665 N   0  0  0  0  0  0  0  0  0  0  0  0
   -1.3885   -0.3525   -0.7383 C   0  0  0  0  0  0  0  0  0  0  0  0
   -2.5207    0.1539    0.0853 C   0  0  0  0  0  0  0  0  0  0  0  0
   -3.0498    1.2275   -0.2768 O   0  0  0  0  0  0  0  0  0  0  0  0
   -2.9301   -0.6184    1.1495 O   0  0  0  0  0  0  0  0  0  0  0  0
  2  1  1  6
  2  3  1  0
  2  4  1  0
  4  5  2  0
  4  6  1  0
  6  7  1  0
  7  8  1  0
  8  9  2  0
  8 10  1  0
M  END
>  <supplier_code>  (1383) 
DB06823

>  <zinc_id>  (1383) 
ZINC000003831551

>  <catalog_short_name>  (1383) 
dbfda

$$$$

     RDKit          3D

 10  9  0  0  0  0  0  0  0  0999 V2000
   -4.0040    0.9847    0.8380 N   0  0  0  0  0  0  0  0  0  0  0  0
   -3.5892   -0.1329   -0.0077 C   0  0  0  0  0  0  0  0  0  0  0  0
   -2.3150    0.3364   -0.7001 C   0  0  0  0  0  0  0  0  0  0  0  0
   -1.2492    0.2701    0.2935 N   0  0  0  0  0  0  0  0  0  0  0  0
   -0.6945   -1.0745    0.2367 C   0  0  0  0  0  0  0  0  0  0  0  0
    0.6562   -0.9685   -0.4597 C   0  0  0  0  0  0  0  0  0  0  0  0
    1.5760   -0.4463    0.5498 N   0  0  0  0  0  0  0  0  0  0  0  0
    2.9438   -0.7922    0.2501 C   0  0  0  0  0  0  0  0  0  0  0  0
    3.6850    0.2803   -0.4897 C   0  0  0  0  0  0  0  0  0  0  0  0
    2.9909    1.5429   -0.5370 N   0  0  0  0  0  0  0  0  0  0  0  0
  1  2  1  0
  2  3  1  0
  3  4  1  0
  4  5  1  0
  5  6  1  0
  6  7  1  0
  7  8  1  0
  8  9  1  0
  9 10  1  0
M  END
>  <supplier_code>  (1384) 
DB06824

>  <zinc_id>  (1384) 
ZINC000019364225

>  <catalog_short_name>  (1384) 
dbfda

$$$$

     RDKit          3D

 27 27  0  0  0  0  0  0  0  0999 V2000
    7.8470    1.1785   -0.5288 C   0  0  0  0  0  0  0  0  0  0  0  0
    8.3783    1.0406   -0.6367 C   0  0  0  0  0  0  0  0  0  0  0  0
    7.5845    0.1032   -0.0851 C   0  0  0  0  0  0  0  0  0  0  0  0
    6.4246   -0.5684   -0.0065 C   0  0  0  0  0  0  0  0  0  0  0  0
    5.2242    0.0374   -0.0384 C   0  0  0  0  0  0  0  0  0  0  0  0
    4.1031    0.5948   -0.1752 C   0  0  0  0  0  0  0  0  0  0  0  0
    3.2068    1.2065   -1.1226 C   0  0  0  0  0  0  0  0  0  0  0  0
    1.8479    0.8198   -0.5937 C   0  0  0  0  0  0  0  0  0  0  0  0
    1.1131    1.5694   -0.0153 O   0  0  0  0  0  0  0  0  0  0  0  0
    1.9785   -0.4885    0.0075 C   0  0  0  0  0  0  0  0  0  0  0  0
    1.1256   -1.4525   -0.2810 C   0  0  0  0  0  0  0  0  0  0  0  0
   -0.2369   -0.5993   -0.4838 C   0  0  1  0  0  0  0  0  0  0  0  0
   -1.0387   -2.0043   -1.0345 C   0  0  2  0  0  0  0  0  0  0  0  0
   -1.3423   -2.6703    0.3990 O   0  0  0  0  0  0  0  0  0  0  0  0
    0.0661   -2.9310   -0.8896 C   0  0  0  0  0  0  0  0  0  0  0  0
   -1.4309   -2.4734   -0.2622 C   0  0  2  0  0  0  0  0  0  0  0  0
   -1.9679   -1.5252   -1.3485 O   0  0  0  0  0  0  0  0  0  0  0  0
   -0.8457   -1.2780    0.8546 C   0  0  2  0  0  0  0  0  0  0  0  0
   -2.1977   -0.4189    0.7414 C   0  0  0  0  0  0  0  0  0  0  0  0
   -3.2373   -0.9236    1.6020 C   0  0  0  0  0  0  0  0  0  0  0  0
   -4.4649   -1.2840    1.2249 C   0  0  0  0  0  0  0  0  0  0  0  0
   -4.9369   -0.7146   -0.0369 C   0  0  0  0  0  0  0  0  0  0  0  0
   -5.3920    0.6092   -0.0538 C   0  0  0  0  0  0  0  0  0  0  0  0
   -4.7394    1.8229   -0.3398 C   0  0  0  0  0  0  0  0  0  0  0  0
   -5.3874    3.0824   -0.0588 C   0  0  0  0  0  0  0  0  0  0  0  0
   -4.9038    4.2275   -0.0110 O   0  0  0  0  0  0  0  0  0  0  0  0
   -6.7781    3.0397    0.0322 O   0  0  0  0  0  0  0  0  0  0  0  0
  1  2  1  0
  2  3  1  0
  3  4  1  0
  4  5  1  0
  5  6  1  0
  6  7  1  0
  7  8  1  0
  8  9  2  0
  8 10  1  0
 10 11  1  0
 12 11  1  1
 12 13  1  0
 13 14  1  1
 13 15  1  0
 15 16  1  0
 16 17  1  6
 16 18  1  0
 18 19  1  6
 19 20  1  0
 20 21  2  0
 21 22  1  0
 22 23  1  0
 23 24  1  0
 24 25  1  0
 25 26  2  0
 25 27  1  0
 18 12  1  0
M  END
>  <supplier_code>  (1385) 
DB06826

>  <zinc_id>  (1385) 
ZINC000008214703

>  <catalog_short_name>  (1385) 
dbfda

$$$$

     RDKit          3D

 17 18  0  0  0  0  0  0  0  0999 V2000
    1.3951   -1.8130   -1.9001 O   0  0  0  0  0  0  0  0  0  0  0  0
    1.6165   -0.7987   -0.9676 C   0  0  0  0  0  0  0  0  0  0  0  0
    2.5293    0.2268   -1.1822 C   0  0  0  0  0  0  0  0  0  0  0  0
    2.9943    1.0135   -0.1341 C   0  0  0  0  0  0  0  0  0  0  0  0
    3.4892    2.6767   -0.3497 Cl  0  0  0  0  0  0  0  0  0  0  0  0
    2.9949    0.3922    1.1099 C   0  0  0  0  0  0  0  0  0  0  0  0
    1.9799   -0.5165    1.3883 C   0  0  0  0  0  0  0  0  0  0  0  0
    1.2314   -1.0484    0.3437 C   0  0  0  0  0  0  0  0  0  0  0  0
   -0.0201   -1.6173    0.5287 O   0  0  0  0  0  0  0  0  0  0  0  0
   -1.1965   -1.0110    0.1311 C   0  0  0  0  0  0  0  0  0  0  0  0
   -1.3525   -0.5229   -1.1598 C   0  0  0  0  0  0  0  0  0  0  0  0
   -2.2564    0.4958   -1.4383 C   0  0  0  0  0  0  0  0  0  0  0  0
   -2.8328    1.1742   -0.3817 C   0  0  0  0  0  0  0  0  0  0  0  0
   -3.3511    2.8490   -0.5039 Cl  0  0  0  0  0  0  0  0  0  0  0  0
   -2.9052    0.5322    0.8450 C   0  0  0  0  0  0  0  0  0  0  0  0
   -2.0869   -0.5585    1.0875 C   0  0  0  0  0  0  0  0  0  0  0  0
   -2.2291   -1.4743    2.5832 Cl  0  0  0  0  0  0  0  0  0  0  0  0
  1  2  1  0
  2  3  2  0
  3  4  1  0
  4  5  1  0
  4  6  2  0
  6  7  1  0
  7  8  2  0
  8  9  1  0
  9 10  1  0
 10 11  2  0
 11 12  1  0
 12 13  2  0
 13 14  1  0
 13 15  1  0
 15 16  2  0
 16 17  1  0
  8  2  1  0
 16 10  1  0
M  END
>  <supplier_code>  (1386) 
DB08604

>  <zinc_id>  (1386) 
ZINC000000002216

>  <catalog_short_name>  (1386) 
dbfda

$$$$

     RDKit          3D

 10 10  0  0  0  0  0  0  0  0999 V2000
    2.1354    0.2718    1.1874 N   0  0  0  0  0  0  0  0  0  0  0  0
    1.7127   -0.2488   -0.0751 C   0  0  0  0  0  0  0  0  0  0  0  0
    2.3799   -1.1868   -0.5562 O   0  0  0  0  0  0  0  0  0  0  0  0
    0.2846   -0.1995   -0.4144 C   0  0  0  0  0  0  0  0  0  0  0  0
   -0.4904   -1.3488   -0.3057 C   0  0  0  0  0  0  0  0  0  0  0  0
   -1.7683   -1.3282    0.2205 C   0  0  0  0  0  0  0  0  0  0  0  0
   -2.3371   -0.1177    0.5908 C   0  0  0  0  0  0  0  0  0  0  0  0
   -1.7842    1.0097   -0.0059 C   0  0  0  0  0  0  0  0  0  0  0  0
   -0.4347    0.9870   -0.3160 C   0  0  0  0  0  0  0  0  0  0  0  0
    0.3021    2.1613   -0.3255 O   0  0  0  0  0  0  0  0  0  0  0  0
  1  2  1  0
  2  3  2  0
  2  4  1  0
  4  5  2  0
  5  6  1  0
  6  7  2  0
  7  8  1  0
  8  9  2  0
  9 10  1  0
  9  4  1  0
M  END
>  <supplier_code>  (1387) 
DB08797

>  <zinc_id>  (1387) 
ZINC000000002055

>  <catalog_short_name>  (1387) 
dbfda

$$$$

     RDKit          3D

 31 34  0  0  0  0  0  0  0  0999 V2000
    6.7810    2.2018   -0.2016 C   0  0  0  0  0  0  0  0  0  0  0  0
    7.6618    2.0710   -0.0035 C   0  0  0  0  0  0  0  0  0  0  0  0
    8.5270    0.9010   -0.4122 C   0  0  0  0  0  0  0  0  0  0  0  0
    7.9927   -0.3641    0.2493 C   0  0  0  0  0  0  0  0  0  0  0  0
    7.2730   -1.1865   -0.7860 C   0  0  0  0  0  0  0  0  0  0  0  0
    6.2789   -2.0756   -0.0946 C   0  0  0  0  0  0  0  0  0  0  0  0
    5.2784   -1.1957    0.6020 C   0  0  0  0  0  0  0  0  0  0  0  0
    4.3203   -2.1268    1.3216 C   0  0  0  0  0  0  0  0  0  0  0  0
    3.4533   -2.7450    0.2481 C   0  0  0  0  0  0  0  0  0  0  0  0
    2.4787   -1.7287   -0.2264 C   0  0  0  0  0  0  0  0  0  0  0  0
    2.8035   -0.9428   -1.1592 O   0  0  0  0  0  0  0  0  0  0  0  0
    1.3191   -1.3927    0.4769 O   0  0  0  0  0  0  0  0  0  0  0  0
    0.1544   -1.4137   -0.5382 C   0  0  1  0  0  0  0  0  0  0  0  0
   -0.4557   -2.8124    0.0902 C   0  0  0  0  0  0  0  0  0  0  0  0
   -1.8875   -2.4989    0.3487 C   0  0  0  0  0  0  0  0  0  0  0  0
   -2.0126   -1.0959   -0.4353 C   0  0  1  0  0  0  0  0  0  0  0  0
   -3.1228   -0.4396    0.6498 C   0  0  2  0  0  0  0  0  0  0  0  0
   -4.3541   -1.2268   -0.0206 C   0  0  0  0  0  0  0  0  0  0  0  0
   -5.6195   -0.5060    0.3275 C   0  0  0  0  0  0  0  0  0  0  0  0
   -5.6000    0.9219   -0.0948 C   0  0  0  0  0  0  0  0  0  0  0  0
   -6.1774    1.3568   -1.1242 C   0  0  0  0  0  0  0  0  0  0  0  0
   -6.3297    2.7854   -1.3038 C   0  0  0  0  0  0  0  0  0  0  0  0
   -6.9404    3.3461   -2.1945 O   0  0  0  0  0  0  0  0  0  0  0  0
   -5.5916    3.6178   -0.3022 C   0  0  0  0  0  0  0  0  0  0  0  0
   -4.2603    2.9662   -0.2861 C   0  0  0  0  0  0  0  0  0  0  0  0
   -4.3650    1.6217    0.6253 C   0  0  2  0  0  0  0  0  0  0  0  0
   -3.2618    0.8556   -0.4009 C   0  0  1  0  0  0  0  0  0  0  0  0
   -2.0296    1.6712    0.2284 C   0  0  0  0  0  0  0  0  0  0  0  0
   -0.7684    0.8904    0.0287 C   0  0  0  0  0  0  0  0  0  0  0  0
   -0.7839   -0.4899    0.4305 C   0  0  2  0  0  0  0  0  0  0  0  0
   -0.7619   -0.9660    1.7729 C   0  0  0  0  0  0  0  0  0  0  0  0
  1  2  1  0
  2  3  1  0
  3  4  1  0
  4  5  1  0
  5  6  1  0
  6  7  1  0
  7  8  1  0
  8  9  1  0
  9 10  1  0
 10 11  2  0
 10 12  1  0
 13 12  1  1
 13 14  1  0
 14 15  1  0
 16 15  1  1
 16 17  1  0
 17 18  1  6
 18 19  1  0
 19 20  1  0
 20 21  2  0
 21 22  1  0
 22 23  2  0
 22 24  1  0
 24 25  1  0
 26 25  1  6
 26 27  1  0
 27 28  1  1
 28 29  1  0
 29 30  1  0
 30 31  1  1
 30 13  1  0
 30 16  1  0
 27 17  1  0
 26 20  1  0
M  END
>  <supplier_code>  (1388) 
DB08804

>  <zinc_id>  (1388) 
ZINC000008214619

>  <catalog_short_name>  (1388) 
dbfda

$$$$

     RDKit          3D

 35 41  0  0  0  0  0  0  0  0999 V2000
   -4.0147    0.4948    1.4742 O   0  0  0  0  0  0  0  0  0  0  0  0
   -4.2715    0.6702    0.9003 C   0  0  0  0  0  0  0  0  0  0  0  0
   -5.8450    0.3509    1.0097 C   0  0  2  0  0  0  0  0  0  0  0  0
   -5.7616   -0.8288   -0.2716 C   0  0  1  0  0  0  0  0  0  0  0  0
   -4.6974   -1.9552    0.1743 C   0  0  0  0  0  0  0  0  0  0  0  0
   -5.0644   -1.6331   -1.3392 C   0  0  0  0  0  0  0  0  0  0  0  0
   -5.6127   -0.8357   -0.0763 C   0  0  2  0  0  0  0  0  0  0  0  0
   -7.0326   -1.5653    0.1268 C   0  0  0  0  0  0  0  0  0  0  0  0
   -6.2606    0.6722   -0.6215 C   0  0  2  0  0  0  0  0  0  0  0  0
   -4.8520    1.3072   -1.0408 C   0  0  0  0  0  0  0  0  0  0  0  0
   -4.9358    2.0115   -2.0907 O   0  0  0  0  0  0  0  0  0  0  0  0
   -3.8738    0.5639   -0.4277 N   0  0  0  0  0  0  0  0  0  0  0  0
   -2.4958    0.7413   -0.8297 C   0  0  0  0  0  0  0  0  0  0  0  0
   -1.5780   -0.1038    0.2008 C   0  0  2  0  0  0  0  0  0  0  0  0
   -1.4176    1.0823    1.2841 C   0  0  0  0  0  0  0  0  0  0  0  0
   -1.4409    2.4012    0.6992 C   0  0  0  0  0  0  0  0  0  0  0  0
   -0.4137    2.6359   -0.3416 C   0  0  0  0  0  0  0  0  0  0  0  0
   -0.4181    1.5631   -1.3295 C   0  0  0  0  0  0  0  0  0  0  0  0
   -0.1274    0.1088   -0.6747 C   0  0  1  0  0  0  0  0  0  0  0  0
    0.7559    0.7358    0.5140 C   0  0  0  0  0  0  0  0  0  0  0  0
    0.9881   -0.1057    1.5744 N   0  0  0  0  0  0  0  0  0  0  0  0
    2.2372    0.4624    2.1112 C   0  0  0  0  0  0  0  0  0  0  0  0
    3.0758    0.7671    0.8692 C   0  0  0  0  0  0  0  0  0  0  0  0
    3.1247   -0.4995    0.1335 N   0  0  0  0  0  0  0  0  0  0  0  0
    4.3449   -0.6986   -0.6019 C   0  0  0  0  0  0  0  0  0  0  0  0
    4.3101   -1.2434   -1.8433 N   0  0  0  0  0  0  0  0  0  0  0  0
    5.8649   -0.8762   -2.4113 S   0  0  0  0  0  0  0  0  0  0  0  0
    6.6017   -0.5018   -0.9091 C   0  0  0  0  0  0  0  0  0  0  0  0
    7.8775   -0.1412   -0.5204 C   0  0  0  0  0  0  0  0  0  0  0  0
    8.2160   -0.2625    0.8220 C   0  0  0  0  0  0  0  0  0  0  0  0
    7.2264   -0.6747    1.7065 C   0  0  0  0  0  0  0  0  0  0  0  0
    5.8991   -0.6783    1.3228 C   0  0  0  0  0  0  0  0  0  0  0  0
    5.5976   -0.8474   -0.0270 C   0  0  0  0  0  0  0  0  0  0  0  0
    2.7336   -1.6312    0.9759 C   0  0  0  0  0  0  0  0  0  0  0  0
    1.2601   -1.4861    1.3370 C   0  0  0  0  0  0  0  0  0  0  0  0
  1  2  2  0
  3  2  1  6
  3  4  1  0
  4  5  1  1
  5  6  1  0
  7  6  1  6
  7  8  1  0
  7  9  1  0
  9 10  1  6
 10 11  2  0
 10 12  1  0
 12 13  1  0
 14 13  1  6
 14 15  1  0
 15 16  1  0
 16 17  1  0
 17 18  1  0
 18 19  1  0
 19 20  1  1
 20 21  1  0
 21 22  1  0
 22 23  1  0
 23 24  1  0
 24 25  1  0
 25 26  2  0
 26 27  1  0
 27 28  1  0
 28 29  2  0
 29 30  1  0
 30 31  2  0
 31 32  1  0
 32 33  2  0
 24 34  1  0
 34 35  1  0
 12  2  1  0
 19 14  1  0
 35 21  1  0
  9  3  1  0
 33 25  1  0
  8  4  1  0
 33 28  1  0
M  END
>  <supplier_code>  (1389) 
DB08815

>  <zinc_id>  (1389) 
ZINC000003927822

>  <catalog_short_name>  (1389) 
dbfda

$$$$

     RDKit          3D

 36 40  0  0  0  0  0  0  0  0999 V2000
   -2.7784   -0.7652   -2.1030 C   0  0  0  0  0  0  0  0  0  0  0  0
   -2.8574   -0.5019   -2.7325 C   0  0  0  0  0  0  0  0  0  0  0  0
   -2.0973    0.2713   -3.7635 C   0  0  0  0  0  0  0  0  0  0  0  0
   -1.3076    1.7518   -3.1985 S   0  0  0  0  0  0  0  0  0  0  0  0
   -0.4536    1.5820   -1.6311 C   0  0  0  0  0  0  0  0  0  0  0  0
   -1.0913    1.8490   -0.4599 N   0  0  0  0  0  0  0  0  0  0  0  0
   -0.9781    1.0482    0.6290 C   0  0  0  0  0  0  0  0  0  0  0  0
    0.2721    0.4395    0.6974 C   0  0  0  0  0  0  0  0  0  0  0  0
    0.2939   -0.0460    1.9565 N   0  0  0  0  0  0  0  0  0  0  0  0
   -0.9809   -0.1473    2.3386 N   0  0  0  0  0  0  0  0  0  0  0  0
   -1.7784    0.6143    1.6428 N   0  0  0  0  0  0  0  0  0  0  0  0
   -3.1763    0.1374    1.0798 C   0  0  2  0  0  0  0  0  0  0  0  0
   -4.0831    0.9478    2.1987 C   0  0  0  0  0  0  0  0  0  0  0  0
   -5.2339    0.3233    1.1928 C   0  0  2  0  0  0  0  0  0  0  0  0
   -6.3586    0.5635    2.2000 O   0  0  0  0  0  0  0  0  0  0  0  0
   -7.2459   -0.4490    1.8188 C   0  0  0  0  0  0  0  0  0  0  0  0
   -8.1591   -0.0352    0.7033 C   0  0  0  0  0  0  0  0  0  0  0  0
   -7.5902   -0.1739   -0.5563 O   0  0  0  0  0  0  0  0  0  0  0  0
   -5.0245   -1.3148    1.7078 C   0  0  1  0  0  0  0  0  0  0  0  0
   -4.7004   -1.6791    0.2727 O   0  0  0  0  0  0  0  0  0  0  0  0
   -3.3948   -1.1372    2.2109 C   0  0  1  0  0  0  0  0  0  0  0  0
   -2.7988   -2.1884    1.2932 O   0  0  0  0  0  0  0  0  0  0  0  0
    0.9561    0.0774   -0.4642 C   0  0  0  0  0  0  0  0  0  0  0  0
    1.8855   -0.9269   -0.5245 N   0  0  0  0  0  0  0  0  0  0  0  0
    3.1748   -0.9002    0.4310 C   0  0  2  0  0  0  0  0  0  0  0  0
    3.1954    0.8306    0.6219 C   0  0  0  0  0  0  0  0  0  0  0  0
    4.0800    0.0916   -0.6792 C   0  0  1  0  0  0  0  0  0  0  0  0
    5.4791   -0.0054    0.1732 C   0  0  0  0  0  0  0  0  0  0  0  0
    5.9439   -1.3116    0.2912 C   0  0  0  0  0  0  0  0  0  0  0  0
    7.2028   -1.6881   -0.1659 C   0  0  0  0  0  0  0  0  0  0  0  0
    7.9400   -0.8399   -0.9814 C   0  0  0  0  0  0  0  0  0  0  0  0
    8.4554   -1.2546   -2.1787 F   0  0  0  0  0  0  0  0  0  0  0  0
    7.6716    0.5091   -0.7696 C   0  0  0  0  0  0  0  0  0  0  0  0
    8.5633    1.3649   -1.3322 F   0  0  0  0  0  0  0  0  0  0  0  0
    6.4223    0.9029   -0.3051 C   0  0  0  0  0  0  0  0  0  0  0  0
    0.5525    0.6734   -1.6138 N   0  0  0  0  0  0  0  0  0  0  0  0
  1  2  1  0
  2  3  1  0
  3  4  1  0
  4  5  1  0
  5  6  2  0
  6  7  1  0
  7  8  2  0
  8  9  1  0
  9 10  2  0
 10 11  1  0
 12 11  1  1
 12 13  1  0
 13 14  1  0
 14 15  1  1
 15 16  1  0
 16 17  1  0
 17 18  1  0
 14 19  1  0
 19 20  1  6
 19 21  1  0
 21 22  1  6
  8 23  1  0
 23 24  1  0
 25 24  1  6
 25 26  1  0
 26 27  1  0
 27 28  1  1
 28 29  2  0
 29 30  1  0
 30 31  2  0
 31 32  1  0
 31 33  1  0
 33 34  1  0
 33 35  2  0
 23 36  2  0
 36  5  1  0
 11  7  1  0
 21 12  1  0
 27 25  1  0
 35 28  1  0
M  END
>  <supplier_code>  (1390) 
DB08816

>  <zinc_id>  (1390) 
ZINC000028957444

>  <catalog_short_name>  (1390) 
dbfda

$$$$

     RDKit          3D

 32 33  0  0  0  0  0  0  0  0999 V2000
    8.4270    1.6321   -0.9363 C   0  0  0  0  0  0  0  0  0  0  0  0
    8.3803    1.3763   -0.4435 C   0  0  0  0  0  0  0  0  0  0  0  0
    8.0866    2.4362    0.6147 C   0  0  0  0  0  0  0  0  0  0  0  0
    7.3600    0.3804   -0.4875 O   0  0  0  0  0  0  0  0  0  0  0  0
    6.0221    0.6870   -0.4600 C   0  0  0  0  0  0  0  0  0  0  0  0
    5.6949    1.8929   -0.6428 O   0  0  0  0  0  0  0  0  0  0  0  0
    4.9902   -0.3569   -0.3179 C   0  0  0  0  0  0  0  0  0  0  0  0
    3.6607    0.0594   -0.9129 C   0  0  0  0  0  0  0  0  0  0  0  0
    3.0958    1.1405   -0.0379 C   0  0  0  0  0  0  0  0  0  0  0  0
    2.3546    0.6413    1.1361 C   0  0  0  0  0  0  0  0  0  0  0  0
    2.1526   -0.6612    1.3539 C   0  0  0  0  0  0  0  0  0  0  0  0
    1.9072   -1.4787    0.1364 C   0  0  0  0  0  0  0  0  0  0  0  0
    0.3697   -1.0584   -0.1871 C   0  0  2  0  0  0  0  0  0  0  0  0
   -0.3999   -1.9575    0.9710 C   0  0  1  0  0  0  0  0  0  0  0  0
   -1.8524   -1.7142    0.3363 C   0  0  0  0  0  0  0  0  0  0  0  0
   -2.1610   -0.4518    0.1287 C   0  0  0  0  0  0  0  0  0  0  0  0
   -3.3815    0.0060   -0.6219 C   0  0  0  0  0  0  0  0  0  0  0  0
   -3.3510    1.3630   -0.5255 F   0  0  0  0  0  0  0  0  0  0  0  0
   -3.2755   -0.3408   -1.9689 F   0  0  0  0  0  0  0  0  0  0  0  0
   -4.4494   -0.7550   -0.0499 C   0  0  0  0  0  0  0  0  0  0  0  0
   -5.6742   -0.3898    0.2595 O   0  0  0  0  0  0  0  0  0  0  0  0
   -6.2817    0.7486    0.7131 C   0  0  0  0  0  0  0  0  0  0  0  0
   -7.2777    1.2512   -0.1215 C   0  0  0  0  0  0  0  0  0  0  0  0
   -7.7134    2.5322    0.1101 C   0  0  0  0  0  0  0  0  0  0  0  0
   -6.7873    3.4238    0.6381 C   0  0  0  0  0  0  0  0  0  0  0  0
   -5.9119    2.9175    1.5846 C   0  0  0  0  0  0  0  0  0  0  0  0
   -5.6122    1.5605    1.5954 C   0  0  0  0  0  0  0  0  0  0  0  0
   -0.2966   -3.5344    0.3766 C   0  0  2  0  0  0  0  0  0  0  0  0
    1.2043   -3.6226    0.1948 O   0  0  0  0  0  0  0  0  0  0  0  0
   -0.7621   -3.1503   -1.1012 C   0  0  0  0  0  0  0  0  0  0  0  0
    0.0830   -1.9090   -1.6184 C   0  0  2  0  0  0  0  0  0  0  0  0
    1.3987   -2.6684   -1.7273 O   0  0  0  0  0  0  0  0  0  0  0  0
  1  2  1  0
  2  3  1  0
  2  4  1  0
  4  5  1  0
  5  6  2  0
  5  7  1  0
  7  8  1  0
  8  9  1  0
  9 10  1  0
 10 11  2  0
 11 12  1  0
 13 12  1  1
 13 14  1  0
 14 15  1  6
 15 16  2  0
 16 17  1  0
 17 18  1  0
 17 19  1  0
 17 20  1  0
 20 21  1  0
 21 22  1  0
 22 23  2  0
 23 24  1  0
 24 25  2  0
 25 26  1  0
 26 27  2  0
 14 28  1  0
 28 29  1  6
 28 30  1  0
 30 31  1  0
 31 32  1  1
 31 13  1  0
 27 22  1  0
M  END
>  <supplier_code>  (1391) 
DB08819

>  <zinc_id>  (1391) 
ZINC000013912394

>  <catalog_short_name>  (1391) 
dbfda

$$$$

     RDKit          3D

 29 31  0  0  0  0  0  0  0  0999 V2000
   -5.6107    0.3172   -1.6997 C   0  0  0  0  0  0  0  0  0  0  0  0
   -5.3609   -0.2103   -0.2921 C   0  0  0  0  0  0  0  0  0  0  0  0
   -5.5628   -1.7146   -0.3643 C   0  0  0  0  0  0  0  0  0  0  0  0
   -6.3152    0.4522    0.6630 C   0  0  0  0  0  0  0  0  0  0  0  0
   -3.9502    0.0676    0.1188 C   0  0  0  0  0  0  0  0  0  0  0  0
   -3.1287    0.8744   -0.6457 C   0  0  0  0  0  0  0  0  0  0  0  0
   -1.7886    1.0074   -0.3024 C   0  0  0  0  0  0  0  0  0  0  0  0
   -1.0462    2.2737   -0.5429 C   0  0  0  0  0  0  0  0  0  0  0  0
    0.3715    2.0317   -1.0009 C   0  0  0  0  0  0  0  0  0  0  0  0
   -1.1018    3.1908    0.6707 C   0  0  0  0  0  0  0  0  0  0  0  0
   -1.7620    2.9867   -1.6843 C   0  0  0  0  0  0  0  0  0  0  0  0
   -1.2846    0.0453    0.5646 C   0  0  0  0  0  0  0  0  0  0  0  0
    0.1148   -0.1271    0.5804 N   0  0  0  0  0  0  0  0  0  0  0  0
    0.7133   -1.4207    0.4433 C   0  0  0  0  0  0  0  0  0  0  0  0
    0.0482   -2.2714   -0.2210 O   0  0  0  0  0  0  0  0  0  0  0  0
    2.1700   -1.5918    0.5235 C   0  0  0  0  0  0  0  0  0  0  0  0
    2.8447   -2.5083   -0.2744 C   0  0  0  0  0  0  0  0  0  0  0  0
    4.0998   -2.2499   -0.7167 N   0  0  0  0  0  0  0  0  0  0  0  0
    4.6858   -1.0425   -0.5257 C   0  0  0  0  0  0  0  0  0  0  0  0
    5.4009   -0.4152   -1.5387 C   0  0  0  0  0  0  0  0  0  0  0  0
    6.0325    0.7742   -1.1979 C   0  0  0  0  0  0  0  0  0  0  0  0
    5.9601    1.2610    0.1010 C   0  0  0  0  0  0  0  0  0  0  0  0
    4.8623    0.8587    0.8480 C   0  0  0  0  0  0  0  0  0  0  0  0
    4.2344   -0.3540    0.5943 C   0  0  0  0  0  0  0  0  0  0  0  0
    2.9369   -0.5586    1.0513 C   0  0  0  0  0  0  0  0  0  0  0  0
    2.4330    0.1596    1.9586 O   0  0  0  0  0  0  0  0  0  0  0  0
   -2.1269   -0.6418    1.4301 C   0  0  0  0  0  0  0  0  0  0  0  0
   -3.5049   -0.5569    1.2771 C   0  0  0  0  0  0  0  0  0  0  0  0
   -4.3646   -0.6374    2.3761 O   0  0  0  0  0  0  0  0  0  0  0  0
  1  2  1  0
  2  3  1  0
  2  4  1  0
  2  5  1  0
  5  6  2  0
  6  7  1  0
  7  8  1  0
  8  9  1  0
  8 10  1  0
  8 11  1  0
  7 12  2  0
 12 13  1  0
 13 14  1  0
 14 15  2  0
 14 16  1  0
 16 17  2  0
 17 18  1  0
 18 19  1  0
 19 20  2  0
 20 21  1  0
 21 22  2  0
 22 23  1  0
 23 24  2  0
 24 25  1  0
 25 26  2  0
 12 27  1  0
 27 28  2  0
 28 29  1  0
 28  5  1  0
 25 16  1  0
 24 19  1  0
M  END
>  <supplier_code>  (1392) 
DB08820

>  <zinc_id>  (1392) 
ZINC000052509463

>  <catalog_short_name>  (1392) 
dbfda

$$$$

     RDKit          3D

 42 47  0  0  0  0  0  0  0  0999 V2000
   -0.6628    5.5486    0.6007 C   0  0  0  0  0  0  0  0  0  0  0  0
   -0.6087    4.5716    1.7424 C   0  0  0  0  0  0  0  0  0  0  0  0
   -0.5068    3.2440    1.2672 O   0  0  0  0  0  0  0  0  0  0  0  0
    0.6022    2.9246    0.5074 C   0  0  0  0  0  0  0  0  0  0  0  0
    1.4163    3.7715   -0.1656 N   0  0  0  0  0  0  0  0  0  0  0  0
    2.5605    3.1397   -0.4517 C   0  0  0  0  0  0  0  0  0  0  0  0
    3.8433    3.6059   -0.6898 C   0  0  0  0  0  0  0  0  0  0  0  0
    4.8288    2.6728   -0.9460 C   0  0  0  0  0  0  0  0  0  0  0  0
    4.6672    1.4294   -0.3991 C   0  0  0  0  0  0  0  0  0  0  0  0
    3.3891    0.9065   -0.2442 C   0  0  0  0  0  0  0  0  0  0  0  0
    3.1464   -0.5197   -0.0462 C   0  0  0  0  0  0  0  0  0  0  0  0
    3.0583   -0.9404    1.1449 O   0  0  0  0  0  0  0  0  0  0  0  0
    3.7312   -1.4100   -0.9519 O   0  0  0  0  0  0  0  0  0  0  0  0
    4.1951   -2.6967   -0.5486 C   0  0  0  0  0  0  0  0  0  0  0  0
    5.6477   -2.5315   -0.2322 C   0  0  0  0  0  0  0  0  0  0  0  0
    6.6472   -2.3147   -1.0659 O   0  0  0  0  0  0  0  0  0  0  0  0
    7.7032   -1.8854   -0.3960 C   0  0  0  0  0  0  0  0  0  0  0  0
    8.8809   -1.8260   -0.8621 O   0  0  0  0  0  0  0  0  0  0  0  0
    7.3258   -1.8037    0.8683 O   0  0  0  0  0  0  0  0  0  0  0  0
    6.1812   -2.4115    1.0440 C   0  0  0  0  0  0  0  0  0  0  0  0
    5.6965   -3.1999    2.2204 C   0  0  0  0  0  0  0  0  0  0  0  0
    2.3153    1.7881   -0.2505 C   0  0  0  0  0  0  0  0  0  0  0  0
    1.0113    1.6951    0.1084 N   0  0  0  0  0  0  0  0  0  0  0  0
    0.3729    0.4900    0.5945 C   0  0  0  0  0  0  0  0  0  0  0  0
   -1.0304    0.3611    0.0906 C   0  0  0  0  0  0  0  0  0  0  0  0
   -1.2682   -0.5206   -0.9563 C   0  0  0  0  0  0  0  0  0  0  0  0
   -2.4192   -1.2887   -1.0266 C   0  0  0  0  0  0  0  0  0  0  0  0
   -3.4322   -1.1010   -0.1244 C   0  0  0  0  0  0  0  0  0  0  0  0
   -4.4940   -2.1135   -0.0721 C   0  0  0  0  0  0  0  0  0  0  0  0
   -4.2233   -3.4196   -0.4608 C   0  0  0  0  0  0  0  0  0  0  0  0
   -5.0276   -4.3985    0.1047 C   0  0  0  0  0  0  0  0  0  0  0  0
   -6.3432   -4.0373    0.3314 C   0  0  0  0  0  0  0  0  0  0  0  0
   -6.7818   -2.7447    0.0754 C   0  0  0  0  0  0  0  0  0  0  0  0
   -5.8074   -1.7549    0.0725 C   0  0  0  0  0  0  0  0  0  0  0  0
   -6.1779   -0.3489   -0.1270 C   0  0  0  0  0  0  0  0  0  0  0  0
   -6.0253    0.3877   -1.2428 N   0  0  0  0  0  0  0  0  0  0  0  0
   -6.4851    1.5750   -1.0411 O   0  0  0  0  0  0  0  0  0  0  0  0
   -6.7077    1.7270    0.2328 C   0  0  0  0  0  0  0  0  0  0  0  0
   -7.2392    2.7181    0.7928 O   0  0  0  0  0  0  0  0  0  0  0  0
   -6.7099    0.5028    0.7784 N   0  0  0  0  0  0  0  0  0  0  0  0
   -3.2350   -0.2286    0.9172 C   0  0  0  0  0  0  0  0  0  0  0  0
   -2.0352    0.4364    1.0470 C   0  0  0  0  0  0  0  0  0  0  0  0
  1  2  1  0
  2  3  1  0
  3  4  1  0
  4  5  2  0
  5  6  1  0
  6  7  2  0
  7  8  1  0
  8  9  2  0
  9 10  1  0
 10 11  1  0
 11 12  2  0
 11 13  1  0
 13 14  1  0
 14 15  1  0
 15 16  1  0
 16 17  1  0
 17 18  2  0
 17 19  1  0
 19 20  1  0
 20 21  1  0
 10 22  2  0
 22 23  1  0
 23 24  1  0
 24 25  1  0
 25 26  2  0
 26 27  1  0
 27 28  2  0
 28 29  1  0
 29 30  2  0
 30 31  1  0
 31 32  2  0
 32 33  1  0
 33 34  2  0
 34 35  1  0
 35 36  2  0
 36 37  1  0
 37 38  1  0
 38 39  2  0
 38 40  1  0
 28 41  1  0
 41 42  2  0
 23  4  1  0
 42 25  1  0
 22  6  1  0
 34 29  1  0
 40 35  1  0
 20 15  2  0
M  END
>  <supplier_code>  (1393) 
DB08822

>  <zinc_id>  (1393) 
ZINC000014210642

>  <catalog_short_name>  (1393) 
dbfda

$$$$

     RDKit          3D

 53 58  0  0  0  0  0  0  0  0999 V2000
    3.3558   -1.1533   -4.6013 C   0  0  0  0  0  0  0  0  0  0  0  0
    3.2108   -1.6765   -3.6926 C   0  0  0  0  0  0  0  0  0  0  0  0
    4.2576   -1.2882   -2.4783 C   0  0  1  0  0  0  0  0  0  0  0  0
    3.4376    0.0770   -2.1013 C   0  0  0  0  0  0  0  0  0  0  0  0
    4.1046    0.8825   -1.0800 C   0  0  0  0  0  0  0  0  0  0  0  0
    3.4227    1.4134    0.0847 C   0  0  0  0  0  0  0  0  0  0  0  0
    3.9164    0.7933    1.5192 C   0  0  2  0  0  0  0  0  0  0  0  0
    5.0361    0.0560    0.8443 O   0  0  0  0  0  0  0  0  0  0  0  0
    5.6883   -0.7225    1.9751 C   0  0  1  0  0  0  0  0  0  0  0  0
    6.5601   -1.6520    0.9016 C   0  0  0  0  0  0  0  0  0  0  0  0
    6.9352   -0.9837   -0.2948 C   0  0  0  0  0  0  0  0  0  0  0  0
    7.2853    0.5596    0.1302 C   0  0  2  0  0  0  0  0  0  0  0  0
    8.5781    0.5995   -0.7391 N   0  0  0  0  0  0  0  0  0  0  0  0
    7.9547    0.1481   -2.0049 C   0  0  0  0  0  0  0  0  0  0  0  0
    8.5519    2.0347   -1.0835 C   0  0  0  0  0  0  0  0  0  0  0  0
    7.9571   -0.1170    1.5625 C   0  0  1  0  0  0  0  0  0  0  0  0
    8.8045    1.2031    2.0245 C   0  0  0  0  0  0  0  0  0  0  0  0
    6.7211    0.3741    2.2621 O   0  0  0  0  0  0  0  0  0  0  0  0
    2.8945   -0.5720    1.4077 C   0  0  1  0  0  0  0  0  0  0  0  0
    2.9531   -0.8832    3.0005 C   0  0  0  0  0  0  0  0  0  0  0  0
    1.4671    0.1463    1.4473 C   0  0  0  0  0  0  0  0  0  0  0  0
    0.9940    0.6109    2.4267 O   0  0  0  0  0  0  0  0  0  0  0  0
    0.7450   -0.7993    0.5469 C   0  0  0  0  0  0  0  0  0  0  0  0
   -0.3269   -1.4409    0.5465 C   0  0  0  0  0  0  0  0  0  0  0  0
   -0.9860   -1.6067   -0.8779 C   0  0  2  0  0  0  0  0  0  0  0  0
   -0.7531    0.0159   -1.1962 C   0  0  1  0  0  0  0  0  0  0  0  0
   -0.9582    0.6816    0.2316 C   0  0  0  0  0  0  0  0  0  0  0  0
   -2.0976    0.7317    0.7986 C   0  0  0  0  0  0  0  0  0  0  0  0
   -2.7664    2.0596    1.0422 C   0  0  0  0  0  0  0  0  0  0  0  0
   -2.9446    0.0559   -0.3920 C   0  0  2  0  0  0  0  0  0  0  0  0
   -4.0077   -0.5327    0.6767 C   0  0  0  0  0  0  0  0  0  0  0  0
   -4.7442   -1.6281   -0.3134 C   0  0  1  0  0  0  0  0  0  0  0  0
   -5.5877   -0.4866   -0.9066 O   0  0  0  0  0  0  0  0  0  0  0  0
   -6.6486   -0.9919    0.0902 C   0  0  2  0  0  0  0  0  0  0  0  0
   -7.8498   -0.2352   -0.3782 O   0  0  0  0  0  0  0  0  0  0  0  0
   -7.4328    1.0158   -1.0403 C   0  0  1  0  0  0  0  0  0  0  0  0
   -8.9769    1.3366   -1.5048 C   0  0  0  0  0  0  0  0  0  0  0  0
   -7.7897    1.7602    0.4601 C   0  0  2  0  0  0  0  0  0  0  0  0
   -7.5683    3.1217   -0.1204 O   0  0  0  0  0  0  0  0  0  0  0  0
   -8.8654    3.6393   -0.0204 C   0  0  0  0  0  0  0  0  0  0  0  0
   -6.1377    1.5635    0.7430 C   0  0  1  0  0  0  0  0  0  0  0  0
   -6.3069    2.1202    2.1316 O   0  0  0  0  0  0  0  0  0  0  0  0
   -5.3670    2.9988    2.4380 C   0  0  0  0  0  0  0  0  0  0  0  0
   -6.1693    0.0073    1.4193 C   0  0  1  0  0  0  0  0  0  0  0  0
   -7.5412    0.0210    2.0258 O   0  0  0  0  0  0  0  0  0  0  0  0
   -7.1075   -0.8762    3.0402 C   0  0  0  0  0  0  0  0  0  0  0  0
   -3.5008   -1.6988   -1.4046 C   0  0  0  0  0  0  0  0  0  0  0  0
   -2.4820   -1.5509   -0.1448 C   0  0  1  0  0  0  0  0  0  0  0  0
    0.9069   -0.0662   -0.8694 C   0  0  2  0  0  0  0  0  0  0  0  0
    1.3011   -1.3330   -1.8264 C   0  0  0  0  0  0  0  0  0  0  0  0
    2.3045   -2.1654   -1.1719 C   0  0  0  0  0  0  0  0  0  0  0  0
    1.9506   -3.3528   -0.8101 O   0  0  0  0  0  0  0  0  0  0  0  0
    3.6216   -2.2146   -1.4294 O   0  0  0  0  0  0  0  0  0  0  0  0
  1  2  1  0
  3  2  1  6
  3  4  1  0
  4  5  1  0
  5  6  1  0
  6  7  1  0
  7  8  1  6
  9  8  1  6
  9 10  1  0
 10 11  1  0
 11 12  1  0
 12 13  1  6
 13 14  1  0
 13 15  1  0
 12 16  1  0
 16 17  1  1
 16 18  1  0
  7 19  1  0
 19 20  1  1
 19 21  1  0
 21 22  2  0
 21 23  1  0
 23 24  2  0
 25 24  1  1
 25 26  1  0
 26 27  1  1
 27 28  2  0
 28 29  1  0
 30 28  1  1
 30 31  1  0
 31 32  1  0
 32 33  1  6
 34 33  1  6
 34 35  1  0
 35 36  1  0
 36 37  1  6
 36 38  1  0
 38 39  1  6
 39 40  1  0
 38 41  1  0
 41 42  1  1
 42 43  1  0
 41 44  1  0
 44 45  1  1
 45 46  1  0
 32 47  1  0
 48 47  1  6
 26 49  1  0
 49 50  1  6
 50 51  1  0
 51 52  2  0
 51 53  1  0
 53  3  1  0
 18  9  1  0
 49 23  1  0
 48 25  1  0
 48 30  1  0
 44 34  1  0
M  END
>  <supplier_code>  (1394) 
DB08823

>  <zinc_id>  (1394) 
ZINC000085537011

>  <catalog_short_name>  (1394) 
dbfda

$$$$

     RDKit          3D

 52 57  0  0  0  0  0  0  0  0999 V2000
    3.8726   -4.2885   -0.0322 C   0  0  0  0  0  0  0  0  0  0  0  0
    4.2496   -4.1855    0.6744 C   0  0  0  0  0  0  0  0  0  0  0  0
    3.0788   -3.9957    1.8342 C   0  0  1  0  0  0  0  0  0  0  0  0
    3.4672   -2.4976    2.3269 C   0  0  0  0  0  0  0  0  0  0  0  0
    4.7659   -2.0853    2.5654 C   0  0  0  0  0  0  0  0  0  0  0  0
    5.0267   -0.6599    1.9778 C   0  0  0  0  0  0  0  0  0  0  0  0
    3.9088   -0.8964    0.7881 C   0  0  2  0  0  0  0  0  0  0  0  0
    4.6644   -0.5915   -0.4326 O   0  0  0  0  0  0  0  0  0  0  0  0
    5.5723    0.5777   -0.5848 C   0  0  1  0  0  0  0  0  0  0  0  0
    4.5022    1.3462   -1.6403 C   0  0  0  0  0  0  0  0  0  0  0  0
    4.2507    2.7087   -1.1013 C   0  0  0  0  0  0  0  0  0  0  0  0
    5.6911    3.4385   -0.9404 C   0  0  2  0  0  0  0  0  0  0  0  0
    6.1496    2.7447   -2.2586 N   0  0  0  0  0  0  0  0  0  0  0  0
    5.2439    3.2980   -3.2511 C   0  0  0  0  0  0  0  0  0  0  0  0
    7.4085    2.7462   -2.6033 C   0  0  0  0  0  0  0  0  0  0  0  0
    6.4099    2.3145    0.1544 C   0  0  1  0  0  0  0  0  0  0  0  0
    6.2090    3.3512    1.4097 C   0  0  0  0  0  0  0  0  0  0  0  0
    5.1682    1.5259    0.5640 O   0  0  0  0  0  0  0  0  0  0  0  0
    3.1066    0.6265    0.8720 C   0  0  1  0  0  0  0  0  0  0  0  0
    2.3302   -0.0131   -0.4172 C   0  0  0  0  0  0  0  0  0  0  0  0
    2.0346    0.2285    1.9912 C   0  0  0  0  0  0  0  0  0  0  0  0
    2.2242    1.0020    2.9864 O   0  0  0  0  0  0  0  0  0  0  0  0
    0.6264    0.1537    1.5315 C   0  0  0  0  0  0  0  0  0  0  0  0
   -0.3402   -0.0747    2.2774 C   0  0  0  0  0  0  0  0  0  0  0  0
   -1.4895   -0.0839    1.2027 C   0  0  2  0  0  0  0  0  0  0  0  0
   -0.8874   -1.4240    0.3307 C   0  0  1  0  0  0  0  0  0  0  0  0
   -0.9745   -1.0766   -1.2322 C   0  0  0  0  0  0  0  0  0  0  0  0
   -1.3296   -0.0788   -2.0179 C   0  0  0  0  0  0  0  0  0  0  0  0
   -0.7650   -0.2557   -0.6433 C   0  0  2  0  0  0  0  0  0  0  0  0
   -2.2687   -0.9402   -0.1954 C   0  0  0  0  0  0  0  0  0  0  0  0
   -3.2432    0.1546   -0.7780 C   0  0  1  0  0  0  0  0  0  0  0  0
   -3.7730    0.3252    0.6582 O   0  0  0  0  0  0  0  0  0  0  0  0
   -5.0673   -0.4144    0.5684 C   0  0  2  0  0  0  0  0  0  0  0  0
   -5.3484   -0.1026   -1.0256 C   0  0  0  0  0  0  0  0  0  0  0  0
   -6.0220    1.3648   -0.9853 C   0  0  1  0  0  0  0  0  0  0  0  0
   -6.2654    1.3664   -2.5886 C   0  0  0  0  0  0  0  0  0  0  0  0
   -7.5722    0.7029   -0.7370 C   0  0  2  0  0  0  0  0  0  0  0  0
   -8.1406    2.0684   -0.4276 O   0  0  0  0  0  0  0  0  0  0  0  0
   -8.6078    2.5809   -1.5896 C   0  0  0  0  0  0  0  0  0  0  0  0
   -7.4303    0.3799    0.9479 C   0  0  1  0  0  0  0  0  0  0  0  0
   -6.9921   -1.0153    0.7026 O   0  0  0  0  0  0  0  0  0  0  0  0
   -7.6244   -2.0056    0.5840 C   0  0  0  0  0  0  0  0  0  0  0  0
   -5.8452    1.0278    1.1144 C   0  0  1  0  0  0  0  0  0  0  0  0
   -5.7410    0.5835    2.5415 O   0  0  0  0  0  0  0  0  0  0  0  0
   -5.1588    1.7080    3.1112 C   0  0  0  0  0  0  0  0  0  0  0  0
   -2.3386    1.4935   -0.6317 C   0  0  0  0  0  0  0  0  0  0  0  0
   -1.0067    1.1590    0.1620 C   0  0  1  0  0  0  0  0  0  0  0  0
    0.7239   -1.0615    0.5170 C   0  0  2  0  0  0  0  0  0  0  0  0
    0.7781   -2.1528    1.7388 C   0  0  0  0  0  0  0  0  0  0  0  0
    0.8320   -3.4517    1.1018 C   0  0  0  0  0  0  0  0  0  0  0  0
   -0.1708   -4.0884    0.7565 O   0  0  0  0  0  0  0  0  0  0  0  0
    2.1075   -3.5376    0.7170 O   0  0  0  0  0  0  0  0  0  0  0  0
  1  2  1  0
  3  2  1  6
  3  4  1  0
  4  5  1  0
  5  6  1  0
  6  7  1  0
  7  8  1  6
  9  8  1  1
  9 10  1  0
 10 11  1  0
 11 12  1  0
 12 13  1  6
 13 14  1  0
 13 15  1  0
 12 16  1  0
 16 17  1  1
 16 18  1  0
  7 19  1  0
 19 20  1  6
 19 21  1  0
 21 22  2  0
 21 23  1  0
 23 24  2  0
 25 24  1  1
 25 26  1  0
 26 27  1  6
 27 28  2  0
 29 28  1  6
 29 30  1  0
 30 31  1  0
 31 32  1  1
 33 32  1  6
 33 34  1  0
 34 35  1  0
 35 36  1  6
 35 37  1  0
 37 38  1  1
 38 39  1  0
 37 40  1  0
 40 41  1  6
 41 42  1  0
 40 43  1  0
 43 44  1  1
 44 45  1  0
 31 46  1  0
 47 46  1  6
 26 48  1  0
 48 49  1  1
 49 50  1  0
 50 51  2  0
 50 52  1  0
 52  3  1  0
 18  9  1  0
 48 23  1  0
 47 25  1  0
 47 29  1  0
 43 33  1  0
M  END
>  <supplier_code>  (1395) 
DB08823

>  <zinc_id>  (1395) 
ZINC000096006024

>  <catalog_short_name>  (1395) 
dbfda

$$$$

     RDKit          3D

 23 25  0  0  0  0  0  0  0  0999 V2000
    0.5530   -3.5441   -0.5535 C   0  0  0  0  0  0  0  0  0  0  0  0
    0.4197   -2.8403    0.2234 O   0  0  0  0  0  0  0  0  0  0  0  0
   -0.2177   -1.6834   -0.2612 C   0  0  0  0  0  0  0  0  0  0  0  0
   -1.1520   -2.0515   -1.0534 O   0  0  0  0  0  0  0  0  0  0  0  0
   -0.8838   -0.7763    0.8481 C   0  0  2  0  0  0  0  0  0  0  0  0
   -0.7954    0.6469   -0.0785 C   0  0  1  0  0  0  0  0  0  0  0  0
   -1.6748    0.2139   -1.3889 C   0  0  0  0  0  0  0  0  0  0  0  0
   -0.6642    1.3385   -1.3433 C   0  0  0  0  0  0  0  0  0  0  0  0
   -0.8174    0.6243    0.1872 C   0  0  1  0  0  0  0  0  0  0  0  0
    0.4111    1.3242    1.0070 C   0  0  0  0  0  0  0  0  0  0  0  0
    0.4988   -0.1956    1.6626 C   0  0  2  0  0  0  0  0  0  0  0  0
    1.6690   -0.6851    0.7152 C   0  0  0  0  0  0  0  0  0  0  0  0
    2.7666   -0.9759    1.5394 C   0  0  0  0  0  0  0  0  0  0  0  0
    4.0325   -0.4790    1.2322 C   0  0  0  0  0  0  0  0  0  0  0  0
    4.2638    0.0599   -0.0240 C   0  0  0  0  0  0  0  0  0  0  0  0
    5.8629    1.3996   -0.3684 I   0  0  0  0  0  0  0  0  0  0  0  0
    3.2784   -0.1673   -0.9807 C   0  0  0  0  0  0  0  0  0  0  0  0
    1.9874   -0.1171   -0.4530 C   0  0  0  0  0  0  0  0  0  0  0  0
   -1.9064    1.5253    0.6035 N   0  0  0  0  0  0  0  0  0  0  0  0
   -3.1181    0.9269    0.1304 C   0  0  0  0  0  0  0  0  0  0  0  0
   -3.6874    1.9011   -0.8643 C   0  0  0  0  0  0  0  0  0  0  0  0
   -5.0729    2.2640   -0.4598 C   0  0  0  0  0  0  0  0  0  0  0  0
   -5.7531    1.2909    0.2181 F   0  0  0  0  0  0  0  0  0  0  0  0
  1  2  1  0
  2  3  1  0
  3  4  2  0
  5  3  1  6
  5  6  1  0
  6  7  1  6
  7  8  1  0
  9  8  1  6
  9 10  1  0
 10 11  1  0
 11 12  1  6
 12 13  2  0
 13 14  1  0
 14 15  2  0
 15 16  1  0
 15 17  1  0
 17 18  2  0
  9 19  1  0
 19 20  1  0
 20 21  1  0
 21 22  1  0
 22 23  1  0
 11  5  1  0
 18 12  1  0
 19  6  1  0
M  END
>  <supplier_code>  (1396) 
DB08824

>  <zinc_id>  (1396) 
ZINC000003972949

>  <catalog_short_name>  (1396) 
dbfda

$$$$

     RDKit          3D

 10 10  0  0  0  0  0  0  0  0999 V2000
    1.5192    1.9023    0.2059 C   0  0  0  0  0  0  0  0  0  0  0  0
    0.6823    0.6986   -0.0634 C   0  0  0  0  0  0  0  0  0  0  0  0
   -0.7010    0.7092    0.0365 C   0  0  0  0  0  0  0  0  0  0  0  0
   -1.3087    1.9426    0.1477 O   0  0  0  0  0  0  0  0  0  0  0  0
   -1.4377   -0.4559   -0.1422 C   0  0  0  0  0  0  0  0  0  0  0  0
   -2.5701   -0.5140    0.3707 O   0  0  0  0  0  0  0  0  0  0  0  0
   -0.7338   -1.5632   -0.5913 C   0  0  0  0  0  0  0  0  0  0  0  0
    0.6543   -1.5391   -0.5935 C   0  0  0  0  0  0  0  0  0  0  0  0
    1.3281   -0.4928   -0.0606 N   0  0  0  0  0  0  0  0  0  0  0  0
    2.5673   -0.6877    0.6901 C   0  0  0  0  0  0  0  0  0  0  0  0
  1  2  1  0
  2  3  2  0
  3  4  1  0
  3  5  1  0
  5  6  2  0
  5  7  1  0
  7  8  2  0
  8  9  1  0
  9 10  1  0
  9  2  1  0
M  END
>  <supplier_code>  (1397) 
DB08826

>  <zinc_id>  (1397) 
ZINC000000006226

>  <catalog_short_name>  (1397) 
dbfda

$$$$

     RDKit          3D

 50 55  0  0  0  0  0  0  0  0999 V2000
   -4.3665   -1.2308   -2.0469 O   0  0  0  0  0  0  0  0  0  0  0  0
   -4.3344   -0.1291   -1.4194 C   0  0  0  0  0  0  0  0  0  0  0  0
   -3.2178    0.0152   -0.5332 N   0  0  0  0  0  0  0  0  0  0  0  0
   -1.8837   -0.4499   -0.9015 C   0  0  0  0  0  0  0  0  0  0  0  0
   -0.9586    0.7363   -0.6925 C   0  0  0  0  0  0  0  0  0  0  0  0
   -0.9232    0.9573    0.8160 C   0  0  0  0  0  0  0  0  0  0  0  0
   -0.2278   -0.1711    1.3740 N   0  0  0  0  0  0  0  0  0  0  0  0
    1.1563   -0.1344    1.0073 C   0  0  0  0  0  0  0  0  0  0  0  0
    1.6933   -1.4278    0.4745 C   0  0  0  0  0  0  0  0  0  0  0  0
    2.8289   -1.0989   -0.4840 C   0  0  0  0  0  0  0  0  0  0  0  0
    3.3043    0.3247   -0.3381 C   0  0  0  0  0  0  0  0  0  0  0  0
    4.7970    0.2812   -0.1287 C   0  0  0  0  0  0  0  0  0  0  0  0
    5.4081    1.4980   -0.7036 C   0  0  0  0  0  0  0  0  0  0  0  0
    5.0634    1.8616   -1.8491 O   0  0  0  0  0  0  0  0  0  0  0  0
    6.3915    2.2816   -0.0433 N   0  0  0  0  0  0  0  0  0  0  0  0
    7.5279    2.8058   -0.7956 C   0  0  0  0  0  0  0  0  0  0  0  0
    8.7294    1.9728   -0.4029 C   0  0  0  0  0  0  0  0  0  0  0  0
    8.7295    0.8533   -1.2102 F   0  0  0  0  0  0  0  0  0  0  0  0
    8.5604    1.6028    0.9155 F   0  0  0  0  0  0  0  0  0  0  0  0
    9.9025    2.6764   -0.5035 F   0  0  0  0  0  0  0  0  0  0  0  0
    5.3536   -0.9050   -0.8251 C   0  0  0  0  0  0  0  0  0  0  0  0
    5.5403   -1.2085   -2.1488 C   0  0  0  0  0  0  0  0  0  0  0  0
    6.1061   -2.4068   -2.5525 C   0  0  0  0  0  0  0  0  0  0  0  0
    6.4822   -3.3402   -1.6067 C   0  0  0  0  0  0  0  0  0  0  0  0
    6.5435   -2.9439   -0.2844 C   0  0  0  0  0  0  0  0  0  0  0  0
    5.8790   -1.7950    0.1015 C   0  0  0  0  0  0  0  0  0  0  0  0
    5.5438   -1.2529    1.4109 C   0  0  0  0  0  0  0  0  0  0  0  0
    5.7055   -1.8210    2.6614 C   0  0  0  0  0  0  0  0  0  0  0  0
    5.4843   -1.0818    3.8128 C   0  0  0  0  0  0  0  0  0  0  0  0
    4.8098    0.1077    3.6602 C   0  0  0  0  0  0  0  0  0  0  0  0
    4.8718    0.7459    2.4417 C   0  0  0  0  0  0  0  0  0  0  0  0
    5.1769    0.0782    1.2832 C   0  0  0  0  0  0  0  0  0  0  0  0
   -0.8763   -1.4262    1.1929 C   0  0  0  0  0  0  0  0  0  0  0  0
   -1.4589   -1.6688   -0.1563 C   0  0  0  0  0  0  0  0  0  0  0  0
   -5.2761    0.9456   -1.6883 C   0  0  0  0  0  0  0  0  0  0  0  0
   -4.8852    2.2121   -2.1025 C   0  0  0  0  0  0  0  0  0  0  0  0
   -5.8039    3.1962   -2.4331 C   0  0  0  0  0  0  0  0  0  0  0  0
   -7.0305    2.7379   -2.8981 C   0  0  0  0  0  0  0  0  0  0  0  0
   -7.3965    1.4210   -2.6564 C   0  0  0  0  0  0  0  0  0  0  0  0
   -6.6009    0.5774   -1.8894 C   0  0  0  0  0  0  0  0  0  0  0  0
   -7.1884   -0.4083   -0.9728 C   0  0  0  0  0  0  0  0  0  0  0  0
   -8.5592   -0.6316   -1.0302 C   0  0  0  0  0  0  0  0  0  0  0  0
   -9.2783   -0.9740    0.1093 C   0  0  0  0  0  0  0  0  0  0  0  0
   -8.7139   -0.8054    1.3676 C   0  0  0  0  0  0  0  0  0  0  0  0
   -9.4812   -0.2053    2.5038 C   0  0  0  0  0  0  0  0  0  0  0  0
   -9.3179   -0.9257    3.6691 F   0  0  0  0  0  0  0  0  0  0  0  0
   -9.0663    1.1015    2.6829 F   0  0  0  0  0  0  0  0  0  0  0  0
  -10.8272   -0.2709    2.1683 F   0  0  0  0  0  0  0  0  0  0  0  0
   -7.3272   -0.8745    1.4067 C   0  0  0  0  0  0  0  0  0  0  0  0
   -6.5894   -0.7354    0.2376 C   0  0  0  0  0  0  0  0  0  0  0  0
  1  2  2  0
  2  3  1  0
  3  4  1  0
  4  5  1  0
  5  6  1  0
  6  7  1  0
  7  8  1  0
  8  9  1  0
  9 10  1  0
 10 11  1  0
 11 12  1  0
 12 13  1  0
 13 14  2  0
 13 15  1  0
 15 16  1  0
 16 17  1  0
 17 18  1  0
 17 19  1  0
 17 20  1  0
 12 21  1  0
 21 22  2  0
 22 23  1  0
 23 24  2  0
 24 25  1  0
 25 26  2  0
 26 27  1  0
 27 28  2  0
 28 29  1  0
 29 30  2  0
 30 31  1  0
 31 32  2  0
  7 33  1  0
 33 34  1  0
  2 35  1  0
 35 36  2  0
 36 37  1  0
 37 38  2  0
 38 39  1  0
 39 40  2  0
 40 41  1  0
 41 42  2  0
 42 43  1  0
 43 44  2  0
 44 45  1  0
 45 46  1  0
 45 47  1  0
 45 48  1  0
 44 49  1  0
 49 50  2  0
 34  4  1  0
 40 35  1  0
 50 41  1  0
 32 12  1  0
 26 21  1  0
 32 27  1  0
M  END
>  <supplier_code>  (1398) 
DB08827

>  <zinc_id>  (1398) 
ZINC000027990463

>  <catalog_short_name>  (1398) 
dbfda

$$$$

     RDKit          3D

 27 29  0  0  0  0  0  0  0  0999 V2000
    6.2199   -1.1633    2.4293 C   0  0  0  0  0  0  0  0  0  0  0  0
    6.3726   -0.2566    0.8993 S   0  0  0  0  0  0  0  0  0  0  0  0
    6.7577    1.1408    1.2442 O   0  0  0  0  0  0  0  0  0  0  0  0
    7.3851   -0.9692    0.0682 O   0  0  0  0  0  0  0  0  0  0  0  0
    4.8390   -0.3292    0.0431 C   0  0  0  0  0  0  0  0  0  0  0  0
    3.8909   -1.3017    0.3374 C   0  0  0  0  0  0  0  0  0  0  0  0
    2.5476   -1.0709    0.0869 C   0  0  0  0  0  0  0  0  0  0  0  0
    2.2205    0.1365   -0.5134 C   0  0  0  0  0  0  0  0  0  0  0  0
    0.8363    0.5820   -0.6395 C   0  0  0  0  0  0  0  0  0  0  0  0
    0.2840    1.2066    0.3135 O   0  0  0  0  0  0  0  0  0  0  0  0
    0.0248   -0.1424   -1.5693 N   0  0  0  0  0  0  0  0  0  0  0  0
   -1.4001   -0.0900   -1.4534 C   0  0  0  0  0  0  0  0  0  0  0  0
   -2.1739   -0.1896   -2.5885 C   0  0  0  0  0  0  0  0  0  0  0  0
   -3.4469    0.3599   -2.5657 C   0  0  0  0  0  0  0  0  0  0  0  0
   -3.9358    0.8763   -1.3933 C   0  0  0  0  0  0  0  0  0  0  0  0
   -5.4467    1.7381   -1.3293 Cl  0  0  0  0  0  0  0  0  0  0  0  0
   -3.3170    0.5236   -0.2006 C   0  0  0  0  0  0  0  0  0  0  0  0
   -4.0706    0.4205    1.0471 C   0  0  0  0  0  0  0  0  0  0  0  0
   -4.0503   -0.7706    1.7561 C   0  0  0  0  0  0  0  0  0  0  0  0
   -4.9027   -0.8772    2.8481 C   0  0  0  0  0  0  0  0  0  0  0  0
   -6.0830   -0.1512    2.7441 C   0  0  0  0  0  0  0  0  0  0  0  0
   -5.9981    1.1196    2.2139 C   0  0  0  0  0  0  0  0  0  0  0  0
   -4.9551    1.3724    1.3880 N   0  0  0  0  0  0  0  0  0  0  0  0
   -1.9953    0.1257   -0.2343 C   0  0  0  0  0  0  0  0  0  0  0  0
    3.1636    0.8179   -1.2719 C   0  0  0  0  0  0  0  0  0  0  0  0
    2.7454    1.6915   -2.7304 Cl  0  0  0  0  0  0  0  0  0  0  0  0
    4.4881    0.5766   -0.9296 C   0  0  0  0  0  0  0  0  0  0  0  0
  1  2  1  0
  2  3  2  0
  2  4  2  0
  2  5  1  0
  5  6  2  0
  6  7  1  0
  7  8  2  0
  8  9  1  0
  9 10  2  0
  9 11  1  0
 11 12  1  0
 12 13  2  0
 13 14  1  0
 14 15  2  0
 15 16  1  0
 15 17  1  0
 17 18  1  0
 18 19  2  0
 19 20  1  0
 20 21  2  0
 21 22  1  0
 22 23  2  0
 17 24  2  0
  8 25  1  0
 25 26  1  0
 25 27  2  0
 27  5  1  0
 24 12  1  0
 23 18  1  0
M  END
>  <supplier_code>  (1399) 
DB08828

>  <zinc_id>  (1399) 
ZINC000040899447

>  <catalog_short_name>  (1399) 
dbfda

$$$$

     RDKit          3D

  9  9  0  0  0  0  0  0  0  0999 V2000
   -2.2279    0.8565    1.0066 O   0  0  0  0  0  0  0  0  0  0  0  0
   -1.3930    0.0179    0.5223 C   0  0  0  0  0  0  0  0  0  0  0  0
   -1.9915   -0.6930   -0.4880 O   0  0  0  0  0  0  0  0  0  0  0  0
   -0.1214    0.9688    0.1078 C   0  0  1  0  0  0  0  0  0  0  0  0
    0.8820    0.2177    1.1705 C   0  0  0  0  0  0  0  0  0  0  0  0
    1.7969   -0.7530    0.2110 C   0  0  2  0  0  0  0  0  0  0  0  0
    2.3088    0.3936   -0.6820 O   0  0  0  0  0  0  0  0  0  0  0  0
    0.4751   -1.1345   -0.7262 C   0  0  0  0  0  0  0  0  0  0  0  0
    0.2711    0.1259   -1.1737 N   0  0  0  0  0  0  0  0  0  0  0  0
  1  2  2  0
  2  3  1  0
  4  2  1  1
  4  5  1  0
  5  6  1  0
  6  7  1  6
  6  8  1  0
  8  9  1  0
  9  4  1  0
M  END
>  <supplier_code>  (1400) 
DB08847

>  <zinc_id>  (1400) 
ZINC000000895457

>  <catalog_short_name>  (1400) 
dbfda

$$$$

     RDKit          3D

  9  9  0  0  0  0  0  0  0  0999 V2000
   -2.6434    0.6397   -0.3991 O   0  0  0  0  0  0  0  0  0  0  0  0
   -1.7392   -0.1931   -0.3810 C   0  0  0  0  0  0  0  0  0  0  0  0
   -1.9009   -1.5063   -0.2434 O   0  0  0  0  0  0  0  0  0  0  0  0
   -0.4673    0.5911    0.2671 C   0  0  2  0  0  0  0  0  0  0  0  0
    0.5854    0.2334   -0.9811 C   0  0  0  0  0  0  0  0  0  0  0  0
    1.6675    0.9401    0.0831 C   0  0  2  0  0  0  0  0  0  0  0  0
    2.8840    0.2599   -0.5624 O   0  0  0  0  0  0  0  0  0  0  0  0
    1.4886   -0.2989    1.1799 C   0  0  0  0  0  0  0  0  0  0  0  0
    0.1253   -0.6661    1.0369 N   0  0  0  0  0  0  0  0  0  0  0  0
  1  2  2  0
  2  3  1  0
  4  2  1  6
  4  5  1  0
  5  6  1  0
  6  7  1  6
  6  8  1  0
  8  9  1  0
  9  4  1  0
M  END
>  <supplier_code>  (1401) 
DB08847

>  <zinc_id>  (1401) 
ZINC000000901736

>  <catalog_short_name>  (1401) 
dbfda

$$$$

     RDKit          3D

  9  9  0  0  0  0  0  0  0  0999 V2000
    1.5871   -0.2913    1.2414 O   0  0  0  0  0  0  0  0  0  0  0  0
    1.7236   -0.2228    0.1980 C   0  0  0  0  0  0  0  0  0  0  0  0
    2.7597    0.5352   -0.3631 O   0  0  0  0  0  0  0  0  0  0  0  0
    0.3928   -0.0989   -0.7551 C   0  0  2  0  0  0  0  0  0  0  0  0
   -0.3334    1.0133    0.2491 C   0  0  0  0  0  0  0  0  0  0  0  0
   -1.7386    0.1562    0.5456 C   0  0  1  0  0  0  0  0  0  0  0  0
   -2.5782    1.1173   -0.3265 O   0  0  0  0  0  0  0  0  0  0  0  0
   -1.4984   -0.8676   -0.7613 C   0  0  0  0  0  0  0  0  0  0  0  0
   -0.3147   -1.3413   -0.0281 N   0  0  0  0  0  0  0  0  0  0  0  0
  1  2  2  0
  2  3  1  0
  4  2  1  1
  4  5  1  0
  5  6  1  0
  6  7  1  6
  6  8  1  0
  8  9  1  0
  9  4  1  0
M  END
>  <supplier_code>  (1402) 
DB08847

>  <zinc_id>  (1402) 
ZINC000000901791

>  <catalog_short_name>  (1402) 
dbfda

$$$$

     RDKit          3D

 31 34  0  0  0  0  0  0  0  0999 V2000
    6.4455    1.0370   -0.5255 O   0  0  0  0  0  0  0  0  0  0  0  0
    6.6381    0.1405   -0.0027 C   0  0  0  0  0  0  0  0  0  0  0  0
    7.9116    0.1354    0.5739 O   0  0  0  0  0  0  0  0  0  0  0  0
    5.6748   -0.7909    0.5968 C   0  0  0  0  0  0  0  0  0  0  0  0
    4.5215   -1.0251   -0.6050 C   0  0  2  0  0  0  0  0  0  0  0  0
    4.3352    0.5034   -0.7570 O   0  0  0  0  0  0  0  0  0  0  0  0
    3.3371   -1.2294    0.5659 C   0  0  0  0  0  0  0  0  0  0  0  0
    2.3570    0.0959    0.2596 C   0  0  2  0  0  0  0  0  0  0  0  0
    2.6811    0.7175    1.6461 O   0  0  0  0  0  0  0  0  0  0  0  0
    1.0383   -0.6851    0.8769 C   0  0  0  0  0  0  0  0  0  0  0  0
    0.2286   -0.9084   -0.1483 C   0  0  0  0  0  0  0  0  0  0  0  0
   -1.1902   -1.0888   -0.0309 C   0  0  0  0  0  0  0  0  0  0  0  0
   -1.7441   -2.3488   -0.0537 C   0  0  0  0  0  0  0  0  0  0  0  0
   -1.0397   -3.4388   -0.7338 C   0  0  0  0  0  0  0  0  0  0  0  0
   -0.2334   -3.1362   -1.9821 C   0  0  0  0  0  0  0  0  0  0  0  0
    0.4266   -3.6014   -0.7219 C   0  0  0  0  0  0  0  0  0  0  0  0
   -3.0338   -2.5262    0.3107 N   0  0  0  0  0  0  0  0  0  0  0  0
   -3.8944   -1.4967    0.3963 C   0  0  0  0  0  0  0  0  0  0  0  0
   -5.2687   -1.6478    0.4381 C   0  0  0  0  0  0  0  0  0  0  0  0
   -6.0195   -0.5686    0.8695 C   0  0  0  0  0  0  0  0  0  0  0  0
   -5.4329    0.5923    1.3674 C   0  0  0  0  0  0  0  0  0  0  0  0
   -4.1270    0.7986    0.9956 C   0  0  0  0  0  0  0  0  0  0  0  0
   -3.3974   -0.2178    0.4118 C   0  0  0  0  0  0  0  0  0  0  0  0
   -2.0565   -0.0365    0.1853 C   0  0  0  0  0  0  0  0  0  0  0  0
   -1.5523    1.3081   -0.0797 C   0  0  0  0  0  0  0  0  0  0  0  0
   -1.2062    1.6824   -1.3703 C   0  0  0  0  0  0  0  0  0  0  0  0
   -0.8324    2.9715   -1.6288 C   0  0  0  0  0  0  0  0  0  0  0  0
   -1.0643    3.9241   -0.6427 C   0  0  0  0  0  0  0  0  0  0  0  0
   -1.3628    5.2102   -0.9715 F   0  0  0  0  0  0  0  0  0  0  0  0
   -0.9307    3.4787    0.6490 C   0  0  0  0  0  0  0  0  0  0  0  0
   -1.2093    2.1507    0.9397 C   0  0  0  0  0  0  0  0  0  0  0  0
  1  2  2  0
  2  3  1  0
  2  4  1  0
  5  4  1  1
  5  6  1  0
  5  7  1  0
  8  7  1  1
  8  9  1  0
  8 10  1  0
 10 11  2  0
 11 12  1  0
 12 13  2  0
 13 14  1  0
 14 15  1  0
 15 16  1  0
 13 17  1  0
 17 18  2  0
 18 19  1  0
 19 20  2  0
 20 21  1  0
 21 22  2  0
 22 23  1  0
 23 24  2  0
 24 25  1  0
 25 26  2  0
 26 27  1  0
 27 28  2  0
 28 29  1  0
 28 30  1  0
 30 31  2  0
 24 12  1  0
 31 25  1  0
 16 14  1  0
 23 18  1  0
M  END
>  <supplier_code>  (1403) 
DB08860

>  <zinc_id>  (1403) 
ZINC000001534965

>  <catalog_short_name>  (1403) 
dbfda

$$$$

     RDKit          3D

 28 30  0  0  0  0  0  0  0  0999 V2000
    2.7618   -2.8437    2.1985 C   0  0  0  0  0  0  0  0  0  0  0  0
    3.2709   -2.0538    1.0571 C   0  0  0  0  0  0  0  0  0  0  0  0
    4.4275   -1.2894    1.1530 C   0  0  0  0  0  0  0  0  0  0  0  0
    4.7340   -0.3289    0.1971 C   0  0  0  0  0  0  0  0  0  0  0  0
    5.3904    0.9243    0.5894 C   0  0  0  0  0  0  0  0  0  0  0  0
    5.2215    2.0439   -0.0932 C   0  0  0  0  0  0  0  0  0  0  0  0
    6.2114    3.0923   -0.0383 C   0  0  0  0  0  0  0  0  0  0  0  0
    7.1050    3.8123   -0.0158 N   0  0  0  0  0  0  0  0  0  0  0  0
    4.1783   -0.5129   -1.0577 C   0  0  0  0  0  0  0  0  0  0  0  0
    3.1255   -1.3907   -1.2572 C   0  0  0  0  0  0  0  0  0  0  0  0
    2.7756   -1.9543   -2.5853 C   0  0  0  0  0  0  0  0  0  0  0  0
    2.5507   -1.9581   -0.1271 C   0  0  0  0  0  0  0  0  0  0  0  0
    1.2416   -2.4772   -0.1796 N   0  0  0  0  0  0  0  0  0  0  0  0
    0.0689   -1.6633   -0.2974 C   0  0  0  0  0  0  0  0  0  0  0  0
   -0.0861   -0.8295   -1.4000 C   0  0  0  0  0  0  0  0  0  0  0  0
   -1.3090   -0.7457   -2.0532 C   0  0  0  0  0  0  0  0  0  0  0  0
   -2.3777   -1.1805   -1.3413 N   0  0  0  0  0  0  0  0  0  0  0  0
   -2.2809   -1.5022   -0.0287 C   0  0  0  0  0  0  0  0  0  0  0  0
   -3.3592   -1.2708    0.8847 N   0  0  0  0  0  0  0  0  0  0  0  0
   -4.2843   -0.2139    0.6020 C   0  0  0  0  0  0  0  0  0  0  0  0
   -3.8834    0.7862   -0.2682 C   0  0  0  0  0  0  0  0  0  0  0  0
   -4.3610    2.0661   -0.2280 C   0  0  0  0  0  0  0  0  0  0  0  0
   -5.4588    2.3145    0.5753 C   0  0  0  0  0  0  0  0  0  0  0  0
   -6.2335    3.5112    0.3379 C   0  0  0  0  0  0  0  0  0  0  0  0
   -7.0689    4.2722    0.0552 N   0  0  0  0  0  0  0  0  0  0  0  0
   -5.9083    1.3131    1.4255 C   0  0  0  0  0  0  0  0  0  0  0  0
   -5.3801    0.0274    1.3794 C   0  0  0  0  0  0  0  0  0  0  0  0
   -1.0717   -1.9485    0.3799 N   0  0  0  0  0  0  0  0  0  0  0  0
  1  2  1  0
  2  3  2  0
  3  4  1  0
  4  5  1  0
  5  6  2  0
  6  7  1  0
  7  8  3  0
  4  9  2  0
  9 10  1  0
 10 11  1  0
 10 12  2  0
 12 13  1  0
 13 14  1  0
 14 15  2  0
 15 16  1  0
 16 17  2  0
 17 18  1  0
 18 19  1  0
 19 20  1  0
 20 21  2  0
 21 22  1  0
 22 23  2  0
 23 24  1  0
 24 25  3  0
 23 26  1  0
 26 27  2  0
 18 28  2  0
 12  2  1  0
 28 14  1  0
 27 20  1  0
M  END
>  <supplier_code>  (1404) 
DB08864

>  <zinc_id>  (1404) 
ZINC000001554274

>  <catalog_short_name>  (1404) 
dbfda

$$$$

     RDKit          3D

 30 33  0  0  0  0  0  0  0  0999 V2000
    3.2297   -1.9564    0.7450 C   0  0  0  0  0  0  0  0  0  0  0  0
    3.1039   -0.5228   -0.0661 C   0  0  1  0  0  0  0  0  0  0  0  0
    2.1472    0.0705    0.9940 O   0  0  0  0  0  0  0  0  0  0  0  0
    0.7930   -0.0444    0.6426 C   0  0  0  0  0  0  0  0  0  0  0  0
    0.0057    0.9850    0.1454 C   0  0  0  0  0  0  0  0  0  0  0  0
   -1.1715    0.6465   -0.5176 C   0  0  0  0  0  0  0  0  0  0  0  0
   -2.4022    1.4439   -0.4086 C   0  0  0  0  0  0  0  0  0  0  0  0
   -2.9633    2.1452   -1.4709 C   0  0  0  0  0  0  0  0  0  0  0  0
   -4.3093    2.1169   -1.3202 N   0  0  0  0  0  0  0  0  0  0  0  0
   -4.6502    1.3742   -0.2852 N   0  0  0  0  0  0  0  0  0  0  0  0
   -5.9086    0.6511   -0.1171 C   0  0  0  0  0  0  0  0  0  0  0  0
   -6.2964   -0.0781   -1.3932 C   0  0  0  0  0  0  0  0  0  0  0  0
   -6.8983   -1.4354   -1.0504 C   0  0  0  0  0  0  0  0  0  0  0  0
   -7.8671   -1.2091   -0.0078 N   0  0  0  0  0  0  0  0  0  0  0  0
   -7.1970   -0.9159    1.2462 C   0  0  0  0  0  0  0  0  0  0  0  0
   -5.7998   -0.3519    1.0148 C   0  0  0  0  0  0  0  0  0  0  0  0
   -3.5031    1.2163    0.4111 C   0  0  0  0  0  0  0  0  0  0  0  0
   -1.1880   -0.6648   -0.9894 C   0  0  0  0  0  0  0  0  0  0  0  0
   -0.6586   -1.6703   -0.2436 N   0  0  0  0  0  0  0  0  0  0  0  0
    0.2687   -1.3317    0.6864 C   0  0  0  0  0  0  0  0  0  0  0  0
    0.3859   -2.0014    1.9406 N   0  0  0  0  0  0  0  0  0  0  0  0
    4.4631    0.0760    0.6111 C   0  0  0  0  0  0  0  0  0  0  0  0
    4.7365    1.3500    0.1100 C   0  0  0  0  0  0  0  0  0  0  0  0
    3.4792    2.5321    0.0458 Cl  0  0  0  0  0  0  0  0  0  0  0  0
    6.0019    1.7808   -0.2184 C   0  0  0  0  0  0  0  0  0  0  0  0
    6.9555    0.8511   -0.5048 C   0  0  0  0  0  0  0  0  0  0  0  0
    6.7350   -0.4459   -0.1379 C   0  0  0  0  0  0  0  0  0  0  0  0
    7.6737   -1.3589   -0.5219 F   0  0  0  0  0  0  0  0  0  0  0  0
    5.5458   -0.7854    0.4436 C   0  0  0  0  0  0  0  0  0  0  0  0
    5.2887   -2.4673    0.8285 Cl  0  0  0  0  0  0  0  0  0  0  0  0
  2  1  1  1
  2  3  1  0
  3  4  1  0
  4  5  2  0
  5  6  1  0
  6  7  1  0
  7  8  1  0
  8  9  2  0
  9 10  1  0
 10 11  1  0
 11 12  1  0
 12 13  1  0
 13 14  1  0
 14 15  1  0
 15 16  1  0
 10 17  1  0
  6 18  2  0
 18 19  1  0
 19 20  2  0
 20 21  1  0
  2 22  1  0
 22 23  2  0
 23 24  1  0
 23 25  1  0
 25 26  2  0
 26 27  1  0
 27 28  1  0
 27 29  2  0
 29 30  1  0
 20  4  1  0
 29 22  1  0
 17  7  2  0
 16 11  1  0
M  END
>  <supplier_code>  (1405) 
DB08865

>  <zinc_id>  (1405) 
ZINC000035902489

>  <catalog_short_name>  (1405) 
dbfda

$$$$

     RDKit          3D

 35 39  0  0  0  0  0  0  0  0999 V2000
    5.3252   -0.6224    2.8818 C   0  0  0  0  0  0  0  0  0  0  0  0
    4.8621   -0.2772    1.6248 C   0  0  0  0  0  0  0  0  0  0  0  0
    5.5838    0.4986    0.9285 O   0  0  0  0  0  0  0  0  0  0  0  0
    3.5232   -0.4029    1.2299 O   0  0  0  0  0  0  0  0  0  0  0  0
    3.2715   -0.4726   -0.1365 C   0  0  2  0  0  0  0  0  0  0  0  0
    3.9416   -1.7194   -0.6388 C   0  0  0  0  0  0  0  0  0  0  0  0
    4.7183   -1.5971   -1.8880 C   0  0  0  0  0  0  0  0  0  0  0  0
    3.4592   -2.7563   -0.2781 O   0  0  0  0  0  0  0  0  0  0  0  0
    3.9099    0.7734   -0.7577 C   0  0  0  0  0  0  0  0  0  0  0  0
    2.7553    1.6011   -1.3263 C   0  0  0  0  0  0  0  0  0  0  0  0
    1.6018    1.1161   -0.2843 C   0  0  1  0  0  0  0  0  0  0  0  0
    0.3340    1.0738   -1.4488 C   0  0  2  0  0  0  0  0  0  0  0  0
    0.1788    2.7049   -1.5468 C   0  0  0  0  0  0  0  0  0  0  0  0
    0.4420    3.2915   -0.2112 C   0  0  0  0  0  0  0  0  0  0  0  0
   -0.8852    3.1443    0.4764 C   0  0  0  0  0  0  0  0  0  0  0  0
   -1.7898    4.1201    0.3880 C   0  0  0  0  0  0  0  0  0  0  0  0
   -3.0929    3.7646    0.9659 C   0  0  0  0  0  0  0  0  0  0  0  0
   -3.9436    4.6750    1.2001 O   0  0  0  0  0  0  0  0  0  0  0  0
   -3.5921    2.3663    1.0223 C   0  0  0  0  0  0  0  0  0  0  0  0
   -2.4573    1.3687    1.2371 C   0  0  0  0  0  0  0  0  0  0  0  0
   -1.4013    1.7788    0.2531 C   0  0  0  0  0  0  0  0  0  0  0  0
   -0.7426    0.8116   -0.2925 C   0  0  0  0  0  0  0  0  0  0  0  0
   -0.1888   -0.3227    0.7482 C   0  0  1  0  0  0  0  0  0  0  0  0
   -1.4598   -1.2952    0.4711 C   0  0  0  0  0  0  0  0  0  0  0  0
   -1.9396   -1.9868    1.5428 C   0  0  0  0  0  0  0  0  0  0  0  0
   -3.0783   -2.7497    1.2915 C   0  0  0  0  0  0  0  0  0  0  0  0
   -3.5788   -2.9107    0.0092 C   0  0  0  0  0  0  0  0  0  0  0  0
   -4.9394   -3.2745   -0.2512 N   0  0  0  0  0  0  0  0  0  0  0  0
   -5.8407   -2.1578   -0.5237 C   0  0  0  0  0  0  0  0  0  0  0  0
   -5.2239   -4.4893   -0.9851 C   0  0  0  0  0  0  0  0  0  0  0  0
   -2.8051   -2.4560   -1.0441 C   0  0  0  0  0  0  0  0  0  0  0  0
   -1.7757   -1.5513   -0.8175 C   0  0  0  0  0  0  0  0  0  0  0  0
    0.7675   -1.1318   -0.3389 C   0  0  0  0  0  0  0  0  0  0  0  0
    1.9405   -0.4319   -0.6472 C   0  0  2  0  0  0  0  0  0  0  0  0
    2.1201   -0.4828   -2.1702 C   0  0  0  0  0  0  0  0  0  0  0  0
  1  2  1  0
  2  3  2  0
  2  4  1  0
  5  4  1  1
  5  6  1  0
  6  7  1  0
  6  8  2  0
  5  9  1  0
  9 10  1  0
 11 10  1  6
 11 12  1  0
 12 13  1  1
 13 14  1  0
 14 15  1  0
 15 16  2  0
 16 17  1  0
 17 18  2  0
 17 19  1  0
 19 20  1  0
 20 21  1  0
 21 22  2  0
 22 23  1  0
 23 24  1  6
 24 25  2  0
 25 26  1  0
 26 27  2  0
 27 28  1  0
 28 29  1  0
 28 30  1  0
 27 31  1  0
 31 32  2  0
 23 33  1  0
 33 34  1  0
 34 35  1  6
 34  5  1  0
 34 11  1  0
 22 12  1  0
 32 24  1  0
 21 15  1  0
M  END
>  <supplier_code>  (1406) 
DB08867

>  <zinc_id>  (1406) 
ZINC000003920657

>  <catalog_short_name>  (1406) 
dbfda

$$$$

     RDKit          3D

 32 36  0  0  0  0  0  0  0  0999 V2000
   -3.6336   -3.6410    1.3861 C   0  0  0  0  0  0  0  0  0  0  0  0
   -3.0560   -3.2402    1.2925 C   0  0  0  0  0  0  0  0  0  0  0  0
   -2.2487   -3.0848    2.2025 O   0  0  0  0  0  0  0  0  0  0  0  0
   -2.6791   -2.5830    0.0113 C   0  0  1  0  0  0  0  0  0  0  0  0
   -1.9252   -3.4336   -0.7694 O   0  0  0  0  0  0  0  0  0  0  0  0
   -3.9209   -2.2384   -0.7998 C   0  0  0  0  0  0  0  0  0  0  0  0
   -3.6158   -0.9384   -1.4747 C   0  0  0  0  0  0  0  0  0  0  0  0
   -1.9987   -0.8685   -1.3989 C   0  0  1  0  0  0  0  0  0  0  0  0
   -2.0366    0.8156   -1.1345 C   0  0  2  0  0  0  0  0  0  0  0  0
   -1.1290    1.1596   -2.4467 C   0  0  0  0  0  0  0  0  0  0  0  0
   -0.9757    2.6778   -2.3599 C   0  0  0  0  0  0  0  0  0  0  0  0
   -0.5901    3.0658   -0.9655 C   0  0  0  0  0  0  0  0  0  0  0  0
   -0.4877    4.2942   -0.5407 C   0  0  0  0  0  0  0  0  0  0  0  0
   -0.1136    4.4278    0.8760 C   0  0  0  0  0  0  0  0  0  0  0  0
    0.1561    5.5843    1.3206 O   0  0  0  0  0  0  0  0  0  0  0  0
   -0.2076    3.2754    1.8260 C   0  0  0  0  0  0  0  0  0  0  0  0
    0.4093    2.0170    1.2217 C   0  0  0  0  0  0  0  0  0  0  0  0
   -0.0843    1.9832   -0.1648 C   0  0  0  0  0  0  0  0  0  0  0  0
   -0.7571    0.8390   -0.1823 C   0  0  0  0  0  0  0  0  0  0  0  0
    0.1851   -0.4236   -0.5014 C   0  0  1  0  0  0  0  0  0  0  0  0
    1.4440   -0.0077    0.4310 C   0  0  0  0  0  0  0  0  0  0  0  0
    2.3770    0.4519   -0.5164 C   0  0  0  0  0  0  0  0  0  0  0  0
    3.7137    0.4935   -0.1293 C   0  0  0  0  0  0  0  0  0  0  0  0
    4.1919   -0.7277    0.3289 C   0  0  0  0  0  0  0  0  0  0  0  0
    5.4518   -1.2656   -0.0961 N   0  0  0  0  0  0  0  0  0  0  0  0
    5.4547   -2.6941   -0.4034 C   0  0  0  0  0  0  0  0  0  0  0  0
    6.3611   -0.4595   -0.8991 C   0  0  0  0  0  0  0  0  0  0  0  0
    3.2901   -1.5021    1.0140 C   0  0  0  0  0  0  0  0  0  0  0  0
    1.9724   -1.0777    1.1538 C   0  0  0  0  0  0  0  0  0  0  0  0
   -0.6012   -1.3058    0.6548 C   0  0  0  0  0  0  0  0  0  0  0  0
   -2.0181   -1.2549    0.1754 C   0  0  2  0  0  0  0  0  0  0  0  0
   -2.9284   -0.3384    0.8884 C   0  0  0  0  0  0  0  0  0  0  0  0
  1  2  1  0
  2  3  2  0
  4  2  1  1
  4  5  1  0
  4  6  1  0
  6  7  1  0
  8  7  1  6
  8  9  1  0
  9 10  1  6
 10 11  1  0
 11 12  1  0
 12 13  2  0
 13 14  1  0
 14 15  2  0
 14 16  1  0
 16 17  1  0
 17 18  1  0
 18 19  2  0
 19 20  1  0
 20 21  1  1
 21 22  2  0
 22 23  1  0
 23 24  2  0
 24 25  1  0
 25 26  1  0
 25 27  1  0
 24 28  1  0
 28 29  2  0
 20 30  1  0
 30 31  1  0
 31 32  1  1
 31  4  1  0
 31  8  1  0
 19  9  1  0
 29 21  1  0
 18 12  1  0
M  END
>  <supplier_code>  (1407) 
DB08867

>  <zinc_id>  (1407) 
ZINC000034089131

>  <catalog_short_name>  (1407) 
dbfda

$$$$

     RDKit          3D

 22 22  0  0  0  0  0  0  0  0999 V2000
    7.8852   -0.3850    0.5982 C   0  0  0  0  0  0  0  0  0  0  0  0
    6.4543    0.1039    0.5986 C   0  0  0  0  0  0  0  0  0  0  0  0
    5.5049   -1.0810    0.6215 C   0  0  0  0  0  0  0  0  0  0  0  0
    4.3261   -0.8538   -0.3008 C   0  0  0  0  0  0  0  0  0  0  0  0
    3.1371   -0.3166    0.4759 C   0  0  0  0  0  0  0  0  0  0  0  0
    3.5801    0.9541    1.1776 C   0  0  0  0  0  0  0  0  0  0  0  0
    3.2712    2.1640    0.3226 C   0  0  0  0  0  0  0  0  0  0  0  0
    2.2906    1.7644   -0.7520 C   0  0  0  0  0  0  0  0  0  0  0  0
    0.9528    1.4876   -0.1917 C   0  0  0  0  0  0  0  0  0  0  0  0
    0.0885    0.7524   -0.9940 C   0  0  0  0  0  0  0  0  0  0  0  0
   -1.2539    0.6946   -0.6391 C   0  0  0  0  0  0  0  0  0  0  0  0
   -1.6839    1.0687    0.6279 C   0  0  0  0  0  0  0  0  0  0  0  0
   -2.7106    0.2573    1.3525 C   0  0  0  0  0  0  0  0  0  0  0  0
   -4.0057    0.2107    0.5903 C   0  0  0  0  0  0  0  0  0  0  0  0
   -4.3677   -1.1611    0.1019 C   0  0  0  0  0  0  0  0  0  0  0  0
   -4.1603   -2.1957    1.0891 N   0  0  0  0  0  0  0  0  0  0  0  0
   -5.8570   -1.1367   -0.2218 C   0  0  0  0  0  0  0  0  0  0  0  0
   -6.4183   -2.3996   -0.1988 O   0  0  0  0  0  0  0  0  0  0  0  0
   -3.6657   -1.5172   -1.2034 C   0  0  0  0  0  0  0  0  0  0  0  0
   -2.8649   -2.6572   -1.0311 O   0  0  0  0  0  0  0  0  0  0  0  0
   -0.8990    2.0105    1.2802 C   0  0  0  0  0  0  0  0  0  0  0  0
    0.3962    2.2358    0.8383 C   0  0  0  0  0  0  0  0  0  0  0  0
  1  2  1  0
  2  3  1  0
  3  4  1  0
  4  5  1  0
  5  6  1  0
  6  7  1  0
  7  8  1  0
  8  9  1  0
  9 10  2  0
 10 11  1  0
 11 12  2  0
 12 13  1  0
 13 14  1  0
 14 15  1  0
 15 16  1  0
 15 17  1  0
 17 18  1  0
 15 19  1  0
 19 20  1  0
 12 21  1  0
 21 22  2  0
 22  9  1  0
M  END
>  <supplier_code>  (1408) 
DB08868

>  <zinc_id>  (1408) 
ZINC000001542002

>  <catalog_short_name>  (1408) 
dbfda

$$$$

     RDKit          3D

 52 60  0  0  0  0  0  0  0  0999 V2000
   -2.8128    5.6062   -0.2654 C   0  0  0  0  0  0  0  0  0  0  0  0
   -2.8959    5.0212    0.2403 C   0  0  0  0  0  0  0  0  0  0  0  0
   -4.1059    4.2610    0.3766 C   0  0  0  0  0  0  0  0  0  0  0  0
   -3.3543    3.1409   -0.5816 C   0  0  2  0  0  0  0  0  0  0  0  0
   -4.5004    2.0244   -0.2073 C   0  0  0  0  0  0  0  0  0  0  0  0
   -3.9898    0.9127   -1.0970 C   0  0  0  0  0  0  0  0  0  0  0  0
   -4.5211   -0.3620   -0.4933 C   0  0  1  0  0  0  0  0  0  0  0  0
   -5.1410   -1.1730   -1.5008 C   0  0  0  0  0  0  0  0  0  0  0  0
   -6.1979   -2.1261   -0.6665 C   0  0  1  0  0  0  0  0  0  0  0  0
   -5.4998   -3.3627   -0.3675 O   0  0  0  0  0  0  0  0  0  0  0  0
   -4.2979   -3.3091    0.4804 C   0  0  2  0  0  0  0  0  0  0  0  0
   -4.2325   -1.8583    0.9778 C   0  0  1  0  0  0  0  0  0  0  0  0
   -3.9941   -2.4952   -0.4645 O   0  0  0  0  0  0  0  0  0  0  0  0
   -3.1747   -3.7949   -0.0021 C   0  0  1  0  0  0  0  0  0  0  0  0
   -2.4672   -4.1449   -1.4111 C   0  0  0  0  0  0  0  0  0  0  0  0
   -1.1947   -4.2139   -0.4698 C   0  0  0  0  0  0  0  0  0  0  0  0
   -0.7341   -2.7220    0.1436 C   0  0  2  0  0  0  0  0  0  0  0  0
    0.1882   -3.3210    1.3392 C   0  0  0  0  0  0  0  0  0  0  0  0
    1.3841   -2.7260    0.6412 C   0  0  0  0  0  0  0  0  0  0  0  0
    1.7675   -3.4306   -0.2522 O   0  0  0  0  0  0  0  0  0  0  0  0
    1.7685   -1.3736    1.0058 C   0  0  0  0  0  0  0  0  0  0  0  0
    2.4359   -0.8850   -0.3762 C   0  0  2  0  0  0  0  0  0  0  0  0
    3.7789   -1.8590   -0.0464 C   0  0  1  0  0  0  0  0  0  0  0  0
    4.2057   -1.9914   -1.4655 O   0  0  0  0  0  0  0  0  0  0  0  0
    3.5982   -1.2758   -2.4660 C   0  0  0  0  0  0  0  0  0  0  0  0
    4.7988   -0.5290    0.3747 C   0  0  1  0  0  0  0  0  0  0  0  0
    6.0567   -1.0406   -0.5541 C   0  0  0  0  0  0  0  0  0  0  0  0
    6.7010   -1.9866    0.6391 C   0  0  2  0  0  0  0  0  0  0  0  0
    8.1216   -1.8076    0.1229 O   0  0  0  0  0  0  0  0  0  0  0  0
    6.4406   -3.4081   -0.1532 C   0  0  0  0  0  0  0  0  0  0  0  0
    7.2591   -3.4978   -1.2557 N   0  0  0  0  0  0  0  0  0  0  0  0
    4.2048    0.3480   -0.7076 O   0  0  0  0  0  0  0  0  0  0  0  0
    3.1133    0.4987    0.3402 C   0  0  1  0  0  0  0  0  0  0  0  0
    2.1393    1.4674   -0.5568 C   0  0  0  0  0  0  0  0  0  0  0  0
    3.2144    2.5827   -1.1428 C   0  0  1  0  0  0  0  0  0  0  0  0
    2.1878    3.3844   -1.7922 O   0  0  0  0  0  0  0  0  0  0  0  0
    1.1436    4.2555   -1.2850 C   0  0  1  0  0  0  0  0  0  0  0  0
    0.0720    3.0439   -0.8952 C   0  0  0  0  0  0  0  0  0  0  0  0
   -1.2275    3.7765   -0.9533 C   0  0  0  0  0  0  0  0  0  0  0  0
   -1.6736    4.0143    0.6230 C   0  0  2  0  0  0  0  0  0  0  0  0
   -2.5367    2.7522    0.6292 O   0  0  0  0  0  0  0  0  0  0  0  0
    1.5525    4.4407    0.3044 C   0  0  0  0  0  0  0  0  0  0  0  0
    3.0787    4.8851   -0.0531 C   0  0  1  0  0  0  0  0  0  0  0  0
    3.3722    5.4093    1.4696 C   0  0  0  0  0  0  0  0  0  0  0  0
    3.4044    3.3549    0.2821 C   0  0  0  0  0  0  0  0  0  0  0  0
    4.6199    3.2065    0.7976 C   0  0  0  0  0  0  0  0  0  0  0  0
   -1.8866   -2.4485    1.1425 O   0  0  0  0  0  0  0  0  0  0  0  0
   -1.9793   -2.6314   -0.3597 C   0  0  2  0  0  0  0  0  0  0  0  0
   -3.4888   -2.1377   -0.7209 C   0  0  2  0  0  0  0  0  0  0  0  0
   -3.3078   -0.8826    0.0208 O   0  0  0  0  0  0  0  0  0  0  0  0
   -5.8844   -1.4764    0.8494 C   0  0  1  0  0  0  0  0  0  0  0  0
   -5.5087   -0.1159    0.3366 O   0  0  0  0  0  0  0  0  0  0  0  0
  1  2  2  0
  2  3  1  0
  4  3  1  1
  4  5  1  0
  5  6  1  0
  7  6  1  6
  7  8  1  0
  9  8  1  6
  9 10  1  0
 11 10  1  6
 11 12  1  0
 12 13  1  6
 14 13  1  6
 14 15  1  0
 15 16  1  0
 17 16  1  6
 17 18  1  0
 18 19  1  0
 19 20  2  0
 19 21  1  0
 22 21  1  1
 22 23  1  0
 23 24  1  6
 24 25  1  0
 23 26  1  0
 26 27  1  6
 28 27  1  6
 28 29  1  0
 28 30  1  0
 30 31  1  0
 26 32  1  0
 33 32  1  6
 33 34  1  0
 35 34  1  1
 35 36  1  0
 36 37  1  0
 37 38  1  1
 38 39  1  0
 40 39  1  6
 40 41  1  0
 37 42  1  0
 42 43  1  0
 43 44  1  1
 43 45  1  0
 45 46  2  0
 17 47  1  0
 48 47  1  1
 48 49  1  0
 49 50  1  1
 12 51  1  0
 51 52  1  6
 40  2  1  0
 41  4  1  0
 50  7  1  0
 52  7  1  0
 51  9  1  0
 49 11  1  0
 48 14  1  0
 33 22  1  0
 45 35  1  0
M  END
>  <supplier_code>  (1409) 
DB08871

>  <zinc_id>  (1409) 
ZINC000169344691

>  <catalog_short_name>  (1409) 
dbfda

$$$$

     RDKit          3D

 52 60  0  0  0  0  0  0  0  0999 V2000
   -1.7340    5.4865   -0.6955 C   0  0  0  0  0  0  0  0  0  0  0  0
   -2.1259    5.2454    0.1050 C   0  0  0  0  0  0  0  0  0  0  0  0
   -3.4083    4.5363    0.3115 C   0  0  0  0  0  0  0  0  0  0  0  0
   -2.8821    3.0951   -0.2810 C   0  0  2  0  0  0  0  0  0  0  0  0
   -3.4190    2.2632    1.0398 C   0  0  0  0  0  0  0  0  0  0  0  0
   -4.7859    1.8298    0.5770 C   0  0  0  0  0  0  0  0  0  0  0  0
   -4.9992    0.3699    0.5174 C   0  0  1  0  0  0  0  0  0  0  0  0
   -5.0286    0.0585   -0.9293 C   0  0  0  0  0  0  0  0  0  0  0  0
   -5.9319   -1.3004   -1.1685 C   0  0  1  0  0  0  0  0  0  0  0  0
   -5.0525   -2.4735   -1.0132 O   0  0  0  0  0  0  0  0  0  0  0  0
   -4.2155   -2.5860    0.2584 C   0  0  2  0  0  0  0  0  0  0  0  0
   -4.7512   -1.3882    0.9254 C   0  0  1  0  0  0  0  0  0  0  0  0
   -4.0576   -1.2977   -0.5331 O   0  0  0  0  0  0  0  0  0  0  0  0
   -3.0552   -2.4849   -0.5770 C   0  0  1  0  0  0  0  0  0  0  0  0
   -2.2284   -2.2078   -1.8632 C   0  0  0  0  0  0  0  0  0  0  0  0
   -1.1789   -2.7828   -1.0009 C   0  0  0  0  0  0  0  0  0  0  0  0
   -1.5536   -3.5643    0.3932 C   0  0  1  0  0  0  0  0  0  0  0  0
   -0.0357   -3.3119    0.9805 C   0  0  0  0  0  0  0  0  0  0  0  0
    0.8623   -3.0471   -0.1339 C   0  0  0  0  0  0  0  0  0  0  0  0
    0.9663   -3.9376   -0.9806 O   0  0  0  0  0  0  0  0  0  0  0  0
    1.2307   -1.6714   -0.6283 C   0  0  0  0  0  0  0  0  0  0  0  0
    2.8313   -1.6580   -0.6975 C   0  0  2  0  0  0  0  0  0  0  0  0
    2.9438   -2.2518    0.8675 C   0  0  1  0  0  0  0  0  0  0  0  0
    3.6797   -3.4372    0.3241 O   0  0  0  0  0  0  0  0  0  0  0  0
    3.4831   -4.3419    1.4135 C   0  0  0  0  0  0  0  0  0  0  0  0
    4.2704   -1.2776    1.3440 C   0  0  1  0  0  0  0  0  0  0  0  0
    5.4373   -2.4187    1.2065 C   0  0  0  0  0  0  0  0  0  0  0  0
    5.8708   -2.4235   -0.3706 C   0  0  2  0  0  0  0  0  0  0  0  0
    6.3956   -3.8523   -0.3152 O   0  0  0  0  0  0  0  0  0  0  0  0
    7.3933   -1.8671   -0.0851 C   0  0  0  0  0  0  0  0  0  0  0  0
    7.3080   -0.6196    0.5754 N   0  0  0  0  0  0  0  0  0  0  0  0
    4.4796   -0.5993    0.0277 O   0  0  0  0  0  0  0  0  0  0  0  0
    3.0567   -0.1140   -0.0620 C   0  0  1  0  0  0  0  0  0  0  0  0
    3.3651    0.5594   -1.5200 C   0  0  0  0  0  0  0  0  0  0  0  0
    2.5364    1.9835   -1.4601 C   0  0  1  0  0  0  0  0  0  0  0  0
    2.2168    1.9922    0.0328 O   0  0  0  0  0  0  0  0  0  0  0  0
    1.0216    2.8763   -0.2920 C   0  0  1  0  0  0  0  0  0  0  0  0
    0.8174    3.4382    1.2515 C   0  0  0  0  0  0  0  0  0  0  0  0
    0.0002    4.6986    1.0194 C   0  0  0  0  0  0  0  0  0  0  0  0
   -1.5721    4.2467    1.2648 C   0  0  2  0  0  0  0  0  0  0  0  0
   -1.4757    3.1406    0.2566 O   0  0  0  0  0  0  0  0  0  0  0  0
    1.7963    4.2061   -0.7860 C   0  0  0  0  0  0  0  0  0  0  0  0
    3.3744    4.2789   -0.4779 C   0  0  1  0  0  0  0  0  0  0  0  0
    3.3995    3.7358    1.0762 C   0  0  0  0  0  0  0  0  0  0  0  0
    3.8352    2.8902   -1.1676 C   0  0  0  0  0  0  0  0  0  0  0  0
    4.8908    2.4132   -0.6508 C   0  0  0  0  0  0  0  0  0  0  0  0
   -2.0928   -2.4629    1.3399 O   0  0  0  0  0  0  0  0  0  0  0  0
   -1.9076   -1.4599    0.2418 C   0  0  2  0  0  0  0  0  0  0  0  0
   -3.4304   -0.9046    0.0137 C   0  0  2  0  0  0  0  0  0  0  0  0
   -3.8822   -0.2065    1.2390 O   0  0  0  0  0  0  0  0  0  0  0  0
   -6.3759   -1.4369    0.4518 C   0  0  1  0  0  0  0  0  0  0  0  0
   -6.2822    0.0411    0.7518 O   0  0  0  0  0  0  0  0  0  0  0  0
  1  2  2  0
  2  3  1  0
  4  3  1  1
  4  5  1  0
  5  6  1  0
  7  6  1  6
  7  8  1  0
  9  8  1  1
  9 10  1  0
 11 10  1  6
 11 12  1  0
 12 13  1  6
 14 13  1  6
 14 15  1  0
 15 16  1  0
 17 16  1  6
 17 18  1  0
 18 19  1  0
 19 20  2  0
 19 21  1  0
 22 21  1  1
 22 23  1  0
 23 24  1  6
 24 25  1  0
 23 26  1  0
 26 27  1  6
 28 27  1  1
 28 29  1  0
 28 30  1  0
 30 31  1  0
 26 32  1  0
 33 32  1  1
 33 34  1  0
 35 34  1  1
 35 36  1  0
 36 37  1  0
 37 38  1  1
 38 39  1  0
 40 39  1  6
 40 41  1  0
 37 42  1  0
 42 43  1  0
 43 44  1  1
 43 45  1  0
 45 46  2  0
 17 47  1  0
 48 47  1  1
 48 49  1  0
 49 50  1  1
 12 51  1  0
 51 52  1  1
 40  2  1  0
 41  4  1  0
 50  7  1  0
 52  7  1  0
 51  9  1  0
 49 11  1  0
 48 14  1  0
 33 22  1  0
 45 35  1  0
M  END
>  <supplier_code>  (1410) 
DB08871

>  <zinc_id>  (1410) 
ZINC000169621219

>  <catalog_short_name>  (1410) 
dbfda

$$$$

     RDKit          3D

 23 23  0  0  0  0  0  0  0  0999 V2000
   -4.5541   -2.0330   -1.6756 C   0  0  0  0  0  0  0  0  0  0  0  0
   -5.1105   -1.4524   -0.9603 C   0  0  0  0  0  0  0  0  0  0  0  0
   -5.5342   -2.1046    0.3260 C   0  0  0  0  0  0  0  0  0  0  0  0
   -4.4471   -0.1580   -0.6108 C   0  0  0  0  0  0  0  0  0  0  0  0
   -5.2292    0.8338   -0.5131 O   0  0  0  0  0  0  0  0  0  0  0  0
   -3.0585   -0.0054   -0.6470 O   0  0  0  0  0  0  0  0  0  0  0  0
   -2.6532    1.4809   -0.4734 C   0  0  1  0  0  0  0  0  0  0  0  0
   -2.4857    1.3001    1.1663 C   0  0  0  0  0  0  0  0  0  0  0  0
   -1.1637    1.1861   -0.7555 O   0  0  0  0  0  0  0  0  0  0  0  0
   -0.5627    0.1525   -0.1042 C   0  0  0  0  0  0  0  0  0  0  0  0
   -0.8792    0.0112    1.1154 O   0  0  0  0  0  0  0  0  0  0  0  0
    0.7827   -0.1878   -0.4444 N   0  0  0  0  0  0  0  0  0  0  0  0
    1.8768   -0.1711    0.5225 C   0  0  0  0  0  0  0  0  0  0  0  0
    3.0937    0.2944   -0.2596 C   0  0  0  0  0  0  0  0  0  0  0  0
    3.5310   -0.8639   -1.1075 C   0  0  0  0  0  0  0  0  0  0  0  0
    3.6089   -2.1452   -0.3461 C   0  0  0  0  0  0  0  0  0  0  0  0
    4.3441   -3.0345   -0.8710 O   0  0  0  0  0  0  0  0  0  0  0  0
    2.5363   -2.6292    0.4103 O   0  0  0  0  0  0  0  0  0  0  0  0
    2.6605    1.4009   -1.2121 C   0  0  0  0  0  0  0  0  0  0  0  0
    2.5125    2.7288   -0.5300 C   0  0  0  0  0  0  0  0  0  0  0  0
    2.6025    2.6338    0.9681 C   0  0  0  0  0  0  0  0  0  0  0  0
    3.9135    2.0215    1.3622 C   0  0  0  0  0  0  0  0  0  0  0  0
    4.2159    0.7412    0.6294 C   0  0  0  0  0  0  0  0  0  0  0  0
  1  2  1  0
  2  3  1  0
  2  4  1  0
  4  5  2  0
  4  6  1  0
  7  6  1  6
  7  8  1  0
  7  9  1  0
  9 10  1  0
 10 11  2  0
 10 12  1  0
 12 13  1  0
 13 14  1  0
 14 15  1  0
 15 16  1  0
 16 17  2  0
 16 18  1  0
 14 19  1  0
 19 20  1  0
 20 21  1  0
 21 22  1  0
 22 23  1  0
 23 14  1  0
M  END
>  <supplier_code>  (1411) 
DB08872

>  <zinc_id>  (1411) 
ZINC000001554010

>  <catalog_short_name>  (1411) 
dbfda

$$$$

     RDKit          3D

 23 23  0  0  0  0  0  0  0  0999 V2000
    6.2596    1.2352   -0.9284 C   0  0  0  0  0  0  0  0  0  0  0  0
    4.8631    1.2397   -0.9291 C   0  0  0  0  0  0  0  0  0  0  0  0
    4.4631    2.6096   -0.3911 C   0  0  0  0  0  0  0  0  0  0  0  0
    4.2879    0.2384    0.0209 C   0  0  0  0  0  0  0  0  0  0  0  0
    5.1460   -0.3794    0.7161 O   0  0  0  0  0  0  0  0  0  0  0  0
    2.9646   -0.1451   -0.0425 O   0  0  0  0  0  0  0  0  0  0  0  0
    2.7732   -1.5333    0.6296 C   0  0  2  0  0  0  0  0  0  0  0  0
    1.7995   -2.0679   -0.6075 C   0  0  0  0  0  0  0  0  0  0  0  0
    1.5794   -1.0325    1.4821 O   0  0  0  0  0  0  0  0  0  0  0  0
    0.5998   -0.3391    0.8674 C   0  0  0  0  0  0  0  0  0  0  0  0
    0.6051   -0.0478   -0.3339 O   0  0  0  0  0  0  0  0  0  0  0  0
   -0.5848   -0.0913    1.6086 N   0  0  0  0  0  0  0  0  0  0  0  0
   -1.8072    0.2579    1.1981 C   0  0  0  0  0  0  0  0  0  0  0  0
   -2.5976   -0.1792    0.0864 C   0  0  0  0  0  0  0  0  0  0  0  0
   -2.5938    0.9296   -0.9641 C   0  0  0  0  0  0  0  0  0  0  0  0
   -2.8981    2.2353   -0.3451 C   0  0  0  0  0  0  0  0  0  0  0  0
   -3.8726    2.8692   -0.8551 O   0  0  0  0  0  0  0  0  0  0  0  0
   -2.6738    2.5462    0.9943 O   0  0  0  0  0  0  0  0  0  0  0  0
   -2.2589   -1.4598   -0.6065 C   0  0  0  0  0  0  0  0  0  0  0  0
   -2.8328   -2.6650    0.0793 C   0  0  0  0  0  0  0  0  0  0  0  0
   -4.3277   -2.6775   -0.1258 C   0  0  0  0  0  0  0  0  0  0  0  0
   -4.8483   -1.2705   -0.2150 C   0  0  0  0  0  0  0  0  0  0  0  0
   -4.0457   -0.2726    0.5610 C   0  0  0  0  0  0  0  0  0  0  0  0
  1  2  1  0
  2  3  1  0
  2  4  1  0
  4  5  2  0
  4  6  1  0
  7  6  1  6
  7  8  1  0
  7  9  1  0
  9 10  1  0
 10 11  2  0
 10 12  1  0
 12 13  1  0
 13 14  1  0
 14 15  1  0
 15 16  1  0
 16 17  2  0
 16 18  1  0
 14 19  1  0
 19 20  1  0
 20 21  1  0
 21 22  1  0
 22 23  1  0
 23 14  1  0
M  END
>  <supplier_code>  (1412) 
DB08872

>  <zinc_id>  (1412) 
ZINC000013973998

>  <catalog_short_name>  (1412) 
dbfda

$$$$

     RDKit          3D

 37 39  0  0  0  0  0  0  0  0999 V2000
    6.5895    1.5099    0.4227 C   0  0  0  0  0  0  0  0  0  0  0  0
    6.8335    1.3497    0.3148 C   0  0  0  0  0  0  0  0  0  0  0  0
    7.7824    1.2364    1.4594 C   0  0  0  0  0  0  0  0  0  0  0  0
    7.3030    2.1463   -0.8518 C   0  0  0  0  0  0  0  0  0  0  0  0
    6.1615    0.1115   -0.0404 N   0  0  0  0  0  0  0  0  0  0  0  0
    4.8861   -0.1295    0.5346 C   0  0  0  0  0  0  0  0  0  0  0  0
    4.6309    0.3996    1.6572 O   0  0  0  0  0  0  0  0  0  0  0  0
    3.8206   -0.8376   -0.0634 N   0  0  0  0  0  0  0  0  0  0  0  0
    2.4367   -0.0774   -0.1010 C   0  0  2  0  0  0  0  0  0  0  0  0
    1.4908   -1.3871   -0.1395 C   0  0  0  0  0  0  0  0  0  0  0  0
    1.9800   -2.4808   -0.0217 O   0  0  0  0  0  0  0  0  0  0  0  0
    0.1864   -0.9409    0.2520 N   0  0  0  0  0  0  0  0  0  0  0  0
   -0.3287   -0.0556    1.0733 C   0  0  0  0  0  0  0  0  0  0  0  0
   -1.1160   -0.9154    2.2250 C   0  0  1  0  0  0  0  0  0  0  0  0
   -1.6126   -2.2064    1.3082 C   0  0  1  0  0  0  0  0  0  0  0  0
   -1.1106   -1.6555   -0.2292 C   0  0  1  0  0  0  0  0  0  0  0  0
   -2.1055   -0.3797   -0.3035 C   0  0  0  0  0  0  0  0  0  0  0  0
   -2.4587   -0.0294   -1.4428 O   0  0  0  0  0  0  0  0  0  0  0  0
   -2.8454    0.1201    0.6095 N   0  0  0  0  0  0  0  0  0  0  0  0
   -4.4048    0.1103    0.7483 C   0  0  1  0  0  0  0  0  0  0  0  0
   -4.6688    1.6810    0.3423 C   0  0  0  0  0  0  0  0  0  0  0  0
   -3.4626    2.3666    0.0309 C   0  0  0  0  0  0  0  0  0  0  0  0
   -3.7538    3.6232   -0.7627 C   0  0  0  0  0  0  0  0  0  0  0  0
   -3.2811    4.4352    0.4292 C   0  0  0  0  0  0  0  0  0  0  0  0
   -2.6822    3.1655    1.0204 C   0  0  0  0  0  0  0  0  0  0  0  0
   -4.7977   -0.4316   -0.7342 C   0  0  0  0  0  0  0  0  0  0  0  0
   -4.5156   -1.6693   -0.8939 O   0  0  0  0  0  0  0  0  0  0  0  0
   -6.2795   -0.3860   -0.6485 C   0  0  0  0  0  0  0  0  0  0  0  0
   -6.9417   -1.2089    0.3238 N   0  0  0  0  0  0  0  0  0  0  0  0
   -6.9761    0.4411   -1.2604 O   0  0  0  0  0  0  0  0  0  0  0  0
   -0.1283   -2.2937    2.1581 C   0  0  0  0  0  0  0  0  0  0  0  0
   -0.5111   -3.6881    2.3350 C   0  0  0  0  0  0  0  0  0  0  0  0
   -0.2373   -2.2123    3.6481 C   0  0  0  0  0  0  0  0  0  0  0  0
    2.4937    0.0430   -1.7393 C   0  0  0  0  0  0  0  0  0  0  0  0
    1.1944    0.6328   -2.1608 C   0  0  0  0  0  0  0  0  0  0  0  0
    3.6756    0.9403   -2.0221 C   0  0  0  0  0  0  0  0  0  0  0  0
    2.7530   -1.3273   -2.2729 C   0  0  0  0  0  0  0  0  0  0  0  0
  1  2  1  0
  2  3  1  0
  2  4  1  0
  2  5  1  0
  5  6  1  0
  6  7  2  0
  6  8  1  0
  9  8  1  6
  9 10  1  0
 10 11  2  0
 10 12  1  0
 12 13  1  0
 14 13  1  6
 14 15  1  0
 15 16  1  0
 16 17  1  1
 17 18  2  0
 17 19  1  0
 20 19  1  6
 20 21  1  0
 21 22  1  0
 22 23  1  0
 23 24  1  0
 24 25  1  0
 20 26  1  0
 26 27  2  0
 26 28  1  0
 28 29  1  0
 28 30  2  0
 15 31  1  1
 31 32  1  0
 31 33  1  0
  9 34  1  0
 34 35  1  0
 34 36  1  0
 34 37  1  0
 16 12  1  0
 25 22  1  0
 31 14  1  0
M  END
>  <supplier_code>  (1413) 
DB08873

>  <zinc_id>  (1413) 
ZINC000014210455

>  <catalog_short_name>  (1413) 
dbfda

$$$$

     RDKit          3D

 37 39  0  0  0  0  0  0  0  0999 V2000
    6.4208   -1.8127    0.5130 C   0  0  0  0  0  0  0  0  0  0  0  0
    6.7171   -1.5818    0.0862 C   0  0  0  0  0  0  0  0  0  0  0  0
    7.9862   -0.9033    0.6026 C   0  0  0  0  0  0  0  0  0  0  0  0
    7.0912   -2.7858   -0.7786 C   0  0  0  0  0  0  0  0  0  0  0  0
    5.9790   -0.5900   -0.7096 N   0  0  0  0  0  0  0  0  0  0  0  0
    4.6152   -0.3232   -0.3602 C   0  0  0  0  0  0  0  0  0  0  0  0
    4.0217   -1.3970   -0.0314 O   0  0  0  0  0  0  0  0  0  0  0  0
    3.7735    0.6358   -1.0206 N   0  0  0  0  0  0  0  0  0  0  0  0
    2.6851    1.0890    0.0390 C   0  0  2  0  0  0  0  0  0  0  0  0
    1.4210    0.3471   -0.6542 C   0  0  0  0  0  0  0  0  0  0  0  0
    1.4839   -0.0259   -1.8020 O   0  0  0  0  0  0  0  0  0  0  0  0
    0.4886    0.0948    0.3511 N   0  0  0  0  0  0  0  0  0  0  0  0
    1.0171   -0.5669    1.5650 C   0  0  0  0  0  0  0  0  0  0  0  0
   -0.0270    0.2381    2.5382 C   0  0  1  0  0  0  0  0  0  0  0  0
   -1.4191   -0.1658    1.6569 C   0  0  1  0  0  0  0  0  0  0  0  0
   -0.5802   -1.0374    0.4394 C   0  0  1  0  0  0  0  0  0  0  0  0
   -1.5974   -0.4480   -0.6577 C   0  0  0  0  0  0  0  0  0  0  0  0
   -1.3333   -0.5379   -1.8502 O   0  0  0  0  0  0  0  0  0  0  0  0
   -2.8037   -1.1800   -0.4091 N   0  0  0  0  0  0  0  0  0  0  0  0
   -4.1245   -0.7100   -1.1212 C   0  0  2  0  0  0  0  0  0  0  0  0
   -3.6932    0.8758   -1.1801 C   0  0  0  0  0  0  0  0  0  0  0  0
   -4.9175    1.7030   -1.1844 C   0  0  0  0  0  0  0  0  0  0  0  0
   -5.2823    2.4234   -2.4532 C   0  0  0  0  0  0  0  0  0  0  0  0
   -4.2397    3.4649   -2.0542 C   0  0  0  0  0  0  0  0  0  0  0  0
   -4.5452    3.0717   -0.6092 C   0  0  0  0  0  0  0  0  0  0  0  0
   -4.8558   -0.5554    0.3174 C   0  0  0  0  0  0  0  0  0  0  0  0
   -5.9518    0.0224    0.3191 O   0  0  0  0  0  0  0  0  0  0  0  0
   -4.8918   -1.8243    1.0679 C   0  0  0  0  0  0  0  0  0  0  0  0
   -4.7563   -3.0866    0.4300 N   0  0  0  0  0  0  0  0  0  0  0  0
   -5.0583   -1.8115    2.2970 O   0  0  0  0  0  0  0  0  0  0  0  0
   -0.9535   -1.1151    2.9890 C   0  0  0  0  0  0  0  0  0  0  0  0
   -0.4679   -2.4028    2.7622 C   0  0  0  0  0  0  0  0  0  0  0  0
   -1.6310   -0.5956    4.2178 C   0  0  0  0  0  0  0  0  0  0  0  0
    2.4204    2.5493   -0.6594 C   0  0  0  0  0  0  0  0  0  0  0  0
    1.5417    2.4832   -1.7943 C   0  0  0  0  0  0  0  0  0  0  0  0
    1.7132    3.2578    0.4967 C   0  0  0  0  0  0  0  0  0  0  0  0
    3.7537    3.2006   -0.8128 C   0  0  0  0  0  0  0  0  0  0  0  0
  1  2  1  0
  2  3  1  0
  2  4  1  0
  2  5  1  0
  5  6  1  0
  6  7  2  0
  6  8  1  0
  9  8  1  6
  9 10  1  0
 10 11  2  0
 10 12  1  0
 12 13  1  0
 14 13  1  6
 14 15  1  0
 15 16  1  0
 16 17  1  6
 17 18  2  0
 17 19  1  0
 20 19  1  1
 20 21  1  0
 21 22  1  0
 22 23  1  0
 23 24  1  0
 24 25  1  0
 20 26  1  0
 26 27  2  0
 26 28  1  0
 28 29  1  0
 28 30  2  0
 15 31  1  1
 31 32  1  0
 31 33  1  0
  9 34  1  0
 34 35  1  0
 34 36  1  0
 34 37  1  0
 16 12  1  0
 25 22  1  0
 31 14  1  0
M  END
>  <supplier_code>  (1414) 
DB08873

>  <zinc_id>  (1414) 
ZINC000014210457

>  <catalog_short_name>  (1414) 
dbfda

$$$$

     RDKit          3D

 37 41  0  0  0  0  0  0  0  0999 V2000
   -5.9375    3.7279    0.8405 C   0  0  0  0  0  0  0  0  0  0  0  0
   -6.8326    2.6628    0.6445 O   0  0  0  0  0  0  0  0  0  0  0  0
   -6.4570    1.3796    0.2833 C   0  0  0  0  0  0  0  0  0  0  0  0
   -6.7186    0.9323   -1.0060 C   0  0  0  0  0  0  0  0  0  0  0  0
   -6.1850   -0.3068   -1.3387 C   0  0  0  0  0  0  0  0  0  0  0  0
   -6.1623   -0.6886   -2.6360 N   0  0  0  0  0  0  0  0  0  0  0  0
   -5.4985   -1.7990   -2.9990 C   0  0  0  0  0  0  0  0  0  0  0  0
   -4.6527   -2.4619   -2.1254 C   0  0  0  0  0  0  0  0  0  0  0  0
   -4.5096   -1.9900   -0.8283 C   0  0  0  0  0  0  0  0  0  0  0  0
   -3.2781   -2.1515   -0.1868 O   0  0  0  0  0  0  0  0  0  0  0  0
   -2.3172   -1.1695   -0.4403 C   0  0  0  0  0  0  0  0  0  0  0  0
   -1.4348   -1.2708   -1.5091 C   0  0  0  0  0  0  0  0  0  0  0  0
   -0.1020   -0.9213   -1.3404 C   0  0  0  0  0  0  0  0  0  0  0  0
    0.3098   -0.2437   -0.1993 C   0  0  0  0  0  0  0  0  0  0  0  0
    1.6149   -0.4360    0.3583 N   0  0  0  0  0  0  0  0  0  0  0  0
    2.7487   -0.4343   -0.5172 C   0  0  0  0  0  0  0  0  0  0  0  0
    2.7816    0.4935   -1.3606 O   0  0  0  0  0  0  0  0  0  0  0  0
    3.9370   -1.2760   -0.1809 C   0  0  0  0  0  0  0  0  0  0  0  0
    5.2677   -0.7705   -0.6160 C   0  0  0  0  0  0  0  0  0  0  0  0
    5.4192   -0.3690   -1.8080 O   0  0  0  0  0  0  0  0  0  0  0  0
    6.3593   -0.5802    0.2651 N   0  0  0  0  0  0  0  0  0  0  0  0
    7.2803    0.5080    0.1240 C   0  0  0  0  0  0  0  0  0  0  0  0
    8.6190    0.3540    0.4641 C   0  0  0  0  0  0  0  0  0  0  0  0
    9.3598    1.4222    0.9555 C   0  0  0  0  0  0  0  0  0  0  0  0
    8.7181    2.5691    1.4021 C   0  0  0  0  0  0  0  0  0  0  0  0
    9.0427    3.1989    2.5519 F   0  0  0  0  0  0  0  0  0  0  0  0
    7.4810    2.8211    0.8228 C   0  0  0  0  0  0  0  0  0  0  0  0
    6.8149    1.8174    0.1335 C   0  0  0  0  0  0  0  0  0  0  0  0
    3.9620   -1.7939    1.2850 C   0  0  0  0  0  0  0  0  0  0  0  0
    3.7523   -2.7109    0.1506 C   0  0  0  0  0  0  0  0  0  0  0  0
   -0.7162    0.3049    0.5606 C   0  0  0  0  0  0  0  0  0  0  0  0
   -2.0183   -0.1729    0.4808 C   0  0  0  0  0  0  0  0  0  0  0  0
   -5.4135   -1.0145   -0.4251 C   0  0  0  0  0  0  0  0  0  0  0  0
   -5.3674   -0.6149    0.9035 C   0  0  0  0  0  0  0  0  0  0  0  0
   -6.2156    0.4196    1.2573 C   0  0  0  0  0  0  0  0  0  0  0  0
   -6.4930    0.7334    2.5883 O   0  0  0  0  0  0  0  0  0  0  0  0
   -7.1584   -0.1684    3.4453 C   0  0  0  0  0  0  0  0  0  0  0  0
  1  2  1  0
  2  3  1  0
  3  4  2  0
  4  5  1  0
  5  6  2  0
  6  7  1  0
  7  8  2  0
  8  9  1  0
  9 10  1  0
 10 11  1  0
 11 12  2  0
 12 13  1  0
 13 14  2  0
 14 15  1  0
 15 16  1  0
 16 17  2  0
 16 18  1  0
 18 19  1  0
 19 20  2  0
 19 21  1  0
 21 22  1  0
 22 23  2  0
 23 24  1  0
 24 25  2  0
 25 26  1  0
 25 27  1  0
 27 28  2  0
 18 29  1  0
 29 30  1  0
 14 31  1  0
 31 32  2  0
  9 33  2  0
 33 34  1  0
 34 35  2  0
 35 36  1  0
 36 37  1  0
 35  3  1  0
 33  5  1  0
 32 11  1  0
 30 18  1  0
 28 22  1  0
M  END
>  <supplier_code>  (1415) 
DB08875

>  <zinc_id>  (1415) 
ZINC000070466416

>  <catalog_short_name>  (1415) 
dbfda

$$$$

     RDKit          3D

 23 26  0  0  0  0  0  0  0  0999 V2000
    3.9286   -3.3493   -0.2917 N   0  0  0  0  0  0  0  0  0  0  0  0
    3.4756   -2.4919    0.3536 C   0  0  0  0  0  0  0  0  0  0  0  0
    2.6881   -1.4361    1.0183 C   0  0  0  0  0  0  0  0  0  0  0  0
    2.8710   -0.1844   -0.0370 C   0  0  2  0  0  0  0  0  0  0  0  0
    2.3449    0.9236    1.0624 C   0  0  0  0  0  0  0  0  0  0  0  0
    3.6422    1.3125    1.7090 C   0  0  0  0  0  0  0  0  0  0  0  0
    4.1737    2.5062    0.9332 C   0  0  0  0  0  0  0  0  0  0  0  0
    3.3544    2.4994   -0.3523 C   0  0  0  0  0  0  0  0  0  0  0  0
    1.9838    2.1110    0.1822 C   0  0  0  0  0  0  0  0  0  0  0  0
    1.4463   -0.3908   -0.6651 N   0  0  0  0  0  0  0  0  0  0  0  0
    0.3262   -0.5284    0.0020 C   0  0  0  0  0  0  0  0  0  0  0  0
   -0.6744   -0.5822   -0.9639 C   0  0  0  0  0  0  0  0  0  0  0  0
   -2.1090   -0.6599   -0.7602 C   0  0  0  0  0  0  0  0  0  0  0  0
   -2.8940   -1.3715   -1.5926 N   0  0  0  0  0  0  0  0  0  0  0  0
   -4.2047   -1.1286   -1.6218 C   0  0  0  0  0  0  0  0  0  0  0  0
   -4.8257   -0.4758   -0.6101 N   0  0  0  0  0  0  0  0  0  0  0  0
   -4.0687    0.0196    0.3989 C   0  0  0  0  0  0  0  0  0  0  0  0
   -4.3869    0.7755    1.4783 N   0  0  0  0  0  0  0  0  0  0  0  0
   -3.2434    1.2490    1.9953 C   0  0  0  0  0  0  0  0  0  0  0  0
   -2.1780    0.8095    1.2593 C   0  0  0  0  0  0  0  0  0  0  0  0
   -2.6885   -0.0158    0.2982 C   0  0  0  0  0  0  0  0  0  0  0  0
   -0.1394    0.1389   -2.0255 C   0  0  0  0  0  0  0  0  0  0  0  0
    1.1779    0.2697   -1.7704 N   0  0  0  0  0  0  0  0  0  0  0  0
  1  2  3  0
  2  3  1  0
  4  3  1  1
  4  5  1  0
  5  6  1  0
  6  7  1  0
  7  8  1  0
  8  9  1  0
  4 10  1  0
 10 11  1  0
 11 12  2  0
 12 13  1  0
 13 14  2  0
 14 15  1  0
 15 16  2  0
 16 17  1  0
 17 18  1  0
 18 19  1  0
 19 20  2  0
 20 21  1  0
 12 22  1  0
 22 23  2  0
  9  5  1  0
 23 10  1  0
 21 13  1  0
 21 17  2  0
M  END
>  <supplier_code>  (1416) 
DB08877

>  <zinc_id>  (1416) 
ZINC000043207851

>  <catalog_short_name>  (1416) 
dbfda

$$$$

     RDKit          3D

 19 19  0  0  0  0  0  0  0  0999 V2000
    5.6694   -0.6062   -0.5169 C   0  0  0  0  0  0  0  0  0  0  0  0
    4.2893   -0.8088    0.0031 C   0  0  0  0  0  0  0  0  0  0  0  0
    3.8982   -2.1029    0.2667 O   0  0  0  0  0  0  0  0  0  0  0  0
    3.3587    0.1437   -0.0405 C   0  0  0  0  0  0  0  0  0  0  0  0
    3.8040    1.5113   -0.1892 C   0  0  0  0  0  0  0  0  0  0  0  0
    4.1163    2.5499   -0.6223 N   0  0  0  0  0  0  0  0  0  0  0  0
    1.9554   -0.1717   -0.3403 C   0  0  0  0  0  0  0  0  0  0  0  0
    1.6280   -0.0324   -1.5579 O   0  0  0  0  0  0  0  0  0  0  0  0
    0.9835    0.3033    0.5996 N   0  0  0  0  0  0  0  0  0  0  0  0
   -0.3996    0.0455    0.3318 C   0  0  0  0  0  0  0  0  0  0  0  0
   -1.1031   -0.9443    1.0069 C   0  0  0  0  0  0  0  0  0  0  0  0
   -2.4763   -0.9749    0.8031 C   0  0  0  0  0  0  0  0  0  0  0  0
   -3.0600   -0.1308   -0.1029 C   0  0  0  0  0  0  0  0  0  0  0  0
   -4.5296    0.0659   -0.0460 C   0  0  0  0  0  0  0  0  0  0  0  0
   -5.1459   -1.1035   -0.4455 F   0  0  0  0  0  0  0  0  0  0  0  0
   -4.9159    1.0611   -0.9193 F   0  0  0  0  0  0  0  0  0  0  0  0
   -4.9365    0.3905    1.2224 F   0  0  0  0  0  0  0  0  0  0  0  0
   -2.2570    0.4002   -1.0781 C   0  0  0  0  0  0  0  0  0  0  0  0
   -0.8789    0.4042   -0.9006 C   0  0  0  0  0  0  0  0  0  0  0  0
  1  2  1  0
  2  3  1  0
  2  4  2  0
  4  5  1  0
  5  6  3  0
  4  7  1  0
  7  8  2  0
  7  9  1  0
  9 10  1  0
 10 11  2  0
 11 12  1  0
 12 13  2  0
 13 14  1  0
 14 15  1  0
 14 16  1  0
 14 17  1  0
 13 18  1  0
 18 19  2  0
 19 10  1  0
M  END
>  <supplier_code>  (1417) 
DB08880

>  <zinc_id>  (1417) 
ZINC000013512456

>  <catalog_short_name>  (1417) 
dbfda

$$$$

     RDKit          3D

 33 36  0  0  0  0  0  0  0  0999 V2000
    8.9698    1.3206   -0.1904 C   0  0  0  0  0  0  0  0  0  0  0  0
    8.2482    0.3512    0.7199 C   0  0  0  0  0  0  0  0  0  0  0  0
    7.1539    1.0888    1.4802 C   0  0  0  0  0  0  0  0  0  0  0  0
    5.8092    1.5288    0.4152 S   0  0  0  0  0  0  0  0  0  0  0  0
    5.1230    2.7527    0.9699 O   0  0  0  0  0  0  0  0  0  0  0  0
    6.2319    1.7203   -1.0024 O   0  0  0  0  0  0  0  0  0  0  0  0
    4.6664    0.2487    0.4505 N   0  0  0  0  0  0  0  0  0  0  0  0
    3.3961    0.3811   -0.1866 C   0  0  0  0  0  0  0  0  0  0  0  0
    3.1993    1.3907   -1.1052 C   0  0  0  0  0  0  0  0  0  0  0  0
    2.0842    1.3455   -1.9206 C   0  0  0  0  0  0  0  0  0  0  0  0
    1.2235    0.2638   -1.8362 C   0  0  0  0  0  0  0  0  0  0  0  0
    0.2439    0.1558   -2.7797 F   0  0  0  0  0  0  0  0  0  0  0  0
    1.3075   -0.6736   -0.8243 C   0  0  0  0  0  0  0  0  0  0  0  0
    0.2386   -1.6365   -0.5798 C   0  0  0  0  0  0  0  0  0  0  0  0
    0.2584   -2.6925   -1.2763 O   0  0  0  0  0  0  0  0  0  0  0  0
   -0.5372   -1.6813    0.6466 C   0  0  0  0  0  0  0  0  0  0  0  0
   -0.1130   -1.3255    1.9214 C   0  0  0  0  0  0  0  0  0  0  0  0
   -1.1381   -1.6423    2.7304 N   0  0  0  0  0  0  0  0  0  0  0  0
   -2.2240   -1.9979    2.0017 C   0  0  0  0  0  0  0  0  0  0  0  0
   -3.5316   -2.1974    2.2924 N   0  0  0  0  0  0  0  0  0  0  0  0
   -4.5223   -1.8144    1.4500 C   0  0  0  0  0  0  0  0  0  0  0  0
   -4.2408   -1.2126    0.2283 C   0  0  0  0  0  0  0  0  0  0  0  0
   -5.0575   -0.0823   -0.2333 C   0  0  0  0  0  0  0  0  0  0  0  0
   -4.7095    1.2083    0.1412 C   0  0  0  0  0  0  0  0  0  0  0  0
   -5.5454    2.2867   -0.0471 C   0  0  0  0  0  0  0  0  0  0  0  0
   -6.5717    2.1331   -0.9711 C   0  0  0  0  0  0  0  0  0  0  0  0
   -7.2720    3.5412   -1.7601 Cl  0  0  0  0  0  0  0  0  0  0  0  0
   -6.8261    0.8801   -1.5149 C   0  0  0  0  0  0  0  0  0  0  0  0
   -6.1683   -0.2422   -1.0260 C   0  0  0  0  0  0  0  0  0  0  0  0
   -2.9321   -1.3941   -0.2043 C   0  0  0  0  0  0  0  0  0  0  0  0
   -1.9225   -1.8024    0.6594 C   0  0  0  0  0  0  0  0  0  0  0  0
    2.3990   -0.5490    0.0267 C   0  0  0  0  0  0  0  0  0  0  0  0
    2.7594   -1.6537    0.7423 F   0  0  0  0  0  0  0  0  0  0  0  0
  1  2  1  0
  2  3  1  0
  3  4  1  0
  4  5  2  0
  4  6  2  0
  4  7  1  0
  7  8  1  0
  8  9  2  0
  9 10  1  0
 10 11  2  0
 11 12  1  0
 11 13  1  0
 13 14  1  0
 14 15  2  0
 14 16  1  0
 16 17  2  0
 17 18  1  0
 18 19  1  0
 19 20  2  0
 20 21  1  0
 21 22  2  0
 22 23  1  0
 23 24  2  0
 24 25  1  0
 25 26  2  0
 26 27  1  0
 26 28  1  0
 28 29  2  0
 22 30  1  0
 30 31  2  0
 13 32  2  0
 32 33  1  0
 32  8  1  0
 31 16  1  0
 31 19  1  0
 29 23  1  0
M  END
>  <supplier_code>  (1418) 
DB08881

>  <zinc_id>  (1418) 
ZINC000052509366

>  <catalog_short_name>  (1418) 
dbfda

$$$$

     RDKit          3D

 35 39  0  0  0  0  0  0  0  0999 V2000
    3.4707   -5.2432   -0.8859 C   0  0  0  0  0  0  0  0  0  0  0  0
    3.3928   -4.2632   -0.4043 C   0  0  0  0  0  0  0  0  0  0  0  0
    3.4448   -3.1785    0.1519 C   0  0  0  0  0  0  0  0  0  0  0  0
    3.3063   -1.9073    0.8892 C   0  0  0  0  0  0  0  0  0  0  0  0
    2.7752   -0.8541    0.0586 N   0  0  0  0  0  0  0  0  0  0  0  0
    3.5136    0.1170   -0.5332 C   0  0  0  0  0  0  0  0  0  0  0  0
    4.9136    0.3800   -0.3637 N   0  0  0  0  0  0  0  0  0  0  0  0
    5.6685    0.6541   -1.5796 C   0  0  0  0  0  0  0  0  0  0  0  0
    6.4321    1.9193   -1.2914 C   0  0  0  0  0  0  0  0  0  0  0  0
    7.1362    1.9404   -0.0095 C   0  0  0  0  0  0  0  0  0  0  0  0
    6.0868    1.8988    1.2461 C   0  0  1  0  0  0  0  0  0  0  0  0
    4.9297    2.6300    0.4695 N   0  0  0  0  0  0  0  0  0  0  0  0
    5.5630    0.3918    0.8789 C   0  0  0  0  0  0  0  0  0  0  0  0
    2.6061    0.9361   -1.0999 N   0  0  0  0  0  0  0  0  0  0  0  0
    1.4143    0.7544   -0.4795 C   0  0  0  0  0  0  0  0  0  0  0  0
    1.4790   -0.5092    0.0494 C   0  0  0  0  0  0  0  0  0  0  0  0
    0.2819   -1.1455    0.3555 C   0  0  0  0  0  0  0  0  0  0  0  0
    0.3349   -2.3432    0.7623 O   0  0  0  0  0  0  0  0  0  0  0  0
   -0.8998   -0.5272    0.1678 N   0  0  0  0  0  0  0  0  0  0  0  0
   -2.0582   -0.9885    0.8770 C   0  0  0  0  0  0  0  0  0  0  0  0
   -3.3342   -0.4793    0.3445 C   0  0  0  0  0  0  0  0  0  0  0  0
   -4.1359   -1.3856   -0.2691 N   0  0  0  0  0  0  0  0  0  0  0  0
   -5.3629   -1.0396   -0.6990 C   0  0  0  0  0  0  0  0  0  0  0  0
   -6.1127   -1.8751   -1.6835 C   0  0  0  0  0  0  0  0  0  0  0  0
   -5.8725    0.1640   -0.2739 C   0  0  0  0  0  0  0  0  0  0  0  0
   -7.0316    0.6783   -0.8363 C   0  0  0  0  0  0  0  0  0  0  0  0
   -7.5859    1.8668   -0.3809 C   0  0  0  0  0  0  0  0  0  0  0  0
   -6.9791    2.4444    0.7255 C   0  0  0  0  0  0  0  0  0  0  0  0
   -5.7408    2.0588    1.1664 C   0  0  0  0  0  0  0  0  0  0  0  0
   -5.1854    0.8945    0.6856 C   0  0  0  0  0  0  0  0  0  0  0  0
   -3.9977    0.4111    1.1241 N   0  0  0  0  0  0  0  0  0  0  0  0
   -0.9080    0.6318   -0.4906 C   0  0  0  0  0  0  0  0  0  0  0  0
   -1.9826    1.0211   -1.0241 O   0  0  0  0  0  0  0  0  0  0  0  0
    0.2158    1.3021   -0.7516 N   0  0  0  0  0  0  0  0  0  0  0  0
    0.2219    2.6449   -1.2907 C   0  0  0  0  0  0  0  0  0  0  0  0
  1  2  1  0
  2  3  3  0
  3  4  1  0
  4  5  1  0
  5  6  1  0
  6  7  1  0
  7  8  1  0
  8  9  1  0
  9 10  1  0
 10 11  1  0
 11 12  1  6
 11 13  1  0
  6 14  2  0
 14 15  1  0
 15 16  2  0
 16 17  1  0
 17 18  2  0
 17 19  1  0
 19 20  1  0
 20 21  1  0
 21 22  2  0
 22 23  1  0
 23 24  1  0
 23 25  2  0
 25 26  1  0
 26 27  2  0
 27 28  1  0
 28 29  2  0
 29 30  1  0
 30 31  2  0
 19 32  1  0
 32 33  2  0
 32 34  1  0
 34 35  1  0
 16  5  1  0
 31 21  1  0
 13  7  1  0
 34 15  1  0
 30 25  1  0
M  END
>  <supplier_code>  (1419) 
DB08882

>  <zinc_id>  (1419) 
ZINC000003820029

>  <catalog_short_name>  (1419) 
dbfda

$$$$

     RDKit          3D

 27 30  0  0  0  0  0  0  0  0999 V2000
    3.4828   -0.7111   -3.0426 N   0  0  0  0  0  0  0  0  0  0  0  0
    3.4054   -1.0057   -1.9341 C   0  0  0  0  0  0  0  0  0  0  0  0
    3.3533   -1.1133   -0.4954 C   0  0  0  0  0  0  0  0  0  0  0  0
    4.4942   -0.9828    0.2858 C   0  0  0  0  0  0  0  0  0  0  0  0
    4.3762   -0.9217    1.6571 C   0  0  0  0  0  0  0  0  0  0  0  0
    3.2039   -1.3906    2.2225 C   0  0  0  0  0  0  0  0  0  0  0  0
    2.0952   -1.6171    1.4178 C   0  0  0  0  0  0  0  0  0  0  0  0
    2.1186   -1.4326    0.0443 C   0  0  0  0  0  0  0  0  0  0  0  0
    0.9379   -0.8089   -0.5765 C   0  0  0  0  0  0  0  0  0  0  0  0
   -0.2072   -1.5443   -0.8598 C   0  0  0  0  0  0  0  0  0  0  0  0
   -1.4610   -0.9481   -0.7951 C   0  0  0  0  0  0  0  0  0  0  0  0
   -2.6645   -1.7350   -0.5012 C   0  0  0  0  0  0  0  0  0  0  0  0
   -3.7017   -1.8935   -1.3719 C   0  0  0  0  0  0  0  0  0  0  0  0
   -4.8806   -2.5255   -1.0075 C   0  0  0  0  0  0  0  0  0  0  0  0
   -5.0431   -2.8585    0.3277 C   0  0  0  0  0  0  0  0  0  0  0  0
   -4.1325   -2.3122    1.2151 C   0  0  0  0  0  0  0  0  0  0  0  0
   -2.8852   -1.9922    0.8063 N   0  0  0  0  0  0  0  0  0  0  0  0
   -1.5277    0.4049   -0.4843 C   0  0  0  0  0  0  0  0  0  0  0  0
   -0.4134    1.1665   -0.3716 N   0  0  0  0  0  0  0  0  0  0  0  0
   -0.5139    2.4234    0.3095 C   0  0  0  0  0  0  0  0  0  0  0  0
    0.6675    3.0816    0.6122 C   0  0  0  0  0  0  0  0  0  0  0  0
    0.6557    4.4626    0.7683 C   0  0  0  0  0  0  0  0  0  0  0  0
   -0.5275    5.0302    1.2098 C   0  0  0  0  0  0  0  0  0  0  0  0
   -1.6960    4.3020    1.0742 C   0  0  0  0  0  0  0  0  0  0  0  0
   -1.6970    3.1001    0.3760 C   0  0  0  0  0  0  0  0  0  0  0  0
    0.7648    0.5700   -0.5851 C   0  0  0  0  0  0  0  0  0  0  0  0
    1.7959    1.2517   -0.3015 O   0  0  0  0  0  0  0  0  0  0  0  0
  1  2  3  0
  2  3  1  0
  3  4  2  0
  4  5  1  0
  5  6  2  0
  6  7  1  0
  7  8  2  0
  8  9  1  0
  9 10  2  0
 10 11  1  0
 11 12  1  0
 12 13  2  0
 13 14  1  0
 14 15  2  0
 15 16  1  0
 16 17  2  0
 11 18  2  0
 18 19  1  0
 19 20  1  0
 20 21  2  0
 21 22  1  0
 22 23  2  0
 23 24  1  0
 24 25  2  0
 19 26  1  0
 26 27  2  0
  8  3  1  0
 26  9  1  0
 17 12  1  0
 25 20  1  0
M  END
>  <supplier_code>  (1420) 
DB08883

>  <zinc_id>  (1420) 
ZINC000030691797

>  <catalog_short_name>  (1420) 
dbfda

$$$$

     RDKit          3D

 37 37  0  0  0  0  0  0  0  0999 V2000
   -6.9913    4.6323    0.6159 C   0  0  0  0  0  0  0  0  0  0  0  0
   -6.2810    3.9485    0.6510 C   0  0  0  0  0  0  0  0  0  0  0  0
   -5.5013    3.7700   -0.5189 O   0  0  0  0  0  0  0  0  0  0  0  0
   -4.5279    2.8062   -0.6489 C   0  0  0  0  0  0  0  0  0  0  0  0
   -4.8288    1.4723   -0.7746 C   0  0  0  0  0  0  0  0  0  0  0  0
   -3.8867    0.5134   -0.4368 C   0  0  0  0  0  0  0  0  0  0  0  0
   -2.5951    0.8373   -0.0600 C   0  0  0  0  0  0  0  0  0  0  0  0
   -1.9338    0.0329    1.0092 C   0  0  0  0  0  0  0  0  0  0  0  0
   -0.8231   -0.8995    0.1819 C   0  0  1  0  0  0  0  0  0  0  0  0
    0.2507   -0.8203    1.4631 C   0  0  0  0  0  0  0  0  0  0  0  0
    1.4527   -0.6003    0.6687 N   0  0  0  0  0  0  0  0  0  0  0  0
    2.6672   -0.6645    1.4161 C   0  0  0  0  0  0  0  0  0  0  0  0
    3.3882    0.6466    1.5418 C   0  0  0  0  0  0  0  0  0  0  0  0
    3.8512    1.1807    0.2892 N   0  0  0  0  0  0  0  0  0  0  0  0
    3.9194    2.6207    0.2654 C   0  0  0  0  0  0  0  0  0  0  0  0
    5.2497    3.1323    0.7057 C   0  0  0  0  0  0  0  0  0  0  0  0
    5.2427    4.2790    1.2480 O   0  0  0  0  0  0  0  0  0  0  0  0
    6.4299    2.7999    0.0344 O   0  0  0  0  0  0  0  0  0  0  0  0
    5.1001    0.6287   -0.1582 C   0  0  0  0  0  0  0  0  0  0  0  0
    5.0343   -0.8446   -0.3194 C   0  0  0  0  0  0  0  0  0  0  0  0
    5.5566   -1.5294    0.6114 O   0  0  0  0  0  0  0  0  0  0  0  0
    5.1543   -1.3953   -1.5970 O   0  0  0  0  0  0  0  0  0  0  0  0
    1.3298    0.5458   -0.1873 C   0  0  0  0  0  0  0  0  0  0  0  0
    1.3406    0.0496   -1.5938 C   0  0  0  0  0  0  0  0  0  0  0  0
    0.5067    0.4323   -2.4455 O   0  0  0  0  0  0  0  0  0  0  0  0
    2.1233   -1.0616   -1.8593 O   0  0  0  0  0  0  0  0  0  0  0  0
   -1.5354   -2.2456    0.6673 N   0  0  0  0  0  0  0  0  0  0  0  0
   -0.6497   -2.9380    1.5274 C   0  0  0  0  0  0  0  0  0  0  0  0
   -0.7591   -4.3915    1.3284 C   0  0  0  0  0  0  0  0  0  0  0  0
    0.1555   -4.9363    0.6474 O   0  0  0  0  0  0  0  0  0  0  0  0
   -1.9907   -5.0351    1.3746 O   0  0  0  0  0  0  0  0  0  0  0  0
   -1.4720   -2.9730   -0.6034 C   0  0  0  0  0  0  0  0  0  0  0  0
   -2.7724   -3.1034   -1.2657 C   0  0  0  0  0  0  0  0  0  0  0  0
   -2.7683   -3.1920   -2.5311 O   0  0  0  0  0  0  0  0  0  0  0  0
   -3.9775   -3.0165   -0.6045 O   0  0  0  0  0  0  0  0  0  0  0  0
   -2.2771    2.1888   -0.1010 C   0  0  0  0  0  0  0  0  0  0  0  0
   -3.1819    3.1298   -0.5416 C   0  0  0  0  0  0  0  0  0  0  0  0
  1  2  1  0
  2  3  1  0
  3  4  1  0
  4  5  2  0
  5  6  1  0
  6  7  2  0
  7  8  1  0
  9  8  1  1
  9 10  1  0
 10 11  1  0
 11 12  1  0
 12 13  1  0
 13 14  1  0
 14 15  1  0
 15 16  1  0
 16 17  2  0
 16 18  1  0
 14 19  1  0
 19 20  1  0
 20 21  2  0
 20 22  1  0
 11 23  1  0
 23 24  1  0
 24 25  2  0
 24 26  1  0
  9 27  1  0
 27 28  1  0
 28 29  1  0
 29 30  2  0
 29 31  1  0
 27 32  1  0
 32 33  1  0
 33 34  2  0
 33 35  1  0
  7 36  1  0
 36 37  2  0
 37  4  1  0
M  END
>  <supplier_code>  (1421) 
DB08884

>  <zinc_id>  (1421) 
ZINC000022448097

>  <catalog_short_name>  (1421) 
dbfda

$$$$

     RDKit          3D

 37 37  0  0  0  0  0  0  0  0999 V2000
    7.2571    4.0551    0.2380 C   0  0  0  0  0  0  0  0  0  0  0  0
    6.2843    4.0669   -0.1687 C   0  0  0  0  0  0  0  0  0  0  0  0
    5.8545    3.0637   -1.0515 O   0  0  0  0  0  0  0  0  0  0  0  0
    4.6144    2.4839   -0.8609 C   0  0  0  0  0  0  0  0  0  0  0  0
    4.3095    1.4235   -1.6890 C   0  0  0  0  0  0  0  0  0  0  0  0
    3.3874    0.4960   -1.2784 C   0  0  0  0  0  0  0  0  0  0  0  0
    2.7123    0.5797   -0.0638 C   0  0  0  0  0  0  0  0  0  0  0  0
    2.3698   -0.7343    0.5142 C   0  0  0  0  0  0  0  0  0  0  0  0
    1.1646   -1.3344   -0.4402 C   0  0  2  0  0  0  0  0  0  0  0  0
    0.1322   -0.1954    0.1003 C   0  0  0  0  0  0  0  0  0  0  0  0
   -1.1106   -0.6835    0.4331 N   0  0  0  0  0  0  0  0  0  0  0  0
   -2.1190   -0.8466   -0.5616 C   0  0  0  0  0  0  0  0  0  0  0  0
   -2.8411    0.3343   -1.0460 C   0  0  0  0  0  0  0  0  0  0  0  0
   -4.0687    0.6586   -0.3458 N   0  0  0  0  0  0  0  0  0  0  0  0
   -4.4302    1.9811   -0.8590 C   0  0  0  0  0  0  0  0  0  0  0  0
   -4.5439    2.9840    0.2260 C   0  0  0  0  0  0  0  0  0  0  0  0
   -4.9567    2.7070    1.3850 O   0  0  0  0  0  0  0  0  0  0  0  0
   -3.8791    4.1900   -0.0221 O   0  0  0  0  0  0  0  0  0  0  0  0
   -5.1689   -0.2071   -0.7688 C   0  0  0  0  0  0  0  0  0  0  0  0
   -6.0801   -0.5436    0.3413 C   0  0  0  0  0  0  0  0  0  0  0  0
   -5.8127   -1.5596    1.0474 O   0  0  0  0  0  0  0  0  0  0  0  0
   -7.3664   -0.0365    0.4757 O   0  0  0  0  0  0  0  0  0  0  0  0
   -1.6410    0.3173    1.3627 C   0  0  0  0  0  0  0  0  0  0  0  0
   -1.0129    1.6466    1.2011 C   0  0  0  0  0  0  0  0  0  0  0  0
   -0.6956    2.1743    0.0939 O   0  0  0  0  0  0  0  0  0  0  0  0
   -1.4024    2.5906    2.1620 O   0  0  0  0  0  0  0  0  0  0  0  0
    0.8514   -2.4434    0.6435 N   0  0  0  0  0  0  0  0  0  0  0  0
    2.0083   -3.2283    0.2186 C   0  0  0  0  0  0  0  0  0  0  0  0
    2.7115   -4.0125    1.1934 C   0  0  0  0  0  0  0  0  0  0  0  0
    2.7607   -5.2512    0.8890 O   0  0  0  0  0  0  0  0  0  0  0  0
    3.9945   -3.5334    1.5160 O   0  0  0  0  0  0  0  0  0  0  0  0
   -0.2405   -3.2381    0.1201 C   0  0  0  0  0  0  0  0  0  0  0  0
    0.1216   -4.0145   -1.0790 C   0  0  0  0  0  0  0  0  0  0  0  0
   -0.6331   -4.9797   -1.3849 O   0  0  0  0  0  0  0  0  0  0  0  0
    0.7091   -3.3432   -2.1515 O   0  0  0  0  0  0  0  0  0  0  0  0
    2.9468    1.7203    0.6776 C   0  0  0  0  0  0  0  0  0  0  0  0
    3.8130    2.7126    0.2336 C   0  0  0  0  0  0  0  0  0  0  0  0
  1  2  1  0
  2  3  1  0
  3  4  1  0
  4  5  2  0
  5  6  1  0
  6  7  2  0
  7  8  1  0
  9  8  1  1
  9 10  1  0
 10 11  1  0
 11 12  1  0
 12 13  1  0
 13 14  1  0
 14 15  1  0
 15 16  1  0
 16 17  2  0
 16 18  1  0
 14 19  1  0
 19 20  1  0
 20 21  2  0
 20 22  1  0
 11 23  1  0
 23 24  1  0
 24 25  2  0
 24 26  1  0
  9 27  1  0
 27 28  1  0
 28 29  1  0
 29 30  2  0
 29 31  1  0
 27 32  1  0
 32 33  1  0
 33 34  2  0
 33 35  1  0
  7 36  1  0
 36 37  2  0
 37  4  1  0
M  END
>  <supplier_code>  (1422) 
DB08884

>  <zinc_id>  (1422) 
ZINC000022851765

>  <catalog_short_name>  (1422) 
dbfda

$$$$

     RDKit          3D

 24 23  0  0  0  0  0  0  0  0999 V2000
   -7.3022    2.9686   -0.6588 C   0  0  0  0  0  0  0  0  0  0  0  0
   -6.9336    1.6610   -0.0131 C   0  0  0  0  0  0  0  0  0  0  0  0
   -8.0516    0.6689   -0.1145 C   0  0  0  0  0  0  0  0  0  0  0  0
   -7.8043   -0.5257   -0.6661 C   0  0  0  0  0  0  0  0  0  0  0  0
   -6.4157   -0.7951   -1.1586 C   0  0  0  0  0  0  0  0  0  0  0  0
   -5.7466   -1.8553   -0.3411 C   0  0  0  0  0  0  0  0  0  0  0  0
   -4.6144   -1.5006    0.2469 C   0  0  0  0  0  0  0  0  0  0  0  0
   -3.6601   -0.5184   -0.3645 C   0  0  0  0  0  0  0  0  0  0  0  0
   -2.3339   -1.2200   -0.3687 C   0  0  0  0  0  0  0  0  0  0  0  0
   -1.3503   -0.5248    0.2176 C   0  0  0  0  0  0  0  0  0  0  0  0
   -1.1142    0.8375   -0.3292 C   0  0  0  0  0  0  0  0  0  0  0  0
    0.3433    0.9512   -0.6673 C   0  0  0  0  0  0  0  0  0  0  0  0
    1.2451    0.2022   -0.0221 C   0  0  0  0  0  0  0  0  0  0  0  0
    0.8220   -1.0389    0.6749 C   0  0  0  0  0  0  0  0  0  0  0  0
    1.4548   -2.2585    0.0830 C   0  0  0  0  0  0  0  0  0  0  0  0
    2.7601   -2.3827   -0.0955 C   0  0  0  0  0  0  0  0  0  0  0  0
    3.6393   -1.6107    0.8182 C   0  0  0  0  0  0  0  0  0  0  0  0
    4.6054   -0.7429    0.0221 C   0  0  0  0  0  0  0  0  0  0  0  0
    5.1260    0.3059    0.9934 C   0  0  0  0  0  0  0  0  0  0  0  0
    6.2098    1.0777    0.3089 C   0  0  0  0  0  0  0  0  0  0  0  0
    5.8984    2.2586   -0.0314 O   0  0  0  0  0  0  0  0  0  0  0  0
    7.0474    0.3918   -0.5614 O   0  0  0  0  0  0  0  0  0  0  0  0
    8.2066    1.0770   -0.9978 C   0  0  0  0  0  0  0  0  0  0  0  0
    7.9686    2.5733   -0.9877 C   0  0  0  0  0  0  0  0  0  0  0  0
  1  2  1  0
  2  3  1  0
  3  4  2  0
  4  5  1  0
  5  6  1  0
  6  7  2  0
  7  8  1  0
  8  9  1  0
  9 10  2  0
 10 11  1  0
 11 12  1  0
 12 13  2  0
 13 14  1  0
 14 15  1  0
 15 16  2  0
 16 17  1  0
 17 18  1  0
 18 19  1  0
 19 20  1  0
 20 21  2  0
 20 22  1  0
 22 23  1  0
 23 24  1  0
M  END
>  <supplier_code>  (1423) 
DB08887

>  <zinc_id>  (1423) 
ZINC000003785276

>  <catalog_short_name>  (1423) 
dbfda

$$$$

     RDKit          3D

 52 55  0  0  0  0  0  0  0  0999 V2000
    0.0478   -3.7540    0.7612 C   0  0  0  0  0  0  0  0  0  0  0  0
    0.4822   -2.8728    1.4193 C   0  0  0  0  0  0  0  0  0  0  0  0
    0.3103   -2.7964    2.8981 C   0  0  0  0  0  0  0  0  0  0  0  0
    0.6579   -1.5145    0.8777 C   0  0  0  0  0  0  0  0  0  0  0  0
    0.3526   -1.6935   -0.7276 C   0  0  2  0  0  0  0  0  0  0  0  0
    1.3334   -0.5354   -1.1693 N   0  0  0  0  0  0  0  0  0  0  0  0
    2.4596   -0.2514   -0.3980 C   0  0  0  0  0  0  0  0  0  0  0  0
    2.1561   -0.0436    0.7693 O   0  0  0  0  0  0  0  0  0  0  0  0
    3.9215   -0.8201   -0.7626 C   0  0  2  0  0  0  0  0  0  0  0  0
    4.3890   -1.0651    0.7973 C   0  0  0  0  0  0  0  0  0  0  0  0
    4.8893   -2.4230    0.9680 C   0  0  0  0  0  0  0  0  0  0  0  0
    4.6456   -3.3634   -0.1274 C   0  0  0  0  0  0  0  0  0  0  0  0
    3.8525   -4.4833    0.0232 C   0  0  0  0  0  0  0  0  0  0  0  0
    3.5943   -5.2249   -1.1231 C   0  0  0  0  0  0  0  0  0  0  0  0
    3.9864   -4.7116   -2.3534 C   0  0  0  0  0  0  0  0  0  0  0  0
    5.0415   -3.8104   -2.4289 C   0  0  0  0  0  0  0  0  0  0  0  0
    5.4508   -3.2371   -1.2500 C   0  0  0  0  0  0  0  0  0  0  0  0
    4.5687    0.6088   -0.8616 N   0  0  0  0  0  0  0  0  0  0  0  0
    4.6528    1.4374    0.2290 C   0  0  0  0  0  0  0  0  0  0  0  0
    4.7327    0.9308    1.3632 O   0  0  0  0  0  0  0  0  0  0  0  0
    5.3022    2.7690    0.0271 C   0  0  0  0  0  0  0  0  0  0  0  0
    6.6717    2.7894    0.5121 N   0  0  0  0  0  0  0  0  0  0  0  0
    7.4000    3.8031   -0.1744 C   0  0  0  0  0  0  0  0  0  0  0  0
    8.8373    3.5132   -0.4464 C   0  0  0  0  0  0  0  0  0  0  0  0
    9.0255    2.1746   -0.8099 O   0  0  0  0  0  0  0  0  0  0  0  0
    8.7428    1.4548    0.3632 C   0  0  0  0  0  0  0  0  0  0  0  0
    7.2556    1.4920    0.5252 C   0  0  0  0  0  0  0  0  0  0  0  0
   -1.0125   -0.8372   -0.7074 C   0  0  0  0  0  0  0  0  0  0  0  0
   -1.9547   -1.6172   -1.0654 O   0  0  0  0  0  0  0  0  0  0  0  0
   -1.4096    0.1016    0.1535 N   0  0  0  0  0  0  0  0  0  0  0  0
   -2.3715   -0.1790    1.3785 C   0  0  1  0  0  0  0  0  0  0  0  0
   -2.6015    1.4102    1.7081 C   0  0  0  0  0  0  0  0  0  0  0  0
   -2.7146    2.2144    0.5264 C   0  0  0  0  0  0  0  0  0  0  0  0
   -3.5465    3.3253    0.7551 C   0  0  0  0  0  0  0  0  0  0  0  0
   -3.9637    4.1179   -0.3109 C   0  0  0  0  0  0  0  0  0  0  0  0
   -2.9889    4.2937   -1.2874 C   0  0  0  0  0  0  0  0  0  0  0  0
   -1.7886    3.5931   -1.2436 C   0  0  0  0  0  0  0  0  0  0  0  0
   -1.6477    2.6414   -0.2669 C   0  0  0  0  0  0  0  0  0  0  0  0
   -3.7108   -0.4559    0.5345 C   0  0  0  0  0  0  0  0  0  0  0  0
   -4.3221   -1.2988    1.2723 O   0  0  0  0  0  0  0  0  0  0  0  0
   -4.4596    0.3940   -0.1625 N   0  0  0  0  0  0  0  0  0  0  0  0
   -5.9917    0.5520    0.1896 C   0  0  1  0  0  0  0  0  0  0  0  0
   -6.3201    1.2600   -1.2583 C   0  0  0  0  0  0  0  0  0  0  0  0
   -6.2787    2.6829   -0.8868 C   0  0  0  0  0  0  0  0  0  0  0  0
   -7.3894    3.2426   -0.1145 C   0  0  0  0  0  0  0  0  0  0  0  0
   -5.3903    3.5832   -1.6276 C   0  0  0  0  0  0  0  0  0  0  0  0
   -6.3847   -0.9264   -0.3105 C   0  0  0  0  0  0  0  0  0  0  0  0
   -6.0536   -1.2722   -1.3938 O   0  0  0  0  0  0  0  0  0  0  0  0
   -7.6123   -1.3861    0.3903 C   0  0  1  0  0  0  0  0  0  0  0  0
   -8.3902   -2.5431   -0.1937 C   0  0  0  0  0  0  0  0  0  0  0  0
   -7.8861   -0.9403    1.7760 C   0  0  0  0  0  0  0  0  0  0  0  0
   -8.5709   -0.3287    0.7347 O   0  0  0  0  0  0  0  0  0  0  0  0
  1  2  1  0
  2  3  1  0
  2  4  1  0
  5  4  1  1
  5  6  1  0
  6  7  1  0
  7  8  2  0
  9  7  1  1
  9 10  1  0
 10 11  1  0
 11 12  1  0
 12 13  2  0
 13 14  1  0
 14 15  2  0
 15 16  1  0
 16 17  2  0
  9 18  1  0
 18 19  1  0
 19 20  2  0
 19 21  1  0
 21 22  1  0
 22 23  1  0
 23 24  1  0
 24 25  1  0
 25 26  1  0
 26 27  1  0
  5 28  1  0
 28 29  2  0
 28 30  1  0
 31 30  1  6
 31 32  1  0
 32 33  1  0
 33 34  2  0
 34 35  1  0
 35 36  2  0
 36 37  1  0
 37 38  2  0
 31 39  1  0
 39 40  2  0
 39 41  1  0
 42 41  1  6
 42 43  1  0
 43 44  1  0
 44 45  1  0
 44 46  1  0
 42 47  1  0
 47 48  2  0
 49 47  1  6
 49 50  1  0
 49 51  1  0
 51 52  1  0
 17 12  1  0
 27 22  1  0
 38 33  1  0
 52 49  1  0
M  END
>  <supplier_code>  (1424) 
DB08889

>  <zinc_id>  (1424) 
ZINC000049841054

>  <catalog_short_name>  (1424) 
dbfda

$$$$

     RDKit          3D

 28 30  0  0  0  0  0  0  0  0999 V2000
   -6.7342   -0.5777   -2.3037 N   0  0  0  0  0  0  0  0  0  0  0  0
   -6.7481    0.2160   -1.3112 C   0  0  0  0  0  0  0  0  0  0  0  0
   -5.7828    1.0482   -0.8521 N   0  0  0  0  0  0  0  0  0  0  0  0
   -5.8868    1.2851    0.4551 C   0  0  0  0  0  0  0  0  0  0  0  0
   -4.7771    1.6209    1.4120 C   0  0  0  0  0  0  0  0  0  0  0  0
   -3.7903    0.4968    1.3199 C   0  0  0  0  0  0  0  0  0  0  0  0
   -4.1170   -0.6088    1.8519 O   0  0  0  0  0  0  0  0  0  0  0  0
   -3.2329    0.2991    0.0111 N   0  0  0  0  0  0  0  0  0  0  0  0
   -1.9678   -0.3684    0.0167 C   0  0  0  0  0  0  0  0  0  0  0  0
   -0.8731    0.4311   -0.2900 C   0  0  0  0  0  0  0  0  0  0  0  0
    0.2094   -0.1663   -0.9254 C   0  0  0  0  0  0  0  0  0  0  0  0
    0.3101   -1.5473   -0.8902 C   0  0  0  0  0  0  0  0  0  0  0  0
    1.6916   -2.1159   -0.9866 C   0  0  0  0  0  0  0  0  0  0  0  0
    2.2703   -2.0555    0.4225 C   0  0  0  0  0  0  0  0  0  0  0  0
    2.3527   -0.6411    0.7608 N   0  0  0  0  0  0  0  0  0  0  0  0
    3.7238   -0.2480    1.0711 C   0  0  0  0  0  0  0  0  0  0  0  0
    4.3918   -0.0702   -0.4381 C   0  0  2  0  0  0  0  0  0  0  0  0
    4.7149   -1.5619   -0.5209 O   0  0  0  0  0  0  0  0  0  0  0  0
    5.8544    0.2634    0.1980 C   0  0  0  0  0  0  0  0  0  0  0  0
    5.7983    1.5217    0.7871 C   0  0  0  0  0  0  0  0  0  0  0  0
    7.0081    2.1879    0.9402 C   0  0  0  0  0  0  0  0  0  0  0  0
    8.1409    1.7202    0.2856 C   0  0  0  0  0  0  0  0  0  0  0  0
    8.1515    0.4716   -0.3239 C   0  0  0  0  0  0  0  0  0  0  0  0
    6.9025   -0.0426   -0.6505 C   0  0  0  0  0  0  0  0  0  0  0  0
   -0.5532   -2.2349   -0.0451 C   0  0  0  0  0  0  0  0  0  0  0  0
   -1.8050   -1.7052    0.2484 C   0  0  0  0  0  0  0  0  0  0  0  0
   -7.1838    1.6614    0.8007 C   0  0  0  0  0  0  0  0  0  0  0  0
   -8.0682    0.7201   -0.3348 S   0  0  0  0  0  0  0  0  0  0  0  0
  1  2  1  0
  2  3  2  0
  3  4  1  0
  4  5  1  0
  5  6  1  0
  6  7  2  0
  6  8  1  0
  8  9  1  0
  9 10  2  0
 10 11  1  0
 11 12  2  0
 12 13  1  0
 13 14  1  0
 14 15  1  0
 15 16  1  0
 17 16  1  1
 17 18  1  0
 17 19  1  0
 19 20  2  0
 20 21  1  0
 21 22  2  0
 22 23  1  0
 23 24  2  0
 12 25  1  0
 25 26  2  0
  4 27  2  0
 27 28  1  0
 28  2  1  0
 26  9  1  0
 24 19  1  0
M  END
>  <supplier_code>  (1425) 
DB08893

>  <zinc_id>  (1425) 
ZINC000001996784

>  <catalog_short_name>  (1425) 
dbfda

$$$$

     RDKit          3D

 23 25  0  0  0  0  0  0  0  0999 V2000
    0.4522   -2.5220    0.2889 C   0  0  0  0  0  0  0  0  0  0  0  0
    0.3234   -1.4651   -0.9506 C   0  0  2  0  0  0  0  0  0  0  0  0
    1.8767   -1.5906   -1.4388 C   0  0  0  0  0  0  0  0  0  0  0  0
    2.7436   -1.9768   -0.3288 C   0  0  0  0  0  0  0  0  0  0  0  0
    2.6801   -1.0868    0.7967 N   0  0  0  0  0  0  0  0  0  0  0  0
    3.7187   -0.1190    0.9575 C   0  0  0  0  0  0  0  0  0  0  0  0
    4.1533    0.0632    2.1345 O   0  0  0  0  0  0  0  0  0  0  0  0
    3.7188    0.9718   -0.0644 C   0  0  0  0  0  0  0  0  0  0  0  0
    5.0920    1.4632   -0.1673 C   0  0  0  0  0  0  0  0  0  0  0  0
    6.1152    1.9953   -0.0664 N   0  0  0  0  0  0  0  0  0  0  0  0
    1.3655   -0.7161    1.2415 C   0  0  0  0  0  0  0  0  0  0  0  0
    0.6360   -0.0116   -0.0586 C   0  0  2  0  0  0  0  0  0  0  0  0
   -0.7875   -0.0645    0.6323 N   0  0  0  0  0  0  0  0  0  0  0  0
   -0.7776    0.7955    1.7906 C   0  0  0  0  0  0  0  0  0  0  0  0
   -1.8843   -0.0875   -0.2636 C   0  0  0  0  0  0  0  0  0  0  0  0
   -2.3149   -1.3006   -0.6819 N   0  0  0  0  0  0  0  0  0  0  0  0
   -3.5887   -1.6273   -0.8621 C   0  0  0  0  0  0  0  0  0  0  0  0
   -4.4545   -0.6373   -1.1213 N   0  0  0  0  0  0  0  0  0  0  0  0
   -4.0840    0.6243   -0.8146 C   0  0  0  0  0  0  0  0  0  0  0  0
   -4.8340    1.7338   -0.7097 N   0  0  0  0  0  0  0  0  0  0  0  0
   -4.2922    2.5630    0.2142 C   0  0  0  0  0  0  0  0  0  0  0  0
   -3.0142    2.0771    0.4665 C   0  0  0  0  0  0  0  0  0  0  0  0
   -2.8435    0.9180   -0.2609 C   0  0  0  0  0  0  0  0  0  0  0  0
  2  1  1  1
  2  3  1  0
  3  4  1  0
  4  5  1  0
  5  6  1  0
  6  7  2  0
  6  8  1  0
  8  9  1  0
  9 10  3  0
  5 11  1  0
 11 12  1  0
 12 13  1  1
 13 14  1  0
 13 15  1  0
 15 16  2  0
 16 17  1  0
 17 18  2  0
 18 19  1  0
 19 20  1  0
 20 21  1  0
 21 22  2  0
 22 23  1  0
 12  2  1  0
 23 15  1  0
 23 19  2  0
M  END
>  <supplier_code>  (1426) 
DB08895

>  <zinc_id>  (1426) 
ZINC000003818808

>  <catalog_short_name>  (1426) 
dbfda

$$$$

     RDKit          3D

 33 35  0  0  0  0  0  0  0  0999 V2000
   -6.6389   -4.4223   -0.8113 C   0  0  0  0  0  0  0  0  0  0  0  0
   -6.4369   -3.2132   -0.0590 N   0  0  0  0  0  0  0  0  0  0  0  0
   -6.8384   -1.9758   -0.6355 C   0  0  0  0  0  0  0  0  0  0  0  0
   -7.8325   -1.9469   -1.4198 O   0  0  0  0  0  0  0  0  0  0  0  0
   -6.4483   -0.7366    0.0105 C   0  0  0  0  0  0  0  0  0  0  0  0
   -5.1467   -0.2595    0.0192 C   0  0  0  0  0  0  0  0  0  0  0  0
   -4.8855    0.9490    0.6565 C   0  0  0  0  0  0  0  0  0  0  0  0
   -3.5487    1.2703    0.8047 O   0  0  0  0  0  0  0  0  0  0  0  0
   -2.7314    1.6991   -0.2396 C   0  0  0  0  0  0  0  0  0  0  0  0
   -2.1741    0.8204   -1.1609 C   0  0  0  0  0  0  0  0  0  0  0  0
   -0.8227    0.8546   -1.4853 C   0  0  0  0  0  0  0  0  0  0  0  0
   -0.0244    1.8897   -1.0277 C   0  0  0  0  0  0  0  0  0  0  0  0
    1.3219    1.7118   -0.6105 N   0  0  0  0  0  0  0  0  0  0  0  0
    1.8247    0.4148   -0.3431 C   0  0  0  0  0  0  0  0  0  0  0  0
    1.4919   -0.4997   -1.1267 O   0  0  0  0  0  0  0  0  0  0  0  0
    2.6872    0.0814    0.7216 N   0  0  0  0  0  0  0  0  0  0  0  0
    3.8585   -0.6804    0.4220 C   0  0  0  0  0  0  0  0  0  0  0  0
    3.8440   -1.9122   -0.1690 C   0  0  0  0  0  0  0  0  0  0  0  0
    5.0336   -2.6291   -0.1265 C   0  0  0  0  0  0  0  0  0  0  0  0
    6.2206   -1.9088   -0.1550 C   0  0  0  0  0  0  0  0  0  0  0  0
    7.7260   -2.6525   -0.6756 Cl  0  0  0  0  0  0  0  0  0  0  0  0
    6.2779   -0.5815    0.2494 C   0  0  0  0  0  0  0  0  0  0  0  0
    7.4333    0.2787   -0.1208 C   0  0  0  0  0  0  0  0  0  0  0  0
    8.1167    0.7329    0.9986 F   0  0  0  0  0  0  0  0  0  0  0  0
    8.3127   -0.3934   -0.9637 F   0  0  0  0  0  0  0  0  0  0  0  0
    7.0170    1.3982   -0.8220 F   0  0  0  0  0  0  0  0  0  0  0  0
    5.0604   -0.0000    0.5767 C   0  0  0  0  0  0  0  0  0  0  0  0
   -0.7047    2.9837   -0.5053 C   0  0  0  0  0  0  0  0  0  0  0  0
    0.0449    4.0998   -0.2929 F   0  0  0  0  0  0  0  0  0  0  0  0
   -2.0285    2.8904   -0.0890 C   0  0  0  0  0  0  0  0  0  0  0  0
   -5.6841    1.1837    1.7714 C   0  0  0  0  0  0  0  0  0  0  0  0
   -7.0054    0.7549    1.7616 C   0  0  0  0  0  0  0  0  0  0  0  0
   -7.3201   -0.2015    0.8878 N   0  0  0  0  0  0  0  0  0  0  0  0
  1  2  1  0
  2  3  1  0
  3  4  2  0
  3  5  1  0
  5  6  2  0
  6  7  1  0
  7  8  1  0
  8  9  1  0
  9 10  2  0
 10 11  1  0
 11 12  2  0
 12 13  1  0
 13 14  1  0
 14 15  2  0
 14 16  1  0
 16 17  1  0
 17 18  2  0
 18 19  1  0
 19 20  2  0
 20 21  1  0
 20 22  1  0
 22 23  1  0
 23 24  1  0
 23 25  1  0
 23 26  1  0
 22 27  2  0
 12 28  1  0
 28 29  1  0
 28 30  2  0
  7 31  2  0
 31 32  1  0
 32 33  2  0
 33  5  1  0
 30  9  1  0
 27 17  1  0
M  END
>  <supplier_code>  (1427) 
DB08896

>  <zinc_id>  (1427) 
ZINC000006745272

>  <catalog_short_name>  (1427) 
dbfda

$$$$

     RDKit          3D

 33 37  0  0  0  0  0  0  0  0999 V2000
   -2.5197    0.1743   -2.4514 O   0  0  0  0  0  0  0  0  0  0  0  0
   -2.7360    0.1205   -1.2872 C   0  0  0  0  0  0  0  0  0  0  0  0
   -1.7426   -0.4444   -0.4925 O   0  0  0  0  0  0  0  0  0  0  0  0
   -0.3643    0.2270   -0.7700 C   0  0  1  0  0  0  0  0  0  0  0  0
    0.3969   -0.7818    0.3150 C   0  0  0  0  0  0  0  0  0  0  0  0
    1.6695   -1.1061   -0.3341 N   0  0  0  0  0  0  0  0  0  0  0  0
    2.5846   -1.3238    0.7399 C   0  0  0  0  0  0  0  0  0  0  0  0
    4.0018   -1.5110    0.4133 C   0  0  0  0  0  0  0  0  0  0  0  0
    4.4073   -1.3813   -1.0084 C   0  0  0  0  0  0  0  0  0  0  0  0
    5.3125   -0.3142   -1.1927 O   0  0  0  0  0  0  0  0  0  0  0  0
    5.8680    0.4188   -0.1569 C   0  0  0  0  0  0  0  0  0  0  0  0
    5.1841    1.4675    0.4462 C   0  0  0  0  0  0  0  0  0  0  0  0
    5.3272    1.7210    1.7865 C   0  0  0  0  0  0  0  0  0  0  0  0
    6.4638    1.2705    2.4258 C   0  0  0  0  0  0  0  0  0  0  0  0
    7.2202    0.2949    1.8043 C   0  0  0  0  0  0  0  0  0  0  0  0
    7.0030   -0.0253    0.4860 C   0  0  0  0  0  0  0  0  0  0  0  0
    2.0497   -0.0604   -1.2507 C   0  0  0  0  0  0  0  0  0  0  0  0
    1.2661   -0.2458   -2.5453 C   0  0  0  0  0  0  0  0  0  0  0  0
   -0.0885   -0.7678   -2.0765 C   0  0  0  0  0  0  0  0  0  0  0  0
   -0.0428   -2.1582   -1.5593 C   0  0  0  0  0  0  0  0  0  0  0  0
    1.3820   -2.3566   -1.0426 C   0  0  0  0  0  0  0  0  0  0  0  0
   -4.0776    0.5003   -0.7705 C   0  0  0  0  0  0  0  0  0  0  0  0
   -4.9406    0.7105   -1.8285 O   0  0  0  0  0  0  0  0  0  0  0  0
   -4.5610   -0.6631    0.0404 C   0  0  0  0  0  0  0  0  0  0  0  0
   -5.6877   -0.6084    0.8541 C   0  0  0  0  0  0  0  0  0  0  0  0
   -6.0050   -1.8400    1.3523 C   0  0  0  0  0  0  0  0  0  0  0  0
   -4.8956   -2.4701    1.9037 C   0  0  0  0  0  0  0  0  0  0  0  0
   -3.6728   -1.8923    0.8467 S   0  0  0  0  0  0  0  0  0  0  0  0
   -3.9872    1.6954    0.1291 C   0  0  0  0  0  0  0  0  0  0  0  0
   -4.5157    1.8058    1.4105 C   0  0  0  0  0  0  0  0  0  0  0  0
   -4.4280    3.0862    1.8789 C   0  0  0  0  0  0  0  0  0  0  0  0
   -3.1498    3.6059    1.7080 C   0  0  0  0  0  0  0  0  0  0  0  0
   -2.7219    2.8523    0.2261 S   0  0  0  0  0  0  0  0  0  0  0  0
  1  2  2  0
  2  3  1  0
  4  3  1  1
  4  5  1  0
  5  6  1  0
  6  7  1  0
  7  8  1  0
  8  9  1  0
  9 10  1  0
 10 11  1  0
 11 12  2  0
 12 13  1  0
 13 14  2  0
 14 15  1  0
 15 16  2  0
  6 17  1  0
 17 18  1  0
 18 19  1  0
 19 20  1  0
 20 21  1  0
  2 22  1  0
 22 23  1  0
 22 24  1  0
 24 25  2  0
 25 26  1  0
 26 27  2  0
 27 28  1  0
 22 29  1  0
 29 30  2  0
 30 31  1  0
 31 32  2  0
 32 33  1  0
 19  4  1  0
 28 24  1  0
 33 29  1  0
 21  6  1  0
 16 11  1  0
M  CHG  1   6   1
M  END
>  <supplier_code>  (1428) 
DB08897

>  <zinc_id>  (1428) 
ZINC000030691727

>  <catalog_short_name>  (1428) 
dbfda

$$$$

     RDKit          3D

 32 34  0  0  0  0  0  0  0  0999 V2000
    6.2816    3.4219    0.7900 C   0  0  0  0  0  0  0  0  0  0  0  0
    5.9931    2.3400   -0.1155 N   0  0  0  0  0  0  0  0  0  0  0  0
    6.0472    0.9635    0.2627 C   0  0  0  0  0  0  0  0  0  0  0  0
    6.4390    0.7505    1.4457 O   0  0  0  0  0  0  0  0  0  0  0  0
    5.2201   -0.0075   -0.4655 C   0  0  0  0  0  0  0  0  0  0  0  0
    4.3879    0.4131   -1.4955 C   0  0  0  0  0  0  0  0  0  0  0  0
    3.1733   -0.2193   -1.7364 C   0  0  0  0  0  0  0  0  0  0  0  0
    2.6482   -1.1134   -0.8085 C   0  0  0  0  0  0  0  0  0  0  0  0
    1.2728   -1.0574   -0.4083 N   0  0  0  0  0  0  0  0  0  0  0  0
    0.1071   -1.0935   -1.2367 C   0  0  0  0  0  0  0  0  0  0  0  0
    0.0977   -1.2708   -2.8694 S   0  0  0  0  0  0  0  0  0  0  0  0
   -1.0412   -0.7608   -0.4481 N   0  0  0  0  0  0  0  0  0  0  0  0
   -2.3927   -0.5762   -0.8801 C   0  0  0  0  0  0  0  0  0  0  0  0
   -3.1506   -1.7198   -1.0826 C   0  0  0  0  0  0  0  0  0  0  0  0
   -4.5179   -1.7351   -0.8393 C   0  0  0  0  0  0  0  0  0  0  0  0
   -5.1531   -0.6076   -0.3335 C   0  0  0  0  0  0  0  0  0  0  0  0
   -6.2102   -0.7338    0.6445 C   0  0  0  0  0  0  0  0  0  0  0  0
   -7.0175   -0.8411    1.4811 N   0  0  0  0  0  0  0  0  0  0  0  0
   -4.4201    0.5725   -0.3279 C   0  0  0  0  0  0  0  0  0  0  0  0
   -5.0446    1.8613    0.1060 C   0  0  0  0  0  0  0  0  0  0  0  0
   -6.4180    1.8061    0.0763 F   0  0  0  0  0  0  0  0  0  0  0  0
   -4.6658    2.8490   -0.7963 F   0  0  0  0  0  0  0  0  0  0  0  0
   -4.5514    2.2556    1.3359 F   0  0  0  0  0  0  0  0  0  0  0  0
   -3.0725    0.6065   -0.6583 C   0  0  0  0  0  0  0  0  0  0  0  0
   -0.5543   -0.7123    0.8980 C   0  0  0  0  0  0  0  0  0  0  0  0
   -1.2363   -0.6866    1.9476 O   0  0  0  0  0  0  0  0  0  0  0  0
    0.8632   -0.3195    0.7833 C   0  0  0  0  0  0  0  0  0  0  0  0
    0.9871    1.1627    0.5618 C   0  0  0  0  0  0  0  0  0  0  0  0
    1.7196   -0.8146    1.9127 C   0  0  0  0  0  0  0  0  0  0  0  0
    3.6114   -1.7486   -0.0314 C   0  0  0  0  0  0  0  0  0  0  0  0
    4.9068   -1.2513    0.0687 C   0  0  0  0  0  0  0  0  0  0  0  0
    5.6900   -1.7335    1.0750 F   0  0  0  0  0  0  0  0  0  0  0  0
  1  2  1  0
  2  3  1  0
  3  4  2  0
  3  5  1  0
  5  6  2  0
  6  7  1  0
  7  8  2  0
  8  9  1  0
  9 10  1  0
 10 11  2  0
 10 12  1  0
 12 13  1  0
 13 14  2  0
 14 15  1  0
 15 16  2  0
 16 17  1  0
 17 18  3  0
 16 19  1  0
 19 20  1  0
 20 21  1  0
 20 22  1  0
 20 23  1  0
 19 24  2  0
 12 25  1  0
 25 26  2  0
 25 27  1  0
 27 28  1  0
 27 29  1  0
  8 30  1  0
 30 31  2  0
 31 32  1  0
 31  5  1  0
 27  9  1  0
 24 13  1  0
M  END
>  <supplier_code>  (1429) 
DB08899

>  <zinc_id>  (1429) 
ZINC000034806477

>  <catalog_short_name>  (1429) 
dbfda

$$$$

     RDKit          3D

 39 43  0  0  0  0  0  0  0  0999 V2000
   -4.0630    3.4050   -0.0685 C   0  0  0  0  0  0  0  0  0  0  0  0
   -3.0417    2.3351    0.0985 C   0  0  0  0  0  0  0  0  0  0  0  0
   -1.7043    2.6696    0.1432 C   0  0  0  0  0  0  0  0  0  0  0  0
   -0.7962    1.6816   -0.1252 C   0  0  0  0  0  0  0  0  0  0  0  0
   -1.1233    0.3320   -0.1803 C   0  0  0  0  0  0  0  0  0  0  0  0
   -0.0452   -0.5859    0.2132 C   0  0  0  0  0  0  0  0  0  0  0  0
    0.2853   -0.6749    1.4348 O   0  0  0  0  0  0  0  0  0  0  0  0
    0.8719   -1.1439   -0.7047 N   0  0  0  0  0  0  0  0  0  0  0  0
    2.2887   -1.1407   -0.5088 C   0  0  0  0  0  0  0  0  0  0  0  0
    3.0913   -1.4515   -1.6003 C   0  0  0  0  0  0  0  0  0  0  0  0
    4.2814   -0.7784   -1.8507 C   0  0  0  0  0  0  0  0  0  0  0  0
    4.7388    0.1480   -0.9215 C   0  0  0  0  0  0  0  0  0  0  0  0
    6.0213    0.8855   -1.0996 C   0  0  0  0  0  0  0  0  0  0  0  0
    6.9581    0.3028   -0.1452 N   0  0  0  0  0  0  0  0  0  0  0  0
    8.3000    0.6926   -0.5081 C   0  0  0  0  0  0  0  0  0  0  0  0
    9.1117   -0.4462   -1.0601 C   0  0  0  0  0  0  0  0  0  0  0  0
    9.1169   -1.6125   -0.2158 N   0  0  0  0  0  0  0  0  0  0  0  0
   10.2862   -1.6145    0.6532 C   0  0  0  0  0  0  0  0  0  0  0  0
    7.9504   -1.7163    0.6275 C   0  0  0  0  0  0  0  0  0  0  0  0
    6.7846   -1.1480   -0.1611 C   0  0  0  0  0  0  0  0  0  0  0  0
    4.0228    0.3843    0.2458 C   0  0  0  0  0  0  0  0  0  0  0  0
    4.3978    1.5372    1.1211 C   0  0  0  0  0  0  0  0  0  0  0  0
    3.2010    2.0362    1.6268 F   0  0  0  0  0  0  0  0  0  0  0  0
    4.9813    2.5580    0.4108 F   0  0  0  0  0  0  0  0  0  0  0  0
    5.1498    1.1428    2.2033 F   0  0  0  0  0  0  0  0  0  0  0  0
    2.9104   -0.3990    0.4797 C   0  0  0  0  0  0  0  0  0  0  0  0
   -2.4518    0.0177   -0.0700 C   0  0  0  0  0  0  0  0  0  0  0  0
   -3.3836    0.9970    0.2528 C   0  0  0  0  0  0  0  0  0  0  0  0
   -4.7821    0.6783    0.4324 C   0  0  0  0  0  0  0  0  0  0  0  0
   -5.9804    0.5028    0.3333 C   0  0  0  0  0  0  0  0  0  0  0  0
   -7.3075    0.2916   -0.1810 C   0  0  0  0  0  0  0  0  0  0  0  0
   -8.1460    1.1484   -0.8432 C   0  0  0  0  0  0  0  0  0  0  0  0
   -9.2649    0.4449   -1.1246 N   0  0  0  0  0  0  0  0  0  0  0  0
   -9.2284   -0.6776   -0.3676 C   0  0  0  0  0  0  0  0  0  0  0  0
  -10.0983   -1.7504   -0.2173 C   0  0  0  0  0  0  0  0  0  0  0  0
   -9.6359   -2.8825    0.4363 C   0  0  0  0  0  0  0  0  0  0  0  0
   -8.2768   -3.1677    0.4072 C   0  0  0  0  0  0  0  0  0  0  0  0
   -7.4698   -2.1147    0.1309 N   0  0  0  0  0  0  0  0  0  0  0  0
   -7.9507   -0.8870   -0.0300 N   0  0  0  0  0  0  0  0  0  0  0  0
  1  2  1  0
  2  3  2  0
  3  4  1  0
  4  5  2  0
  5  6  1  0
  6  7  2  0
  6  8  1  0
  8  9  1  0
  9 10  2  0
 10 11  1  0
 11 12  2  0
 12 13  1  0
 13 14  1  0
 14 15  1  0
 15 16  1  0
 16 17  1  0
 17 18  1  0
 17 19  1  0
 19 20  1  0
 12 21  1  0
 21 22  1  0
 22 23  1  0
 22 24  1  0
 22 25  1  0
 21 26  2  0
  5 27  1  0
 27 28  2  0
 28 29  1  0
 29 30  3  0
 30 31  1  0
 31 32  2  0
 32 33  1  0
 33 34  2  0
 34 35  1  0
 35 36  2  0
 36 37  1  0
 37 38  2  0
 38 39  1  0
 28  2  1  0
 39 31  1  0
 26  9  1  0
 39 34  1  0
 20 14  1  0
M  END
>  <supplier_code>  (1430) 
DB08901

>  <zinc_id>  (1430) 
ZINC000036701290

>  <catalog_short_name>  (1430) 
dbfda

$$$$

     RDKit          3D

 37 41  0  0  0  0  0  0  0  0999 V2000
    1.6399    0.4857   -3.9769 C   0  0  0  0  0  0  0  0  0  0  0  0
    1.7116   -0.5161   -2.9682 O   0  0  0  0  0  0  0  0  0  0  0  0
    2.0717   -0.2399   -1.6566 C   0  0  0  0  0  0  0  0  0  0  0  0
    3.3647   -0.0519   -1.2896 N   0  0  0  0  0  0  0  0  0  0  0  0
    3.6799    0.5627   -0.1230 C   0  0  0  0  0  0  0  0  0  0  0  0
    5.0244    0.8230    0.0761 C   0  0  0  0  0  0  0  0  0  0  0  0
    5.3674    1.7028    1.0689 C   0  0  0  0  0  0  0  0  0  0  0  0
    4.3944    2.2530    1.8943 C   0  0  0  0  0  0  0  0  0  0  0  0
    4.9565    3.5963    3.1318 Br  0  0  0  0  0  0  0  0  0  0  0  0
    3.0682    2.0489    1.5751 C   0  0  0  0  0  0  0  0  0  0  0  0
    2.7001    1.3957    0.4055 C   0  0  0  0  0  0  0  0  0  0  0  0
    1.3702    1.1420    0.0888 C   0  0  0  0  0  0  0  0  0  0  0  0
    1.1527   -0.0292   -0.6336 C   0  0  0  0  0  0  0  0  0  0  0  0
   -0.3932   -0.1656   -1.1720 C   0  0  1  0  0  0  0  0  0  0  0  0
   -0.1766   -1.7271   -1.5982 C   0  0  0  0  0  0  0  0  0  0  0  0
    0.4291   -2.5424   -0.7252 C   0  0  0  0  0  0  0  0  0  0  0  0
    0.5445   -3.8786   -1.0866 C   0  0  0  0  0  0  0  0  0  0  0  0
    0.1223   -4.3025   -2.3366 C   0  0  0  0  0  0  0  0  0  0  0  0
   -0.6467   -3.4357   -3.1031 C   0  0  0  0  0  0  0  0  0  0  0  0
   -0.9052   -2.1315   -2.6896 C   0  0  0  0  0  0  0  0  0  0  0  0
   -1.0645   -0.5421    0.3083 C   0  0  1  0  0  0  0  0  0  0  0  0
   -1.9533   -1.5726    0.0313 O   0  0  0  0  0  0  0  0  0  0  0  0
   -0.0323   -0.8452    1.2712 C   0  0  0  0  0  0  0  0  0  0  0  0
   -0.1892   -0.2804    2.6349 C   0  0  0  0  0  0  0  0  0  0  0  0
   -0.6640   -1.2167    3.6251 N   0  0  0  0  0  0  0  0  0  0  0  0
    0.5272   -1.7198    4.3064 C   0  0  0  0  0  0  0  0  0  0  0  0
   -1.2507   -2.3811    2.9654 C   0  0  0  0  0  0  0  0  0  0  0  0
   -1.9120    0.6481    0.5989 C   0  0  0  0  0  0  0  0  0  0  0  0
   -1.5430    1.7001    1.4088 C   0  0  0  0  0  0  0  0  0  0  0  0
   -2.0641    2.9478    1.1669 C   0  0  0  0  0  0  0  0  0  0  0  0
   -2.9939    3.1297    0.1493 C   0  0  0  0  0  0  0  0  0  0  0  0
   -3.6397    1.9959   -0.3297 C   0  0  0  0  0  0  0  0  0  0  0  0
   -4.8301    2.1159   -1.0214 C   0  0  0  0  0  0  0  0  0  0  0  0
   -5.5508    0.9537   -1.2448 C   0  0  0  0  0  0  0  0  0  0  0  0
   -5.2105   -0.2507   -0.6403 C   0  0  0  0  0  0  0  0  0  0  0  0
   -3.9015   -0.4177   -0.2003 C   0  0  0  0  0  0  0  0  0  0  0  0
   -3.2034    0.7455    0.0885 C   0  0  0  0  0  0  0  0  0  0  0  0
  1  2  1  0
  2  3  1  0
  3  4  2  0
  4  5  1  0
  5  6  2  0
  6  7  1  0
  7  8  2  0
  8  9  1  0
  8 10  1  0
 10 11  2  0
 11 12  1  0
 12 13  2  0
 14 13  1  1
 14 15  1  0
 15 16  2  0
 16 17  1  0
 17 18  2  0
 18 19  1  0
 19 20  2  0
 14 21  1  0
 21 22  1  6
 21 23  1  0
 23 24  1  0
 24 25  1  0
 25 26  1  0
 25 27  1  0
 21 28  1  0
 28 29  2  0
 29 30  1  0
 30 31  2  0
 31 32  1  0
 32 33  2  0
 33 34  1  0
 34 35  2  0
 35 36  1  0
 36 37  2  0
 13  3  1  0
 20 15  1  0
 37 28  1  0
 11  5  1  0
 37 32  1  0
M  END
>  <supplier_code>  (1431) 
DB08903

>  <zinc_id>  (1431) 
ZINC000004655029

>  <catalog_short_name>  (1431) 
dbfda

$$$$

     RDKit          3D

 37 41  0  0  0  0  0  0  0  0999 V2000
    1.8113    1.8100    1.9236 C   0  0  0  0  0  0  0  0  0  0  0  0
    1.9979    2.3122    0.3725 C   0  0  2  0  0  0  0  0  0  0  0  0
    0.3995    2.5230    0.0709 C   0  0  0  0  0  0  0  0  0  0  0  0
    0.0088    1.1090    0.7270 C   0  0  1  0  0  0  0  0  0  0  0  0
   -1.4172    0.8292   -0.1355 C   0  0  2  0  0  0  0  0  0  0  0  0
   -2.4024    1.8174    0.6862 C   0  0  0  0  0  0  0  0  0  0  0  0
   -3.3987    1.6265   -0.6349 C   0  0  2  0  0  0  0  0  0  0  0  0
   -4.4657    2.4727    0.0082 F   0  0  0  0  0  0  0  0  0  0  0  0
   -4.0065    0.2331   -0.1000 C   0  0  0  0  0  0  0  0  0  0  0  0
   -5.2537   -0.0331   -0.3889 C   0  0  0  0  0  0  0  0  0  0  0  0
   -5.8755   -1.0279    0.5104 C   0  0  0  0  0  0  0  0  0  0  0  0
   -7.0388   -1.4983    0.2762 O   0  0  0  0  0  0  0  0  0  0  0  0
   -5.2649   -1.0685    1.8501 C   0  0  0  0  0  0  0  0  0  0  0  0
   -3.9362   -0.7751    1.9372 C   0  0  0  0  0  0  0  0  0  0  0  0
   -3.1885   -0.7170    0.6325 C   0  0  1  0  0  0  0  0  0  0  0  0
   -3.4472   -2.1106    0.0558 C   0  0  0  0  0  0  0  0  0  0  0  0
   -1.7552   -0.4361    0.7857 C   0  0  2  0  0  0  0  0  0  0  0  0
   -1.4025   -0.3151    2.0370 F   0  0  0  0  0  0  0  0  0  0  0  0
   -0.9095   -1.6554    0.0729 C   0  0  1  0  0  0  0  0  0  0  0  0
   -1.3406   -1.2463   -1.3286 O   0  0  0  0  0  0  0  0  0  0  0  0
    0.5532   -0.9581   -0.0601 C   0  0  0  0  0  0  0  0  0  0  0  0
    0.7664    0.3276   -0.4739 C   0  0  1  0  0  0  0  0  0  0  0  0
    0.2822    0.8510   -1.7958 C   0  0  0  0  0  0  0  0  0  0  0  0
    2.0644    0.8105   -0.2152 C   0  0  2  0  0  0  0  0  0  0  0  0
    2.7813   -0.0196    0.6568 O   0  0  0  0  0  0  0  0  0  0  0  0
    3.2582   -1.1456   -0.0371 C   0  0  0  0  0  0  0  0  0  0  0  0
    3.2440   -1.1647   -1.3129 O   0  0  0  0  0  0  0  0  0  0  0  0
    3.8497   -2.2790    0.6146 C   0  0  0  0  0  0  0  0  0  0  0  0
    4.4520   -3.2944   -0.1255 C   0  0  0  0  0  0  0  0  0  0  0  0
    5.1949   -4.1161    0.6939 C   0  0  0  0  0  0  0  0  0  0  0  0
    4.9251   -3.5560    1.9421 C   0  0  0  0  0  0  0  0  0  0  0  0
    4.3974   -2.3799    1.7791 O   0  0  0  0  0  0  0  0  0  0  0  0
    3.0256    1.0692   -1.3429 C   0  0  0  0  0  0  0  0  0  0  0  0
    4.1172    1.4743   -0.9177 O   0  0  0  0  0  0  0  0  0  0  0  0
    2.5342    2.1043   -2.7483 S   0  0  0  0  0  0  0  0  0  0  0  0
    2.9591    3.8454   -2.4770 C   0  0  0  0  0  0  0  0  0  0  0  0
    2.4807    4.5815   -3.5381 F   0  0  0  0  0  0  0  0  0  0  0  0
  2  1  1  1
  2  3  1  0
  4  3  1  6
  4  5  1  0
  5  6  1  1
  6  7  1  0
  7  8  1  1
  7  9  1  0
  9 10  2  0
 10 11  1  0
 11 12  2  0
 11 13  1  0
 13 14  2  0
 14 15  1  0
 15 16  1  6
 15 17  1  0
 17 18  1  1
 17 19  1  0
 19 20  1  6
 19 21  1  0
 21 22  1  0
 22 23  1  6
 22 24  1  0
 24 25  1  1
 25 26  1  0
 26 27  2  0
 26 28  1  0
 28 29  2  0
 29 30  1  0
 30 31  2  0
 31 32  1  0
 24 33  1  0
 33 34  2  0
 33 35  1  0
 35 36  1  0
 36 37  1  0
 24  2  1  0
 32 28  1  0
 22  4  1  0
 17  5  1  0
 15  9  1  0
M  END
>  <supplier_code>  (1432) 
DB08906

>  <zinc_id>  (1432) 
ZINC000003992105

>  <catalog_short_name>  (1432) 
dbfda

$$$$

     RDKit          3D

 31 34  0  0  0  0  0  0  0  0999 V2000
    0.6669   -2.4892    0.3628 C   0  0  0  0  0  0  0  0  0  0  0  0
   -0.0551   -2.3884   -0.0563 C   0  0  0  0  0  0  0  0  0  0  0  0
   -1.0051   -3.1953   -0.6739 C   0  0  0  0  0  0  0  0  0  0  0  0
   -2.2522   -2.7208   -1.0713 C   0  0  0  0  0  0  0  0  0  0  0  0
   -2.5861   -1.4649   -0.6529 C   0  0  0  0  0  0  0  0  0  0  0  0
   -3.9666   -0.8218   -1.1661 C   0  0  2  0  0  0  0  0  0  0  0  0
   -3.6578    0.5527   -0.6020 O   0  0  0  0  0  0  0  0  0  0  0  0
   -4.8612    1.2478   -1.1822 C   0  0  2  0  0  0  0  0  0  0  0  0
   -4.2991    2.7199   -0.7134 C   0  0  0  0  0  0  0  0  0  0  0  0
   -4.1158    3.3512   -1.9442 O   0  0  0  0  0  0  0  0  0  0  0  0
   -5.6743    1.0432    0.3174 C   0  0  1  0  0  0  0  0  0  0  0  0
   -6.8954    1.7015   -0.2525 O   0  0  0  0  0  0  0  0  0  0  0  0
   -6.2159   -0.4956   -0.1917 C   0  0  2  0  0  0  0  0  0  0  0  0
   -6.8208   -0.7551    1.1562 O   0  0  0  0  0  0  0  0  0  0  0  0
   -4.7624   -1.2500    0.2927 C   0  0  1  0  0  0  0  0  0  0  0  0
   -5.2065   -2.5489   -0.3019 O   0  0  0  0  0  0  0  0  0  0  0  0
   -1.4939   -0.5898   -0.7365 C   0  0  0  0  0  0  0  0  0  0  0  0
   -0.3796   -1.0356   -0.0274 C   0  0  0  0  0  0  0  0  0  0  0  0
    0.2317   -0.2162    1.1014 C   0  0  0  0  0  0  0  0  0  0  0  0
    1.7001   -0.3804    0.8689 C   0  0  0  0  0  0  0  0  0  0  0  0
    2.6696   -0.1449    1.7948 C   0  0  0  0  0  0  0  0  0  0  0  0
    3.9195    0.0202    1.2893 C   0  0  0  0  0  0  0  0  0  0  0  0
    3.9532    0.6692    0.0904 C   0  0  0  0  0  0  0  0  0  0  0  0
    5.1881    0.9899   -0.6391 C   0  0  0  0  0  0  0  0  0  0  0  0
    5.7186    2.2554   -0.4447 C   0  0  0  0  0  0  0  0  0  0  0  0
    7.0783    2.4598   -0.2554 C   0  0  0  0  0  0  0  0  0  0  0  0
    7.9284    1.3982   -0.4878 C   0  0  0  0  0  0  0  0  0  0  0  0
    9.2477    1.6300   -0.5240 F   0  0  0  0  0  0  0  0  0  0  0  0
    7.4509    0.1931   -0.9868 C   0  0  0  0  0  0  0  0  0  0  0  0
    6.0943   -0.0274   -0.8595 C   0  0  0  0  0  0  0  0  0  0  0  0
    2.4005    0.2922   -0.5390 S   0  0  0  0  0  0  0  0  0  0  0  0
  1  2  1  0
  2  3  2  0
  3  4  1  0
  4  5  2  0
  6  5  1  1
  6  7  1  0
  7  8  1  0
  8  9  1  1
  9 10  1  0
  8 11  1  0
 11 12  1  6
 11 13  1  0
 13 14  1  1
 13 15  1  0
 15 16  1  6
  5 17  1  0
 17 18  2  0
 18 19  1  0
 19 20  1  0
 20 21  2  0
 21 22  1  0
 22 23  2  0
 23 24  1  0
 24 25  2  0
 25 26  1  0
 26 27  2  0
 27 28  1  0
 27 29  1  0
 29 30  2  0
 23 31  1  0
 18  2  1  0
 31 20  1  0
 15  6  1  0
 30 24  1  0
M  END
>  <supplier_code>  (1433) 
DB08907

>  <zinc_id>  (1433) 
ZINC000043207238

>  <catalog_short_name>  (1433) 
dbfda

$$$$

     RDKit          3D

 10  9  0  0  0  0  0  0  0  0999 V2000
    3.6323    0.5034    1.1342 C   0  0  0  0  0  0  0  0  0  0  0  0
    2.3385    0.6539    0.5528 O   0  0  0  0  0  0  0  0  0  0  0  0
    1.8297   -0.2776   -0.3544 C   0  0  0  0  0  0  0  0  0  0  0  0
    2.6726   -0.7927   -1.1393 O   0  0  0  0  0  0  0  0  0  0  0  0
    0.5058   -0.8473   -0.2734 C   0  0  0  0  0  0  0  0  0  0  0  0
   -0.5895   -0.3269   -0.7587 C   0  0  0  0  0  0  0  0  0  0  0  0
   -1.8472   -0.2310   -0.0115 C   0  0  0  0  0  0  0  0  0  0  0  0
   -1.9490   -0.5462    1.2024 O   0  0  0  0  0  0  0  0  0  0  0  0
   -2.9159    0.4635   -0.5406 O   0  0  0  0  0  0  0  0  0  0  0  0
   -3.6773    1.4009    0.1883 C   0  0  0  0  0  0  0  0  0  0  0  0
  1  2  1  0
  2  3  1  0
  3  4  2  0
  3  5  1  0
  5  6  2  0
  6  7  1  0
  7  8  2  0
  7  9  1  0
  9 10  1  0
M  END
>  <supplier_code>  (1434) 
DB08908

>  <zinc_id>  (1434) 
ZINC000003843378

>  <catalog_short_name>  (1434) 
dbfda

$$$$

     RDKit          3D

 10  9  0  0  0  0  0  0  0  0999 V2000
    3.5277    1.0363   -0.2841 C   0  0  0  0  0  0  0  0  0  0  0  0
    2.6926   -0.0934   -0.1046 O   0  0  0  0  0  0  0  0  0  0  0  0
    1.3111    0.0106    0.0843 C   0  0  0  0  0  0  0  0  0  0  0  0
    0.8846    1.1851    0.2967 O   0  0  0  0  0  0  0  0  0  0  0  0
    0.6644   -1.1486    0.7113 C   0  0  0  0  0  0  0  0  0  0  0  0
   -0.5205   -1.5089    0.2594 C   0  0  0  0  0  0  0  0  0  0  0  0
   -1.4798   -0.4895   -0.1901 C   0  0  0  0  0  0  0  0  0  0  0  0
   -2.4421   -0.9538   -0.8767 O   0  0  0  0  0  0  0  0  0  0  0  0
   -1.8786    0.4845    0.7324 O   0  0  0  0  0  0  0  0  0  0  0  0
   -2.7593    1.4777    0.2086 C   0  0  0  0  0  0  0  0  0  0  0  0
  1  2  1  0
  2  3  1  0
  3  4  2  0
  3  5  1  0
  5  6  2  0
  6  7  1  0
  7  8  2  0
  7  9  1  0
  9 10  1  0
M  END
>  <supplier_code>  (1435) 
DB08908

>  <zinc_id>  (1435) 
ZINC000100017404

>  <catalog_short_name>  (1435) 
dbfda

$$$$

     RDKit          3D

 39 41  0  0  0  0  0  0  0  0999 V2000
   -2.8754   -1.6602    0.2537 O   0  0  0  0  0  0  0  0  0  0  0  0
   -1.9117   -2.4457    0.1353 C   0  0  0  0  0  0  0  0  0  0  0  0
   -2.0280   -3.8247   -0.4115 C   0  0  0  0  0  0  0  0  0  0  0  0
   -1.4321   -4.7604    0.6182 C   0  0  0  0  0  0  0  0  0  0  0  0
   -1.8565   -6.1875    0.4172 C   0  0  0  0  0  0  0  0  0  0  0  0
   -3.3189   -6.2830    0.1615 C   0  0  0  0  0  0  0  0  0  0  0  0
   -4.2380   -5.7195    1.0181 C   0  0  0  0  0  0  0  0  0  0  0  0
   -5.5848   -5.7160    0.7035 C   0  0  0  0  0  0  0  0  0  0  0  0
   -5.9898   -6.5607   -0.2979 C   0  0  0  0  0  0  0  0  0  0  0  0
   -5.1021   -7.4689   -0.8451 C   0  0  0  0  0  0  0  0  0  0  0  0
   -3.7562   -7.1397   -0.8366 C   0  0  0  0  0  0  0  0  0  0  0  0
   -0.7722   -2.1636    0.8939 O   0  0  0  0  0  0  0  0  0  0  0  0
   -0.4003   -0.8486    1.2495 C   0  0  0  0  0  0  0  0  0  0  0  0
   -0.7042    0.1599    0.1769 C   0  0  0  0  0  0  0  0  0  0  0  0
    0.4182    0.3476   -0.8033 C   0  0  0  0  0  0  0  0  0  0  0  0
    1.5239   -0.5115   -0.5365 O   0  0  0  0  0  0  0  0  0  0  0  0
    2.8251   -0.0543   -0.6789 C   0  0  0  0  0  0  0  0  0  0  0  0
    3.0456    1.1235   -0.2801 O   0  0  0  0  0  0  0  0  0  0  0  0
    3.8951   -0.8400   -1.3579 C   0  0  0  0  0  0  0  0  0  0  0  0
    5.2361   -0.2654   -0.9696 C   0  0  0  0  0  0  0  0  0  0  0  0
    5.8528   -1.0868    0.1397 C   0  0  0  0  0  0  0  0  0  0  0  0
    7.1019   -0.4281    0.6049 C   0  0  0  0  0  0  0  0  0  0  0  0
    7.2039    0.9494    0.5044 C   0  0  0  0  0  0  0  0  0  0  0  0
    8.4386    1.5405    0.7344 C   0  0  0  0  0  0  0  0  0  0  0  0
    9.5773    0.7838    0.6579 C   0  0  0  0  0  0  0  0  0  0  0  0
    9.4961   -0.5857    0.5522 C   0  0  0  0  0  0  0  0  0  0  0  0
    8.2486   -1.1744    0.7053 C   0  0  0  0  0  0  0  0  0  0  0  0
   -1.0711    1.3923    0.7910 O   0  0  0  0  0  0  0  0  0  0  0  0
   -0.6301    2.6128    0.2792 C   0  0  0  0  0  0  0  0  0  0  0  0
   -0.5232    2.6778   -0.9818 O   0  0  0  0  0  0  0  0  0  0  0  0
   -0.4093    3.7910    1.1624 C   0  0  0  0  0  0  0  0  0  0  0  0
   -1.7397    4.4797    1.4376 C   0  0  0  0  0  0  0  0  0  0  0  0
   -1.8814    5.6287    0.4475 C   0  0  0  0  0  0  0  0  0  0  0  0
   -3.3072    5.8958    0.1206 C   0  0  0  0  0  0  0  0  0  0  0  0
   -4.2705    6.0801    1.1048 C   0  0  0  0  0  0  0  0  0  0  0  0
   -5.3264    6.9497    0.8831 C   0  0  0  0  0  0  0  0  0  0  0  0
   -5.4559    7.6641   -0.2971 C   0  0  0  0  0  0  0  0  0  0  0  0
   -4.6458    7.2859   -1.3506 C   0  0  0  0  0  0  0  0  0  0  0  0
   -3.6324    6.3621   -1.1449 C   0  0  0  0  0  0  0  0  0  0  0  0
  1  2  2  0
  2  3  1  0
  3  4  1  0
  4  5  1  0
  5  6  1  0
  6  7  2  0
  7  8  1  0
  8  9  2  0
  9 10  1  0
 10 11  2  0
  2 12  1  0
 12 13  1  0
 13 14  1  0
 14 15  1  0
 15 16  1  0
 16 17  1  0
 17 18  2  0
 17 19  1  0
 19 20  1  0
 20 21  1  0
 21 22  1  0
 22 23  2  0
 23 24  1  0
 24 25  2  0
 25 26  1  0
 26 27  2  0
 14 28  1  0
 28 29  1  0
 29 30  2  0
 29 31  1  0
 31 32  1  0
 32 33  1  0
 33 34  1  0
 34 35  2  0
 35 36  1  0
 36 37  2  0
 37 38  1  0
 38 39  2  0
 11  6  1  0
 27 22  1  0
 39 34  1  0
M  END
>  <supplier_code>  (1436) 
DB08909

>  <zinc_id>  (1436) 
ZINC000038945666

>  <catalog_short_name>  (1436) 
dbfda

$$$$

     RDKit          3D

 20 22  0  0  0  0  0  0  0  0999 V2000
   -3.4806   -1.3997    1.9640 N   0  0  0  0  0  0  0  0  0  0  0  0
   -3.3533   -0.5469    1.0868 C   0  0  0  0  0  0  0  0  0  0  0  0
   -4.3989    0.3096    0.7615 C   0  0  0  0  0  0  0  0  0  0  0  0
   -4.2759    1.3012   -0.1692 C   0  0  0  0  0  0  0  0  0  0  0  0
   -3.1303    1.3136   -0.9558 C   0  0  0  0  0  0  0  0  0  0  0  0
   -2.0108    0.6149   -0.5161 C   0  0  0  0  0  0  0  0  0  0  0  0
   -2.1109   -0.3245    0.5021 C   0  0  0  0  0  0  0  0  0  0  0  0
   -0.7383   -0.7257    0.8434 C   0  0  0  0  0  0  0  0  0  0  0  0
   -0.5030   -1.0866    2.0385 O   0  0  0  0  0  0  0  0  0  0  0  0
    0.1792   -0.2363   -0.1467 N   0  0  0  0  0  0  0  0  0  0  0  0
    1.6155    0.2530    0.2953 C   0  0  2  0  0  0  0  0  0  0  0  0
    2.0768    0.6119   -1.2434 C   0  0  0  0  0  0  0  0  0  0  0  0
    3.5231    0.9982   -1.1758 C   0  0  0  0  0  0  0  0  0  0  0  0
    4.2746    0.1944   -0.1743 C   0  0  0  0  0  0  0  0  0  0  0  0
    5.3641    0.6899    0.2452 O   0  0  0  0  0  0  0  0  0  0  0  0
    3.7267   -1.0137    0.3683 N   0  0  0  0  0  0  0  0  0  0  0  0
    2.3142   -1.1931    0.1839 C   0  0  0  0  0  0  0  0  0  0  0  0
    1.7034   -2.1808    0.5586 O   0  0  0  0  0  0  0  0  0  0  0  0
   -0.6120    0.7443   -0.8453 C   0  0  0  0  0  0  0  0  0  0  0  0
   -0.1638    1.6763   -1.5837 O   0  0  0  0  0  0  0  0  0  0  0  0
  1  2  1  0
  2  3  2  0
  3  4  1  0
  4  5  2  0
  5  6  1  0
  6  7  2  0
  7  8  1  0
  8  9  2  0
  8 10  1  0
 11 10  1  6
 11 12  1  0
 12 13  1  0
 13 14  1  0
 14 15  2  0
 14 16  1  0
 16 17  1  0
 17 18  2  0
 10 19  1  0
 19 20  2  0
  7  2  1  0
 17 11  1  0
 19  6  1  0
M  END
>  <supplier_code>  (1437) 
DB08910

>  <zinc_id>  (1437) 
ZINC000001997125

>  <catalog_short_name>  (1437) 
dbfda

$$$$

     RDKit          3D

 20 22  0  0  0  0  0  0  0  0999 V2000
    2.9680    0.9366   -2.1003 N   0  0  0  0  0  0  0  0  0  0  0  0
    2.7963    0.7764   -0.6890 C   0  0  0  0  0  0  0  0  0  0  0  0
    3.6870    1.3254    0.2258 C   0  0  0  0  0  0  0  0  0  0  0  0
    3.5222    0.9907    1.5647 C   0  0  0  0  0  0  0  0  0  0  0  0
    2.7564   -0.1199    1.8761 C   0  0  0  0  0  0  0  0  0  0  0  0
    1.9766   -0.7839    0.9335 C   0  0  0  0  0  0  0  0  0  0  0  0
    1.8737   -0.1969   -0.3222 C   0  0  0  0  0  0  0  0  0  0  0  0
    0.4819   -0.2758   -0.7898 C   0  0  0  0  0  0  0  0  0  0  0  0
    0.1208   -0.1139   -1.9877 O   0  0  0  0  0  0  0  0  0  0  0  0
   -0.2120   -1.1055    0.0646 N   0  0  0  0  0  0  0  0  0  0  0  0
   -1.7674   -1.2170    0.2367 C   0  0  1  0  0  0  0  0  0  0  0  0
   -1.8524    0.1553    1.1423 C   0  0  0  0  0  0  0  0  0  0  0  0
   -3.2927    0.5690    1.1595 C   0  0  0  0  0  0  0  0  0  0  0  0
   -3.4401    1.3663   -0.1041 C   0  0  0  0  0  0  0  0  0  0  0  0
   -3.3672    2.6291   -0.0121 O   0  0  0  0  0  0  0  0  0  0  0  0
   -2.8038    0.7025   -1.2067 N   0  0  0  0  0  0  0  0  0  0  0  0
   -2.1408   -0.5016   -1.1543 C   0  0  0  0  0  0  0  0  0  0  0  0
   -2.4500   -1.4029   -1.9946 O   0  0  0  0  0  0  0  0  0  0  0  0
    0.6581   -1.3919    1.1670 C   0  0  0  0  0  0  0  0  0  0  0  0
    0.4855   -2.3418    1.9907 O   0  0  0  0  0  0  0  0  0  0  0  0
  1  2  1  0
  2  3  2  0
  3  4  1  0
  4  5  2  0
  5  6  1  0
  6  7  2  0
  7  8  1  0
  8  9  2  0
  8 10  1  0
 11 10  1  6
 11 12  1  0
 12 13  1  0
 13 14  1  0
 14 15  2  0
 14 16  1  0
 16 17  1  0
 17 18  2  0
 10 19  1  0
 19 20  2  0
  7  2  1  0
 17 11  1  0
 19  6  1  0
M  END
>  <supplier_code>  (1438) 
DB08910

>  <zinc_id>  (1438) 
ZINC000003940470

>  <catalog_short_name>  (1438) 
dbfda

$$$$

     RDKit          3D

 37 41  0  0  0  0  0  0  0  0999 V2000
    8.0119   -1.4492    1.2052 C   0  0  0  0  0  0  0  0  0  0  0  0
    7.3800   -0.7086    0.0773 C   0  0  0  0  0  0  0  0  0  0  0  0
    7.5744    0.5434    0.0621 O   0  0  0  0  0  0  0  0  0  0  0  0
    6.2006   -1.1606   -0.5820 N   0  0  0  0  0  0  0  0  0  0  0  0
    5.1400   -0.2467   -0.8888 C   0  0  0  0  0  0  0  0  0  0  0  0
    5.3419    1.1250   -0.7900 C   0  0  0  0  0  0  0  0  0  0  0  0
    4.2920    1.9692   -0.4494 C   0  0  0  0  0  0  0  0  0  0  0  0
    3.0430    1.4244   -0.1793 C   0  0  0  0  0  0  0  0  0  0  0  0
    2.8283    0.0476   -0.1992 C   0  0  0  0  0  0  0  0  0  0  0  0
    1.4854   -0.3256   -0.5431 N   0  0  0  0  0  0  0  0  0  0  0  0
    1.0550   -0.2679   -1.8263 C   0  0  0  0  0  0  0  0  0  0  0  0
    1.9055    0.0275   -2.7191 O   0  0  0  0  0  0  0  0  0  0  0  0
   -0.2681   -0.1455   -2.0852 N   0  0  0  0  0  0  0  0  0  0  0  0
   -0.7278   -0.4208   -3.4282 C   0  0  0  0  0  0  0  0  0  0  0  0
   -1.4729    0.6227   -4.1884 C   0  0  0  0  0  0  0  0  0  0  0  0
   -2.2391   -0.5348   -3.6189 C   0  0  0  0  0  0  0  0  0  0  0  0
   -1.1426    0.2629   -1.1352 C   0  0  0  0  0  0  0  0  0  0  0  0
   -2.2572    0.7499   -1.4550 O   0  0  0  0  0  0  0  0  0  0  0  0
   -0.7820   -0.0128    0.1712 C   0  0  0  0  0  0  0  0  0  0  0  0
   -1.7105    0.2270    1.1773 C   0  0  0  0  0  0  0  0  0  0  0  0
   -2.7485    1.1506    0.9319 N   0  0  0  0  0  0  0  0  0  0  0  0
   -4.1253    0.8906    1.0863 C   0  0  0  0  0  0  0  0  0  0  0  0
   -4.9903    1.9335    0.7758 C   0  0  0  0  0  0  0  0  0  0  0  0
   -6.3496    1.6967    0.6299 C   0  0  0  0  0  0  0  0  0  0  0  0
   -6.8063    0.4113    0.3704 C   0  0  0  0  0  0  0  0  0  0  0  0
   -8.7357    0.1243   -0.4321 I   0  0  0  0  0  0  0  0  0  0  0  0
   -5.8680   -0.5842    0.3270 C   0  0  0  0  0  0  0  0  0  0  0  0
   -4.6789   -0.3821    1.0174 C   0  0  0  0  0  0  0  0  0  0  0  0
   -3.7863   -1.4124    0.9558 F   0  0  0  0  0  0  0  0  0  0  0  0
   -1.2245    0.1775    2.4412 N   0  0  0  0  0  0  0  0  0  0  0  0
   -2.0526    0.4643    3.6001 C   0  0  0  0  0  0  0  0  0  0  0  0
   -0.0445   -0.4369    2.6873 C   0  0  0  0  0  0  0  0  0  0  0  0
    0.1940   -0.9761    3.8081 O   0  0  0  0  0  0  0  0  0  0  0  0
    0.8933   -0.6326    1.7012 C   0  0  0  0  0  0  0  0  0  0  0  0
    2.3101   -0.9402    1.9842 C   0  0  0  0  0  0  0  0  0  0  0  0
    0.5468   -0.2612    0.4208 C   0  0  0  0  0  0  0  0  0  0  0  0
    3.8085   -0.6434   -0.9101 C   0  0  0  0  0  0  0  0  0  0  0  0
  1  2  1  0
  2  3  2  0
  2  4  1  0
  4  5  1  0
  5  6  2  0
  6  7  1  0
  7  8  2  0
  8  9  1  0
  9 10  1  0
 10 11  1  0
 11 12  2  0
 11 13  1  0
 13 14  1  0
 14 15  1  0
 15 16  1  0
 13 17  1  0
 17 18  2  0
 17 19  1  0
 19 20  2  0
 20 21  1  0
 21 22  1  0
 22 23  2  0
 23 24  1  0
 24 25  2  0
 25 26  1  0
 25 27  1  0
 27 28  2  0
 28 29  1  0
 20 30  1  0
 30 31  1  0
 30 32  1  0
 32 33  2  0
 32 34  1  0
 34 35  1  0
 34 36  2  0
  9 37  2  0
 37  5  1  0
 36 10  1  0
 16 14  1  0
 36 19  1  0
 28 22  1  0
M  END
>  <supplier_code>  (1439) 
DB08911

>  <zinc_id>  (1439) 
ZINC000043100709

>  <catalog_short_name>  (1439) 
dbfda

$$$$

     RDKit          3D

 35 38  0  0  0  0  0  0  0  0999 V2000
   -5.1907   -3.6880    0.4839 C   0  0  0  0  0  0  0  0  0  0  0  0
   -4.0377   -3.6614   -0.5099 C   0  0  0  0  0  0  0  0  0  0  0  0
   -2.8743   -4.4132    0.0724 C   0  0  0  0  0  0  0  0  0  0  0  0
   -4.5102   -4.2171   -1.8239 C   0  0  0  0  0  0  0  0  0  0  0  0
   -3.6424   -2.2240   -0.6410 C   0  0  0  0  0  0  0  0  0  0  0  0
   -2.4367   -1.6540   -0.6092 N   0  0  0  0  0  0  0  0  0  0  0  0
   -2.4452   -0.4238   -0.0902 C   0  0  0  0  0  0  0  0  0  0  0  0
   -1.2038    0.1963    0.4010 C   0  0  0  0  0  0  0  0  0  0  0  0
   -1.1959    1.1946    1.3432 C   0  0  0  0  0  0  0  0  0  0  0  0
   -0.0556    1.9691    1.5140 C   0  0  0  0  0  0  0  0  0  0  0  0
    1.1381    1.6675    0.8823 C   0  0  0  0  0  0  0  0  0  0  0  0
    1.2060    0.4502    0.2210 C   0  0  0  0  0  0  0  0  0  0  0  0
    2.4521   -0.2108    0.0219 N   0  0  0  0  0  0  0  0  0  0  0  0
    3.8672    0.4765    0.7103 S   0  0  0  0  0  0  0  0  0  0  0  0
    4.0622    1.8630    0.1567 O   0  0  0  0  0  0  0  0  0  0  0  0
    3.6770    0.6077    2.1900 O   0  0  0  0  0  0  0  0  0  0  0  0
    5.2770   -0.4840    0.3931 C   0  0  0  0  0  0  0  0  0  0  0  0
    5.3785   -1.7448    0.9455 C   0  0  0  0  0  0  0  0  0  0  0  0
    4.4749   -2.2527    1.8001 F   0  0  0  0  0  0  0  0  0  0  0  0
    6.4331   -2.5357    0.5696 C   0  0  0  0  0  0  0  0  0  0  0  0
    7.3551   -2.0506   -0.3327 C   0  0  0  0  0  0  0  0  0  0  0  0
    7.4859   -0.6784   -0.4480 C   0  0  0  0  0  0  0  0  0  0  0  0
    6.4742    0.1278    0.0449 C   0  0  0  0  0  0  0  0  0  0  0  0
    6.5571    1.4864   -0.0369 F   0  0  0  0  0  0  0  0  0  0  0  0
    0.0144   -0.1110   -0.1935 C   0  0  0  0  0  0  0  0  0  0  0  0
    0.0374   -1.2653   -0.9174 F   0  0  0  0  0  0  0  0  0  0  0  0
   -3.4389    0.3658   -0.6631 C   0  0  0  0  0  0  0  0  0  0  0  0
   -3.7103    1.7891   -0.4080 C   0  0  0  0  0  0  0  0  0  0  0  0
   -2.9349    2.7942   -0.9732 C   0  0  0  0  0  0  0  0  0  0  0  0
   -3.1534    4.0689   -0.4644 C   0  0  0  0  0  0  0  0  0  0  0  0
   -4.0949    4.2469    0.4937 N   0  0  0  0  0  0  0  0  0  0  0  0
   -5.0755    3.3424    0.6461 C   0  0  0  0  0  0  0  0  0  0  0  0
   -6.3423    3.6282    1.2056 N   0  0  0  0  0  0  0  0  0  0  0  0
   -4.9489    2.1906   -0.0290 N   0  0  0  0  0  0  0  0  0  0  0  0
   -4.5986   -0.8504   -1.0327 S   0  0  0  0  0  0  0  0  0  0  0  0
  1  2  1  0
  2  3  1  0
  2  4  1  0
  2  5  1  0
  5  6  2  0
  6  7  1  0
  7  8  1  0
  8  9  2  0
  9 10  1  0
 10 11  2  0
 11 12  1  0
 12 13  1  0
 13 14  1  0
 14 15  2  0
 14 16  2  0
 14 17  1  0
 17 18  2  0
 18 19  1  0
 18 20  1  0
 20 21  2  0
 21 22  1  0
 22 23  2  0
 23 24  1  0
 12 25  2  0
 25 26  1  0
  7 27  2  0
 27 28  1  0
 28 29  2  0
 29 30  1  0
 30 31  2  0
 31 32  1  0
 32 33  1  0
 32 34  2  0
 27 35  1  0
 35  5  1  0
 25  8  1  0
 34 28  1  0
 23 17  1  0
M  END
>  <supplier_code>  (1440) 
DB08912

>  <zinc_id>  (1440) 
ZINC000068153186

>  <catalog_short_name>  (1440) 
dbfda

$$$$

     RDKit          3D

 34 37  0  0  0  0  0  0  0  0999 V2000
    6.1388   -1.4100    1.5089 C   0  0  0  0  0  0  0  0  0  0  0  0
    6.0938   -2.1220    2.5206 N   0  0  0  0  0  0  0  0  0  0  0  0
    7.3174   -2.8387    2.7737 C   0  0  0  0  0  0  0  0  0  0  0  0
    5.0021   -3.0648    2.3598 C   0  0  0  0  0  0  0  0  0  0  0  0
    3.9221   -2.3434    1.6306 C   0  0  0  0  0  0  0  0  0  0  0  0
    3.4411   -1.1690    1.9957 C   0  0  0  0  0  0  0  0  0  0  0  0
    2.9439   -0.2651    0.9793 C   0  0  0  0  0  0  0  0  0  0  0  0
    3.1265   -0.5106   -0.2534 O   0  0  0  0  0  0  0  0  0  0  0  0
    1.9845    0.7711    1.2249 N   0  0  0  0  0  0  0  0  0  0  0  0
    0.9298    0.9302    0.2665 C   0  0  0  0  0  0  0  0  0  0  0  0
   -0.3730    0.5226    0.5333 C   0  0  0  0  0  0  0  0  0  0  0  0
   -1.1988    0.2248   -0.5297 C   0  0  0  0  0  0  0  0  0  0  0  0
   -0.6331    0.2240   -1.8020 C   0  0  0  0  0  0  0  0  0  0  0  0
    0.6087    0.8033   -2.0481 C   0  0  0  0  0  0  0  0  0  0  0  0
    1.3378    1.3471   -0.9967 C   0  0  0  0  0  0  0  0  0  0  0  0
    1.9231    2.5969   -0.9915 O   0  0  0  0  0  0  0  0  0  0  0  0
    2.7120    2.9585   -2.2798 C   0  0  1  0  0  0  0  0  0  0  0  0
    1.3153    3.0879   -3.1759 C   0  0  0  0  0  0  0  0  0  0  0  0
    1.8342    4.2180   -4.0062 C   0  0  0  0  0  0  0  0  0  0  0  0
    2.5162    5.0899   -3.2045 O   0  0  0  0  0  0  0  0  0  0  0  0
    2.6267    4.5843   -1.9352 C   0  0  0  0  0  0  0  0  0  0  0  0
   -1.3250   -0.3939   -2.7758 N   0  0  0  0  0  0  0  0  0  0  0  0
   -2.6112   -0.7189   -2.5403 C   0  0  0  0  0  0  0  0  0  0  0  0
   -3.2404   -0.2649   -1.4277 N   0  0  0  0  0  0  0  0  0  0  0  0
   -2.5661    0.4867   -0.5198 C   0  0  0  0  0  0  0  0  0  0  0  0
   -3.1864    0.8854    0.7097 N   0  0  0  0  0  0  0  0  0  0  0  0
   -3.8985   -0.1440    1.4082 C   0  0  0  0  0  0  0  0  0  0  0  0
   -3.1947   -1.3176    1.6561 C   0  0  0  0  0  0  0  0  0  0  0  0
   -3.8357   -2.5177    1.9361 C   0  0  0  0  0  0  0  0  0  0  0  0
   -5.1393   -2.6116    1.4620 C   0  0  0  0  0  0  0  0  0  0  0  0
   -5.8021   -3.8012    1.4799 F   0  0  0  0  0  0  0  0  0  0  0  0
   -5.8834   -1.4599    1.2828 C   0  0  0  0  0  0  0  0  0  0  0  0
   -7.6214   -1.5592    1.5020 Cl  0  0  0  0  0  0  0  0  0  0  0  0
   -5.2650   -0.2182    1.2563 C   0  0  0  0  0  0  0  0  0  0  0  0
  1  2  1  0
  2  3  1  0
  2  4  1  0
  4  5  1  0
  5  6  2  0
  6  7  1  0
  7  8  2  0
  7  9  1  0
  9 10  1  0
 10 11  2  0
 11 12  1  0
 12 13  2  0
 13 14  1  0
 14 15  2  0
 15 16  1  0
 17 16  1  1
 17 18  1  0
 18 19  1  0
 19 20  1  0
 20 21  1  0
 13 22  1  0
 22 23  2  0
 23 24  1  0
 24 25  2  0
 25 26  1  0
 26 27  1  0
 27 28  2  0
 28 29  1  0
 29 30  2  0
 30 31  1  0
 30 32  1  0
 32 33  1  0
 32 34  2  0
 15 10  1  0
 21 17  1  0
 34 27  1  0
 25 12  1  0
M  END
>  <supplier_code>  (1441) 
DB08916

>  <zinc_id>  (1441) 
ZINC000003976838

>  <catalog_short_name>  (1441) 
dbfda

$$$$

     RDKit          3D

 18 19  0  0  0  0  0  0  0  0999 V2000
    3.0056   -1.7194   -0.5194 C   0  0  0  0  0  0  0  0  0  0  0  0
    2.1839   -1.3710   -0.6798 C   0  0  0  0  0  0  0  0  0  0  0  0
    2.0162    0.0409   -0.3385 N   0  0  0  0  0  0  0  0  0  0  0  0
    3.2441    0.6953    0.1109 C   0  0  0  0  0  0  0  0  0  0  0  0
    3.8045   -0.1143    1.2728 C   0  0  0  0  0  0  0  0  0  0  0  0
    0.8605    0.3466    0.4555 C   0  0  0  0  0  0  0  0  0  0  0  0
    1.0481    0.1171    1.6911 O   0  0  0  0  0  0  0  0  0  0  0  0
   -0.4464    0.5421   -0.0106 C   0  0  1  0  0  0  0  0  0  0  0  0
   -1.5223   -0.4471   -0.0876 C   0  0  0  0  0  0  0  0  0  0  0  0
   -1.6982   -1.2542    1.0300 C   0  0  0  0  0  0  0  0  0  0  0  0
   -2.7037   -2.1724    1.0994 C   0  0  0  0  0  0  0  0  0  0  0  0
   -3.5863   -2.2797    0.0424 C   0  0  0  0  0  0  0  0  0  0  0  0
   -3.1292   -1.8502   -1.1945 C   0  0  0  0  0  0  0  0  0  0  0  0
   -2.1039   -0.9122   -1.2537 C   0  0  0  0  0  0  0  0  0  0  0  0
   -1.1772    1.8884    0.7006 C   0  0  0  0  0  0  0  0  0  0  0  0
   -0.7955    1.8909   -0.9485 C   0  0  1  0  0  0  0  0  0  0  0  0
    0.7193    2.6600   -0.7042 C   0  0  0  0  0  0  0  0  0  0  0  0
    0.2804    3.9394   -0.1603 N   0  0  0  0  0  0  0  0  0  0  0  0
  1  2  1  0
  2  3  1  0
  3  4  1  0
  4  5  1  0
  3  6  1  0
  6  7  2  0
  8  6  1  1
  8  9  1  0
  9 10  2  0
 10 11  1  0
 11 12  2  0
 12 13  1  0
 13 14  2  0
  8 15  1  0
 15 16  1  0
 16 17  1  1
 17 18  1  0
 16  8  1  0
 14  9  1  0
M  END
>  <supplier_code>  (1442) 
DB08918

>  <zinc_id>  (1442) 
ZINC000000000506

>  <catalog_short_name>  (1442) 
dbfda

$$$$

     RDKit          3D

 30 33  0  0  0  0  0  0  0  0999 V2000
   -4.6422    2.9400    0.2437 C   0  0  0  0  0  0  0  0  0  0  0  0
   -4.7298    1.6710   -0.8310 C   0  0  2  0  0  0  0  0  0  0  0  0
   -6.3757    1.5252   -0.5792 C   0  0  0  0  0  0  0  0  0  0  0  0
   -6.5806    0.0195   -0.7186 C   0  0  0  0  0  0  0  0  0  0  0  0
   -5.4725   -0.4221   -1.4640 O   0  0  0  0  0  0  0  0  0  0  0  0
   -4.5047   -0.8639   -0.3172 C   0  0  1  0  0  0  0  0  0  0  0  0
   -3.1297   -0.5950   -1.2798 C   0  0  0  0  0  0  0  0  0  0  0  0
   -2.0806   -0.8298   -0.2847 N   0  0  0  0  0  0  0  0  0  0  0  0
   -0.9768   -1.5778   -0.5303 C   0  0  0  0  0  0  0  0  0  0  0  0
    0.2719   -1.2172   -0.0841 C   0  0  0  0  0  0  0  0  0  0  0  0
    1.4574   -2.0667   -0.1950 C   0  0  0  0  0  0  0  0  0  0  0  0
    1.3771   -3.3147   -0.4116 O   0  0  0  0  0  0  0  0  0  0  0  0
    2.6230   -1.7189    0.5661 N   0  0  0  0  0  0  0  0  0  0  0  0
    3.9222   -2.2814    0.3377 C   0  0  0  0  0  0  0  0  0  0  0  0
    4.8287   -1.1287    0.0347 C   0  0  0  0  0  0  0  0  0  0  0  0
    5.0057   -0.1854    1.0398 C   0  0  0  0  0  0  0  0  0  0  0  0
    5.6960    0.9781    0.7508 C   0  0  0  0  0  0  0  0  0  0  0  0
    5.6204    1.4799   -0.5256 C   0  0  0  0  0  0  0  0  0  0  0  0
    6.1652    2.6670   -0.9047 F   0  0  0  0  0  0  0  0  0  0  0  0
    5.1105    0.6797   -1.5391 C   0  0  0  0  0  0  0  0  0  0  0  0
    4.6881   -0.5991   -1.2430 C   0  0  0  0  0  0  0  0  0  0  0  0
    3.9289   -1.2278   -2.1883 F   0  0  0  0  0  0  0  0  0  0  0  0
    0.3757   -0.0176    0.6123 C   0  0  0  0  0  0  0  0  0  0  0  0
    1.4312    0.6461    0.5297 O   0  0  0  0  0  0  0  0  0  0  0  0
   -0.7623    0.3972    1.2874 C   0  0  0  0  0  0  0  0  0  0  0  0
   -0.6163    1.5868    2.0059 O   0  0  0  0  0  0  0  0  0  0  0  0
   -2.0007   -0.0406    0.8214 C   0  0  0  0  0  0  0  0  0  0  0  0
   -3.1613    0.8526    0.9664 C   0  0  0  0  0  0  0  0  0  0  0  0
   -3.0521    2.0228    1.4463 O   0  0  0  0  0  0  0  0  0  0  0  0
   -4.4165    0.6207    0.3290 N   0  0  0  0  0  0  0  0  0  0  0  0
  2  1  1  1
  2  3  1  0
  3  4  1  0
  4  5  1  0
  6  5  1  6
  6  7  1  0
  7  8  1  0
  8  9  1  0
  9 10  2  0
 10 11  1  0
 11 12  2  0
 11 13  1  0
 13 14  1  0
 14 15  1  0
 15 16  2  0
 16 17  1  0
 17 18  2  0
 18 19  1  0
 18 20  1  0
 20 21  2  0
 21 22  1  0
 10 23  1  0
 23 24  2  0
 23 25  1  0
 25 26  1  0
 25 27  2  0
 27 28  1  0
 28 29  2  0
 28 30  1  0
 30  2  1  0
 30  6  1  0
 27  8  1  0
 21 15  1  0
M  END
>  <supplier_code>  (1443) 
DB08930

>  <zinc_id>  (1443) 
ZINC000058581064

>  <catalog_short_name>  (1443) 
dbfda

$$$$

     RDKit          3D

 31 34  0  0  0  0  0  0  0  0999 V2000
    5.0709    3.5195    0.8697 C   0  0  0  0  0  0  0  0  0  0  0  0
    5.5220    2.1771    1.0274 O   0  0  0  0  0  0  0  0  0  0  0  0
    5.3877    1.2385   -0.0003 C   0  0  0  0  0  0  0  0  0  0  0  0
    5.5416    1.6784   -1.1650 O   0  0  0  0  0  0  0  0  0  0  0  0
    4.9398   -0.0928    0.2790 N   0  0  0  0  0  0  0  0  0  0  0  0
    5.7767   -1.2572    0.0263 C   0  0  0  0  0  0  0  0  0  0  0  0
    3.5261   -0.3259    0.2865 C   0  0  0  0  0  0  0  0  0  0  0  0
    2.7875    0.1101    1.3700 C   0  0  0  0  0  0  0  0  0  0  0  0
    3.4524    0.1662    2.6327 N   0  0  0  0  0  0  0  0  0  0  0  0
    1.4592    0.3459    1.2417 N   0  0  0  0  0  0  0  0  0  0  0  0
    0.8186    0.1005    0.0757 C   0  0  0  0  0  0  0  0  0  0  0  0
   -0.5811   -0.2915    0.0098 C   0  0  0  0  0  0  0  0  0  0  0  0
   -1.6226    0.3199   -0.5805 N   0  0  0  0  0  0  0  0  0  0  0  0
   -2.4891   -0.5588   -1.0415 N   0  0  0  0  0  0  0  0  0  0  0  0
   -3.8025   -0.2770   -1.6145 C   0  0  0  0  0  0  0  0  0  0  0  0
   -4.4130    0.8546   -0.8516 C   0  0  0  0  0  0  0  0  0  0  0  0
   -4.6840    2.0787   -1.4506 C   0  0  0  0  0  0  0  0  0  0  0  0
   -4.9584    3.1595   -0.6224 C   0  0  0  0  0  0  0  0  0  0  0  0
   -4.8337    2.9900    0.7509 C   0  0  0  0  0  0  0  0  0  0  0  0
   -4.8881    1.7075    1.2825 C   0  0  0  0  0  0  0  0  0  0  0  0
   -4.7631    0.5903    0.4667 C   0  0  0  0  0  0  0  0  0  0  0  0
   -5.3049   -0.6143    0.7976 F   0  0  0  0  0  0  0  0  0  0  0  0
   -2.2526   -1.7117   -0.3695 C   0  0  0  0  0  0  0  0  0  0  0  0
   -2.8413   -2.9326   -0.3769 N   0  0  0  0  0  0  0  0  0  0  0  0
   -2.5043   -3.7701    0.6340 C   0  0  0  0  0  0  0  0  0  0  0  0
   -1.1473   -3.8426    0.9217 C   0  0  0  0  0  0  0  0  0  0  0  0
   -0.3463   -2.7616    0.5754 C   0  0  0  0  0  0  0  0  0  0  0  0
   -1.0007   -1.5974    0.2229 C   0  0  0  0  0  0  0  0  0  0  0  0
    1.5989    0.0395   -1.0308 N   0  0  0  0  0  0  0  0  0  0  0  0
    2.9099   -0.2912   -0.9582 C   0  0  0  0  0  0  0  0  0  0  0  0
    3.6416   -0.7515   -2.0792 N   0  0  0  0  0  0  0  0  0  0  0  0
  1  2  1  0
  2  3  1  0
  3  4  2  0
  3  5  1  0
  5  6  1  0
  5  7  1  0
  7  8  2  0
  8  9  1  0
  8 10  1  0
 10 11  2  0
 11 12  1  0
 12 13  2  0
 13 14  1  0
 14 15  1  0
 15 16  1  0
 16 17  2  0
 17 18  1  0
 18 19  2  0
 19 20  1  0
 20 21  2  0
 21 22  1  0
 14 23  1  0
 23 24  2  0
 24 25  1  0
 25 26  2  0
 26 27  1  0
 27 28  2  0
 11 29  1  0
 29 30  2  0
 30 31  1  0
 30  7  1  0
 28 12  1  0
 21 16  1  0
 28 23  1  0
M  END
>  <supplier_code>  (1444) 
DB08931

>  <zinc_id>  (1444) 
ZINC000003819392

>  <catalog_short_name>  (1444) 
dbfda

$$$$

     RDKit          3D

 32 34  0  0  0  0  0  0  0  0999 V2000
   -4.1366    5.1009    0.5619 C   0  0  0  0  0  0  0  0  0  0  0  0
   -4.7468    3.9354    1.3281 C   0  0  0  0  0  0  0  0  0  0  0  0
   -5.4687    2.9826    0.3837 C   0  0  0  0  0  0  0  0  0  0  0  0
   -5.0480    1.6407    0.7781 N   0  0  0  0  0  0  0  0  0  0  0  0
   -4.6837    0.6480   -0.5694 S   0  0  0  0  0  0  0  0  0  0  0  0
   -5.5487    1.1009   -1.7249 O   0  0  0  0  0  0  0  0  0  0  0  0
   -5.0987   -0.7506   -0.2450 O   0  0  0  0  0  0  0  0  0  0  0  0
   -3.0599    0.7538   -1.0806 N   0  0  0  0  0  0  0  0  0  0  0  0
   -1.9364    0.7963   -0.1919 C   0  0  0  0  0  0  0  0  0  0  0  0
   -1.4512    2.0350    0.0684 N   0  0  0  0  0  0  0  0  0  0  0  0
   -0.1300    2.2451    0.2857 C   0  0  0  0  0  0  0  0  0  0  0  0
    0.7552    1.2329    0.1299 N   0  0  0  0  0  0  0  0  0  0  0  0
    0.3651    0.0041   -0.2266 C   0  0  0  0  0  0  0  0  0  0  0  0
    1.2535   -0.9843   -0.6635 O   0  0  0  0  0  0  0  0  0  0  0  0
    2.6397   -0.9163   -0.4733 C   0  0  0  0  0  0  0  0  0  0  0  0
    2.9644   -1.6723    0.8024 C   0  0  0  0  0  0  0  0  0  0  0  0
    4.1141   -1.1358    1.4069 O   0  0  0  0  0  0  0  0  0  0  0  0
    4.8061   -0.1029    0.8163 C   0  0  0  0  0  0  0  0  0  0  0  0
    5.4196    0.7713    1.6405 N   0  0  0  0  0  0  0  0  0  0  0  0
    6.5337    1.4366    1.2527 C   0  0  0  0  0  0  0  0  0  0  0  0
    6.9048    1.3809   -0.0827 C   0  0  0  0  0  0  0  0  0  0  0  0
    8.1283    2.7024   -0.7280 Br  0  0  0  0  0  0  0  0  0  0  0  0
    6.2648    0.5027   -0.9376 C   0  0  0  0  0  0  0  0  0  0  0  0
    5.2495   -0.2314   -0.4354 N   0  0  0  0  0  0  0  0  0  0  0  0
   -0.9886   -0.2023   -0.3868 C   0  0  0  0  0  0  0  0  0  0  0  0
   -1.5272   -1.5680   -0.3282 C   0  0  0  0  0  0  0  0  0  0  0  0
   -0.8955   -2.5031   -1.1374 C   0  0  0  0  0  0  0  0  0  0  0  0
   -1.3393   -3.8100   -0.9995 C   0  0  0  0  0  0  0  0  0  0  0  0
   -2.1203   -4.2113    0.0539 C   0  0  0  0  0  0  0  0  0  0  0  0
   -3.0913   -5.8430    0.0934 Br  0  0  0  0  0  0  0  0  0  0  0  0
   -2.2404   -3.3338    1.1202 C   0  0  0  0  0  0  0  0  0  0  0  0
   -1.8876   -2.0047    0.9408 C   0  0  0  0  0  0  0  0  0  0  0  0
  1  2  1  0
  2  3  1  0
  3  4  1  0
  4  5  1  0
  5  6  2  0
  5  7  2  0
  5  8  1  0
  8  9  1  0
  9 10  2  0
 10 11  1  0
 11 12  2  0
 12 13  1  0
 13 14  1  0
 14 15  1  0
 15 16  1  0
 16 17  1  0
 17 18  1  0
 18 19  2  0
 19 20  1  0
 20 21  2  0
 21 22  1  0
 21 23  1  0
 23 24  2  0
 13 25  2  0
 25 26  1  0
 26 27  2  0
 27 28  1  0
 28 29  2  0
 29 30  1  0
 29 31  1  0
 31 32  2  0
 25  9  1  0
 32 26  1  0
 24 18  1  0
M  END
>  <supplier_code>  (1445) 
DB08932

>  <zinc_id>  (1445) 
ZINC000043202140

>  <catalog_short_name>  (1445) 
dbfda

$$$$

     RDKit          3D

 21 23  0  0  0  0  0  0  0  0999 V2000
    2.6636    1.5152    2.8376 N   0  0  0  0  0  0  0  0  0  0  0  0
    2.6522    1.0329    1.8648 C   0  0  0  0  0  0  0  0  0  0  0  0
    2.6361    0.2235    0.6789 C   0  0  0  0  0  0  0  0  0  0  0  0
    1.4973   -0.0079    0.0247 C   0  0  0  0  0  0  0  0  0  0  0  0
    1.1807   -1.5679   -0.8138 S   0  0  0  0  0  0  0  0  0  0  0  0
   -0.5452   -1.8387   -0.2744 C   0  0  0  0  0  0  0  0  0  0  0  0
   -1.1443   -0.4475   -0.7843 C   0  0  1  0  0  0  0  0  0  0  0  0
   -2.4732   -0.5787    0.0280 C   0  0  0  0  0  0  0  0  0  0  0  0
   -2.7276    0.1313    1.1436 C   0  0  0  0  0  0  0  0  0  0  0  0
   -4.0248    0.4700    1.5167 C   0  0  0  0  0  0  0  0  0  0  0  0
   -4.9665    0.6270    0.5071 C   0  0  0  0  0  0  0  0  0  0  0  0
   -6.0438    2.0193    0.4473 Cl  0  0  0  0  0  0  0  0  0  0  0  0
   -4.7983   -0.2232   -0.5788 C   0  0  0  0  0  0  0  0  0  0  0  0
   -3.5612   -0.8172   -0.8079 C   0  0  0  0  0  0  0  0  0  0  0  0
   -3.3978   -1.9499   -2.1446 Cl  0  0  0  0  0  0  0  0  0  0  0  0
   -0.1291    0.5512    0.4956 S   0  0  0  0  0  0  0  0  0  0  0  0
    3.8212    0.0211   -0.0882 N   0  0  0  0  0  0  0  0  0  0  0  0
    4.8129    0.9461   -0.1060 C   0  0  0  0  0  0  0  0  0  0  0  0
    5.4454    0.9097   -1.3389 C   0  0  0  0  0  0  0  0  0  0  0  0
    5.1109   -0.3065   -1.8382 N   0  0  0  0  0  0  0  0  0  0  0  0
    3.9916   -0.7095   -1.1882 C   0  0  0  0  0  0  0  0  0  0  0  0
  1  2  3  0
  2  3  1  0
  3  4  2  0
  4  5  1  0
  5  6  1  0
  6  7  1  0
  7  8  1  1
  8  9  2  0
  9 10  1  0
 10 11  2  0
 11 12  1  0
 11 13  1  0
 13 14  2  0
 14 15  1  0
  7 16  1  0
  3 17  1  0
 17 18  1  0
 18 19  2  0
 19 20  1  0
 20 21  2  0
 16  4  1  0
 21 17  1  0
 14  8  1  0
M  END
>  <supplier_code>  (1446) 
DB08933

>  <zinc_id>  (1446) 
ZINC000003929486

>  <catalog_short_name>  (1446) 
dbfda

$$$$

     RDKit          3D

 21 23  0  0  0  0  0  0  0  0999 V2000
    2.7039    0.7706    2.6521 N   0  0  0  0  0  0  0  0  0  0  0  0
    2.6474    0.3840    1.6899 C   0  0  0  0  0  0  0  0  0  0  0  0
    2.5795   -0.1940    0.3652 C   0  0  0  0  0  0  0  0  0  0  0  0
    1.4034   -0.2879   -0.2389 C   0  0  0  0  0  0  0  0  0  0  0  0
    0.9994   -1.4038   -1.5898 S   0  0  0  0  0  0  0  0  0  0  0  0
   -0.7924   -1.0833   -1.7214 C   0  0  0  0  0  0  0  0  0  0  0  0
   -1.2530   -1.1404   -0.1919 C   0  0  2  0  0  0  0  0  0  0  0  0
   -2.5810   -0.3397   -0.4140 C   0  0  0  0  0  0  0  0  0  0  0  0
   -2.5817    0.7990   -1.1511 C   0  0  0  0  0  0  0  0  0  0  0  0
   -3.7727    1.5149   -1.2257 C   0  0  0  0  0  0  0  0  0  0  0  0
   -4.7924    1.2444   -0.3246 C   0  0  0  0  0  0  0  0  0  0  0  0
   -5.8412    2.5060    0.3135 Cl  0  0  0  0  0  0  0  0  0  0  0  0
   -4.8036   -0.0094    0.2661 C   0  0  0  0  0  0  0  0  0  0  0  0
   -3.7359   -0.8683    0.1506 C   0  0  0  0  0  0  0  0  0  0  0  0
   -3.8900   -2.5887    0.4091 Cl  0  0  0  0  0  0  0  0  0  0  0  0
   -0.1831    0.3800    0.2723 S   0  0  0  0  0  0  0  0  0  0  0  0
    3.7121   -0.2068   -0.5109 N   0  0  0  0  0  0  0  0  0  0  0  0
    4.0488    0.8393   -1.3041 C   0  0  0  0  0  0  0  0  0  0  0  0
    5.3951    0.8227   -1.5613 C   0  0  0  0  0  0  0  0  0  0  0  0
    5.8780   -0.2563   -0.9426 N   0  0  0  0  0  0  0  0  0  0  0  0
    4.8594   -0.8823   -0.3048 C   0  0  0  0  0  0  0  0  0  0  0  0
  1  2  3  0
  2  3  1  0
  3  4  2  0
  4  5  1  0
  5  6  1  0
  6  7  1  0
  7  8  1  6
  8  9  2  0
  9 10  1  0
 10 11  2  0
 11 12  1  0
 11 13  1  0
 13 14  2  0
 14 15  1  0
  7 16  1  0
  3 17  1  0
 17 18  1  0
 18 19  2  0
 19 20  1  0
 20 21  2  0
 16  4  1  0
 21 17  1  0
 14  8  1  0
M  END
>  <supplier_code>  (1447) 
DB08933

>  <zinc_id>  (1447) 
ZINC000008383240

>  <catalog_short_name>  (1447) 
dbfda

$$$$

     RDKit          3D

 36 38  0  0  0  0  0  0  0  0999 V2000
   -5.4397   -4.2203   -0.2685 C   0  0  0  0  0  0  0  0  0  0  0  0
   -5.3351   -4.1790    0.2789 C   0  0  0  0  0  0  0  0  0  0  0  0
   -6.4390   -3.7599    1.2461 C   0  0  0  0  0  0  0  0  0  0  0  0
   -4.2287   -3.3125    0.5312 O   0  0  0  0  0  0  0  0  0  0  0  0
   -4.0997   -2.2010   -0.3042 C   0  0  0  0  0  0  0  0  0  0  0  0
   -5.0366   -1.7462   -0.9338 O   0  0  0  0  0  0  0  0  0  0  0  0
   -3.0978   -1.1776    0.4377 C   0  0  2  0  0  0  0  0  0  0  0  0
   -4.3313   -0.3212    1.1129 C   0  0  0  0  0  0  0  0  0  0  0  0
   -3.0080   -0.2080   -0.8031 N   0  0  0  0  0  0  0  0  0  0  0  0
   -1.7220    0.8683   -0.3095 P   0  0  2  0  0  0  0  0  0  0  0  0
   -1.0443    1.4878   -1.5235 O   0  0  0  0  0  0  0  0  0  0  0  0
   -0.4809    0.0442    0.5000 O   0  0  0  0  0  0  0  0  0  0  0  0
   -0.2261   -1.0950   -0.1639 C   0  0  0  0  0  0  0  0  0  0  0  0
    1.2730   -1.0162   -0.8223 C   0  0  1  0  0  0  0  0  0  0  0  0
    1.9126   -0.2659    0.3245 O   0  0  0  0  0  0  0  0  0  0  0  0
    3.2175   -0.7568   -0.3458 C   0  0  1  0  0  0  0  0  0  0  0  0
    4.1758    0.0119    0.6804 N   0  0  0  0  0  0  0  0  0  0  0  0
    4.1247    1.3388    0.3919 C   0  0  0  0  0  0  0  0  0  0  0  0
    5.2297    2.1084    0.0644 C   0  0  0  0  0  0  0  0  0  0  0  0
    6.3996    1.4699   -0.2925 C   0  0  0  0  0  0  0  0  0  0  0  0
    7.1880    1.8615   -1.1865 O   0  0  0  0  0  0  0  0  0  0  0  0
    6.5346    0.2770    0.3344 N   0  0  0  0  0  0  0  0  0  0  0  0
    5.4328   -0.4778    0.5603 C   0  0  0  0  0  0  0  0  0  0  0  0
    5.7119   -1.6723    0.6388 O   0  0  0  0  0  0  0  0  0  0  0  0
    3.0377   -2.1206    0.5347 C   0  0  2  0  0  0  0  0  0  0  0  0
    2.7892   -1.8016    1.9213 C   0  0  0  0  0  0  0  0  0  0  0  0
    3.7612   -3.1172    0.1717 F   0  0  0  0  0  0  0  0  0  0  0  0
    1.6059   -2.5566   -0.1319 C   0  0  2  0  0  0  0  0  0  0  0  0
    2.1877   -3.0131   -1.4516 O   0  0  0  0  0  0  0  0  0  0  0  0
   -2.4207    2.0793    0.6598 O   0  0  0  0  0  0  0  0  0  0  0  0
   -2.6924    3.3242    0.0880 C   0  0  0  0  0  0  0  0  0  0  0  0
   -3.8339    3.9721    0.5453 C   0  0  0  0  0  0  0  0  0  0  0  0
   -4.2298    5.0696   -0.2086 C   0  0  0  0  0  0  0  0  0  0  0  0
   -3.2421    5.8097   -0.8450 C   0  0  0  0  0  0  0  0  0  0  0  0
   -1.9869    5.2738   -1.0442 C   0  0  0  0  0  0  0  0  0  0  0  0
   -1.6867    4.0223   -0.5435 C   0  0  0  0  0  0  0  0  0  0  0  0
  1  2  1  0
  2  3  1  0
  2  4  1  0
  4  5  1  0
  5  6  2  0
  7  5  1  6
  7  8  1  0
  7  9  1  0
 10  9  1  6
 10 11  2  0
 10 12  1  0
 12 13  1  0
 14 13  1  1
 14 15  1  0
 15 16  1  0
 16 17  1  1
 17 18  1  0
 18 19  2  0
 19 20  1  0
 20 21  2  0
 20 22  1  0
 22 23  1  0
 23 24  2  0
 16 25  1  0
 25 26  1  1
 25 27  1  0
 25 28  1  0
 28 29  1  6
 10 30  1  0
 30 31  1  0
 31 32  2  0
 32 33  1  0
 33 34  2  0
 34 35  1  0
 35 36  2  0
 28 14  1  0
 36 31  1  0
 23 17  1  0
M  END
>  <supplier_code>  (1448) 
DB08934

>  <zinc_id>  (1448) 
ZINC000100074252

>  <catalog_short_name>  (1448) 
dbfda

$$$$

     RDKit          3D

 36 38  0  0  0  0  0  0  0  0999 V2000
    5.0800   -5.0520   -0.5294 C   0  0  0  0  0  0  0  0  0  0  0  0
    5.5308   -4.0895    0.5319 C   0  0  0  0  0  0  0  0  0  0  0  0
    6.9639   -3.7413    0.2379 C   0  0  0  0  0  0  0  0  0  0  0  0
    4.7154   -2.9314    0.5733 O   0  0  0  0  0  0  0  0  0  0  0  0
    4.8369   -1.8956   -0.3637 C   0  0  0  0  0  0  0  0  0  0  0  0
    5.5019   -2.2333   -1.3920 O   0  0  0  0  0  0  0  0  0  0  0  0
    3.3532   -1.3661   -0.7104 C   0  0  2  0  0  0  0  0  0  0  0  0
    3.9160   -0.1866   -1.7064 C   0  0  0  0  0  0  0  0  0  0  0  0
    3.3420   -0.3888    0.5245 N   0  0  0  0  0  0  0  0  0  0  0  0
    1.9644    0.6670    0.2347 P   0  0  2  0  0  0  0  0  0  0  0  0
    1.3385    1.1047    1.5214 O   0  0  0  0  0  0  0  0  0  0  0  0
    0.8554   -0.2159   -0.6659 O   0  0  0  0  0  0  0  0  0  0  0  0
    0.1161   -1.0577    0.0559 C   0  0  0  0  0  0  0  0  0  0  0  0
   -1.2845   -0.3390    0.5308 C   0  0  2  0  0  0  0  0  0  0  0  0
   -2.0882   -1.3182   -0.2208 O   0  0  0  0  0  0  0  0  0  0  0  0
   -3.0688   -0.5984   -1.0989 C   0  0  1  0  0  0  0  0  0  0  0  0
   -4.3044   -0.9413   -0.1503 N   0  0  0  0  0  0  0  0  0  0  0  0
   -4.4342   -2.2957   -0.0141 C   0  0  0  0  0  0  0  0  0  0  0  0
   -5.5705   -2.7668    0.6357 C   0  0  0  0  0  0  0  0  0  0  0  0
   -6.5452   -1.8201    0.9265 C   0  0  0  0  0  0  0  0  0  0  0  0
   -7.2581   -1.8779    1.9746 O   0  0  0  0  0  0  0  0  0  0  0  0
   -6.5698   -0.7562    0.0944 N   0  0  0  0  0  0  0  0  0  0  0  0
   -5.4720   -0.4460   -0.6382 C   0  0  0  0  0  0  0  0  0  0  0  0
   -5.6035    0.4510   -1.4758 O   0  0  0  0  0  0  0  0  0  0  0  0
   -2.8427    0.9022   -0.4903 C   0  0  2  0  0  0  0  0  0  0  0  0
   -3.1787    0.9952    0.8899 C   0  0  0  0  0  0  0  0  0  0  0  0
   -3.1626    1.8209   -1.3902 F   0  0  0  0  0  0  0  0  0  0  0  0
   -1.2229    0.8585   -0.6990 C   0  0  2  0  0  0  0  0  0  0  0  0
   -1.1476   -0.1031   -1.8688 O   0  0  0  0  0  0  0  0  0  0  0  0
    2.4183    1.9632   -0.7749 O   0  0  0  0  0  0  0  0  0  0  0  0
    2.0476    3.2366   -0.3996 C   0  0  0  0  0  0  0  0  0  0  0  0
    1.6083    4.1999   -1.2982 C   0  0  0  0  0  0  0  0  0  0  0  0
    1.9828    5.5187   -1.1739 C   0  0  0  0  0  0  0  0  0  0  0  0
    2.7936    5.9255   -0.1272 C   0  0  0  0  0  0  0  0  0  0  0  0
    2.9059    5.0487    0.9379 C   0  0  0  0  0  0  0  0  0  0  0  0
    2.4828    3.7284    0.8248 C   0  0  0  0  0  0  0  0  0  0  0  0
  1  2  1  0
  2  3  1  0
  2  4  1  0
  4  5  1  0
  5  6  2  0
  7  5  1  1
  7  8  1  0
  7  9  1  0
 10  9  1  1
 10 11  2  0
 10 12  1  0
 12 13  1  0
 14 13  1  6
 14 15  1  0
 15 16  1  0
 16 17  1  1
 17 18  1  0
 18 19  2  0
 19 20  1  0
 20 21  2  0
 20 22  1  0
 22 23  1  0
 23 24  2  0
 16 25  1  0
 25 26  1  1
 25 27  1  0
 25 28  1  0
 28 29  1  6
 10 30  1  0
 30 31  1  0
 31 32  2  0
 32 33  1  0
 33 34  2  0
 34 35  1  0
 35 36  2  0
 28 14  1  0
 36 31  1  0
 23 17  1  0
M  END
>  <supplier_code>  (1449) 
DB08934

>  <zinc_id>  (1449) 
ZINC000145401681

>  <catalog_short_name>  (1449) 
dbfda

$$$$

     RDKit          3D

 21 23  0  0  0  0  0  0  0  0999 V2000
   -3.7293   -3.2792   -0.4013 C   0  0  0  0  0  0  0  0  0  0  0  0
   -3.0806   -2.4699   -0.4084 N   0  0  0  0  0  0  0  0  0  0  0  0
   -3.0372   -1.6610    0.8000 C   0  0  0  0  0  0  0  0  0  0  0  0
   -2.2785   -0.3782    0.5486 C   0  0  0  0  0  0  0  0  0  0  0  0
   -1.0491   -0.6113   -0.2098 N   0  0  0  0  0  0  0  0  0  0  0  0
   -0.0140    0.0241    0.8485 C   0  0  2  0  0  0  0  0  0  0  0  0
   -0.3614    1.5605    0.3659 C   0  0  0  0  0  0  0  0  0  0  0  0
   -1.3424    2.1528    1.1260 C   0  0  0  0  0  0  0  0  0  0  0  0
   -1.9581    3.2972    0.6518 C   0  0  0  0  0  0  0  0  0  0  0  0
   -1.6291    3.7310   -0.6244 C   0  0  0  0  0  0  0  0  0  0  0  0
   -0.7075    3.0485   -1.3967 C   0  0  0  0  0  0  0  0  0  0  0  0
   -0.3413    1.7789   -0.9670 C   0  0  0  0  0  0  0  0  0  0  0  0
    1.2623   -0.1405   -0.1928 C   0  0  0  0  0  0  0  0  0  0  0  0
    1.9075   -1.3422    0.1005 C   0  0  0  0  0  0  0  0  0  0  0  0
    3.2587   -1.4731    0.2605 C   0  0  0  0  0  0  0  0  0  0  0  0
    4.0638   -0.4515   -0.1703 C   0  0  0  0  0  0  0  0  0  0  0  0
    5.8097   -0.6775   -0.2107 Cl  0  0  0  0  0  0  0  0  0  0  0  0
    3.5051    0.8203   -0.1074 C   0  0  0  0  0  0  0  0  0  0  0  0
    2.1344    0.9434   -0.1071 C   0  0  0  0  0  0  0  0  0  0  0  0
   -0.6733   -1.9948   -0.1881 C   0  0  0  0  0  0  0  0  0  0  0  0
   -1.7396   -2.8772   -0.7323 C   0  0  0  0  0  0  0  0  0  0  0  0
  1  2  1  0
  2  3  1  0
  3  4  1  0
  4  5  1  0
  6  5  1  6
  6  7  1  0
  7  8  2  0
  8  9  1  0
  9 10  2  0
 10 11  1  0
 11 12  2  0
  6 13  1  0
 13 14  2  0
 14 15  1  0
 15 16  2  0
 16 17  1  0
 16 18  1  0
 18 19  2  0
  5 20  1  0
 20 21  1  0
 21  2  1  0
 12  7  1  0
 19 13  1  0
M  END
>  <supplier_code>  (1450) 
DB08936

>  <zinc_id>  (1450) 
ZINC000019362735

>  <catalog_short_name>  (1450) 
dbfda

$$$$

     RDKit          3D

 21 23  0  0  0  0  0  0  0  0999 V2000
    4.1778   -2.2708   -1.0023 C   0  0  0  0  0  0  0  0  0  0  0  0
    3.9442   -1.2808   -0.1227 N   0  0  0  0  0  0  0  0  0  0  0  0
    3.5453   -0.0679   -0.7903 C   0  0  0  0  0  0  0  0  0  0  0  0
    2.3933    0.5130   -0.0380 C   0  0  0  0  0  0  0  0  0  0  0  0
    1.2425   -0.3522   -0.1631 N   0  0  0  0  0  0  0  0  0  0  0  0
    0.2955    0.3119    0.9606 C   0  0  1  0  0  0  0  0  0  0  0  0
   -0.1494    1.5379   -0.0571 C   0  0  0  0  0  0  0  0  0  0  0  0
   -1.4720    1.9221    0.1594 C   0  0  0  0  0  0  0  0  0  0  0  0
   -1.8581    3.2541    0.2040 C   0  0  0  0  0  0  0  0  0  0  0  0
   -0.9980    4.1893   -0.3592 C   0  0  0  0  0  0  0  0  0  0  0  0
    0.3275    3.8050   -0.5272 C   0  0  0  0  0  0  0  0  0  0  0  0
    0.7385    2.6099    0.0428 C   0  0  0  0  0  0  0  0  0  0  0  0
   -0.9758   -0.6397    0.5385 C   0  0  0  0  0  0  0  0  0  0  0  0
   -1.6789   -1.1471    1.5940 C   0  0  0  0  0  0  0  0  0  0  0  0
   -2.7856   -1.9187    1.2526 C   0  0  0  0  0  0  0  0  0  0  0  0
   -3.2009   -2.0128   -0.0705 C   0  0  0  0  0  0  0  0  0  0  0  0
   -4.5080   -3.0676   -0.5699 Cl  0  0  0  0  0  0  0  0  0  0  0  0
   -2.3904   -1.4980   -1.0759 C   0  0  0  0  0  0  0  0  0  0  0  0
   -1.2864   -0.7084   -0.7662 C   0  0  0  0  0  0  0  0  0  0  0  0
    1.5930   -1.5764    0.5594 C   0  0  0  0  0  0  0  0  0  0  0  0
    3.0460   -1.6029    0.9653 C   0  0  0  0  0  0  0  0  0  0  0  0
  1  2  1  0
  2  3  1  0
  3  4  1  0
  4  5  1  0
  6  5  1  6
  6  7  1  0
  7  8  2  0
  8  9  1  0
  9 10  2  0
 10 11  1  0
 11 12  2  0
  6 13  1  0
 13 14  2  0
 14 15  1  0
 15 16  2  0
 16 17  1  0
 16 18  1  0
 18 19  2  0
  5 20  1  0
 20 21  1  0
 21  2  1  0
 12  7  1  0
 19 13  1  0
M  END
>  <supplier_code>  (1451) 
DB08936

>  <zinc_id>  (1451) 
ZINC000019362737

>  <catalog_short_name>  (1451) 
dbfda

$$$$

     RDKit          3D

 31 31  0  0  0  0  0  0  0  0999 V2000
    2.1423    4.7288   -3.0130 C   0  0  0  0  0  0  0  0  0  0  0  0
    1.2637    5.1369   -1.6692 C   0  0  2  0  0  0  0  0  0  0  0  0
    2.3511    4.6405   -0.7158 O   0  0  0  0  0  0  0  0  0  0  0  0
    0.4425    3.7384   -1.7177 C   0  0  0  0  0  0  0  0  0  0  0  0
   -0.4767    3.6949   -2.5363 O   0  0  0  0  0  0  0  0  0  0  0  0
    0.5555    2.8569   -0.6959 N   0  0  0  0  0  0  0  0  0  0  0  0
    0.0191    1.5428   -0.7431 C   0  0  0  0  0  0  0  0  0  0  0  0
   -1.1534    1.2350   -0.0604 C   0  0  0  0  0  0  0  0  0  0  0  0
   -2.6230    2.7119    0.0313 I   0  0  0  0  0  0  0  0  0  0  0  0
   -1.2188    0.1705    0.8334 C   0  0  0  0  0  0  0  0  0  0  0  0
   -2.5253   -0.2964    1.3222 C   0  0  0  0  0  0  0  0  0  0  0  0
   -2.8261   -0.2671    2.5523 O   0  0  0  0  0  0  0  0  0  0  0  0
   -3.1858   -1.3397    0.5948 N   0  0  0  0  0  0  0  0  0  0  0  0
   -4.6186   -1.3454    0.6183 C   0  0  0  0  0  0  0  0  0  0  0  0
   -5.1700   -1.5258    2.0260 C   0  0  0  0  0  0  0  0  0  0  0  0
   -5.7203   -0.2888    2.3784 O   0  0  0  0  0  0  0  0  0  0  0  0
   -5.2484   -2.2945   -0.3621 C   0  0  0  0  0  0  0  0  0  0  0  0
   -4.6018   -3.5241   -0.4275 O   0  0  0  0  0  0  0  0  0  0  0  0
   -0.2195   -0.7963    0.8167 C   0  0  0  0  0  0  0  0  0  0  0  0
    0.0334   -1.8925    2.6103 I   0  0  0  0  0  0  0  0  0  0  0  0
    0.8399   -0.6542   -0.0747 C   0  0  0  0  0  0  0  0  0  0  0  0
    1.9572   -1.6105   -0.0224 C   0  0  0  0  0  0  0  0  0  0  0  0
    1.9140   -2.5236    0.8560 O   0  0  0  0  0  0  0  0  0  0  0  0
    3.2178   -1.3548   -0.5909 N   0  0  0  0  0  0  0  0  0  0  0  0
    4.4644   -1.9744   -0.1621 C   0  0  0  0  0  0  0  0  0  0  0  0
    4.6616   -3.3438   -0.7147 C   0  0  0  0  0  0  0  0  0  0  0  0
    3.4950   -4.0060   -1.0392 O   0  0  0  0  0  0  0  0  0  0  0  0
    4.6904   -1.8979    1.3100 C   0  0  0  0  0  0  0  0  0  0  0  0
    4.2760   -0.6601    1.8047 O   0  0  0  0  0  0  0  0  0  0  0  0
    0.8779    0.4592   -0.8861 C   0  0  0  0  0  0  0  0  0  0  0  0
    2.3863    0.6802   -2.3234 I   0  0  0  0  0  0  0  0  0  0  0  0
  2  1  1  6
  2  3  1  0
  2  4  1  0
  4  5  2  0
  4  6  1  0
  6  7  1  0
  7  8  2  0
  8  9  1  0
  8 10  1  0
 10 11  1  0
 11 12  2  0
 11 13  1  0
 13 14  1  0
 14 15  1  0
 15 16  1  0
 14 17  1  0
 17 18  1  0
 10 19  2  0
 19 20  1  0
 19 21  1  0
 21 22  1  0
 22 23  2  0
 22 24  1  0
 24 25  1  0
 25 26  1  0
 26 27  1  0
 25 28  1  0
 28 29  1  0
 21 30  2  0
 30 31  1  0
 30  7  1  0
M  END
>  <supplier_code>  (1452) 
DB08947

>  <zinc_id>  (1452) 
ZINC000003830947

>  <catalog_short_name>  (1452) 
dbfda

$$$$

     RDKit          3D

 19 19  0  0  0  0  0  0  0  0999 V2000
    4.6154    1.8670    1.0650 C   0  0  0  0  0  0  0  0  0  0  0  0
    4.8570    0.3765    1.1569 C   0  0  0  0  0  0  0  0  0  0  0  0
    4.3425   -0.2705   -0.1201 C   0  0  0  0  0  0  0  0  0  0  0  0
    2.9271   -0.4951    0.0422 N   0  0  0  0  0  0  0  0  0  0  0  0
    2.3147    0.9620   -0.2298 C   0  0  1  0  0  0  0  0  0  0  0  0
    3.0442    1.0299   -1.7360 C   0  0  0  0  0  0  0  0  0  0  0  0
    0.9448    0.3130   -0.8656 C   0  0  0  0  0  0  0  0  0  0  0  0
    0.4390    1.0803   -1.7415 O   0  0  0  0  0  0  0  0  0  0  0  0
    0.0203   -0.0733    0.1637 N   0  0  0  0  0  0  0  0  0  0  0  0
   -1.1672   -0.7351   -0.3054 C   0  0  0  0  0  0  0  0  0  0  0  0
   -1.1201   -2.0207   -0.7718 C   0  0  0  0  0  0  0  0  0  0  0  0
    0.1246   -2.8253   -1.0075 C   0  0  0  0  0  0  0  0  0  0  0  0
   -2.2765   -2.3727   -1.4565 C   0  0  0  0  0  0  0  0  0  0  0  0
   -3.4547   -1.4366   -0.6348 S   0  0  0  0  0  0  0  0  0  0  0  0
   -2.3939   -0.4104    0.2365 C   0  0  0  0  0  0  0  0  0  0  0  0
   -2.7216    0.5823    1.2684 C   0  0  0  0  0  0  0  0  0  0  0  0
   -3.0030    0.1235    2.3961 O   0  0  0  0  0  0  0  0  0  0  0  0
   -3.1886    1.8572    0.9522 O   0  0  0  0  0  0  0  0  0  0  0  0
   -4.3040    2.4481    1.5879 C   0  0  0  0  0  0  0  0  0  0  0  0
  1  2  1  0
  2  3  1  0
  3  4  1  0
  5  4  1  1
  5  6  1  0
  5  7  1  0
  7  8  2  0
  7  9  1  0
  9 10  1  0
 10 11  1  0
 11 12  1  0
 11 13  2  0
 13 14  1  0
 14 15  1  0
 15 16  1  0
 16 17  2  0
 16 18  1  0
 18 19  1  0
 15 10  2  0
M  END
>  <supplier_code>  (1453) 
DB09009

>  <zinc_id>  (1453) 
ZINC000002019953

>  <catalog_short_name>  (1453) 
dbfda

$$$$

     RDKit          3D

 19 19  0  0  0  0  0  0  0  0999 V2000
    4.0982    1.8395   -0.5795 C   0  0  0  0  0  0  0  0  0  0  0  0
    4.6029    1.0443   -0.1338 C   0  0  0  0  0  0  0  0  0  0  0  0
    4.4331   -0.3830    0.1078 C   0  0  0  0  0  0  0  0  0  0  0  0
    3.3027   -1.0325   -0.4749 N   0  0  0  0  0  0  0  0  0  0  0  0
    2.1510    0.0328   -0.3241 C   0  0  2  0  0  0  0  0  0  0  0  0
    2.3226    0.0825    1.3132 C   0  0  0  0  0  0  0  0  0  0  0  0
    1.0119   -1.1038   -0.2727 C   0  0  0  0  0  0  0  0  0  0  0  0
    1.1132   -2.0174    0.5342 O   0  0  0  0  0  0  0  0  0  0  0  0
   -0.2689   -0.7308   -0.7046 N   0  0  0  0  0  0  0  0  0  0  0  0
   -1.4295   -0.8115    0.1439 C   0  0  0  0  0  0  0  0  0  0  0  0
   -2.0918   -1.9704    0.3522 C   0  0  0  0  0  0  0  0  0  0  0  0
   -1.5824   -3.3389   -0.0036 C   0  0  0  0  0  0  0  0  0  0  0  0
   -3.2367   -1.8742    1.0912 C   0  0  0  0  0  0  0  0  0  0  0  0
   -3.7166   -0.2484    0.8281 S   0  0  0  0  0  0  0  0  0  0  0  0
   -2.1980    0.3247    0.2786 C   0  0  0  0  0  0  0  0  0  0  0  0
   -1.9652    1.6661   -0.2783 C   0  0  0  0  0  0  0  0  0  0  0  0
   -0.8912    1.9483   -0.8564 O   0  0  0  0  0  0  0  0  0  0  0  0
   -2.9217    2.6432   -0.1863 O   0  0  0  0  0  0  0  0  0  0  0  0
   -2.7337    3.9295   -0.7654 C   0  0  0  0  0  0  0  0  0  0  0  0
  1  2  1  0
  2  3  1  0
  3  4  1  0
  5  4  1  6
  5  6  1  0
  5  7  1  0
  7  8  2  0
  7  9  1  0
  9 10  1  0
 10 11  1  0
 11 12  1  0
 11 13  2  0
 13 14  1  0
 14 15  1  0
 15 16  1  0
 16 17  2  0
 16 18  1  0
 18 19  1  0
 15 10  2  0
M  END
>  <supplier_code>  (1454) 
DB09009

>  <zinc_id>  (1454) 
ZINC000002019954

>  <catalog_short_name>  (1454) 
dbfda

$$$$

     RDKit          3D

 27 29  0  0  0  0  0  0  0  0999 V2000
   -5.5477   -3.7606    0.8007 C   0  0  0  0  0  0  0  0  0  0  0  0
   -4.2681   -3.1145    0.3875 C   0  0  0  0  0  0  0  0  0  0  0  0
   -3.1842   -3.7103    0.6638 O   0  0  0  0  0  0  0  0  0  0  0  0
   -4.2930   -2.0490   -0.5086 O   0  0  0  0  0  0  0  0  0  0  0  0
   -3.1009   -1.3506   -0.6679 C   0  0  0  0  0  0  0  0  0  0  0  0
   -2.8448   -0.3761    0.2887 C   0  0  0  0  0  0  0  0  0  0  0  0
   -1.6305    0.2655    0.2099 C   0  0  0  0  0  0  0  0  0  0  0  0
   -0.8420    0.1985   -0.9317 C   0  0  0  0  0  0  0  0  0  0  0  0
    0.3422    1.1076   -0.9687 C   0  0  0  0  0  0  0  0  0  0  0  0
    1.2609    0.8211    0.1765 C   0  0  0  0  0  0  0  0  0  0  0  0
    0.9245   -0.0911    1.1694 C   0  0  0  0  0  0  0  0  0  0  0  0
    1.8936   -0.9519    1.6741 C   0  0  0  0  0  0  0  0  0  0  0  0
    3.2322   -0.8120    1.3460 C   0  0  0  0  0  0  0  0  0  0  0  0
    3.9739   -1.9897    1.2800 O   0  0  0  0  0  0  0  0  0  0  0  0
    5.1772   -1.9595    0.5693 C   0  0  0  0  0  0  0  0  0  0  0  0
    5.6623   -3.1805   -0.1465 C   0  0  0  0  0  0  0  0  0  0  0  0
    5.9583   -1.0097    0.8748 O   0  0  0  0  0  0  0  0  0  0  0  0
    3.5788    0.3392    0.6773 C   0  0  0  0  0  0  0  0  0  0  0  0
    2.6087    1.1491    0.1012 C   0  0  0  0  0  0  0  0  0  0  0  0
   -0.2058    2.4861   -0.7724 C   0  0  0  0  0  0  0  0  0  0  0  0
   -1.1754    2.9645   -1.6434 C   0  0  0  0  0  0  0  0  0  0  0  0
   -1.6891    4.2330   -1.4264 C   0  0  0  0  0  0  0  0  0  0  0  0
   -1.4701    4.8506   -0.2115 C   0  0  0  0  0  0  0  0  0  0  0  0
   -0.5987    4.2990    0.6932 C   0  0  0  0  0  0  0  0  0  0  0  0
    0.0904    3.2175    0.3107 N   0  0  0  0  0  0  0  0  0  0  0  0
   -1.3789   -0.3703   -2.0555 C   0  0  0  0  0  0  0  0  0  0  0  0
   -2.4735   -1.2058   -1.8906 C   0  0  0  0  0  0  0  0  0  0  0  0
  1  2  1  0
  2  3  2  0
  2  4  1  0
  4  5  1  0
  5  6  2  0
  6  7  1  0
  7  8  2  0
  8  9  1  0
  9 10  1  0
 10 11  2  0
 11 12  1  0
 12 13  2  0
 13 14  1  0
 14 15  1  0
 15 16  1  0
 15 17  2  0
 13 18  1  0
 18 19  2  0
  9 20  1  0
 20 21  2  0
 21 22  1  0
 22 23  2  0
 23 24  1  0
 24 25  2  0
  8 26  1  0
 26 27  2  0
 27  5  1  0
 19 10  1  0
 25 20  1  0
M  END
>  <supplier_code>  (1455) 
DB09020

>  <zinc_id>  (1455) 
ZINC000003830321

>  <catalog_short_name>  (1455) 
dbfda

$$$$

     RDKit          3D

 39 39  0  0  0  0  0  0  0  0999 V2000
    9.8555   -0.8008    0.2712 C   0  0  0  0  0  0  0  0  0  0  0  0
    9.4269    0.3375   -0.3846 O   0  0  0  0  0  0  0  0  0  0  0  0
    8.8484    1.2399    0.4934 C   0  0  0  0  0  0  0  0  0  0  0  0
    7.6519    0.5434    1.1311 C   0  0  0  0  0  0  0  0  0  0  0  0
    6.6709    1.6162    1.5677 C   0  0  0  0  0  0  0  0  0  0  0  0
    5.3516    1.1760    1.4102 O   0  0  0  0  0  0  0  0  0  0  0  0
    4.9423    0.2239    0.4923 C   0  0  0  0  0  0  0  0  0  0  0  0
    3.8933   -0.5842    0.8933 C   0  0  0  0  0  0  0  0  0  0  0  0
    3.2797   -1.4236   -0.0303 C   0  0  0  0  0  0  0  0  0  0  0  0
    2.0114   -1.9636    0.3315 C   0  0  0  0  0  0  0  0  0  0  0  0
    0.7730   -0.9880   -0.0580 C   0  0  1  0  0  0  0  0  0  0  0  0
    0.6051   -0.3967    1.4535 C   0  0  0  0  0  0  0  0  0  0  0  0
   -0.7510   -1.1313    1.9837 C   0  0  2  0  0  0  0  0  0  0  0  0
   -0.1123   -2.5349    1.7388 N   0  0  0  0  0  0  0  0  0  0  0  0
   -1.5466   -0.9633    0.4658 C   0  0  1  0  0  0  0  0  0  0  0  0
   -1.8318   -2.4364    0.2736 O   0  0  0  0  0  0  0  0  0  0  0  0
   -3.0276   -0.7447    1.1133 C   0  0  0  0  0  0  0  0  0  0  0  0
   -3.6021    0.6092    0.4042 C   0  0  2  0  0  0  0  0  0  0  0  0
   -4.8389   -0.1520   -0.2852 C   0  0  0  0  0  0  0  0  0  0  0  0
   -5.2221    0.3347   -1.3881 O   0  0  0  0  0  0  0  0  0  0  0  0
   -5.9386   -0.4557    0.5756 N   0  0  0  0  0  0  0  0  0  0  0  0
   -7.1592   -0.9902    0.0340 C   0  0  0  0  0  0  0  0  0  0  0  0
   -8.1960    0.0230   -0.3224 C   0  0  0  0  0  0  0  0  0  0  0  0
   -9.5603   -0.5934   -0.0292 C   0  0  0  0  0  0  0  0  0  0  0  0
   -8.2385    0.3252   -1.8184 C   0  0  0  0  0  0  0  0  0  0  0  0
   -8.1158    1.2706    0.4516 C   0  0  0  0  0  0  0  0  0  0  0  0
   -7.2675    1.5007    1.5553 N   0  0  0  0  0  0  0  0  0  0  0  0
   -8.9983    2.1460    0.2415 O   0  0  0  0  0  0  0  0  0  0  0  0
   -2.6661    0.5701   -0.9284 C   0  0  0  0  0  0  0  0  0  0  0  0
   -2.6391    1.9308   -1.5114 C   0  0  0  0  0  0  0  0  0  0  0  0
   -2.9502   -0.5508   -1.7901 C   0  0  0  0  0  0  0  0  0  0  0  0
    1.6724    0.2787   -0.5551 C   0  0  0  0  0  0  0  0  0  0  0  0
    0.9994    1.5294   -0.0501 C   0  0  0  0  0  0  0  0  0  0  0  0
    1.3595    0.2472   -2.0499 C   0  0  0  0  0  0  0  0  0  0  0  0
    4.0865   -1.7916   -1.1023 C   0  0  0  0  0  0  0  0  0  0  0  0
    5.1625   -1.0001   -1.4900 C   0  0  0  0  0  0  0  0  0  0  0  0
    5.5212    0.1303   -0.7653 C   0  0  0  0  0  0  0  0  0  0  0  0
    5.7748    1.3599   -1.3863 O   0  0  0  0  0  0  0  0  0  0  0  0
    4.7756    2.1084   -2.0395 C   0  0  0  0  0  0  0  0  0  0  0  0
  1  2  1  0
  2  3  1  0
  3  4  1  0
  4  5  1  0
  5  6  1  0
  6  7  1  0
  7  8  2  0
  8  9  1  0
  9 10  1  0
 11 10  1  1
 11 12  1  0
 13 12  1  6
 13 14  1  0
 13 15  1  0
 15 16  1  6
 15 17  1  0
 18 17  1  1
 18 19  1  0
 19 20  2  0
 19 21  1  0
 21 22  1  0
 22 23  1  0
 23 24  1  0
 23 25  1  0
 23 26  1  0
 26 27  1  0
 26 28  2  0
 18 29  1  0
 29 30  1  0
 29 31  1  0
 11 32  1  0
 32 33  1  0
 32 34  1  0
  9 35  2  0
 35 36  1  0
 36 37  2  0
 37 38  1  0
 38 39  1  0
 37  7  1  0
M  END
>  <supplier_code>  (1456) 
DB09026

>  <zinc_id>  (1456) 
ZINC000004393164

>  <catalog_short_name>  (1456) 
dbfda

$$$$

     RDKit          3D

 65 74  0  0  0  0  0  0  0  0999 V2000
   11.5701   -0.4599    4.5678 C   0  0  0  0  0  0  0  0  0  0  0  0
   11.0686    0.3009    3.8118 O   0  0  0  0  0  0  0  0  0  0  0  0
   11.4318    0.2214    2.4610 C   0  0  0  0  0  0  0  0  0  0  0  0
   12.6520    0.3306    2.2446 O   0  0  0  0  0  0  0  0  0  0  0  0
   10.5846    0.7276    1.4954 N   0  0  0  0  0  0  0  0  0  0  0  0
   10.8834    0.4698   -0.0231 C   0  0  2  0  0  0  0  0  0  0  0  0
    9.3412    0.0685   -0.2916 C   0  0  0  0  0  0  0  0  0  0  0  0
    8.8160   -0.7521    0.4592 O   0  0  0  0  0  0  0  0  0  0  0  0
    8.6837    0.9658   -1.1113 N   0  0  0  0  0  0  0  0  0  0  0  0
    9.1098    1.4486   -2.3846 C   0  0  0  0  0  0  0  0  0  0  0  0
    7.8831    0.9297   -3.1320 C   0  0  0  0  0  0  0  0  0  0  0  0
    8.0082   -0.2473   -3.8860 C   0  0  0  0  0  0  0  0  0  0  0  0
    7.8997    1.0194   -4.6124 C   0  0  0  0  0  0  0  0  0  0  0  0
    6.9017    1.7352   -2.4604 C   0  0  0  0  0  0  0  0  0  0  0  0
    7.2351    1.5200   -0.8628 C   0  0  1  0  0  0  0  0  0  0  0  0
    6.5787    0.0489   -0.7880 C   0  0  0  0  0  0  0  0  0  0  0  0
    5.8052   -0.4917   -1.7145 N   0  0  0  0  0  0  0  0  0  0  0  0
    5.2653   -1.5888   -1.1268 C   0  0  0  0  0  0  0  0  0  0  0  0
    4.9303   -1.1188    0.1416 C   0  0  0  0  0  0  0  0  0  0  0  0
    3.6065   -1.2075    0.7937 C   0  0  0  0  0  0  0  0  0  0  0  0
    3.0769   -0.0969    1.4439 C   0  0  0  0  0  0  0  0  0  0  0  0
    1.7593    0.2943    1.2201 C   0  0  0  0  0  0  0  0  0  0  0  0
    0.9495   -0.3708    0.3041 C   0  0  0  0  0  0  0  0  0  0  0  0
    1.3274   -1.6884    0.0669 C   0  0  0  0  0  0  0  0  0  0  0  0
    2.6371   -2.0874    0.3282 C   0  0  0  0  0  0  0  0  0  0  0  0
    0.3304   -2.1956   -0.9292 C   0  0  0  0  0  0  0  0  0  0  0  0
    0.9425   -2.9675   -1.8964 F   0  0  0  0  0  0  0  0  0  0  0  0
   -0.6342   -2.9547   -0.3196 F   0  0  0  0  0  0  0  0  0  0  0  0
   -0.2373   -0.9784   -1.5938 C   0  0  0  0  0  0  0  0  0  0  0  0
   -1.4747   -0.8824   -2.2230 C   0  0  0  0  0  0  0  0  0  0  0  0
   -2.1541    0.3204   -2.3796 C   0  0  0  0  0  0  0  0  0  0  0  0
   -3.6175    0.3337   -2.1626 C   0  0  0  0  0  0  0  0  0  0  0  0
   -4.3106    1.5162   -2.3929 C   0  0  0  0  0  0  0  0  0  0  0  0
   -5.4507    1.8514   -1.6711 C   0  0  0  0  0  0  0  0  0  0  0  0
   -5.7395    1.1266   -0.5206 C   0  0  0  0  0  0  0  0  0  0  0  0
   -6.4758    1.3517    0.5664 N   0  0  0  0  0  0  0  0  0  0  0  0
   -6.4787    0.2323    1.3425 C   0  0  0  0  0  0  0  0  0  0  0  0
   -6.8350    0.7160    2.8374 C   0  0  2  0  0  0  0  0  0  0  0  0
   -6.8313   -0.8617    3.4847 C   0  0  1  0  0  0  0  0  0  0  0  0
   -6.6328   -0.2801    4.9888 C   0  0  0  0  0  0  0  0  0  0  0  0
   -7.4156    0.9694    4.8768 C   0  0  0  0  0  0  0  0  0  0  0  0
   -8.8014    0.5365    4.1031 C   0  0  2  0  0  0  0  0  0  0  0  0
   -8.3825   -1.0088    3.8429 C   0  0  0  0  0  0  0  0  0  0  0  0
   -8.3660    0.7819    2.6056 N   0  0  0  0  0  0  0  0  0  0  0  0
   -9.0835    0.0728    1.5913 C   0  0  0  0  0  0  0  0  0  0  0  0
   -8.6876   -1.0547    1.3342 O   0  0  0  0  0  0  0  0  0  0  0  0
   -9.7649    0.9811    0.4535 C   0  0  1  0  0  0  0  0  0  0  0  0
   -9.5928   -0.0538   -0.7236 N   0  0  0  0  0  0  0  0  0  0  0  0
  -10.2942    0.2308   -1.9062 C   0  0  0  0  0  0  0  0  0  0  0  0
  -10.5224    1.4388   -2.1728 O   0  0  0  0  0  0  0  0  0  0  0  0
  -10.6097   -0.6966   -2.8832 O   0  0  0  0  0  0  0  0  0  0  0  0
  -11.6409   -0.4143   -3.8247 C   0  0  0  0  0  0  0  0  0  0  0  0
  -11.2682    0.4201    0.8161 C   0  0  0  0  0  0  0  0  0  0  0  0
  -11.5282    0.8920    2.2332 C   0  0  0  0  0  0  0  0  0  0  0  0
  -11.1876   -1.0717    0.8524 C   0  0  0  0  0  0  0  0  0  0  0  0
   -5.2632   -0.3096    1.0970 N   0  0  0  0  0  0  0  0  0  0  0  0
   -5.0043   -0.0080   -0.1942 C   0  0  0  0  0  0  0  0  0  0  0  0
   -4.2050   -0.4891   -1.2039 C   0  0  0  0  0  0  0  0  0  0  0  0
   -1.3832    1.4400   -2.0819 C   0  0  0  0  0  0  0  0  0  0  0  0
   -0.2882    1.3724   -1.2286 C   0  0  0  0  0  0  0  0  0  0  0  0
    0.1781    0.1194   -0.8490 C   0  0  0  0  0  0  0  0  0  0  0  0
    5.8715   -0.1709    0.3559 N   0  0  0  0  0  0  0  0  0  0  0  0
   11.3716   -1.0901    0.1606 C   0  0  0  0  0  0  0  0  0  0  0  0
   10.6611   -1.8829   -0.9361 C   0  0  0  0  0  0  0  0  0  0  0  0
   12.8012   -1.0979   -0.3944 C   0  0  0  0  0  0  0  0  0  0  0  0
  1  2  1  0
  2  3  1  0
  3  4  2  0
  3  5  1  0
  6  5  1  1
  6  7  1  0
  7  8  2  0
  7  9  1  0
  9 10  1  0
 10 11  1  0
 11 12  1  0
 12 13  1  0
 11 14  1  0
 14 15  1  0
 15 16  1  6
 16 17  2  0
 17 18  1  0
 18 19  2  0
 19 20  1  0
 20 21  1  0
 21 22  2  0
 22 23  1  0
 23 24  2  0
 24 25  1  0
 24 26  1  0
 26 27  1  0
 26 28  1  0
 26 29  1  0
 29 30  2  0
 30 31  1  0
 31 32  1  0
 32 33  2  0
 33 34  1  0
 34 35  2  0
 35 36  1  0
 36 37  2  0
 38 37  1  6
 38 39  1  0
 39 40  1  1
 40 41  1  0
 42 41  1  1
 42 43  1  0
 42 44  1  0
 44 45  1  0
 45 46  2  0
 47 45  1  1
 47 48  1  0
 48 49  1  0
 49 50  2  0
 49 51  1  0
 51 52  1  0
 47 53  1  0
 53 54  1  0
 53 55  1  0
 37 56  1  0
 56 57  1  0
 57 58  2  0
 31 59  2  0
 59 60  1  0
 60 61  2  0
 19 62  1  0
  6 63  1  0
 63 64  1  0
 63 65  1  0
 15  9  1  0
 62 16  1  0
 13 11  1  0
 25 20  2  0
 61 29  1  0
 61 23  1  0
 58 32  1  0
 57 35  1  0
 44 38  1  0
 43 39  1  0
M  END
>  <supplier_code>  (1457) 
DB09027

>  <zinc_id>  (1457) 
ZINC000150338819

>  <catalog_short_name>  (1457) 
dbfda

$$$$

     RDKit          3D

 36 40  0  0  0  0  0  0  0  0999 V2000
   -7.7342    3.0188    0.4344 C   0  0  0  0  0  0  0  0  0  0  0  0
   -7.8386    1.8069    1.2028 C   0  0  0  0  0  0  0  0  0  0  0  0
   -7.2297    0.6653    0.6125 O   0  0  0  0  0  0  0  0  0  0  0  0
   -6.6269    0.6561   -0.6291 C   0  0  0  0  0  0  0  0  0  0  0  0
   -7.2764    1.3254   -1.4891 O   0  0  0  0  0  0  0  0  0  0  0  0
   -5.4102   -0.0297   -0.9659 N   0  0  0  0  0  0  0  0  0  0  0  0
   -4.6612    0.8649   -2.0864 C   0  0  2  0  0  0  0  0  0  0  0  0
   -3.4516   -0.2489   -2.4151 C   0  0  0  0  0  0  0  0  0  0  0  0
   -2.1528    0.5428   -2.1875 C   0  0  0  0  0  0  0  0  0  0  0  0
   -2.2702   -0.2019   -0.7613 C   0  0  2  0  0  0  0  0  0  0  0  0
   -2.7943    1.2348    0.0269 C   0  0  2  0  0  0  0  0  0  0  0  0
   -3.7366    0.2008    0.8919 C   0  0  0  0  0  0  0  0  0  0  0  0
   -2.6345   -0.5396    1.8660 C   0  0  1  0  0  0  0  0  0  0  0  0
   -2.2019   -1.7802    0.9099 C   0  0  0  0  0  0  0  0  0  0  0  0
   -3.2084   -2.5448    0.8006 O   0  0  0  0  0  0  0  0  0  0  0  0
   -1.3137   -2.0636    1.8156 O   0  0  0  0  0  0  0  0  0  0  0  0
   -0.2913   -0.9542    2.1131 C   0  0  2  0  0  0  0  0  0  0  0  0
   -0.9151   -0.7283    3.6427 C   0  0  0  0  0  0  0  0  0  0  0  0
   -1.2397    0.3620    1.5311 C   0  0  1  0  0  0  0  0  0  0  0  0
   -0.7737    0.2328   -0.0955 C   0  0  1  0  0  0  0  0  0  0  0  0
   -0.0533   -1.2205   -0.1040 C   0  0  0  0  0  0  0  0  0  0  0  0
    1.1504   -0.9919   -0.6203 C   0  0  0  0  0  0  0  0  0  0  0  0
    2.4388   -1.4871   -0.2695 C   0  0  0  0  0  0  0  0  0  0  0  0
    3.3574   -1.6422   -1.3107 C   0  0  0  0  0  0  0  0  0  0  0  0
    4.7117   -1.3558   -1.1323 C   0  0  0  0  0  0  0  0  0  0  0  0
    5.1612   -0.8271    0.0714 C   0  0  0  0  0  0  0  0  0  0  0  0
    6.2277    0.1739    0.1548 C   0  0  0  0  0  0  0  0  0  0  0  0
    6.0096    1.4989   -0.2039 C   0  0  0  0  0  0  0  0  0  0  0  0
    7.0287    2.2437   -0.7654 C   0  0  0  0  0  0  0  0  0  0  0  0
    8.2781    1.6812   -0.9081 C   0  0  0  0  0  0  0  0  0  0  0  0
    8.5784    0.5967   -0.0950 C   0  0  0  0  0  0  0  0  0  0  0  0
    9.8807    0.2072   -0.0544 F   0  0  0  0  0  0  0  0  0  0  0  0
    7.5468   -0.1671    0.4341 C   0  0  0  0  0  0  0  0  0  0  0  0
    4.2873   -0.9223    1.1193 C   0  0  0  0  0  0  0  0  0  0  0  0
    3.0525   -1.3838    0.9305 N   0  0  0  0  0  0  0  0  0  0  0  0
   -3.8951    1.7769   -0.9910 C   0  0  0  0  0  0  0  0  0  0  0  0
  1  2  1  0
  2  3  1  0
  3  4  1  0
  4  5  2  0
  4  6  1  0
  7  6  1  1
  7  8  1  0
  8  9  1  0
 10  9  1  6
 10 11  1  0
 11 12  1  1
 13 12  1  6
 13 14  1  0
 14 15  2  0
 14 16  1  0
 16 17  1  0
 17 18  1  1
 19 17  1  1
 19 20  1  0
 20 21  1  1
 21 22  2  0
 22 23  1  0
 23 24  2  0
 24 25  1  0
 25 26  2  0
 26 27  1  0
 27 28  2  0
 28 29  1  0
 29 30  2  0
 30 31  1  0
 31 32  1  0
 31 33  2  0
 26 34  1  0
 34 35  2  0
 11 36  1  0
 36  7  1  0
 20 10  1  0
 35 23  1  0
 19 13  1  0
 33 27  1  0
M  END
>  <supplier_code>  (1458) 
DB09030

>  <zinc_id>  (1458) 
ZINC000003925861

>  <catalog_short_name>  (1458) 
dbfda

$$$$

     RDKit          3D

 36 40  0  0  0  0  0  0  0  0999 V2000
   -3.8922   -0.2978    3.7173 C   0  0  0  0  0  0  0  0  0  0  0  0
   -4.2365   -1.3131    3.8137 C   0  0  0  0  0  0  0  0  0  0  0  0
   -4.4915   -2.1205    2.6861 O   0  0  0  0  0  0  0  0  0  0  0  0
   -3.7103   -3.2216    2.3163 C   0  0  0  0  0  0  0  0  0  0  0  0
   -3.0769   -3.7851    3.2240 O   0  0  0  0  0  0  0  0  0  0  0  0
   -3.2345   -3.2253    1.0167 N   0  0  0  0  0  0  0  0  0  0  0  0
   -2.1993   -4.3111    0.5538 C   0  0  2  0  0  0  0  0  0  0  0  0
   -0.9145   -3.6677    1.3425 C   0  0  0  0  0  0  0  0  0  0  0  0
   -1.0621   -2.2538    1.5534 C   0  0  0  0  0  0  0  0  0  0  0  0
   -1.5019   -1.4872    0.2180 C   0  0  2  0  0  0  0  0  0  0  0  0
   -0.7352   -2.6004   -0.7831 C   0  0  2  0  0  0  0  0  0  0  0  0
   -1.2176   -1.7298   -2.0637 C   0  0  0  0  0  0  0  0  0  0  0  0
   -0.0103   -0.6595   -2.2414 C   0  0  1  0  0  0  0  0  0  0  0  0
   -0.8517    0.2224   -3.2756 C   0  0  0  0  0  0  0  0  0  0  0  0
   -0.1046    1.0134   -3.9355 O   0  0  0  0  0  0  0  0  0  0  0  0
   -1.9788    0.6417   -2.7032 O   0  0  0  0  0  0  0  0  0  0  0  0
   -2.0674    0.2020   -1.2484 C   0  0  2  0  0  0  0  0  0  0  0  0
   -2.3967    1.7263   -0.7289 C   0  0  0  0  0  0  0  0  0  0  0  0
   -0.4231    0.4531   -1.0517 C   0  0  1  0  0  0  0  0  0  0  0  0
   -0.1362   -0.5147    0.2753 C   0  0  1  0  0  0  0  0  0  0  0  0
   -0.8707    0.5073    1.2553 C   0  0  0  0  0  0  0  0  0  0  0  0
   -0.3782    0.3585    2.4590 C   0  0  0  0  0  0  0  0  0  0  0  0
    1.0109    0.7614    2.5800 C   0  0  0  0  0  0  0  0  0  0  0  0
    1.3851    2.0512    2.9436 C   0  0  0  0  0  0  0  0  0  0  0  0
    2.4989    2.6383    2.3532 C   0  0  0  0  0  0  0  0  0  0  0  0
    3.2636    1.8516    1.4983 C   0  0  0  0  0  0  0  0  0  0  0  0
    3.7981    2.3658    0.2351 C   0  0  0  0  0  0  0  0  0  0  0  0
    5.1391    2.6053    0.1108 C   0  0  0  0  0  0  0  0  0  0  0  0
    5.5128    3.5962   -0.7889 C   0  0  0  0  0  0  0  0  0  0  0  0
    4.6766    3.8118   -1.8687 C   0  0  0  0  0  0  0  0  0  0  0  0
    3.3296    3.5195   -1.8063 C   0  0  0  0  0  0  0  0  0  0  0  0
    2.6960    3.4148   -3.0022 F   0  0  0  0  0  0  0  0  0  0  0  0
    2.9679    2.5686   -0.8590 C   0  0  0  0  0  0  0  0  0  0  0  0
    3.1767    0.4891    1.7640 C   0  0  0  0  0  0  0  0  0  0  0  0
    2.0559   -0.0537    2.3018 N   0  0  0  0  0  0  0  0  0  0  0  0
   -2.0211   -3.5568   -0.8881 C   0  0  0  0  0  0  0  0  0  0  0  0
  1  2  1  0
  2  3  1  0
  3  4  1  0
  4  5  2  0
  4  6  1  0
  7  6  1  1
  7  8  1  0
  8  9  1  0
 10  9  1  1
 10 11  1  0
 11 12  1  6
 13 12  1  1
 13 14  1  0
 14 15  2  0
 14 16  1  0
 16 17  1  0
 17 18  1  1
 19 17  1  6
 19 20  1  0
 20 21  1  1
 21 22  2  0
 22 23  1  0
 23 24  2  0
 24 25  1  0
 25 26  2  0
 26 27  1  0
 27 28  2  0
 28 29  1  0
 29 30  2  0
 30 31  1  0
 31 32  1  0
 31 33  2  0
 26 34  1  0
 34 35  2  0
 11 36  1  0
 36  7  1  0
 20 10  1  0
 35 23  1  0
 19 13  1  0
 33 27  1  0
M  END
>  <supplier_code>  (1459) 
DB09030

>  <zinc_id>  (1459) 
ZINC000204073689

>  <catalog_short_name>  (1459) 
dbfda

$$$$

     RDKit          3D

 27 26  0  0  0  0  0  0  0  0999 V2000
    7.5449    4.1847   -0.1209 C   0  0  0  0  0  0  0  0  0  0  0  0
    8.8507    3.6024    0.0463 C   0  0  0  0  0  0  0  0  0  0  0  0
    8.8409    2.1236   -0.2474 C   0  0  0  0  0  0  0  0  0  0  0  0
    7.9580    1.4025    0.7426 C   0  0  0  0  0  0  0  0  0  0  0  0
    7.5657    0.0687    0.1388 C   0  0  0  0  0  0  0  0  0  0  0  0
    6.0609   -0.1160    0.2727 C   0  0  0  0  0  0  0  0  0  0  0  0
    5.3377    0.8292   -0.6536 C   0  0  0  0  0  0  0  0  0  0  0  0
    4.0177    0.2436   -1.0809 C   0  0  0  0  0  0  0  0  0  0  0  0
    3.9168   -1.1858   -0.6099 C   0  0  0  0  0  0  0  0  0  0  0  0
    2.7347   -1.3494    0.3249 C   0  0  0  0  0  0  0  0  0  0  0  0
    2.3353   -2.8075    0.3111 C   0  0  0  0  0  0  0  0  0  0  0  0
    1.3719   -3.0109   -0.8344 C   0  0  0  0  0  0  0  0  0  0  0  0
    0.4203   -1.8357   -0.8366 C   0  0  0  0  0  0  0  0  0  0  0  0
   -0.1657   -1.7319    0.5475 C   0  0  0  0  0  0  0  0  0  0  0  0
   -0.9174   -0.4162    0.6408 C   0  0  0  0  0  0  0  0  0  0  0  0
   -2.2925   -0.5578    0.0289 C   0  0  0  0  0  0  0  0  0  0  0  0
   -3.0534   -1.4170    0.8092 O   0  0  0  0  0  0  0  0  0  0  0  0
   -4.4110   -1.9194   -0.0592 P   0  0  1  0  0  0  0  0  0  0  0  0
   -4.1196   -1.9484   -1.5475 O   0  0  0  0  0  0  0  0  0  0  0  0
   -4.8505   -3.4827    0.4074 O   0  0  0  0  0  0  0  0  0  0  0  0
   -5.6983   -0.8559    0.2076 O   0  0  0  0  0  0  0  0  0  0  0  0
   -6.0229   -0.1350   -0.9443 C   0  0  0  0  0  0  0  0  0  0  0  0
   -7.2813    0.6317   -0.6496 C   0  0  0  0  0  0  0  0  0  0  0  0
   -7.0506    2.0436   -0.4312 N   0  0  0  0  0  0  0  0  0  0  0  0
   -8.3449    2.6235   -0.0809 C   0  0  0  0  0  0  0  0  0  0  0  0
   -6.1334    2.3056    0.6494 C   0  0  0  0  0  0  0  0  0  0  0  0
   -6.6141    2.7104   -1.6383 C   0  0  0  0  0  0  0  0  0  0  0  0
  1  2  1  0
  2  3  1  0
  3  4  1  0
  4  5  1  0
  5  6  1  0
  6  7  1  0
  7  8  1  0
  8  9  1  0
  9 10  1  0
 10 11  1  0
 11 12  1  0
 12 13  1  0
 13 14  1  0
 14 15  1  0
 15 16  1  0
 16 17  1  0
 18 17  1  1
 18 19  2  0
 18 20  1  0
 18 21  1  0
 21 22  1  0
 22 23  1  0
 23 24  1  0
 24 25  1  0
 24 26  1  0
 24 27  1  0
M  CHG  1  24   1
M  END
>  <supplier_code>  (1460) 
DB09031

>  <zinc_id>  (1460) 
ZINC000008214614

>  <catalog_short_name>  (1460) 
dbfda

$$$$

     RDKit          3D

 32 36  0  0  0  0  0  0  0  0999 V2000
   -5.8865    3.0962    1.8308 C   0  0  0  0  0  0  0  0  0  0  0  0
   -5.2063    2.2920    0.8149 C   0  0  0  0  0  0  0  0  0  0  0  0
   -5.9824    1.5732   -0.0868 C   0  0  0  0  0  0  0  0  0  0  0  0
   -5.3681    0.5816   -0.8068 C   0  0  0  0  0  0  0  0  0  0  0  0
   -4.1212    0.1210   -0.3992 C   0  0  0  0  0  0  0  0  0  0  0  0
   -3.7582   -1.2640   -0.4950 N   0  0  0  0  0  0  0  0  0  0  0  0
   -3.9403   -2.1406    0.4933 N   0  0  0  0  0  0  0  0  0  0  0  0
   -4.1667   -3.3742   -0.0186 C   0  0  0  0  0  0  0  0  0  0  0  0
   -3.9561   -3.2418   -1.3860 C   0  0  0  0  0  0  0  0  0  0  0  0
   -4.1674   -1.9184   -1.5858 N   0  0  0  0  0  0  0  0  0  0  0  0
   -3.2364    1.0312    0.1507 C   0  0  0  0  0  0  0  0  0  0  0  0
   -1.8431    0.7332    0.3608 C   0  0  0  0  0  0  0  0  0  0  0  0
   -1.2954    1.2441    1.3871 O   0  0  0  0  0  0  0  0  0  0  0  0
   -1.0110   -0.0560   -0.4528 N   0  0  0  0  0  0  0  0  0  0  0  0
   -0.1050   -0.9553    0.1854 C   0  0  0  0  0  0  0  0  0  0  0  0
    0.7968   -0.1968    1.1529 C   0  0  0  0  0  0  0  0  0  0  0  0
    1.5659    0.8364    0.4625 N   0  0  0  0  0  0  0  0  0  0  0  0
    2.9514    0.5005    0.3193 C   0  0  0  0  0  0  0  0  0  0  0  0
    3.9953    1.3042    0.0477 N   0  0  0  0  0  0  0  0  0  0  0  0
    5.1030    0.5240    0.0714 C   0  0  0  0  0  0  0  0  0  0  0  0
    6.4525    0.7166   -0.0603 C   0  0  0  0  0  0  0  0  0  0  0  0
    7.3198   -0.3670    0.0348 C   0  0  0  0  0  0  0  0  0  0  0  0
    9.0450   -0.0967    0.2462 Cl  0  0  0  0  0  0  0  0  0  0  0  0
    6.8526   -1.6654    0.0236 C   0  0  0  0  0  0  0  0  0  0  0  0
    5.5113   -1.8496    0.2058 C   0  0  0  0  0  0  0  0  0  0  0  0
    4.6573   -0.7856    0.1219 C   0  0  0  0  0  0  0  0  0  0  0  0
    3.3562   -0.7442    0.1309 O   0  0  0  0  0  0  0  0  0  0  0  0
    1.0109    1.6428   -0.6231 C   0  0  0  0  0  0  0  0  0  0  0  0
    0.7891    0.7323   -1.7906 C   0  0  0  0  0  0  0  0  0  0  0  0
   -0.8557    0.5484   -1.9090 C   0  0  1  0  0  0  0  0  0  0  0  0
   -0.6797   -0.9525   -2.5942 C   0  0  0  0  0  0  0  0  0  0  0  0
   -3.8275    2.1302    0.7647 C   0  0  0  0  0  0  0  0  0  0  0  0
  1  2  1  0
  2  3  2  0
  3  4  1  0
  4  5  2  0
  5  6  1  0
  6  7  1  0
  7  8  2  0
  8  9  1  0
  9 10  2  0
  5 11  1  0
 11 12  1  0
 12 13  2  0
 12 14  1  0
 14 15  1  0
 15 16  1  0
 16 17  1  0
 17 18  1  0
 18 19  2  0
 19 20  1  0
 20 21  2  0
 21 22  1  0
 22 23  1  0
 22 24  2  0
 24 25  1  0
 25 26  2  0
 26 27  1  0
 17 28  1  0
 28 29  1  0
 29 30  1  0
 30 31  1  6
 11 32  2  0
 32  2  1  0
 10  6  1  0
 30 14  1  0
 27 18  1  0
 26 20  1  0
M  END
>  <supplier_code>  (1461) 
DB09034

>  <zinc_id>  (1461) 
ZINC000049036447

>  <catalog_short_name>  (1461) 
dbfda

$$$$

     RDKit          3D

 31 34  0  0  0  0  0  0  0  0999 V2000
   -2.7998    3.2428   -1.0697 O   0  0  0  0  0  0  0  0  0  0  0  0
   -3.2422    2.6535   -0.0616 C   0  0  0  0  0  0  0  0  0  0  0  0
   -3.8225    1.3180   -0.8063 C   0  0  1  0  0  0  0  0  0  0  0  0
   -3.4108    0.3892    0.3119 O   0  0  0  0  0  0  0  0  0  0  0  0
   -3.7184   -0.7177   -0.6857 C   0  0  1  0  0  0  0  0  0  0  0  0
   -2.8421   -1.8183    0.0841 C   0  0  0  0  0  0  0  0  0  0  0  0
   -2.9367   -2.0860    1.3758 C   0  0  0  0  0  0  0  0  0  0  0  0
   -1.7943   -2.6583    1.9596 C   0  0  0  0  0  0  0  0  0  0  0  0
   -0.5321   -2.2441    1.5282 C   0  0  0  0  0  0  0  0  0  0  0  0
    0.5865   -1.6075    2.7340 Cl  0  0  0  0  0  0  0  0  0  0  0  0
   -0.3810   -1.8572    0.1951 C   0  0  0  0  0  0  0  0  0  0  0  0
    0.5823   -0.8927   -0.2822 C   0  0  0  0  0  0  0  0  0  0  0  0
    1.9871   -0.9665   -0.0818 C   0  0  0  0  0  0  0  0  0  0  0  0
    2.4626    0.0172    0.7925 C   0  0  0  0  0  0  0  0  0  0  0  0
    3.7306    0.4851    0.8017 C   0  0  0  0  0  0  0  0  0  0  0  0
    4.5925    0.0241   -0.1604 C   0  0  0  0  0  0  0  0  0  0  0  0
    5.9349    0.3141   -0.0322 O   0  0  0  0  0  0  0  0  0  0  0  0
    6.2090    1.5975    0.7732 C   0  0  1  0  0  0  0  0  0  0  0  0
    7.8337    1.3763    0.7260 C   0  0  0  0  0  0  0  0  0  0  0  0
    8.1248    1.4074   -0.7237 C   0  0  0  0  0  0  0  0  0  0  0  0
    7.0055    1.7682   -1.4266 O   0  0  0  0  0  0  0  0  0  0  0  0
    6.2510    2.5304   -0.5775 C   0  0  0  0  0  0  0  0  0  0  0  0
    4.0237   -0.4591   -1.3262 C   0  0  0  0  0  0  0  0  0  0  0  0
    2.7252   -0.9261   -1.2707 C   0  0  0  0  0  0  0  0  0  0  0  0
   -1.5879   -1.8926   -0.5209 C   0  0  0  0  0  0  0  0  0  0  0  0
   -5.2037   -1.0135    0.1110 C   0  0  2  0  0  0  0  0  0  0  0  0
   -5.4977   -2.1259   -0.8448 O   0  0  0  0  0  0  0  0  0  0  0  0
   -5.9412    0.1235   -0.9334 C   0  0  1  0  0  0  0  0  0  0  0  0
   -7.2098    0.1254   -0.1377 O   0  0  0  0  0  0  0  0  0  0  0  0
   -5.3608    1.4833   -0.0803 C   0  0  2  0  0  0  0  0  0  0  0  0
   -5.7684    2.4097   -1.1815 O   0  0  0  0  0  0  0  0  0  0  0  0
  1  2  1  0
  3  2  1  1
  3  4  1  0
  4  5  1  0
  5  6  1  1
  6  7  2  0
  7  8  1  0
  8  9  2  0
  9 10  1  0
  9 11  1  0
 11 12  1  0
 12 13  1  0
 13 14  2  0
 14 15  1  0
 15 16  2  0
 16 17  1  0
 18 17  1  6
 18 19  1  0
 19 20  1  0
 20 21  1  0
 21 22  1  0
 16 23  1  0
 23 24  2  0
 11 25  2  0
  5 26  1  0
 26 27  1  6
 26 28  1  0
 28 29  1  1
 28 30  1  0
 30 31  1  6
 30  3  1  0
 25  6  1  0
 24 13  1  0
 22 18  1  0
M  END
>  <supplier_code>  (1462) 
DB09038

>  <zinc_id>  (1462) 
ZINC000036520252

>  <catalog_short_name>  (1462) 
dbfda

$$$$

     RDKit          3D

 29 31  0  0  0  0  0  0  0  0999 V2000
    7.1574    0.5263   -0.1520 C   0  0  0  0  0  0  0  0  0  0  0  0
    7.1385    1.0729    0.0918 C   0  0  0  0  0  0  0  0  0  0  0  0
    6.7436    2.5223   -0.1567 C   0  0  0  0  0  0  0  0  0  0  0  0
    5.2293    2.6112   -0.0429 C   0  0  0  0  0  0  0  0  0  0  0  0
    4.8259    1.5663    0.9934 C   0  0  0  0  0  0  0  0  0  0  0  0
    3.8316    0.6255    0.3245 C   0  0  0  0  0  0  0  0  0  0  0  0
    3.5146   -0.4480    1.3594 C   0  0  0  0  0  0  0  0  0  0  0  0
    2.1117   -0.9288    1.2030 C   0  0  0  0  0  0  0  0  0  0  0  0
    1.5925   -1.5713    2.1432 O   0  0  0  0  0  0  0  0  0  0  0  0
    1.2311   -0.1536    0.4191 N   0  0  0  0  0  0  0  0  0  0  0  0
   -0.1832   -0.7892    0.1423 C   0  0  2  0  0  0  0  0  0  0  0  0
    0.4647   -1.9297   -0.8441 C   0  0  0  0  0  0  0  0  0  0  0  0
   -0.1777   -3.1489   -0.6355 N   0  0  0  0  0  0  0  0  0  0  0  0
   -1.5080   -3.1891   -0.1962 C   0  0  0  0  0  0  0  0  0  0  0  0
   -1.6215   -4.4265    0.6643 C   0  0  0  0  0  0  0  0  0  0  0  0
   -0.4388   -5.2861    0.2863 C   0  0  0  0  0  0  0  0  0  0  0  0
    0.5787   -4.2314   -0.1018 C   0  0  0  0  0  0  0  0  0  0  0  0
   -0.4463    0.2738   -1.2229 C   0  0  2  0  0  0  0  0  0  0  0  0
   -0.2715    1.5383   -0.3650 O   0  0  0  0  0  0  0  0  0  0  0  0
   -2.0688    0.2430   -1.0328 C   0  0  0  0  0  0  0  0  0  0  0  0
   -2.7120    0.5998   -2.2117 C   0  0  0  0  0  0  0  0  0  0  0  0
   -3.8732    1.3424   -2.0983 C   0  0  0  0  0  0  0  0  0  0  0  0
   -4.3836    1.6361   -0.8412 C   0  0  0  0  0  0  0  0  0  0  0  0
   -3.9015    0.9498    0.2678 C   0  0  0  0  0  0  0  0  0  0  0  0
   -2.5733    0.5222    0.1833 C   0  0  0  0  0  0  0  0  0  0  0  0
   -4.4189    1.3958    1.4879 O   0  0  0  0  0  0  0  0  0  0  0  0
   -5.0160    2.6441    1.6977 C   0  0  0  0  0  0  0  0  0  0  0  0
   -5.6680    3.2403    0.4928 C   0  0  0  0  0  0  0  0  0  0  0  0
   -5.1573    2.7925   -0.7302 O   0  0  0  0  0  0  0  0  0  0  0  0
  1  2  1  0
  2  3  1  0
  3  4  1  0
  4  5  1  0
  5  6  1  0
  6  7  1  0
  7  8  1  0
  8  9  2  0
  8 10  1  0
 11 10  1  1
 11 12  1  0
 12 13  1  0
 13 14  1  0
 14 15  1  0
 15 16  1  0
 16 17  1  0
 11 18  1  0
 18 19  1  1
 18 20  1  0
 20 21  2  0
 21 22  1  0
 22 23  2  0
 23 24  1  0
 24 25  2  0
 24 26  1  0
 26 27  1  0
 27 28  1  0
 28 29  1  0
 17 13  1  0
 25 20  1  0
 29 23  1  0
M  END
>  <supplier_code>  (1463) 
DB09039

>  <zinc_id>  (1463) 
ZINC000072267023

>  <catalog_short_name>  (1463) 
dbfda

$$$$

     RDKit          3D

 25 27  0  0  0  0  0  0  0  0999 V2000
    5.4314   -0.4542    0.1884 C   0  0  0  0  0  0  0  0  0  0  0  0
    4.6906   -0.4839   -0.5330 C   0  0  0  0  0  0  0  0  0  0  0  0
    3.8454   -1.7174   -0.6615 C   0  0  0  0  0  0  0  0  0  0  0  0
    2.7478   -1.3861   -1.6512 C   0  0  0  0  0  0  0  0  0  0  0  0
    1.8823   -0.3221   -1.1808 N   0  0  0  0  0  0  0  0  0  0  0  0
    0.8643   -1.1585   -0.2730 C   0  0  2  0  0  0  0  0  0  0  0  0
    0.0494   -1.7087   -1.6223 C   0  0  0  0  0  0  0  0  0  0  0  0
   -0.2049    0.1076   -0.0905 C   0  0  2  0  0  0  0  0  0  0  0  0
   -0.1739    0.8306   -1.2235 O   0  0  0  0  0  0  0  0  0  0  0  0
    0.2983    0.7121    1.1627 C   0  0  0  0  0  0  0  0  0  0  0  0
   -0.2841    1.9864    1.4536 N   0  0  0  0  0  0  0  0  0  0  0  0
    0.3993    3.1000    1.8161 C   0  0  0  0  0  0  0  0  0  0  0  0
   -0.3176    4.1618    1.3728 N   0  0  0  0  0  0  0  0  0  0  0  0
   -1.5899    3.6971    1.3242 C   0  0  0  0  0  0  0  0  0  0  0  0
   -1.5577    2.3451    1.3569 N   0  0  0  0  0  0  0  0  0  0  0  0
   -1.5071   -0.5870    0.0741 C   0  0  0  0  0  0  0  0  0  0  0  0
   -1.9492   -0.9170    1.3503 C   0  0  0  0  0  0  0  0  0  0  0  0
   -2.9931   -1.8157    1.4617 C   0  0  0  0  0  0  0  0  0  0  0  0
   -3.5530   -2.3210    0.2940 C   0  0  0  0  0  0  0  0  0  0  0  0
   -4.5160   -3.2623    0.4139 F   0  0  0  0  0  0  0  0  0  0  0  0
   -3.3015   -1.7266   -0.9368 C   0  0  0  0  0  0  0  0  0  0  0  0
   -2.4144   -0.6651   -0.9751 C   0  0  0  0  0  0  0  0  0  0  0  0
   -2.3700    0.2364   -1.9765 F   0  0  0  0  0  0  0  0  0  0  0  0
    2.5644    0.5631   -0.2836 C   0  0  0  0  0  0  0  0  0  0  0  0
    3.9591    0.7854   -0.8611 C   0  0  0  0  0  0  0  0  0  0  0  0
  1  2  2  0
  2  3  1  0
  3  4  1  0
  4  5  1  0
  6  5  1  6
  6  7  1  0
  6  8  1  0
  8  9  1  6
  8 10  1  0
 10 11  1  0
 11 12  1  0
 12 13  2  0
 13 14  1  0
 14 15  2  0
  8 16  1  0
 16 17  2  0
 17 18  1  0
 18 19  2  0
 19 20  1  0
 19 21  1  0
 21 22  2  0
 22 23  1  0
  5 24  1  0
 24 25  1  0
 25  2  1  0
 15 11  1  0
 22 16  1  0
M  END
>  <supplier_code>  (1464) 
DB09040

>  <zinc_id>  (1464) 
ZINC000000006251

>  <catalog_short_name>  (1464) 
dbfda

$$$$

     RDKit          3D

 11 12  0  0  0  0  0  0  0  0999 V2000
   -2.6795    1.4996    0.8769 O   0  0  0  0  0  0  0  0  0  0  0  0
   -1.9703    0.4450    0.1723 B   0  0  0  0  0  0  0  0  0  0  0  0
   -2.3338   -0.9652    0.1806 O   0  0  0  0  0  0  0  0  0  0  0  0
   -1.3313   -1.6214   -0.5191 C   0  0  0  0  0  0  0  0  0  0  0  0
   -0.0876   -0.8355   -0.3247 C   0  0  0  0  0  0  0  0  0  0  0  0
    1.2712   -1.1197   -0.3096 C   0  0  0  0  0  0  0  0  0  0  0  0
    2.1667   -0.1319    0.0835 C   0  0  0  0  0  0  0  0  0  0  0  0
    3.1943   -0.3864    0.9421 F   0  0  0  0  0  0  0  0  0  0  0  0
    1.8065    1.1568   -0.2847 C   0  0  0  0  0  0  0  0  0  0  0  0
    0.4617    1.4676   -0.4496 C   0  0  0  0  0  0  0  0  0  0  0  0
   -0.4979    0.4909   -0.3676 C   0  0  0  0  0  0  0  0  0  0  0  0
  1  2  1  0
  2  3  1  0
  3  4  1  0
  4  5  1  0
  5  6  2  0
  6  7  1  0
  7  8  1  0
  7  9  2  0
  9 10  1  0
 10 11  2  0
 11  2  1  0
 11  5  1  0
M  END
>  <supplier_code>  (1465) 
DB09041

>  <zinc_id>  (1465) 
ZINC000169990691

>  <catalog_short_name>  (1465) 
dbfda

$$$$

     RDKit          3D

 31 34  0  0  0  0  0  0  0  0999 V2000
    9.2324   -0.8591    0.3371 C   0  0  0  0  0  0  0  0  0  0  0  0
    8.2568    0.1923    0.2591 N   0  0  0  0  0  0  0  0  0  0  0  0
    8.3091    1.2412   -0.5615 N   0  0  0  0  0  0  0  0  0  0  0  0
    7.0458    1.5781   -0.8193 N   0  0  0  0  0  0  0  0  0  0  0  0
    6.2629    1.1038    0.1803 C   0  0  0  0  0  0  0  0  0  0  0  0
    4.7993    0.9899    0.1354 C   0  0  0  0  0  0  0  0  0  0  0  0
    4.0393    1.0865    1.2916 C   0  0  0  0  0  0  0  0  0  0  0  0
    2.7378    0.6281    1.3297 C   0  0  0  0  0  0  0  0  0  0  0  0
    2.3111   -0.3061    0.3926 C   0  0  0  0  0  0  0  0  0  0  0  0
    0.8954   -0.6733    0.2597 C   0  0  0  0  0  0  0  0  0  0  0  0
    0.2367   -1.3927    1.2499 C   0  0  0  0  0  0  0  0  0  0  0  0
   -1.1057   -1.7271    1.1085 C   0  0  0  0  0  0  0  0  0  0  0  0
   -1.7985   -1.4431   -0.0634 C   0  0  0  0  0  0  0  0  0  0  0  0
   -3.1755   -1.0462   -0.0003 N   0  0  0  0  0  0  0  0  0  0  0  0
   -3.5278    0.3380    0.3151 C   0  0  0  0  0  0  0  0  0  0  0  0
   -3.9954    0.6396   -1.2677 C   0  0  2  0  0  0  0  0  0  0  0  0
   -5.0909    1.8157   -0.7941 C   0  0  0  0  0  0  0  0  0  0  0  0
   -5.7553    1.2803    0.2749 O   0  0  0  0  0  0  0  0  0  0  0  0
   -7.3708    0.9133   -0.0287 P   0  0  0  0  0  0  0  0  0  0  0  0
   -7.6208    1.0599   -1.5117 O   0  0  0  0  0  0  0  0  0  0  0  0
   -7.6006   -0.6950    0.4735 O   0  0  0  0  0  0  0  0  0  0  0  0
   -8.3258    1.9717    0.8530 O   0  0  0  0  0  0  0  0  0  0  0  0
   -5.0813   -0.4892   -1.1926 O   0  0  0  0  0  0  0  0  0  0  0  0
   -4.2360   -1.5302   -0.8364 C   0  0  0  0  0  0  0  0  0  0  0  0
   -4.3084   -2.7521   -1.1700 O   0  0  0  0  0  0  0  0  0  0  0  0
   -0.9849   -1.1020   -1.1381 C   0  0  0  0  0  0  0  0  0  0  0  0
    0.3419   -0.7889   -1.0096 C   0  0  0  0  0  0  0  0  0  0  0  0
    0.9767   -0.1424   -2.0206 F   0  0  0  0  0  0  0  0  0  0  0  0
    3.1435   -0.4683   -0.7081 C   0  0  0  0  0  0  0  0  0  0  0  0
    4.2846    0.2491   -0.8544 N   0  0  0  0  0  0  0  0  0  0  0  0
    7.1043    0.3282    0.9073 N   0  0  0  0  0  0  0  0  0  0  0  0
  1  2  1  0
  2  3  1  0
  3  4  2  0
  4  5  1  0
  5  6  1  0
  6  7  2  0
  7  8  1  0
  8  9  2  0
  9 10  1  0
 10 11  2  0
 11 12  1  0
 12 13  2  0
 13 14  1  0
 14 15  1  0
 15 16  1  0
 16 17  1  1
 17 18  1  0
 18 19  1  0
 19 20  2  0
 19 21  1  0
 19 22  1  0
 16 23  1  0
 23 24  1  0
 24 25  2  0
 13 26  1  0
 26 27  2  0
 27 28  1  0
  9 29  1  0
 29 30  2  0
  5 31  2  0
 31  2  1  0
 30  6  1  0
 27 10  1  0
 24 14  1  0
M  END
>  <supplier_code>  (1466) 
DB09042

>  <zinc_id>  (1466) 
ZINC000043100953

>  <catalog_short_name>  (1466) 
dbfda

$$$$

     RDKit          3D

 41 44  0  0  0  0  0  0  0  0999 V2000
    4.5105   -0.5693   -3.6742 C   0  0  0  0  0  0  0  0  0  0  0  0
    3.3757   -1.5330   -3.5421 C   0  0  0  0  0  0  0  0  0  0  0  0
    3.3753   -2.6162   -4.4054 C   0  0  0  0  0  0  0  0  0  0  0  0
    2.4407   -3.6082   -4.1908 C   0  0  0  0  0  0  0  0  0  0  0  0
    1.5243   -3.5026   -3.1524 C   0  0  0  0  0  0  0  0  0  0  0  0
    1.8985   -2.6589   -2.1140 C   0  0  0  0  0  0  0  0  0  0  0  0
    2.4624   -1.4475   -2.4968 C   0  0  0  0  0  0  0  0  0  0  0  0
    2.7087   -0.3694   -1.5370 C   0  0  0  0  0  0  0  0  0  0  0  0
    3.9791    0.1510   -1.3414 C   0  0  0  0  0  0  0  0  0  0  0  0
    4.1997    1.1092   -0.3609 C   0  0  0  0  0  0  0  0  0  0  0  0
    5.3581    1.0632    0.4800 N   0  0  0  0  0  0  0  0  0  0  0  0
    6.2075    2.2344    0.6445 C   0  0  0  0  0  0  0  0  0  0  0  0
    5.9309    2.8278    2.0069 C   0  0  0  0  0  0  0  0  0  0  0  0
    6.0445    1.8295    3.0680 N   0  0  0  0  0  0  0  0  0  0  0  0
    5.6139    2.5017    4.2920 C   0  0  0  0  0  0  0  0  0  0  0  0
    5.1209    0.7353    2.8238 C   0  0  0  0  0  0  0  0  0  0  0  0
    5.4729    0.0409    1.5135 C   0  0  0  0  0  0  0  0  0  0  0  0
    3.1356    1.8937   -0.0613 N   0  0  0  0  0  0  0  0  0  0  0  0
    1.8754    1.4661   -0.3101 C   0  0  0  0  0  0  0  0  0  0  0  0
    1.6419    0.2569   -0.9507 C   0  0  0  0  0  0  0  0  0  0  0  0
    0.4970   -0.5300   -0.5988 N   0  0  0  0  0  0  0  0  0  0  0  0
    0.6449   -1.3095    0.6294 C   0  0  0  0  0  0  0  0  0  0  0  0
   -0.7579    0.1545   -0.7213 C   0  0  0  0  0  0  0  0  0  0  0  0
   -0.8562    1.2055   -0.0192 O   0  0  0  0  0  0  0  0  0  0  0  0
   -2.0321   -0.5844   -0.9523 C   0  0  0  0  0  0  0  0  0  0  0  0
   -2.6215   -0.2694   -2.3135 C   0  0  0  0  0  0  0  0  0  0  0  0
   -1.7650   -2.0586   -0.8406 C   0  0  0  0  0  0  0  0  0  0  0  0
   -3.0679   -0.2210    0.0607 C   0  0  0  0  0  0  0  0  0  0  0  0
   -3.9807   -1.2023    0.4242 C   0  0  0  0  0  0  0  0  0  0  0  0
   -5.0263   -0.9437    1.3009 C   0  0  0  0  0  0  0  0  0  0  0  0
   -5.6875   -2.0484    2.0323 C   0  0  0  0  0  0  0  0  0  0  0  0
   -6.9010   -2.3066    1.4378 F   0  0  0  0  0  0  0  0  0  0  0  0
   -4.9399   -3.1992    2.0152 F   0  0  0  0  0  0  0  0  0  0  0  0
   -5.8880   -1.6690    3.3521 F   0  0  0  0  0  0  0  0  0  0  0  0
   -5.1044    0.3565    1.7826 C   0  0  0  0  0  0  0  0  0  0  0  0
   -4.5365    1.4171    1.0888 C   0  0  0  0  0  0  0  0  0  0  0  0
   -5.1649    2.7682    1.0751 C   0  0  0  0  0  0  0  0  0  0  0  0
   -4.3296    3.7260    1.6384 F   0  0  0  0  0  0  0  0  0  0  0  0
   -5.5593    3.0989   -0.1971 F   0  0  0  0  0  0  0  0  0  0  0  0
   -6.2869    2.7241    1.8967 F   0  0  0  0  0  0  0  0  0  0  0  0
   -3.5126    1.0865    0.2172 C   0  0  0  0  0  0  0  0  0  0  0  0
  1  2  1  0
  2  3  2  0
  3  4  1  0
  4  5  2  0
  5  6  1  0
  6  7  2  0
  7  8  1  0
  8  9  2  0
  9 10  1  0
 10 11  1  0
 11 12  1  0
 12 13  1  0
 13 14  1  0
 14 15  1  0
 14 16  1  0
 16 17  1  0
 10 18  2  0
 18 19  1  0
 19 20  2  0
 20 21  1  0
 21 22  1  0
 21 23  1  0
 23 24  2  0
 23 25  1  0
 25 26  1  0
 25 27  1  0
 25 28  1  0
 28 29  2  0
 29 30  1  0
 30 31  1  0
 31 32  1  0
 31 33  1  0
 31 34  1  0
 30 35  2  0
 35 36  1  0
 36 37  1  0
 37 38  1  0
 37 39  1  0
 37 40  1  0
 36 41  2  0
  7  2  1  0
 20  8  1  0
 41 28  1  0
 17 11  1  0
M  END
>  <supplier_code>  (1467) 
DB09048

>  <zinc_id>  (1467) 
ZINC000011681563

>  <catalog_short_name>  (1467) 
dbfda

$$$$

     RDKit          3D

 46 50  0  0  0  0  0  0  0  0999 V2000
   -8.8525   -1.9196   -2.2910 C   0  0  0  0  0  0  0  0  0  0  0  0
   -8.7655   -0.8359   -2.3665 C   0  0  0  0  0  0  0  0  0  0  0  0
   -7.5545   -0.1155   -2.8901 C   0  0  0  0  0  0  0  0  0  0  0  0
   -6.5238   -0.0432   -1.8428 N   0  0  0  0  0  0  0  0  0  0  0  0
   -6.8584   -0.9773   -0.9526 C   0  0  0  0  0  0  0  0  0  0  0  0
   -6.4858   -1.0930    0.4426 C   0  0  0  0  0  0  0  0  0  0  0  0
   -5.7727    0.2573    0.6351 C   0  0  1  0  0  0  0  0  0  0  0  0
   -4.5375   -0.0434    0.0774 C   0  0  0  0  0  0  0  0  0  0  0  0
   -4.0268   -1.0349    0.8371 C   0  0  0  0  0  0  0  0  0  0  0  0
   -2.8362   -1.5163    0.2778 C   0  0  0  0  0  0  0  0  0  0  0  0
   -1.8894   -2.1063    1.1273 O   0  0  0  0  0  0  0  0  0  0  0  0
   -2.4433   -1.1422   -1.0113 C   0  0  0  0  0  0  0  0  0  0  0  0
   -3.1791   -0.2106   -1.7527 C   0  0  0  0  0  0  0  0  0  0  0  0
   -4.2659    0.3763   -1.1670 C   0  0  0  0  0  0  0  0  0  0  0  0
   -4.9243    1.6370   -1.4447 C   0  0  0  0  0  0  0  0  0  0  0  0
   -6.5603    1.4573   -1.3841 C   0  0  2  0  0  0  0  0  0  0  0  0
   -6.7258    1.1745    0.2132 C   0  0  1  0  0  0  0  0  0  0  0  0
   -8.0766    0.8414    0.3084 O   0  0  0  0  0  0  0  0  0  0  0  0
   -6.5238    2.4284    0.9842 C   0  0  0  0  0  0  0  0  0  0  0  0
   -5.0889    2.4799    1.2016 C   0  0  0  0  0  0  0  0  0  0  0  0
   -4.6247    1.6040    2.4947 C   0  0  2  0  0  0  0  0  0  0  0  0
   -3.3588    1.1795    1.7907 O   0  0  0  0  0  0  0  0  0  0  0  0
   -2.4258    2.0047    2.4007 C   0  0  0  0  0  0  0  0  0  0  0  0
   -1.4949    2.5212    1.3420 C   0  0  0  0  0  0  0  0  0  0  0  0
   -1.2967    1.5651    0.3435 O   0  0  0  0  0  0  0  0  0  0  0  0
   -0.2705    0.6913    0.6709 C   0  0  0  0  0  0  0  0  0  0  0  0
    0.1685   -0.0197   -0.5795 C   0  0  0  0  0  0  0  0  0  0  0  0
    1.5173    0.2523   -0.7955 O   0  0  0  0  0  0  0  0  0  0  0  0
    2.2900   -0.8691   -0.5377 C   0  0  0  0  0  0  0  0  0  0  0  0
    3.0029   -0.6386    0.7677 C   0  0  0  0  0  0  0  0  0  0  0  0
    4.3725   -0.7381    0.5996 O   0  0  0  0  0  0  0  0  0  0  0  0
    4.7820   -0.0847   -0.5492 C   0  0  0  0  0  0  0  0  0  0  0  0
    6.0769    0.6363   -0.2799 C   0  0  0  0  0  0  0  0  0  0  0  0
    7.1901   -0.1014   -0.6837 O   0  0  0  0  0  0  0  0  0  0  0  0
    6.9666   -1.4469   -0.3691 C   0  0  0  0  0  0  0  0  0  0  0  0
    7.9137   -1.8993    0.7133 C   0  0  0  0  0  0  0  0  0  0  0  0
    9.1779   -1.3830    0.4638 O   0  0  0  0  0  0  0  0  0  0  0  0
    9.3071   -0.1178    1.0093 C   0  0  0  0  0  0  0  0  0  0  0  0
   10.4600    0.6334    0.3722 C   0  0  0  0  0  0  0  0  0  0  0  0
   10.6909    0.1475   -0.9119 O   0  0  0  0  0  0  0  0  0  0  0  0
   11.4556   -1.0063   -0.8852 C   0  0  0  0  0  0  0  0  0  0  0  0
   12.2907   -1.0301    0.3660 C   0  0  0  0  0  0  0  0  0  0  0  0
   13.3534   -0.1592    0.1898 O   0  0  0  0  0  0  0  0  0  0  0  0
   14.2689   -0.7147   -0.6870 C   0  0  0  0  0  0  0  0  0  0  0  0
   -5.5519    0.1673    2.2213 C   0  0  2  0  0  0  0  0  0  0  0  0
   -4.3703   -0.8075    2.1358 O   0  0  0  0  0  0  0  0  0  0  0  0
  1  2  2  0
  2  3  1  0
  3  4  1  0
  4  5  1  0
  5  6  1  0
  7  6  1  6
  7  8  1  0
  8  9  2  0
  9 10  1  0
 10 11  1  0
 10 12  2  0
 12 13  1  0
 13 14  2  0
 14 15  1  0
 16 15  1  1
 16 17  1  0
 17 18  1  6
 17 19  1  0
 19 20  1  0
 20 21  1  0
 21 22  1  6
 22 23  1  0
 23 24  1  0
 24 25  1  0
 25 26  1  0
 26 27  1  0
 27 28  1  0
 28 29  1  0
 29 30  1  0
 30 31  1  0
 31 32  1  0
 32 33  1  0
 33 34  1  0
 34 35  1  0
 35 36  1  0
 36 37  1  0
 37 38  1  0
 38 39  1  0
 39 40  1  0
 40 41  1  0
 41 42  1  0
 42 43  1  0
 43 44  1  0
 21 45  1  0
 45 46  1  6
 16  4  1  0
 17  7  1  0
 45  7  1  0
 14  8  1  0
 46  9  1  0
M  END
>  <supplier_code>  (1468) 
DB09049

>  <zinc_id>  (1468) 
ZINC000095564694

>  <catalog_short_name>  (1468) 
dbfda

$$$$

     RDKit          3D

 45 48  0  0  0  0  0  0  0  0999 V2000
    3.9896   -4.6090    1.0915 C   0  0  0  0  0  0  0  0  0  0  0  0
    4.5956   -3.4591    0.5625 N   0  0  0  0  0  0  0  0  0  0  0  0
    5.8653   -3.0954    0.8663 C   0  0  0  0  0  0  0  0  0  0  0  0
    6.8355   -3.8294    1.6253 N   0  0  0  0  0  0  0  0  0  0  0  0
    6.1415   -2.0062    0.0470 C   0  0  0  0  0  0  0  0  0  0  0  0
    7.2657   -1.1348    0.1191 N   0  0  0  0  0  0  0  0  0  0  0  0
    7.1905    0.2512   -0.1326 C   0  0  0  0  0  0  0  0  0  0  0  0
    6.1794    0.6695   -0.7589 O   0  0  0  0  0  0  0  0  0  0  0  0
    8.0498    1.2062    0.4304 N   0  0  0  0  0  0  0  0  0  0  0  0
    8.3085    2.4104   -0.3324 C   0  0  0  0  0  0  0  0  0  0  0  0
    7.6301    3.6199    0.2500 C   0  0  0  0  0  0  0  0  0  0  0  0
    7.1987    4.5034   -0.8173 N   0  0  0  0  0  0  0  0  0  0  0  0
    5.1142   -2.0275   -0.8900 C   0  0  0  0  0  0  0  0  0  0  0  0
    4.0564   -2.4786   -0.1662 N   0  0  0  0  0  0  0  0  0  0  0  0
    2.7131   -2.4671   -0.6756 C   0  0  0  0  0  0  0  0  0  0  0  0
    1.8785   -1.3670   -0.0952 C   0  0  0  0  0  0  0  0  0  0  0  0
    1.6362   -0.2881   -0.8415 C   0  0  0  0  0  0  0  0  0  0  0  0
    2.6604    0.1398   -1.8107 C   0  0  0  0  0  0  0  0  0  0  0  0
    3.4574    1.0938   -1.5455 O   0  0  0  0  0  0  0  0  0  0  0  0
    2.2589    0.1144   -3.1516 O   0  0  0  0  0  0  0  0  0  0  0  0
    0.3134    0.2537   -0.8468 N   0  0  0  0  0  0  0  0  0  0  0  0
   -0.6280    0.9848   -1.5905 C   0  0  0  0  0  0  0  0  0  0  0  0
   -0.6542    1.6906   -2.6436 O   0  0  0  0  0  0  0  0  0  0  0  0
   -1.4572    1.3000   -0.2297 C   0  0  1  0  0  0  0  0  0  0  0  0
   -2.1868   -0.1251   -0.2528 N   0  0  0  0  0  0  0  0  0  0  0  0
   -3.5794    0.0877   -0.5186 C   0  0  0  0  0  0  0  0  0  0  0  0
   -3.7247    0.4411   -1.7306 O   0  0  0  0  0  0  0  0  0  0  0  0
   -4.6727   -0.3791    0.3104 C   0  0  0  0  0  0  0  0  0  0  0  0
   -5.7496   -0.7407   -0.3283 N   0  0  0  0  0  0  0  0  0  0  0  0
   -6.0393   -0.2914   -1.6017 O   0  0  0  0  0  0  0  0  0  0  0  0
   -7.0775    0.5878   -1.9294 C   0  0  0  0  0  0  0  0  0  0  0  0
   -6.9417    0.8624   -3.4237 C   0  0  0  0  0  0  0  0  0  0  0  0
   -8.4151   -0.0252   -1.6337 C   0  0  0  0  0  0  0  0  0  0  0  0
   -7.0100    1.8927   -1.2468 C   0  0  0  0  0  0  0  0  0  0  0  0
   -6.1707    2.7783   -1.5917 O   0  0  0  0  0  0  0  0  0  0  0  0
   -7.5914    2.0259    0.0162 O   0  0  0  0  0  0  0  0  0  0  0  0
   -4.8310   -0.0040    1.7296 C   0  0  0  0  0  0  0  0  0  0  0  0
   -3.7129    0.2070    2.4712 N   0  0  0  0  0  0  0  0  0  0  0  0
   -4.3523    1.0419    3.8045 S   0  0  0  0  0  0  0  0  0  0  0  0
   -6.0141    0.9145    3.3836 C   0  0  0  0  0  0  0  0  0  0  0  0
   -7.1955    1.2126    4.1419 N   0  0  0  0  0  0  0  0  0  0  0  0
   -5.9160   -0.1039    2.4929 N   0  0  0  0  0  0  0  0  0  0  0  0
   -0.0186    0.8110    0.5289 C   0  0  1  0  0  0  0  0  0  0  0  0
   -0.4501   -0.8726    1.3101 S   0  0  0  0  0  0  0  0  0  0  0  0
    1.0499   -1.7961    1.0435 C   0  0  0  0  0  0  0  0  0  0  0  0
  1  2  1  0
  2  3  1  0
  3  4  1  0
  3  5  2  0
  5  6  1  0
  6  7  1  0
  7  8  2  0
  7  9  1  0
  9 10  1  0
 10 11  1  0
 11 12  1  0
  5 13  1  0
 13 14  2  0
 14 15  1  0
 15 16  1  0
 16 17  2  0
 17 18  1  0
 18 19  2  0
 18 20  1  0
 17 21  1  0
 21 22  1  0
 22 23  2  0
 22 24  1  0
 24 25  1  1
 25 26  1  0
 26 27  2  0
 26 28  1  0
 28 29  2  0
 29 30  1  0
 30 31  1  0
 31 32  1  0
 31 33  1  0
 31 34  1  0
 34 35  2  0
 34 36  1  0
 28 37  1  0
 37 38  2  0
 38 39  1  0
 39 40  1  0
 40 41  1  0
 40 42  2  0
 24 43  1  0
 43 44  1  1
 44 45  1  0
 14  2  1  0
 45 16  1  0
 43 21  1  0
 42 37  1  0
M  CHG  1  14   1
M  END
>  <supplier_code>  (1469) 
DB09050

>  <zinc_id>  (1469) 
ZINC000009164421

>  <catalog_short_name>  (1469) 
dbfda

$$$$

     RDKit          3D

 33 37  0  0  0  0  0  0  0  0999 V2000
   -6.5054    3.4816    0.3673 C   0  0  0  0  0  0  0  0  0  0  0  0
   -6.4701    2.6238    0.8786 C   0  0  0  0  0  0  0  0  0  0  0  0
   -6.0171    1.2838    0.4821 C   0  0  0  0  0  0  0  0  0  0  0  0
   -6.1882    1.0102   -0.7442 O   0  0  0  0  0  0  0  0  0  0  0  0
   -4.9089    0.6825    1.1164 N   0  0  0  0  0  0  0  0  0  0  0  0
   -5.1378    0.1897    2.4512 C   0  0  0  0  0  0  0  0  0  0  0  0
   -4.2416   -0.9512    2.8356 C   0  0  0  0  0  0  0  0  0  0  0  0
   -3.3698   -1.1896    1.6068 C   0  0  0  0  0  0  0  0  0  0  0  0
   -2.5417    0.2638    1.6189 C   0  0  1  0  0  0  0  0  0  0  0  0
   -1.5468   -0.1909    0.4584 N   0  0  0  0  0  0  0  0  0  0  0  0
   -0.3509   -0.6330    0.7941 N   0  0  0  0  0  0  0  0  0  0  0  0
    0.1321   -1.2823   -0.2938 C   0  0  0  0  0  0  0  0  0  0  0  0
    1.5572   -1.4701   -0.5977 C   0  0  0  0  0  0  0  0  0  0  0  0
    2.3572   -2.3469    0.1250 C   0  0  0  0  0  0  0  0  0  0  0  0
    3.6376   -1.9629    0.5086 C   0  0  0  0  0  0  0  0  0  0  0  0
    4.1336   -0.6898    0.2479 C   0  0  0  0  0  0  0  0  0  0  0  0
    4.7621    0.0452    1.2602 O   0  0  0  0  0  0  0  0  0  0  0  0
    5.7635    0.9602    0.9164 C   0  0  0  0  0  0  0  0  0  0  0  0
    5.5701    2.3231    1.0771 C   0  0  0  0  0  0  0  0  0  0  0  0
    6.6318    3.1202    0.6872 C   0  0  0  0  0  0  0  0  0  0  0  0
    7.8391    2.5679    0.3238 C   0  0  0  0  0  0  0  0  0  0  0  0
    7.8218    1.2764   -0.1665 C   0  0  0  0  0  0  0  0  0  0  0  0
    6.7360    0.4690    0.0542 C   0  0  0  0  0  0  0  0  0  0  0  0
    3.5150   -0.0666   -0.8318 C   0  0  0  0  0  0  0  0  0  0  0  0
    2.2516   -0.4644   -1.2599 C   0  0  0  0  0  0  0  0  0  0  0  0
   -0.7877   -1.1221   -1.3256 C   0  0  0  0  0  0  0  0  0  0  0  0
   -1.9540   -0.7961   -0.6396 C   0  0  0  0  0  0  0  0  0  0  0  0
   -3.0639   -0.6299   -1.3591 N   0  0  0  0  0  0  0  0  0  0  0  0
   -3.1083   -1.0520   -2.6410 C   0  0  0  0  0  0  0  0  0  0  0  0
   -2.1604   -1.9391   -3.0298 N   0  0  0  0  0  0  0  0  0  0  0  0
   -0.9404   -1.9416   -2.4378 C   0  0  0  0  0  0  0  0  0  0  0  0
    0.1993   -2.5365   -3.0345 N   0  0  0  0  0  0  0  0  0  0  0  0
   -3.6153    0.9678    0.5513 C   0  0  0  0  0  0  0  0  0  0  0  0
  1  2  2  0
  2  3  1  0
  3  4  2  0
  3  5  1  0
  5  6  1  0
  6  7  1  0
  7  8  1  0
  8  9  1  0
  9 10  1  6
 10 11  1  0
 11 12  2  0
 12 13  1  0
 13 14  2  0
 14 15  1  0
 15 16  2  0
 16 17  1  0
 17 18  1  0
 18 19  2  0
 19 20  1  0
 20 21  2  0
 21 22  1  0
 22 23  2  0
 16 24  1  0
 24 25  2  0
 12 26  1  0
 26 27  2  0
 27 28  1  0
 28 29  2  0
 29 30  1  0
 30 31  2  0
 31 32  1  0
  9 33  1  0
 33  5  1  0
 27 10  1  0
 25 13  1  0
 31 26  1  0
 23 18  1  0
M  END
>  <supplier_code>  (1470) 
DB09053

>  <zinc_id>  (1470) 
ZINC000035328014

>  <catalog_short_name>  (1470) 
dbfda

$$$$

     RDKit          3D

 31 35  0  0  0  0  0  0  0  0999 V2000
    0.8091   -0.0736   -2.4817 C   0  0  0  0  0  0  0  0  0  0  0  0
    1.1190    0.2973   -2.1553 C   0  0  0  0  0  0  0  0  0  0  0  0
    0.3751    1.2947   -1.0408 C   0  0  2  0  0  0  0  0  0  0  0  0
    1.7277    1.4452   -0.2102 N   0  0  0  0  0  0  0  0  0  0  0  0
    2.4120    0.2720    0.1114 C   0  0  0  0  0  0  0  0  0  0  0  0
    2.3076   -0.2078    1.3746 N   0  0  0  0  0  0  0  0  0  0  0  0
    3.3923   -0.5834    2.0970 C   0  0  0  0  0  0  0  0  0  0  0  0
    4.5934   -0.7650    1.5033 N   0  0  0  0  0  0  0  0  0  0  0  0
    4.5644   -0.7704    0.1470 C   0  0  0  0  0  0  0  0  0  0  0  0
    5.5966   -0.9854   -0.6985 N   0  0  0  0  0  0  0  0  0  0  0  0
    5.2348   -0.4347   -1.8830 C   0  0  0  0  0  0  0  0  0  0  0  0
    4.2667    0.4719   -1.6063 N   0  0  0  0  0  0  0  0  0  0  0  0
    3.6091   -0.0194   -0.5279 C   0  0  0  0  0  0  0  0  0  0  0  0
   -0.1949    0.0898   -0.0882 C   0  0  0  0  0  0  0  0  0  0  0  0
   -0.4497   -1.0635   -0.7142 N   0  0  0  0  0  0  0  0  0  0  0  0
   -1.4303   -1.9282   -0.4136 C   0  0  0  0  0  0  0  0  0  0  0  0
   -1.8585   -2.8165   -1.3947 C   0  0  0  0  0  0  0  0  0  0  0  0
   -3.0633   -3.4628   -1.2601 C   0  0  0  0  0  0  0  0  0  0  0  0
   -3.6893   -3.4321   -0.0239 C   0  0  0  0  0  0  0  0  0  0  0  0
   -3.3417   -2.4148    0.8500 C   0  0  0  0  0  0  0  0  0  0  0  0
   -4.0145   -2.2369    2.0072 F   0  0  0  0  0  0  0  0  0  0  0  0
   -2.1896   -1.6547    0.6902 C   0  0  0  0  0  0  0  0  0  0  0  0
   -2.0721   -0.3702    1.2120 C   0  0  0  0  0  0  0  0  0  0  0  0
   -3.0014    0.0139    1.9856 O   0  0  0  0  0  0  0  0  0  0  0  0
   -1.2236    0.5453    0.6751 N   0  0  0  0  0  0  0  0  0  0  0  0
   -1.6478    1.9018    0.7134 C   0  0  0  0  0  0  0  0  0  0  0  0
   -2.9661    2.2356    1.0122 C   0  0  0  0  0  0  0  0  0  0  0  0
   -3.5825    3.3536    0.4893 C   0  0  0  0  0  0  0  0  0  0  0  0
   -2.8418    4.2781   -0.2096 C   0  0  0  0  0  0  0  0  0  0  0  0
   -1.4988    4.0578   -0.3791 C   0  0  0  0  0  0  0  0  0  0  0  0
   -0.9417    2.9623    0.2189 C   0  0  0  0  0  0  0  0  0  0  0  0
  1  2  1  0
  3  2  1  6
  3  4  1  0
  4  5  1  0
  5  6  2  0
  6  7  1  0
  7  8  2  0
  8  9  1  0
  9 10  1  0
 10 11  1  0
 11 12  2  0
 12 13  1  0
  3 14  1  0
 14 15  2  0
 15 16  1  0
 16 17  2  0
 17 18  1  0
 18 19  2  0
 19 20  1  0
 20 21  1  0
 20 22  2  0
 22 23  1  0
 23 24  2  0
 23 25  1  0
 25 26  1  0
 26 27  2  0
 27 28  1  0
 28 29  2  0
 29 30  1  0
 30 31  2  0
 13  5  1  0
 25 14  1  0
 31 26  1  0
 13  9  2  0
 22 16  1  0
M  END
>  <supplier_code>  (1471) 
DB09054

>  <zinc_id>  (1471) 
ZINC000013986658

>  <catalog_short_name>  (1471) 
dbfda

$$$$

     RDKit          3D

 17 18  0  0  0  0  0  0  0  0999 V2000
   -2.9610   -0.2612   -0.9956 N   0  0  0  0  0  0  0  0  0  0  0  0
   -3.2193   -0.1653   -0.5424 C   0  0  0  0  0  0  0  0  0  0  0  0
   -4.1350   -1.0035   -0.2646 O   0  0  0  0  0  0  0  0  0  0  0  0
   -2.5658    0.4109    0.8240 C   0  0  2  0  0  0  0  0  0  0  0  0
   -1.6267    1.4920    0.0301 C   0  0  0  0  0  0  0  0  0  0  0  0
   -0.8566    1.0553   -0.9554 C   0  0  0  0  0  0  0  0  0  0  0  0
    0.0962   -0.2557   -0.9860 C   0  0  2  0  0  0  0  0  0  0  0  0
   -1.0056   -1.2770   -0.3224 C   0  0  0  0  0  0  0  0  0  0  0  0
   -1.3662   -0.6124    0.8577 N   0  0  0  0  0  0  0  0  0  0  0  0
   -0.0648   -0.3166    1.4049 C   0  0  0  0  0  0  0  0  0  0  0  0
    0.1010    0.1373    2.5807 O   0  0  0  0  0  0  0  0  0  0  0  0
    0.8519   -0.0026    0.3775 N   0  0  0  0  0  0  0  0  0  0  0  0
    2.0446   -0.6787    0.4100 O   0  0  0  0  0  0  0  0  0  0  0  0
    3.3084    0.1725   -0.1831 S   0  0  0  0  0  0  0  0  0  0  0  0
    2.9259    1.1037   -1.2802 O   0  0  0  0  0  0  0  0  0  0  0  0
    4.3189   -0.8092   -0.7401 O   0  0  0  0  0  0  0  0  0  0  0  0
    4.1541    1.0105    1.0182 O   0  0  0  0  0  0  0  0  0  0  0  0
  1  2  1  0
  2  3  2  0
  4  2  1  6
  4  5  1  0
  5  6  1  0
  7  6  1  1
  7  8  1  0
  8  9  1  0
  9 10  1  0
 10 11  2  0
 10 12  1  0
 12 13  1  0
 13 14  1  0
 14 15  2  0
 14 16  2  0
 14 17  1  0
  9  4  1  0
 12  7  1  0
M  END
>  <supplier_code>  (1472) 
DB09060

>  <zinc_id>  (1472) 
ZINC000009302239

>  <catalog_short_name>  (1472) 
dbfda

$$$$

     RDKit          3D

 38 41  0  0  0  0  0  0  0  0999 V2000
   -4.6490    1.0167   -3.0699 C   0  0  0  0  0  0  0  0  0  0  0  0
   -3.9320    1.0955   -1.7595 C   0  0  0  0  0  0  0  0  0  0  0  0
   -2.6772    1.6868   -1.7244 C   0  0  0  0  0  0  0  0  0  0  0  0
   -2.1009    2.1278   -0.5414 C   0  0  0  0  0  0  0  0  0  0  0  0
   -0.6761    2.0642   -0.3951 N   0  0  0  0  0  0  0  0  0  0  0  0
   -0.0186    0.7921   -0.4464 C   0  0  0  0  0  0  0  0  0  0  0  0
   -0.7220   -0.3630   -0.5196 N   0  0  0  0  0  0  0  0  0  0  0  0
   -0.4075   -1.4523    0.2225 C   0  0  0  0  0  0  0  0  0  0  0  0
    0.8148   -1.4607    0.8805 C   0  0  0  0  0  0  0  0  0  0  0  0
    1.0541   -2.3207    2.3956 Cl  0  0  0  0  0  0  0  0  0  0  0  0
    1.6914   -0.4268    0.5733 C   0  0  0  0  0  0  0  0  0  0  0  0
    3.0777   -0.6974    0.8060 N   0  0  0  0  0  0  0  0  0  0  0  0
    3.7702   -1.7533    0.1350 C   0  0  0  0  0  0  0  0  0  0  0  0
    3.2414   -3.0201   -0.0098 C   0  0  0  0  0  0  0  0  0  0  0  0
    3.9996   -4.1082   -0.4212 C   0  0  0  0  0  0  0  0  0  0  0  0
    5.3746   -3.9872   -0.2669 C   0  0  0  0  0  0  0  0  0  0  0  0
    5.9125   -2.7153   -0.2441 C   0  0  0  0  0  0  0  0  0  0  0  0
    5.1336   -1.5800   -0.0610 C   0  0  0  0  0  0  0  0  0  0  0  0
    5.7089   -0.0159   -0.5543 S   0  0  0  0  0  0  0  0  0  0  0  0
    4.7467    0.6850   -1.4606 O   0  0  0  0  0  0  0  0  0  0  0  0
    6.9868   -0.2059   -1.3408 O   0  0  0  0  0  0  0  0  0  0  0  0
    6.0474    1.0205    0.8415 C   0  0  0  0  0  0  0  0  0  0  0  0
    5.1788    2.2530    0.8646 C   0  0  0  0  0  0  0  0  0  0  0  0
    7.4926    1.4243    0.9243 C   0  0  0  0  0  0  0  0  0  0  0  0
    1.2698    0.7072   -0.0367 N   0  0  0  0  0  0  0  0  0  0  0  0
   -2.8663    1.9350    0.6025 C   0  0  0  0  0  0  0  0  0  0  0  0
   -2.4797    2.6623    1.7243 O   0  0  0  0  0  0  0  0  0  0  0  0
   -2.5073    4.0827    1.6317 C   0  0  0  0  0  0  0  0  0  0  0  0
   -1.0755    4.5637    1.7185 C   0  0  0  0  0  0  0  0  0  0  0  0
   -3.0780    4.5337    0.2932 C   0  0  0  0  0  0  0  0  0  0  0  0
   -4.0379    1.1883    0.5920 C   0  0  0  0  0  0  0  0  0  0  0  0
   -4.5011    0.6505   -0.5876 C   0  0  0  0  0  0  0  0  0  0  0  0
   -5.5582   -0.3744   -0.6643 C   0  0  0  0  0  0  0  0  0  0  0  0
   -6.2667   -0.6392    0.6048 C   0  0  0  0  0  0  0  0  0  0  0  0
   -6.6101   -2.0552    0.8982 C   0  0  0  0  0  0  0  0  0  0  0  0
   -6.7191   -2.8960   -0.2744 N   0  0  0  0  0  0  0  0  0  0  0  0
   -5.3903   -2.8805   -0.8830 C   0  0  0  0  0  0  0  0  0  0  0  0
   -5.2273   -1.5372   -1.5173 C   0  0  0  0  0  0  0  0  0  0  0  0
  1  2  1  0
  2  3  2  0
  3  4  1  0
  4  5  1  0
  5  6  1  0
  6  7  2  0
  7  8  1  0
  8  9  2  0
  9 10  1  0
  9 11  1  0
 11 12  1  0
 12 13  1  0
 13 14  2  0
 14 15  1  0
 15 16  2  0
 16 17  1  0
 17 18  2  0
 18 19  1  0
 19 20  2  0
 19 21  2  0
 19 22  1  0
 22 23  1  0
 22 24  1  0
 11 25  2  0
  4 26  2  0
 26 27  1  0
 27 28  1  0
 28 29  1  0
 28 30  1  0
 26 31  1  0
 31 32  2  0
 32 33  1  0
 33 34  1  0
 34 35  1  0
 35 36  1  0
 36 37  1  0
 37 38  1  0
 32  2  1  0
 38 33  1  0
 25  6  1  0
 18 13  1  0
M  END
>  <supplier_code>  (1473) 
DB09063

>  <zinc_id>  (1473) 
ZINC000096272772

>  <catalog_short_name>  (1473) 
dbfda

$$$$

     RDKit          3D

 54 58  0  0  0  0  0  0  0  0999 V2000
   -9.8645    3.6277    0.2939 C   0  0  0  0  0  0  0  0  0  0  0  0
   -9.4860    3.6267    0.1270 C   0  0  0  0  0  0  0  0  0  0  0  0
   -8.6424    4.8509   -0.2045 C   0  0  0  0  0  0  0  0  0  0  0  0
   -8.6815    2.4008   -0.1756 C   0  0  0  0  0  0  0  0  0  0  0  0
   -7.3342    2.3293   -0.3014 N   0  0  0  0  0  0  0  0  0  0  0  0
   -6.9538    1.1526   -0.8278 C   0  0  0  0  0  0  0  0  0  0  0  0
   -5.6017    0.9951   -1.4562 C   0  0  0  0  0  0  0  0  0  0  0  0
   -4.7381    2.1169   -1.1836 N   0  0  0  0  0  0  0  0  0  0  0  0
   -5.2010    3.4417   -1.5349 C   0  0  0  0  0  0  0  0  0  0  0  0
   -3.7794    2.0198   -0.1226 C   0  0  0  0  0  0  0  0  0  0  0  0
   -4.0724    2.5634    0.9638 O   0  0  0  0  0  0  0  0  0  0  0  0
   -2.8251    0.9891   -0.2366 N   0  0  0  0  0  0  0  0  0  0  0  0
   -2.1800    0.5061    1.1309 C   0  0  1  0  0  0  0  0  0  0  0  0
   -2.4672   -1.0953    0.8352 C   0  0  0  0  0  0  0  0  0  0  0  0
   -2.4417   -1.3227   -0.6178 C   0  0  0  0  0  0  0  0  0  0  0  0
   -2.8346   -2.6093   -0.9306 N   0  0  0  0  0  0  0  0  0  0  0  0
   -4.1767   -2.9050   -1.2324 C   0  0  0  0  0  0  0  0  0  0  0  0
   -4.5845   -4.0932   -0.3676 C   0  0  0  0  0  0  0  0  0  0  0  0
   -3.7135   -5.1614   -0.5837 O   0  0  0  0  0  0  0  0  0  0  0  0
   -2.4012   -4.8661   -0.2688 C   0  0  0  0  0  0  0  0  0  0  0  0
   -1.8856   -3.6456   -1.0224 C   0  0  0  0  0  0  0  0  0  0  0  0
   -0.6857    0.5431    0.5011 C   0  0  0  0  0  0  0  0  0  0  0  0
   -0.0559    1.5378    0.9783 O   0  0  0  0  0  0  0  0  0  0  0  0
   -0.0261   -0.5956    0.1372 N   0  0  0  0  0  0  0  0  0  0  0  0
    1.4723   -0.7919    0.5916 C   0  0  2  0  0  0  0  0  0  0  0  0
    1.9214    0.6585   -0.0541 C   0  0  0  0  0  0  0  0  0  0  0  0
    3.1028    0.9374    0.8701 C   0  0  0  0  0  0  0  0  0  0  0  0
    4.3125    0.0983    0.1261 C   0  0  2  0  0  0  0  0  0  0  0  0
    4.8411   -0.5248    1.5591 C   0  0  0  0  0  0  0  0  0  0  0  0
    5.1506   -1.9458    1.2751 C   0  0  0  0  0  0  0  0  0  0  0  0
    4.4538   -3.0098    1.7800 C   0  0  0  0  0  0  0  0  0  0  0  0
    4.4841   -4.2415    1.1661 C   0  0  0  0  0  0  0  0  0  0  0  0
    5.4627   -4.4823    0.2263 C   0  0  0  0  0  0  0  0  0  0  0  0
    6.3002   -3.4767   -0.1719 C   0  0  0  0  0  0  0  0  0  0  0  0
    6.1013   -2.2013    0.3115 C   0  0  0  0  0  0  0  0  0  0  0  0
    5.2965    1.3304    0.2253 N   0  0  0  0  0  0  0  0  0  0  0  0
    5.3069    2.0073   -1.0368 C   0  0  0  0  0  0  0  0  0  0  0  0
    5.5351    1.3673   -2.1076 O   0  0  0  0  0  0  0  0  0  0  0  0
    5.4022    3.3902   -1.1639 O   0  0  0  0  0  0  0  0  0  0  0  0
    6.4315    4.0053   -1.9387 C   0  0  0  0  0  0  0  0  0  0  0  0
    7.3370    4.6589   -0.9426 C   0  0  0  0  0  0  0  0  0  0  0  0
    7.8060    4.1385    0.2591 C   0  0  0  0  0  0  0  0  0  0  0  0
    8.1895    5.1079    1.0912 N   0  0  0  0  0  0  0  0  0  0  0  0
    9.0608    5.9606    0.4965 C   0  0  0  0  0  0  0  0  0  0  0  0
    8.4014    5.9976   -1.0898 S   0  0  0  0  0  0  0  0  0  0  0  0
    1.8546   -1.5932   -0.7989 C   0  0  0  0  0  0  0  0  0  0  0  0
    1.1872   -2.9046   -0.6283 C   0  0  0  0  0  0  0  0  0  0  0  0
    0.7790   -3.6506   -1.7215 C   0  0  0  0  0  0  0  0  0  0  0  0
    0.4024   -4.9717   -1.5426 C   0  0  0  0  0  0  0  0  0  0  0  0
   -0.2392   -5.2893   -0.3581 C   0  0  0  0  0  0  0  0  0  0  0  0
   -0.0495   -4.4790    0.7318 C   0  0  0  0  0  0  0  0  0  0  0  0
    0.8152   -3.4020    0.6126 C   0  0  0  0  0  0  0  0  0  0  0  0
   -7.5023    0.0928   -0.1092 C   0  0  0  0  0  0  0  0  0  0  0  0
   -8.9846    0.8062    0.3891 S   0  0  0  0  0  0  0  0  0  0  0  0
  1  2  1  0
  2  3  1  0
  2  4  1  0
  4  5  2  0
  5  6  1  0
  6  7  1  0
  7  8  1  0
  8  9  1  0
  8 10  1  0
 10 11  2  0
 10 12  1  0
 13 12  1  6
 13 14  1  0
 14 15  1  0
 15 16  1  0
 16 17  1  0
 17 18  1  0
 18 19  1  0
 19 20  1  0
 20 21  1  0
 13 22  1  0
 22 23  2  0
 22 24  1  0
 25 24  1  6
 25 26  1  0
 26 27  1  0
 28 27  1  1
 28 29  1  0
 29 30  1  0
 30 31  2  0
 31 32  1  0
 32 33  2  0
 33 34  1  0
 34 35  2  0
 28 36  1  0
 36 37  1  0
 37 38  2  0
 37 39  1  0
 39 40  1  0
 40 41  1  0
 41 42  2  0
 42 43  1  0
 43 44  2  0
 44 45  1  0
 25 46  1  0
 46 47  1  0
 47 48  2  0
 48 49  1  0
 49 50  2  0
 50 51  1  0
 51 52  2  0
  6 53  2  0
 53 54  1  0
 54  4  1  0
 21 16  1  0
 35 30  1  0
 45 41  1  0
 52 47  1  0
M  END
>  <supplier_code>  (1474) 
DB09065

>  <zinc_id>  (1474) 
ZINC000085537014

>  <catalog_short_name>  (1474) 
dbfda

$$$$

     RDKit          3D

 21 23  0  0  0  0  0  0  0  0999 V2000
   -5.7649    0.4104    1.2584 C   0  0  0  0  0  0  0  0  0  0  0  0
   -4.4063    0.0839    0.7369 C   0  0  0  0  0  0  0  0  0  0  0  0
   -3.2967    0.3204    1.5360 C   0  0  0  0  0  0  0  0  0  0  0  0
   -2.0399    0.2270    0.9786 C   0  0  0  0  0  0  0  0  0  0  0  0
   -1.9095   -0.6678   -0.0769 C   0  0  0  0  0  0  0  0  0  0  0  0
   -0.2947   -0.8565   -0.8416 S   0  0  0  0  0  0  0  0  0  0  0  0
    0.5512    0.7202   -0.6808 C   0  0  0  0  0  0  0  0  0  0  0  0
    0.0590    1.8382   -1.3431 C   0  0  0  0  0  0  0  0  0  0  0  0
    0.8224    2.9978   -1.3015 C   0  0  0  0  0  0  0  0  0  0  0  0
    2.1864    2.8479   -1.0868 C   0  0  0  0  0  0  0  0  0  0  0  0
    2.6378    1.7955   -0.3153 C   0  0  0  0  0  0  0  0  0  0  0  0
    1.7082    0.8409    0.0788 C   0  0  0  0  0  0  0  0  0  0  0  0
    2.2405   -0.3936    0.5753 N   0  0  0  0  0  0  0  0  0  0  0  0
    2.3554   -1.4906   -0.3743 C   0  0  0  0  0  0  0  0  0  0  0  0
    3.6416   -2.2515   -0.1579 C   0  0  0  0  0  0  0  0  0  0  0  0
    4.6231   -1.4980    0.5784 N   0  0  0  0  0  0  0  0  0  0  0  0
    4.1829   -1.0816    1.8813 C   0  0  0  0  0  0  0  0  0  0  0  0
    2.7778   -0.5424    1.9034 C   0  0  0  0  0  0  0  0  0  0  0  0
   -3.0010   -0.8282   -0.9155 C   0  0  0  0  0  0  0  0  0  0  0  0
   -2.8364   -1.7165   -2.1050 C   0  0  0  0  0  0  0  0  0  0  0  0
   -4.2369   -0.7554   -0.3284 C   0  0  0  0  0  0  0  0  0  0  0  0
  1  2  1  0
  2  3  2  0
  3  4  1  0
  4  5  2  0
  5  6  1  0
  6  7  1  0
  7  8  2  0
  8  9  1  0
  9 10  2  0
 10 11  1  0
 11 12  2  0
 12 13  1  0
 13 14  1  0
 14 15  1  0
 15 16  1  0
 16 17  1  0
 17 18  1  0
  5 19  1  0
 19 20  1  0
 19 21  2  0
 21  2  1  0
 12  7  1  0
 18 13  1  0
M  END
>  <supplier_code>  (1475) 
DB09068

>  <zinc_id>  (1475) 
ZINC000034051848

>  <catalog_short_name>  (1475) 
dbfda

$$$$

     RDKit          3D

 18 20  0  0  0  0  0  0  0  0999 V2000
    4.2685    1.4938    0.4981 C   0  0  0  0  0  0  0  0  0  0  0  0
    4.6944    0.6853    0.2854 C   0  0  0  0  0  0  0  0  0  0  0  0
    3.9932   -0.6148    0.2463 C   0  0  0  0  0  0  0  0  0  0  0  0
    4.4933   -1.5761    0.8751 O   0  0  0  0  0  0  0  0  0  0  0  0
    3.0620   -1.0055   -0.7702 N   0  0  0  0  0  0  0  0  0  0  0  0
    1.8805   -1.7144   -0.2684 C   0  0  0  0  0  0  0  0  0  0  0  0
    0.8838   -0.3708   -0.2302 C   0  0  2  0  0  0  0  0  0  0  0  0
    1.0769   -0.1978    1.5001 C   0  0  0  0  0  0  0  0  0  0  0  0
   -0.2708   -1.1094    0.8575 C   0  0  1  0  0  0  0  0  0  0  0  0
   -1.3446    0.1458    0.8375 C   0  0  0  0  0  0  0  0  0  0  0  0
   -0.9242    1.3991    0.8305 C   0  0  0  0  0  0  0  0  0  0  0  0
   -1.8460    2.4008    0.5514 C   0  0  0  0  0  0  0  0  0  0  0  0
   -2.6576    2.1197   -0.5366 C   0  0  0  0  0  0  0  0  0  0  0  0
   -3.1419    0.8171   -0.5891 C   0  0  0  0  0  0  0  0  0  0  0  0
   -2.4139   -0.1955    0.0122 C   0  0  0  0  0  0  0  0  0  0  0  0
   -3.1327   -1.4688   -0.1772 C   0  0  0  0  0  0  0  0  0  0  0  0
   -4.3893   -1.0861   -0.9356 C   0  0  0  0  0  0  0  0  0  0  0  0
   -4.2315    0.2775   -1.2473 O   0  0  0  0  0  0  0  0  0  0  0  0
  1  2  1  0
  2  3  1  0
  3  4  2  0
  3  5  1  0
  5  6  1  0
  7  6  1  1
  7  8  1  0
  8  9  1  0
  9 10  1  6
 10 11  2  0
 11 12  1  0
 12 13  2  0
 13 14  1  0
 14 15  2  0
 15 16  1  0
 16 17  1  0
 17 18  1  0
  9  7  1  0
 15 10  1  0
 18 14  1  0
M  END
>  <supplier_code>  (1476) 
DB09071

>  <zinc_id>  (1476) 
ZINC000004392649

>  <catalog_short_name>  (1476) 
dbfda

$$$$

     RDKit          3D

  7  6  0  0  0  0  0  0  0  0999 V2000
   -1.7281   -0.1791    1.0781 O   0  0  0  0  0  0  0  0  0  0  0  0
   -1.2604    0.0366   -0.0745 C   0  0  0  0  0  0  0  0  0  0  0  0
   -1.2723   -1.0616   -0.9320 O   0  0  0  0  0  0  0  0  0  0  0  0
   -0.5035    1.2792   -0.4045 C   0  0  0  0  0  0  0  0  0  0  0  0
    0.9699    1.0530   -0.1011 C   0  0  0  0  0  0  0  0  0  0  0  0
    1.2511   -0.3562    0.3483 C   0  0  0  0  0  0  0  0  0  0  0  0
    2.5433   -0.7719    0.0857 O   0  0  0  0  0  0  0  0  0  0  0  0
  1  2  2  0
  2  3  1  0
  2  4  1  0
  4  5  1  0
  5  6  1  0
  6  7  1  0
M  END
>  <supplier_code>  (1477) 
DB09072

>  <zinc_id>  (1477) 
ZINC000001532805

>  <catalog_short_name>  (1477) 
dbfda

$$$$

     RDKit          3D

 33 37  0  0  0  0  0  0  0  0999 V2000
   -6.4334    0.6392    2.5244 C   0  0  0  0  0  0  0  0  0  0  0  0
   -5.9982   -0.3826    1.5274 C   0  0  0  0  0  0  0  0  0  0  0  0
   -6.8940   -0.7726    0.7205 O   0  0  0  0  0  0  0  0  0  0  0  0
   -4.6453   -0.3047    1.0112 C   0  0  0  0  0  0  0  0  0  0  0  0
   -3.7321   -1.3117    1.2508 C   0  0  0  0  0  0  0  0  0  0  0  0
   -4.1768   -2.6150    1.8077 C   0  0  0  0  0  0  0  0  0  0  0  0
   -2.5017   -1.1968    0.6394 C   0  0  0  0  0  0  0  0  0  0  0  0
   -1.6149   -2.2318    0.8456 C   0  0  0  0  0  0  0  0  0  0  0  0
   -0.3973   -2.1018    0.2819 N   0  0  0  0  0  0  0  0  0  0  0  0
   -0.2385   -1.3123   -0.8088 C   0  0  0  0  0  0  0  0  0  0  0  0
    1.1213   -1.1346   -1.2248 N   0  0  0  0  0  0  0  0  0  0  0  0
    2.0260   -0.7549   -0.1812 C   0  0  0  0  0  0  0  0  0  0  0  0
    2.4083    0.5589    0.0267 C   0  0  0  0  0  0  0  0  0  0  0  0
    3.7206    0.7915    0.4195 C   0  0  0  0  0  0  0  0  0  0  0  0
    4.5852   -0.2603    0.6967 C   0  0  0  0  0  0  0  0  0  0  0  0
    5.9728   -0.2164    0.3507 N   0  0  0  0  0  0  0  0  0  0  0  0
    6.3119   -0.2506   -1.0654 C   0  0  0  0  0  0  0  0  0  0  0  0
    7.5424    0.6011   -1.2558 C   0  0  0  0  0  0  0  0  0  0  0  0
    8.6342    0.1374   -0.4326 N   0  0  0  0  0  0  0  0  0  0  0  0
    8.3173    0.1490    0.9745 C   0  0  0  0  0  0  0  0  0  0  0  0
    7.0129   -0.5229    1.2995 C   0  0  0  0  0  0  0  0  0  0  0  0
    3.9646   -1.4851    0.9106 C   0  0  0  0  0  0  0  0  0  0  0  0
    2.6626   -1.6708    0.5836 N   0  0  0  0  0  0  0  0  0  0  0  0
   -1.1834   -0.4381   -1.2088 N   0  0  0  0  0  0  0  0  0  0  0  0
   -2.2690   -0.3202   -0.4074 C   0  0  0  0  0  0  0  0  0  0  0  0
   -3.1222    0.7261   -0.5037 N   0  0  0  0  0  0  0  0  0  0  0  0
   -3.0411    1.5241   -1.7117 C   0  0  0  0  0  0  0  0  0  0  0  0
   -1.5751    1.6947   -2.0265 C   0  0  0  0  0  0  0  0  0  0  0  0
   -1.2004    3.1031   -1.6354 C   0  0  0  0  0  0  0  0  0  0  0  0
   -2.4865    3.8804   -1.6160 C   0  0  0  0  0  0  0  0  0  0  0  0
   -3.6084    2.8933   -1.4635 C   0  0  0  0  0  0  0  0  0  0  0  0
   -4.2539    0.7515    0.2052 C   0  0  0  0  0  0  0  0  0  0  0  0
   -4.9081    1.8331    0.3065 O   0  0  0  0  0  0  0  0  0  0  0  0
  1  2  1  0
  2  3  2  0
  2  4  1  0
  4  5  2  0
  5  6  1  0
  5  7  1  0
  7  8  2  0
  8  9  1  0
  9 10  2  0
 10 11  1  0
 11 12  1  0
 12 13  2  0
 13 14  1  0
 14 15  2  0
 15 16  1  0
 16 17  1  0
 17 18  1  0
 18 19  1  0
 19 20  1  0
 20 21  1  0
 15 22  1  0
 22 23  2  0
 10 24  1  0
 24 25  2  0
 25 26  1  0
 26 27  1  0
 27 28  1  0
 28 29  1  0
 29 30  1  0
 30 31  1  0
 26 32  1  0
 32 33  2  0
 32  4  1  0
 25  7  1  0
 31 27  1  0
 23 12  1  0
 21 16  1  0
M  END
>  <supplier_code>  (1478) 
DB09073

>  <zinc_id>  (1478) 
ZINC000003938686

>  <catalog_short_name>  (1478) 
dbfda

$$$$

     RDKit          3D

 32 36  0  0  0  0  0  0  0  0999 V2000
    1.8491   -2.9719   -1.0158 O   0  0  0  0  0  0  0  0  0  0  0  0
    1.9372   -1.9272   -0.3027 C   0  0  0  0  0  0  0  0  0  0  0  0
    0.7475   -1.2089    0.1030 C   0  0  0  0  0  0  0  0  0  0  0  0
   -0.4909   -1.6704   -0.3260 C   0  0  0  0  0  0  0  0  0  0  0  0
   -1.6466   -1.0070    0.0401 C   0  0  0  0  0  0  0  0  0  0  0  0
   -2.7973   -0.9462   -0.9129 C   0  0  0  0  0  0  0  0  0  0  0  0
   -4.0614   -0.5887   -0.2458 C   0  0  0  0  0  0  0  0  0  0  0  0
   -5.0806   -1.4785   -0.1609 N   0  0  0  0  0  0  0  0  0  0  0  0
   -6.3462   -1.1322   -0.2882 N   0  0  0  0  0  0  0  0  0  0  0  0
   -6.7118    0.1105    0.1106 C   0  0  0  0  0  0  0  0  0  0  0  0
   -7.8854    0.3638    0.5039 O   0  0  0  0  0  0  0  0  0  0  0  0
   -5.7016    1.0512    0.2694 C   0  0  0  0  0  0  0  0  0  0  0  0
   -5.9990    2.3465    0.6735 C   0  0  0  0  0  0  0  0  0  0  0  0
   -4.9585    3.2581    0.6696 C   0  0  0  0  0  0  0  0  0  0  0  0
   -3.8468    3.0534   -0.1234 C   0  0  0  0  0  0  0  0  0  0  0  0
   -3.6290    1.7737   -0.6195 C   0  0  0  0  0  0  0  0  0  0  0  0
   -4.4158    0.7398   -0.1536 C   0  0  0  0  0  0  0  0  0  0  0  0
   -1.5027   -0.0987    1.0818 C   0  0  0  0  0  0  0  0  0  0  0  0
   -0.2755    0.4996    1.3436 C   0  0  0  0  0  0  0  0  0  0  0  0
    0.8823    0.0118    0.7497 C   0  0  0  0  0  0  0  0  0  0  0  0
    1.9240    0.8282    0.4180 F   0  0  0  0  0  0  0  0  0  0  0  0
    3.2376   -1.5085    0.1253 N   0  0  0  0  0  0  0  0  0  0  0  0
    4.3072   -1.7066   -0.8504 C   0  0  0  0  0  0  0  0  0  0  0  0
    5.6673   -1.7323   -0.2079 C   0  0  0  0  0  0  0  0  0  0  0  0
    5.6449   -0.6924    0.8188 N   0  0  0  0  0  0  0  0  0  0  0  0
    5.6662    0.6537    0.3305 C   0  0  0  0  0  0  0  0  0  0  0  0
    4.9157    1.5447    0.8312 O   0  0  0  0  0  0  0  0  0  0  0  0
    6.2526    0.9813   -1.0011 C   0  0  0  0  0  0  0  0  0  0  0  0
    6.3920    2.4192   -1.3550 C   0  0  0  0  0  0  0  0  0  0  0  0
    7.6435    1.6525   -0.8642 C   0  0  0  0  0  0  0  0  0  0  0  0
    4.7868   -0.9832    1.9650 C   0  0  0  0  0  0  0  0  0  0  0  0
    3.4953   -1.6354    1.5562 C   0  0  0  0  0  0  0  0  0  0  0  0
  1  2  2  0
  2  3  1  0
  3  4  2  0
  4  5  1  0
  5  6  1  0
  6  7  1  0
  7  8  2  0
  8  9  1  0
  9 10  1  0
 10 11  2  0
 10 12  1  0
 12 13  2  0
 13 14  1  0
 14 15  2  0
 15 16  1  0
 16 17  2  0
  5 18  2  0
 18 19  1  0
 19 20  2  0
 20 21  1  0
  2 22  1  0
 22 23  1  0
 23 24  1  0
 24 25  1  0
 25 26  1  0
 26 27  2  0
 26 28  1  0
 28 29  1  0
 29 30  1  0
 25 31  1  0
 31 32  1  0
 20  3  1  0
 32 22  1  0
 17  7  1  0
 30 28  1  0
 17 12  1  0
M  END
>  <supplier_code>  (1479) 
DB09074

>  <zinc_id>  (1479) 
ZINC000040430143

>  <catalog_short_name>  (1479) 
dbfda

$$$$

     RDKit          3D

 37 40  0  0  0  0  0  0  0  0999 V2000
    1.4139    5.7040   -1.1046 C   0  0  0  0  0  0  0  0  0  0  0  0
    0.9326    5.5815   -0.7899 N   0  0  0  0  0  0  0  0  0  0  0  0
   -0.3068    6.3185   -1.0640 C   0  0  0  0  0  0  0  0  0  0  0  0
    0.9608    4.8814    0.4505 C   0  0  0  0  0  0  0  0  0  0  0  0
    1.6814    5.3117    1.3860 O   0  0  0  0  0  0  0  0  0  0  0  0
    1.2100    3.2939    0.3291 C   0  0  1  0  0  0  0  0  0  0  0  0
    0.3097    3.0223    1.6708 C   0  0  0  0  0  0  0  0  0  0  0  0
    0.0510    1.5692    1.6152 C   0  0  0  0  0  0  0  0  0  0  0  0
   -1.1595    1.3588    0.5452 C   0  0  2  0  0  0  0  0  0  0  0  0
   -0.9821   -0.1956    0.5483 N   0  0  0  0  0  0  0  0  0  0  0  0
   -1.7776   -0.9053   -0.3868 C   0  0  0  0  0  0  0  0  0  0  0  0
   -1.9036   -0.3333   -1.5127 O   0  0  0  0  0  0  0  0  0  0  0  0
   -2.7304   -1.9530    0.0034 C   0  0  0  0  0  0  0  0  0  0  0  0
   -2.9113   -2.2849    1.2127 O   0  0  0  0  0  0  0  0  0  0  0  0
   -3.7067   -2.4428   -0.8871 N   0  0  0  0  0  0  0  0  0  0  0  0
   -5.1065   -2.5095   -0.5682 C   0  0  0  0  0  0  0  0  0  0  0  0
   -5.5670   -2.6580    0.7201 C   0  0  0  0  0  0  0  0  0  0  0  0
   -6.7995   -2.1297    1.0941 C   0  0  0  0  0  0  0  0  0  0  0  0
   -7.5455   -1.3703    0.2002 C   0  0  0  0  0  0  0  0  0  0  0  0
   -8.6856   -0.1938    0.8446 Cl  0  0  0  0  0  0  0  0  0  0  0  0
   -7.0738   -1.2832   -1.0772 C   0  0  0  0  0  0  0  0  0  0  0  0
   -5.8451   -1.7007   -1.3702 N   0  0  0  0  0  0  0  0  0  0  0  0
   -0.2301    1.5163   -0.8956 C   0  0  2  0  0  0  0  0  0  0  0  0
    1.1362    1.0256   -0.3100 N   0  0  0  0  0  0  0  0  0  0  0  0
    1.6285   -0.2040   -0.7785 C   0  0  0  0  0  0  0  0  0  0  0  0
    1.4564   -0.4935   -2.0017 O   0  0  0  0  0  0  0  0  0  0  0  0
    2.7486   -0.8215   -0.0505 C   0  0  0  0  0  0  0  0  0  0  0  0
    4.0001   -0.3933    0.1296 N   0  0  0  0  0  0  0  0  0  0  0  0
    4.9266   -1.3324   -0.0106 C   0  0  0  0  0  0  0  0  0  0  0  0
    4.6081   -2.5052    0.6638 C   0  0  0  0  0  0  0  0  0  0  0  0
    2.8915   -2.3650    0.6945 S   0  0  0  0  0  0  0  0  0  0  0  0
    5.4850   -3.7172    0.6287 C   0  0  0  0  0  0  0  0  0  0  0  0
    6.5355   -3.6483   -0.3341 N   0  0  0  0  0  0  0  0  0  0  0  0
    7.7541   -3.2850    0.3875 C   0  0  0  0  0  0  0  0  0  0  0  0
    6.3661   -2.6592   -1.3607 C   0  0  0  0  0  0  0  0  0  0  0  0
    6.2938   -1.3183   -0.6341 C   0  0  0  0  0  0  0  0  0  0  0  0
   -0.0590    3.1197   -0.6711 C   0  0  0  0  0  0  0  0  0  0  0  0
  1  2  1  0
  2  3  1  0
  2  4  1  0
  4  5  2  0
  6  4  1  1
  6  7  1  0
  7  8  1  0
  8  9  1  0
  9 10  1  1
 10 11  1  0
 11 12  2  0
 11 13  1  0
 13 14  2  0
 13 15  1  0
 15 16  1  0
 16 17  2  0
 17 18  1  0
 18 19  2  0
 19 20  1  0
 19 21  1  0
 21 22  2  0
  9 23  1  0
 23 24  1  1
 24 25  1  0
 25 26  2  0
 25 27  1  0
 27 28  2  0
 28 29  1  0
 29 30  2  0
 30 31  1  0
 30 32  1  0
 32 33  1  0
 33 34  1  0
 33 35  1  0
 35 36  1  0
 23 37  1  0
 37  6  1  0
 22 16  1  0
 31 27  1  0
 36 29  1  0
M  END
>  <supplier_code>  (1480) 
DB09075

>  <zinc_id>  (1480) 
ZINC000043200832

>  <catalog_short_name>  (1480) 
dbfda

$$$$

     RDKit          3D

 32 36  0  0  0  0  0  0  0  0999 V2000
   -2.8731    0.0980   -1.8298 O   0  0  0  0  0  0  0  0  0  0  0  0
   -2.7645   -0.0441   -0.4525 C   0  0  0  0  0  0  0  0  0  0  0  0
   -3.5569    1.0216    0.2375 C   0  0  0  0  0  0  0  0  0  0  0  0
   -3.1289    2.3419    0.2838 C   0  0  0  0  0  0  0  0  0  0  0  0
   -4.0548    3.3694    0.1441 C   0  0  0  0  0  0  0  0  0  0  0  0
   -5.4011    3.1174   -0.0922 C   0  0  0  0  0  0  0  0  0  0  0  0
   -5.8449    1.8338    0.2039 C   0  0  0  0  0  0  0  0  0  0  0  0
   -4.9136    0.8388    0.4785 C   0  0  0  0  0  0  0  0  0  0  0  0
   -3.3841   -1.3378   -0.0827 C   0  0  0  0  0  0  0  0  0  0  0  0
   -4.6149   -1.6355   -0.6514 C   0  0  0  0  0  0  0  0  0  0  0  0
   -5.1905   -2.8798   -0.5416 C   0  0  0  0  0  0  0  0  0  0  0  0
   -4.4572   -3.9420   -0.0298 C   0  0  0  0  0  0  0  0  0  0  0  0
   -3.2995   -3.6195    0.6589 C   0  0  0  0  0  0  0  0  0  0  0  0
   -2.7048   -2.3784    0.5001 C   0  0  0  0  0  0  0  0  0  0  0  0
   -1.3196    0.0544   -0.0661 C   0  0  0  0  0  0  0  0  0  0  0  0
   -1.1120    0.1573    1.4234 C   0  0  0  0  0  0  0  0  0  0  0  0
    0.3138    0.6215    1.6581 C   0  0  0  0  0  0  0  0  0  0  0  0
    1.1062    0.2871    0.4824 N   0  0  0  0  0  0  0  0  0  0  0  0
    2.5259    0.4059    0.7244 C   0  0  0  0  0  0  0  0  0  0  0  0
    3.2114    0.0187   -0.5785 C   0  0  0  0  0  0  0  0  0  0  0  0
    4.0061   -1.1039   -0.4364 O   0  0  0  0  0  0  0  0  0  0  0  0
    4.8666   -0.8898    0.6414 C   0  0  0  0  0  0  0  0  0  0  0  0
    5.9273    0.0619    0.1998 C   0  0  0  0  0  0  0  0  0  0  0  0
    5.7922    0.8414   -0.9269 C   0  0  0  0  0  0  0  0  0  0  0  0
    6.8840    1.3468   -1.6164 C   0  0  0  0  0  0  0  0  0  0  0  0
    8.1396    0.8851   -1.2954 C   0  0  0  0  0  0  0  0  0  0  0  0
    8.2990    0.3496   -0.0268 C   0  0  0  0  0  0  0  0  0  0  0  0
    7.2112   -0.0413    0.7180 C   0  0  0  0  0  0  0  0  0  0  0  0
    0.7837    1.1621   -0.6172 C   0  0  0  0  0  0  0  0  0  0  0  0
   -0.7305    1.2860   -0.7199 C   0  0  0  0  0  0  0  0  0  0  0  0
    0.8155   -1.1030    0.1480 C   0  0  0  0  0  0  0  0  0  0  0  0
   -0.5317   -1.1238   -0.5612 C   0  0  0  0  0  0  0  0  0  0  0  0
  1  2  1  0
  2  3  1  0
  3  4  2  0
  4  5  1  0
  5  6  2  0
  6  7  1  0
  7  8  2  0
  2  9  1  0
  9 10  2  0
 10 11  1  0
 11 12  2  0
 12 13  1  0
 13 14  2  0
  2 15  1  0
 15 16  1  0
 16 17  1  0
 17 18  1  0
 18 19  1  0
 19 20  1  0
 20 21  1  0
 21 22  1  0
 22 23  1  0
 23 24  2  0
 24 25  1  0
 25 26  2  0
 26 27  1  0
 27 28  2  0
 18 29  1  0
 29 30  1  0
 18 31  1  0
 31 32  1  0
  8  3  1  0
 14  9  1  0
 30 15  1  0
 32 15  1  0
 28 23  1  0
M  CHG  1  18   1
M  END
>  <supplier_code>  (1481) 
DB09076

>  <zinc_id>  (1481) 
ZINC000034608502

>  <catalog_short_name>  (1481) 
dbfda

$$$$

     RDKit          3D

 30 33  0  0  0  0  0  0  0  0999 V2000
   -7.3393   -0.6726   -0.5082 C   0  0  0  0  0  0  0  0  0  0  0  0
   -6.7080    0.1695    0.4424 O   0  0  0  0  0  0  0  0  0  0  0  0
   -5.3344    0.3763    0.3683 C   0  0  0  0  0  0  0  0  0  0  0  0
   -4.7280    0.4795   -0.8772 C   0  0  0  0  0  0  0  0  0  0  0  0
   -3.3799    0.2040   -1.0534 C   0  0  0  0  0  0  0  0  0  0  0  0
   -2.9017   -0.3487   -2.1938 N   0  0  0  0  0  0  0  0  0  0  0  0
   -1.7739   -1.0991   -2.1979 C   0  0  0  0  0  0  0  0  0  0  0  0
   -0.9378   -1.0161   -1.0919 C   0  0  0  0  0  0  0  0  0  0  0  0
   -1.3058   -0.3365    0.0532 C   0  0  0  0  0  0  0  0  0  0  0  0
   -0.3756    0.2131    0.9337 O   0  0  0  0  0  0  0  0  0  0  0  0
    0.9703    0.1161    0.5648 C   0  0  0  0  0  0  0  0  0  0  0  0
    1.5197   -1.1579    0.6268 C   0  0  0  0  0  0  0  0  0  0  0  0
    2.6674   -1.4767   -0.0530 C   0  0  0  0  0  0  0  0  0  0  0  0
    3.1413   -0.5906   -1.0119 C   0  0  0  0  0  0  0  0  0  0  0  0
    4.5062   -0.6854   -1.4397 N   0  0  0  0  0  0  0  0  0  0  0  0
    5.5041    0.2354   -0.9832 C   0  0  0  0  0  0  0  0  0  0  0  0
    5.1091    1.4337   -0.8540 O   0  0  0  0  0  0  0  0  0  0  0  0
    6.7410   -0.2017   -0.4107 N   0  0  0  0  0  0  0  0  0  0  0  0
    7.7629    0.7758   -0.1326 C   0  0  0  0  0  0  0  0  0  0  0  0
    8.6948    0.3980    1.0163 C   0  0  0  0  0  0  0  0  0  0  0  0
    7.7642    1.5786    1.1086 C   0  0  0  0  0  0  0  0  0  0  0  0
    2.3959    0.5032   -1.3681 C   0  0  0  0  0  0  0  0  0  0  0  0
    2.6839    1.2495   -2.9121 Cl  0  0  0  0  0  0  0  0  0  0  0  0
    1.3781    0.8970   -0.5089 C   0  0  0  0  0  0  0  0  0  0  0  0
   -2.5797    0.2167    0.0820 C   0  0  0  0  0  0  0  0  0  0  0  0
   -3.1593    0.4475    1.3167 C   0  0  0  0  0  0  0  0  0  0  0  0
   -4.5351    0.5715    1.4711 C   0  0  0  0  0  0  0  0  0  0  0  0
   -5.1270    0.3197    2.7914 C   0  0  0  0  0  0  0  0  0  0  0  0
   -4.6914   -0.7630    3.6173 N   0  0  0  0  0  0  0  0  0  0  0  0
   -5.9622    1.1504    3.2040 O   0  0  0  0  0  0  0  0  0  0  0  0
  1  2  1  0
  2  3  1  0
  3  4  2  0
  4  5  1  0
  5  6  2  0
  6  7  1  0
  7  8  2  0
  8  9  1  0
  9 10  1  0
 10 11  1  0
 11 12  2  0
 12 13  1  0
 13 14  2  0
 14 15  1  0
 15 16  1  0
 16 17  2  0
 16 18  1  0
 18 19  1  0
 19 20  1  0
 20 21  1  0
 14 22  1  0
 22 23  1  0
 22 24  2  0
  9 25  2  0
 25 26  1  0
 26 27  2  0
 27 28  1  0
 28 29  1  0
 28 30  2  0
 27  3  1  0
 25  5  1  0
 24 11  1  0
 21 19  1  0
M  END
>  <supplier_code>  (1482) 
DB09078

>  <zinc_id>  (1482) 
ZINC000003816292

>  <catalog_short_name>  (1482) 
dbfda

$$$$

     RDKit          3D

 40 44  0  0  0  0  0  0  0  0999 V2000
  -10.3992    0.7775    0.4081 C   0  0  0  0  0  0  0  0  0  0  0  0
   -9.0178    1.0606    0.3033 O   0  0  0  0  0  0  0  0  0  0  0  0
   -8.1048    0.3396    1.0576 C   0  0  0  0  0  0  0  0  0  0  0  0
   -8.5148   -0.7557    1.5351 O   0  0  0  0  0  0  0  0  0  0  0  0
   -6.6652    0.5973    0.9338 C   0  0  0  0  0  0  0  0  0  0  0  0
   -5.7114   -0.3612    1.2045 C   0  0  0  0  0  0  0  0  0  0  0  0
   -4.5843   -0.4149    0.3938 C   0  0  0  0  0  0  0  0  0  0  0  0
   -4.1498    0.7912   -0.1417 C   0  0  0  0  0  0  0  0  0  0  0  0
   -4.9884    1.8980   -0.0918 C   0  0  0  0  0  0  0  0  0  0  0  0
   -6.2581    1.8300    0.4657 C   0  0  0  0  0  0  0  0  0  0  0  0
   -4.3050    3.0463   -0.6053 N   0  0  0  0  0  0  0  0  0  0  0  0
   -2.9730    2.6497   -0.9399 C   0  0  0  0  0  0  0  0  0  0  0  0
   -2.0826    3.3523   -1.4907 O   0  0  0  0  0  0  0  0  0  0  0  0
   -2.8214    1.2470   -0.5664 C   0  0  0  0  0  0  0  0  0  0  0  0
   -1.6831    0.5534   -0.5881 C   0  0  0  0  0  0  0  0  0  0  0  0
   -0.4891    1.2816   -0.4001 N   0  0  0  0  0  0  0  0  0  0  0  0
    0.8117    0.7720   -0.5965 C   0  0  0  0  0  0  0  0  0  0  0  0
    1.1241   -0.2370   -1.4800 C   0  0  0  0  0  0  0  0  0  0  0  0
    2.3505   -0.8612   -1.2886 C   0  0  0  0  0  0  0  0  0  0  0  0
    3.2763   -0.3951   -0.3655 C   0  0  0  0  0  0  0  0  0  0  0  0
    4.2924   -1.2576    0.1582 N   0  0  0  0  0  0  0  0  0  0  0  0
    4.0671   -2.6969    0.0589 C   0  0  0  0  0  0  0  0  0  0  0  0
    4.9985   -0.8229    1.3258 C   0  0  0  0  0  0  0  0  0  0  0  0
    4.5674   -1.2854    2.4231 O   0  0  0  0  0  0  0  0  0  0  0  0
    5.5987    0.5363    1.3690 C   0  0  0  0  0  0  0  0  0  0  0  0
    6.7974    0.6397    0.5764 N   0  0  0  0  0  0  0  0  0  0  0  0
    7.9898    0.8293    1.3641 C   0  0  0  0  0  0  0  0  0  0  0  0
    9.1184    1.2133    0.4197 C   0  0  0  0  0  0  0  0  0  0  0  0
    9.3020    0.2480   -0.6337 N   0  0  0  0  0  0  0  0  0  0  0  0
    9.8382   -0.9954   -0.0833 C   0  0  0  0  0  0  0  0  0  0  0  0
    8.0690   -0.0928   -1.3084 C   0  0  0  0  0  0  0  0  0  0  0  0
    6.9871   -0.4887   -0.3114 C   0  0  0  0  0  0  0  0  0  0  0  0
    3.0842    0.8846    0.1305 C   0  0  0  0  0  0  0  0  0  0  0  0
    1.8567    1.4802   -0.0176 C   0  0  0  0  0  0  0  0  0  0  0  0
   -1.7894   -0.8894   -0.5556 C   0  0  0  0  0  0  0  0  0  0  0  0
   -2.2220   -1.5990   -1.6621 C   0  0  0  0  0  0  0  0  0  0  0  0
   -2.3566   -2.9821   -1.6477 C   0  0  0  0  0  0  0  0  0  0  0  0
   -2.1566   -3.6321   -0.4485 C   0  0  0  0  0  0  0  0  0  0  0  0
   -1.4256   -3.0092    0.5460 C   0  0  0  0  0  0  0  0  0  0  0  0
   -1.4315   -1.6317    0.5490 C   0  0  0  0  0  0  0  0  0  0  0  0
  1  2  1  0
  2  3  1  0
  3  4  2  0
  3  5  1  0
  5  6  2  0
  6  7  1  0
  7  8  2  0
  8  9  1  0
  9 10  2  0
  9 11  1  0
 11 12  1  0
 12 13  2  0
 12 14  1  0
 14 15  2  0
 15 16  1  0
 16 17  1  0
 17 18  2  0
 18 19  1  0
 19 20  2  0
 20 21  1  0
 21 22  1  0
 21 23  1  0
 23 24  2  0
 23 25  1  0
 25 26  1  0
 26 27  1  0
 27 28  1  0
 28 29  1  0
 29 30  1  0
 29 31  1  0
 31 32  1  0
 20 33  1  0
 33 34  2  0
 15 35  1  0
 35 36  2  0
 36 37  1  0
 37 38  2  0
 38 39  1  0
 39 40  2  0
 10  5  1  0
 34 17  1  0
 40 35  1  0
 14  8  1  0
 32 26  1  0
M  END
>  <supplier_code>  (1483) 
DB09079

>  <zinc_id>  (1483) 
ZINC000100014909

>  <catalog_short_name>  (1483) 
dbfda

$$$$

     RDKit          3D

 28 30  0  0  0  0  0  0  0  0999 V2000
    7.4115    2.2395   -0.4813 C   0  0  0  0  0  0  0  0  0  0  0  0
    6.8828    1.7798   -0.3762 O   0  0  0  0  0  0  0  0  0  0  0  0
    5.7567    0.9592   -0.2633 C   0  0  0  0  0  0  0  0  0  0  0  0
    5.9684   -0.4085   -0.2991 C   0  0  0  0  0  0  0  0  0  0  0  0
    4.8692   -1.2065   -0.5775 C   0  0  0  0  0  0  0  0  0  0  0  0
    3.6703   -0.6391   -0.9547 C   0  0  0  0  0  0  0  0  0  0  0  0
    2.4810   -1.5289   -0.9934 C   0  0  0  0  0  0  0  0  0  0  0  0
    1.7856   -1.5455    0.3514 C   0  0  0  0  0  0  0  0  0  0  0  0
    2.3969   -0.4983    1.2417 C   0  0  0  0  0  0  0  0  0  0  0  0
    2.0837   -2.8897    0.9998 C   0  0  0  0  0  0  0  0  0  0  0  0
    0.3552   -1.3859    0.2225 N   0  0  0  0  0  0  0  0  0  0  0  0
    0.0444   -0.1458   -0.3313 C   0  0  0  0  0  0  0  0  0  0  0  0
   -0.9204    0.7407    0.6667 C   0  0  2  0  0  0  0  0  0  0  0  0
   -0.5812   -0.0558    1.9185 O   0  0  0  0  0  0  0  0  0  0  0  0
   -2.2316   -0.1396    0.3263 C   0  0  0  0  0  0  0  0  0  0  0  0
   -2.2378   -1.4614    0.5235 C   0  0  0  0  0  0  0  0  0  0  0  0
   -3.4453   -2.1386    0.3838 C   0  0  0  0  0  0  0  0  0  0  0  0
   -3.6807   -3.2755    1.1692 O   0  0  0  0  0  0  0  0  0  0  0  0
   -4.5694   -1.4268    0.0466 C   0  0  0  0  0  0  0  0  0  0  0  0
   -4.5512   -0.0487   -0.1304 C   0  0  0  0  0  0  0  0  0  0  0  0
   -3.3395    0.6068   -0.0074 C   0  0  0  0  0  0  0  0  0  0  0  0
   -3.3485    1.9849   -0.0529 O   0  0  0  0  0  0  0  0  0  0  0  0
   -4.4716    2.7972    0.1618 C   0  0  0  0  0  0  0  0  0  0  0  0
   -5.7529    2.0699    0.0981 C   0  0  0  0  0  0  0  0  0  0  0  0
   -6.7746    2.6678    0.5533 O   0  0  0  0  0  0  0  0  0  0  0  0
   -5.7615    0.7053   -0.2703 N   0  0  0  0  0  0  0  0  0  0  0  0
    3.4776    0.7366   -0.9152 C   0  0  0  0  0  0  0  0  0  0  0  0
    4.4831    1.5071   -0.3445 C   0  0  0  0  0  0  0  0  0  0  0  0
  1  2  1  0
  2  3  1  0
  3  4  2  0
  4  5  1  0
  5  6  2  0
  6  7  1  0
  7  8  1  0
  8  9  1  0
  8 10  1  0
  8 11  1  0
 11 12  1  0
 13 12  1  6
 13 14  1  0
 13 15  1  0
 15 16  2  0
 16 17  1  0
 17 18  1  0
 17 19  2  0
 19 20  1  0
 20 21  2  0
 21 22  1  0
 22 23  1  0
 23 24  1  0
 24 25  2  0
 24 26  1  0
  6 27  1  0
 27 28  2  0
 28  3  1  0
 21 15  1  0
 26 20  1  0
M  END
>  <supplier_code>  (1484) 
DB09080

>  <zinc_id>  (1484) 
ZINC000034636383

>  <catalog_short_name>  (1484) 
dbfda

$$$$

     RDKit          3D

 32 33  0  0  0  0  0  0  0  0999 V2000
   -7.3623   -1.5519    2.2528 O   0  0  0  0  0  0  0  0  0  0  0  0
   -7.1263   -1.6392    1.8860 C   0  0  0  0  0  0  0  0  0  0  0  0
   -6.6105   -1.3978    0.5003 C   0  0  0  0  0  0  0  0  0  0  0  0
   -5.4901   -0.5969    0.3101 C   0  0  0  0  0  0  0  0  0  0  0  0
   -5.5478    0.2805   -0.7650 C   0  0  0  0  0  0  0  0  0  0  0  0
   -4.2169    1.1819   -0.9506 C   0  0  1  0  0  0  0  0  0  0  0  0
   -4.9755    2.2200   -1.7626 O   0  0  0  0  0  0  0  0  0  0  0  0
   -4.5121    1.9948    0.4569 C   0  0  0  0  0  0  0  0  0  0  0  0
   -3.7295    1.3078    1.4592 N   0  0  0  0  0  0  0  0  0  0  0  0
   -2.4523    0.9728    0.8501 C   0  0  0  0  0  0  0  0  0  0  0  0
   -1.9221    2.2518    0.2134 C   0  0  0  0  0  0  0  0  0  0  0  0
   -0.4192    2.1932    0.1419 C   0  0  0  0  0  0  0  0  0  0  0  0
    0.0639    1.5348   -1.1233 C   0  0  0  0  0  0  0  0  0  0  0  0
    1.3236    0.7356   -0.8146 C   0  0  0  0  0  0  0  0  0  0  0  0
    1.2778    0.3139    0.6298 C   0  0  0  0  0  0  0  0  0  0  0  0
    2.2640   -0.6203    0.9082 O   0  0  0  0  0  0  0  0  0  0  0  0
    3.4920   -0.2914    0.3177 C   0  0  0  0  0  0  0  0  0  0  0  0
    3.9698   -1.4769   -0.4797 C   0  0  0  0  0  0  0  0  0  0  0  0
    4.9084   -1.0839   -1.4449 O   0  0  0  0  0  0  0  0  0  0  0  0
    5.4554    0.1422   -1.0533 C   0  0  0  0  0  0  0  0  0  0  0  0
    6.7757   -0.1043   -0.4193 C   0  0  0  0  0  0  0  0  0  0  0  0
    7.1367    0.6950    0.6566 C   0  0  0  0  0  0  0  0  0  0  0  0
    6.4500    2.2980    0.8842 Cl  0  0  0  0  0  0  0  0  0  0  0  0
    8.1749    0.2234    1.4415 C   0  0  0  0  0  0  0  0  0  0  0  0
    9.1454   -0.5672    0.8383 C   0  0  0  0  0  0  0  0  0  0  0  0
    8.9010   -1.1600   -0.3941 C   0  0  0  0  0  0  0  0  0  0  0  0
    7.6305   -1.0565   -0.9466 C   0  0  0  0  0  0  0  0  0  0  0  0
    7.1180   -2.0851   -2.2676 Cl  0  0  0  0  0  0  0  0  0  0  0  0
   -6.1118   -0.1866   -1.9165 C   0  0  0  0  0  0  0  0  0  0  0  0
   -7.1949   -1.0450   -1.7630 C   0  0  0  0  0  0  0  0  0  0  0  0
   -7.5565   -1.5270   -0.5104 C   0  0  0  0  0  0  0  0  0  0  0  0
   -8.8594   -1.9558   -0.2328 O   0  0  0  0  0  0  0  0  0  0  0  0
  1  2  1  0
  2  3  1  0
  3  4  2  0
  4  5  1  0
  6  5  1  1
  6  7  1  0
  6  8  1  0
  8  9  1  0
  9 10  1  0
 10 11  1  0
 11 12  1  0
 12 13  1  0
 13 14  1  0
 14 15  1  0
 15 16  1  0
 16 17  1  0
 17 18  1  0
 18 19  1  0
 19 20  1  0
 20 21  1  0
 21 22  2  0
 22 23  1  0
 22 24  1  0
 24 25  2  0
 25 26  1  0
 26 27  2  0
 27 28  1  0
  5 29  2  0
 29 30  1  0
 30 31  2  0
 31 32  1  0
 31  3  1  0
 27 21  1  0
M  END
>  <supplier_code>  (1485) 
DB09082

>  <zinc_id>  (1485) 
ZINC000003991624

>  <catalog_short_name>  (1485) 
dbfda

$$$$

     RDKit          3D

 34 37  0  0  0  0  0  0  0  0999 V2000
    8.5615    1.5117   -1.1511 C   0  0  0  0  0  0  0  0  0  0  0  0
    8.2351    1.1071   -0.5470 O   0  0  0  0  0  0  0  0  0  0  0  0
    6.9971    0.5966   -0.1475 C   0  0  0  0  0  0  0  0  0  0  0  0
    6.1399    1.2806    0.6867 C   0  0  0  0  0  0  0  0  0  0  0  0
    4.7947    0.9603    0.7979 C   0  0  0  0  0  0  0  0  0  0  0  0
    4.2980    0.0779   -0.1555 C   0  0  0  0  0  0  0  0  0  0  0  0
    5.0941   -0.4876   -1.0839 C   0  0  0  0  0  0  0  0  0  0  0  0
    6.4736   -0.4053   -0.9523 C   0  0  0  0  0  0  0  0  0  0  0  0
    7.3185   -1.4640   -1.2992 O   0  0  0  0  0  0  0  0  0  0  0  0
    7.2210   -2.7389   -0.6679 C   0  0  0  0  0  0  0  0  0  0  0  0
    3.0029    1.0470   -0.0034 C   0  0  1  0  0  0  0  0  0  0  0  0
    2.0111   -0.2422    0.3784 C   0  0  0  0  0  0  0  0  0  0  0  0
    2.0949   -0.9495   -0.8847 N   0  0  0  0  0  0  0  0  0  0  0  0
    2.0545   -2.3743   -0.7668 C   0  0  0  0  0  0  0  0  0  0  0  0
    1.2425   -0.4070   -1.9032 C   0  0  0  0  0  0  0  0  0  0  0  0
   -0.2035   -0.3242   -1.5030 C   0  0  0  0  0  0  0  0  0  0  0  0
   -0.3583    0.8849   -0.5972 C   0  0  0  0  0  0  0  0  0  0  0  0
   -1.4668    0.6818    0.3310 N   0  0  0  0  0  0  0  0  0  0  0  0
   -2.1393    1.9012    0.7667 C   0  0  0  0  0  0  0  0  0  0  0  0
   -3.4550    2.0256    0.0850 C   0  0  0  0  0  0  0  0  0  0  0  0
   -4.3652    0.8925    0.2128 C   0  0  0  0  0  0  0  0  0  0  0  0
   -5.5788    1.2375   -0.3739 C   0  0  0  0  0  0  0  0  0  0  0  0
   -6.7157    0.4632   -0.2231 C   0  0  0  0  0  0  0  0  0  0  0  0
   -8.0015    0.9798   -0.3979 O   0  0  0  0  0  0  0  0  0  0  0  0
   -8.2188    2.3134    0.0053 C   0  0  0  0  0  0  0  0  0  0  0  0
   -6.6340   -0.7654    0.4117 C   0  0  0  0  0  0  0  0  0  0  0  0
   -7.7866   -1.4200    0.8545 O   0  0  0  0  0  0  0  0  0  0  0  0
   -7.9177   -2.7956    0.5036 C   0  0  0  0  0  0  0  0  0  0  0  0
   -5.3611   -1.2513    0.6477 C   0  0  0  0  0  0  0  0  0  0  0  0
   -4.3398   -0.3274    0.8413 C   0  0  0  0  0  0  0  0  0  0  0  0
   -3.1345   -1.0392    1.2997 C   0  0  0  0  0  0  0  0  0  0  0  0
   -1.9413   -0.6587    0.5056 C   0  0  0  0  0  0  0  0  0  0  0  0
   -1.4517   -1.5111   -0.2957 O   0  0  0  0  0  0  0  0  0  0  0  0
    3.5301    1.2006    1.5584 C   0  0  0  0  0  0  0  0  0  0  0  0
  1  2  1  0
  2  3  1  0
  3  4  2  0
  4  5  1  0
  5  6  2  0
  6  7  1  0
  7  8  2  0
  8  9  1  0
  9 10  1  0
  6 11  1  0
 11 12  1  1
 12 13  1  0
 13 14  1  0
 13 15  1  0
 15 16  1  0
 16 17  1  0
 17 18  1  0
 18 19  1  0
 19 20  1  0
 20 21  1  0
 21 22  2  0
 22 23  1  0
 23 24  1  0
 24 25  1  0
 23 26  2  0
 26 27  1  0
 27 28  1  0
 26 29  1  0
 29 30  2  0
 30 31  1  0
 31 32  1  0
 32 33  2  0
 11 34  1  0
  8  3  1  0
 32 18  1  0
 34  5  1  0
 30 21  1  0
M  END
>  <supplier_code>  (1486) 
DB09083

>  <zinc_id>  (1486) 
ZINC000003805768

>  <catalog_short_name>  (1486) 
dbfda

$$$$

     RDKit          3D

 19 19  0  0  0  0  0  0  0  0999 V2000
   -3.7179    3.5763   -0.6618 C   0  0  0  0  0  0  0  0  0  0  0  0
   -4.3163    2.4069    0.0711 C   0  0  0  0  0  0  0  0  0  0  0  0
   -4.3090    1.1351   -0.7511 C   0  0  0  0  0  0  0  0  0  0  0  0
   -3.9794   -0.0227    0.1613 C   0  0  0  0  0  0  0  0  0  0  0  0
   -3.6323   -1.2282   -0.5755 N   0  0  0  0  0  0  0  0  0  0  0  0
   -2.4310   -1.9583   -0.3000 C   0  0  0  0  0  0  0  0  0  0  0  0
   -1.7454   -1.8142    0.9014 C   0  0  0  0  0  0  0  0  0  0  0  0
   -0.3563   -1.8220    0.9588 C   0  0  0  0  0  0  0  0  0  0  0  0
    0.3870   -1.8383   -0.2170 C   0  0  0  0  0  0  0  0  0  0  0  0
    1.5349   -0.9372   -0.4033 C   0  0  0  0  0  0  0  0  0  0  0  0
    2.7203   -1.3656   -0.4826 O   0  0  0  0  0  0  0  0  0  0  0  0
    1.3474    0.3424   -0.9371 O   0  0  0  0  0  0  0  0  0  0  0  0
    2.1629    1.3680   -0.3933 C   0  0  0  0  0  0  0  0  0  0  0  0
    3.5722    1.1579   -0.9250 C   0  0  0  0  0  0  0  0  0  0  0  0
    4.4728    1.6239    0.1282 N   0  0  0  0  0  0  0  0  0  0  0  0
    5.8048    1.1545   -0.2416 C   0  0  0  0  0  0  0  0  0  0  0  0
    4.4230    3.0722    0.1311 C   0  0  0  0  0  0  0  0  0  0  0  0
   -0.2746   -2.3985   -1.3051 C   0  0  0  0  0  0  0  0  0  0  0  0
   -1.6632   -2.4520   -1.3482 C   0  0  0  0  0  0  0  0  0  0  0  0
  1  2  1  0
  2  3  1  0
  3  4  1  0
  4  5  1  0
  5  6  1  0
  6  7  2  0
  7  8  1  0
  8  9  2  0
  9 10  1  0
 10 11  2  0
 10 12  1  0
 12 13  1  0
 13 14  1  0
 14 15  1  0
 15 16  1  0
 15 17  1  0
  9 18  1  0
 18 19  2  0
 19  6  1  0
M  END
>  <supplier_code>  (1487) 
DB09085

>  <zinc_id>  (1487) 
ZINC000001530811

>  <catalog_short_name>  (1487) 
dbfda

$$$$

     RDKit          3D

 12 12  0  0  0  0  0  0  0  0999 V2000
    4.1530    1.2458   -1.1551 C   0  0  0  0  0  0  0  0  0  0  0  0
    2.9133    1.3062   -0.6553 C   0  0  0  0  0  0  0  0  0  0  0  0
    2.5089    0.3893    0.4428 C   0  0  0  0  0  0  0  0  0  0  0  0
    1.1098   -0.0577    0.3415 C   0  0  0  0  0  0  0  0  0  0  0  0
    0.7677   -1.2085    1.0403 C   0  0  0  0  0  0  0  0  0  0  0  0
   -0.4277   -1.8313    0.7005 C   0  0  0  0  0  0  0  0  0  0  0  0
   -1.5081   -1.0212    0.3873 C   0  0  0  0  0  0  0  0  0  0  0  0
   -2.6515   -1.6175   -0.1184 O   0  0  0  0  0  0  0  0  0  0  0  0
   -1.2458    0.3165    0.1219 C   0  0  0  0  0  0  0  0  0  0  0  0
   -2.3168    1.1252   -0.1910 O   0  0  0  0  0  0  0  0  0  0  0  0
   -3.3640    0.5945   -0.9623 C   0  0  0  0  0  0  0  0  0  0  0  0
    0.0611    0.7587   -0.0451 C   0  0  0  0  0  0  0  0  0  0  0  0
  1  2  2  0
  2  3  1  0
  3  4  1  0
  4  5  2  0
  5  6  1  0
  6  7  2  0
  7  8  1  0
  7  9  1  0
  9 10  1  0
 10 11  1  0
  9 12  2  0
 12  4  1  0
M  END
>  <supplier_code>  (1488) 
DB09086

>  <zinc_id>  (1488) 
ZINC000000001411

>  <catalog_short_name>  (1488) 
dbfda

$$$$

     RDKit          3D

 18 19  0  0  0  0  0  0  0  0999 V2000
   -0.8219   -0.9547   -1.1707 O   0  0  0  0  0  0  0  0  0  0  0  0
   -1.2639   -0.5390   -0.0572 C   0  0  0  0  0  0  0  0  0  0  0  0
   -0.5934   -1.0006    1.0787 O   0  0  0  0  0  0  0  0  0  0  0  0
    0.7634   -1.1184    0.9684 O   0  0  0  0  0  0  0  0  0  0  0  0
    1.6051   -0.0112    1.1151 C   0  0  0  0  0  0  0  0  0  0  0  0
    1.0768    0.9903    1.6858 O   0  0  0  0  0  0  0  0  0  0  0  0
    2.7761    0.1810    0.2538 C   0  0  0  0  0  0  0  0  0  0  0  0
    3.6587   -0.8715    0.0415 C   0  0  0  0  0  0  0  0  0  0  0  0
    4.9031   -0.5898   -0.4728 C   0  0  0  0  0  0  0  0  0  0  0  0
    5.0683    0.6447   -1.0873 C   0  0  0  0  0  0  0  0  0  0  0  0
    3.9621    1.4309   -1.3751 C   0  0  0  0  0  0  0  0  0  0  0  0
    2.8293    1.2841   -0.5848 C   0  0  0  0  0  0  0  0  0  0  0  0
   -2.6740   -0.1572   -0.0358 C   0  0  0  0  0  0  0  0  0  0  0  0
   -3.1104    1.1422    0.0070 C   0  0  0  0  0  0  0  0  0  0  0  0
   -4.4419    1.3631   -0.2978 C   0  0  0  0  0  0  0  0  0  0  0  0
   -5.2509    0.3209   -0.6791 C   0  0  0  0  0  0  0  0  0  0  0  0
   -4.8920   -0.9505   -0.2586 C   0  0  0  0  0  0  0  0  0  0  0  0
   -3.5944   -1.1642    0.1834 C   0  0  0  0  0  0  0  0  0  0  0  0
  1  2  2  0
  2  3  1  0
  3  4  1  0
  4  5  1  0
  5  6  2  0
  5  7  1  0
  7  8  2  0
  8  9  1  0
  9 10  2  0
 10 11  1  0
 11 12  2  0
  2 13  1  0
 13 14  2  0
 14 15  1  0
 15 16  2  0
 16 17  1  0
 17 18  2  0
 12  7  1  0
 18 13  1  0
M  END
>  <supplier_code>  (1489) 
DB09096

>  <zinc_id>  (1489) 
ZINC000000001016

>  <catalog_short_name>  (1489) 
dbfda

$$$$

     RDKit          3D

 31 33  0  0  0  0  0  0  0  0999 V2000
    1.4691   -3.7770    0.8232 C   0  0  0  0  0  0  0  0  0  0  0  0
    1.0334   -3.3318    0.7040 O   0  0  0  0  0  0  0  0  0  0  0  0
    0.6213   -2.0060    0.5433 C   0  0  0  0  0  0  0  0  0  0  0  0
   -0.7412   -1.7808    0.6952 C   0  0  0  0  0  0  0  0  0  0  0  0
   -1.2981   -0.6534    0.1592 C   0  0  0  0  0  0  0  0  0  0  0  0
   -0.4237    0.2990   -0.3519 C   0  0  0  0  0  0  0  0  0  0  0  0
    0.8613   -0.0777   -0.7279 C   0  0  0  0  0  0  0  0  0  0  0  0
    1.4872   -1.0054    0.1048 C   0  0  0  0  0  0  0  0  0  0  0  0
    2.8672   -1.4483   -0.0741 C   0  0  0  0  0  0  0  0  0  0  0  0
    3.9235   -0.4960    0.1782 C   0  0  0  0  0  0  0  0  0  0  0  0
    5.2241   -0.9119   -0.0870 C   0  0  0  0  0  0  0  0  0  0  0  0
    6.2376    0.0331   -0.1959 C   0  0  0  0  0  0  0  0  0  0  0  0
    5.9950    1.3651    0.0951 C   0  0  0  0  0  0  0  0  0  0  0  0
    4.7358    1.7436    0.4716 C   0  0  0  0  0  0  0  0  0  0  0  0
    4.1919    3.4093    0.5330 Cl  0  0  0  0  0  0  0  0  0  0  0  0
    3.7443    0.7938    0.6349 C   0  0  0  0  0  0  0  0  0  0  0  0
    2.7097    0.9628    1.5028 F   0  0  0  0  0  0  0  0  0  0  0  0
   -0.8989    1.5890   -0.5555 C   0  0  0  0  0  0  0  0  0  0  0  0
   -0.3251    2.3181   -1.4206 O   0  0  0  0  0  0  0  0  0  0  0  0
   -2.1369    1.9159   -0.0141 C   0  0  0  0  0  0  0  0  0  0  0  0
   -2.7172    3.2356   -0.2949 C   0  0  0  0  0  0  0  0  0  0  0  0
   -3.2141    3.8979    0.6660 O   0  0  0  0  0  0  0  0  0  0  0  0
   -3.4161    3.3387   -1.5014 O   0  0  0  0  0  0  0  0  0  0  0  0
   -2.8814    0.9148    0.6017 C   0  0  0  0  0  0  0  0  0  0  0  0
   -2.6063   -0.3452    0.1636 N   0  0  0  0  0  0  0  0  0  0  0  0
   -3.5281   -1.4498    0.8318 C   0  0  2  0  0  0  0  0  0  0  0  0
   -3.0035   -2.6403   -0.1921 C   0  0  0  0  0  0  0  0  0  0  0  0
   -2.9861   -2.1105   -1.4470 O   0  0  0  0  0  0  0  0  0  0  0  0
   -4.8599   -1.1267   -0.0853 C   0  0  0  0  0  0  0  0  0  0  0  0
   -4.5820   -0.2142   -1.1659 C   0  0  0  0  0  0  0  0  0  0  0  0
   -5.4829   -2.4417   -0.4047 C   0  0  0  0  0  0  0  0  0  0  0  0
  1  2  1  0
  2  3  1  0
  3  4  2  0
  4  5  1  0
  5  6  2  0
  6  7  1  0
  7  8  2  0
  8  9  1  0
  9 10  1  0
 10 11  2  0
 11 12  1  0
 12 13  2  0
 13 14  1  0
 14 15  1  0
 14 16  2  0
 16 17  1  0
  6 18  1  0
 18 19  2  0
 18 20  1  0
 20 21  1  0
 21 22  2  0
 21 23  1  0
 20 24  2  0
 24 25  1  0
 26 25  1  6
 26 27  1  0
 27 28  1  0
 26 29  1  0
 29 30  1  0
 29 31  1  0
  8  3  1  0
 16 10  1  0
 25  5  1  0
M  END
>  <supplier_code>  (1490) 
DB09101

>  <zinc_id>  (1490) 
ZINC000013682481

>  <catalog_short_name>  (1490) 
dbfda

$$$$

     RDKit          3D

 54 59  0  0  0  0  0  0  0  0999 V2000
    9.1592    4.0544   -0.8088 C   0  0  0  0  0  0  0  0  0  0  0  0
    9.7014    2.9840   -0.5118 O   0  0  0  0  0  0  0  0  0  0  0  0
    9.1420    1.7119   -0.6565 C   0  0  0  0  0  0  0  0  0  0  0  0
    8.0121    1.6841   -1.2230 O   0  0  0  0  0  0  0  0  0  0  0  0
    9.7261    0.5460   -0.0754 N   0  0  0  0  0  0  0  0  0  0  0  0
    9.2132   -0.7537   -0.8217 C   0  0  2  0  0  0  0  0  0  0  0  0
    8.3292   -1.3001    0.4253 C   0  0  0  0  0  0  0  0  0  0  0  0
    7.7524   -0.3893    1.0940 O   0  0  0  0  0  0  0  0  0  0  0  0
    7.4172   -2.3384   -0.0001 N   0  0  0  0  0  0  0  0  0  0  0  0
    6.5214   -2.9264    0.9651 C   0  0  0  0  0  0  0  0  0  0  0  0
    5.6103   -3.7116    0.1505 C   0  0  0  0  0  0  0  0  0  0  0  0
    5.5136   -3.1451   -1.1723 C   0  0  0  0  0  0  0  0  0  0  0  0
    6.4565   -1.7912   -1.1386 C   0  0  1  0  0  0  0  0  0  0  0  0
    5.5605   -0.9648   -0.0737 C   0  0  0  0  0  0  0  0  0  0  0  0
    4.4576   -1.3551    0.5013 N   0  0  0  0  0  0  0  0  0  0  0  0
    3.9661   -0.2228    1.0688 C   0  0  0  0  0  0  0  0  0  0  0  0
    4.3184    0.8502    0.2496 C   0  0  0  0  0  0  0  0  0  0  0  0
    3.4165    1.8792   -0.3070 C   0  0  0  0  0  0  0  0  0  0  0  0
    2.5248    2.5900    0.4928 C   0  0  0  0  0  0  0  0  0  0  0  0
    1.1520    2.5907    0.2107 C   0  0  0  0  0  0  0  0  0  0  0  0
    0.6452    1.8711   -0.8701 C   0  0  0  0  0  0  0  0  0  0  0  0
   -0.4402    0.8873   -0.7166 C   0  0  0  0  0  0  0  0  0  0  0  0
   -0.9027    0.3161   -1.8985 C   0  0  0  0  0  0  0  0  0  0  0  0
   -1.9117   -0.6366   -1.7921 C   0  0  0  0  0  0  0  0  0  0  0  0
   -2.0483   -1.4302   -0.6573 C   0  0  0  0  0  0  0  0  0  0  0  0
   -3.3931   -1.8813   -0.2596 C   0  0  0  0  0  0  0  0  0  0  0  0
   -3.6316   -2.7319    0.8136 C   0  0  0  0  0  0  0  0  0  0  0  0
   -4.7159   -2.3020    1.5035 N   0  0  0  0  0  0  0  0  0  0  0  0
   -5.3763   -1.5195    0.6645 C   0  0  0  0  0  0  0  0  0  0  0  0
   -6.3923   -0.3654    1.1807 C   0  0  2  0  0  0  0  0  0  0  0  0
   -7.1308   -1.3437    2.2872 C   0  0  0  0  0  0  0  0  0  0  0  0
   -7.3377   -2.5797    1.4784 C   0  0  0  0  0  0  0  0  0  0  0  0
   -7.5320   -2.1544    0.0509 C   0  0  0  0  0  0  0  0  0  0  0  0
   -7.4666   -0.7423    0.0871 N   0  0  0  0  0  0  0  0  0  0  0  0
   -8.1523    0.2898   -0.6216 C   0  0  0  0  0  0  0  0  0  0  0  0
   -8.6535   -0.0047   -1.7010 O   0  0  0  0  0  0  0  0  0  0  0  0
   -9.0750    1.0275    0.4875 C   0  0  1  0  0  0  0  0  0  0  0  0
   -9.9008    1.8627   -0.5773 N   0  0  0  0  0  0  0  0  0  0  0  0
   -9.4918    3.2306   -0.4533 C   0  0  0  0  0  0  0  0  0  0  0  0
   -9.6475    3.7699    0.6832 O   0  0  0  0  0  0  0  0  0  0  0  0
   -9.2298    4.0407   -1.5617 O   0  0  0  0  0  0  0  0  0  0  0  0
   -9.3175    5.4545   -1.4184 C   0  0  0  0  0  0  0  0  0  0  0  0
  -10.1418   -0.2268    0.5524 C   0  0  0  0  0  0  0  0  0  0  0  0
  -10.9084   -0.3230   -0.6826 C   0  0  0  0  0  0  0  0  0  0  0  0
  -10.9919    0.1361    1.7641 C   0  0  0  0  0  0  0  0  0  0  0  0
   -4.5531   -1.1843   -0.3618 N   0  0  0  0  0  0  0  0  0  0  0  0
   -1.0198   -1.2569    0.2642 C   0  0  0  0  0  0  0  0  0  0  0  0
   -0.4415    0.0043    0.3605 C   0  0  0  0  0  0  0  0  0  0  0  0
    1.5818    1.7392   -1.8943 C   0  0  0  0  0  0  0  0  0  0  0  0
    2.9466    1.8071   -1.6188 C   0  0  0  0  0  0  0  0  0  0  0  0
    5.3172    0.3078   -0.4917 N   0  0  0  0  0  0  0  0  0  0  0  0
   10.5396   -1.6202   -0.3568 C   0  0  0  0  0  0  0  0  0  0  0  0
   10.7105   -1.3781    1.1118 C   0  0  0  0  0  0  0  0  0  0  0  0
   10.1123   -3.0557   -0.5626 C   0  0  0  0  0  0  0  0  0  0  0  0
  1  2  1  0
  2  3  1  0
  3  4  2  0
  3  5  1  0
  6  5  1  1
  6  7  1  0
  7  8  2  0
  7  9  1  0
  9 10  1  0
 10 11  1  0
 11 12  1  0
 12 13  1  0
 13 14  1  1
 14 15  2  0
 15 16  1  0
 16 17  2  0
 17 18  1  0
 18 19  2  0
 19 20  1  0
 20 21  2  0
 21 22  1  0
 22 23  2  0
 23 24  1  0
 24 25  2  0
 25 26  1  0
 26 27  2  0
 27 28  1  0
 28 29  2  0
 30 29  1  6
 30 31  1  0
 31 32  1  0
 32 33  1  0
 33 34  1  0
 34 35  1  0
 35 36  2  0
 37 35  1  6
 37 38  1  0
 38 39  1  0
 39 40  2  0
 39 41  1  0
 41 42  1  0
 37 43  1  0
 43 44  1  0
 43 45  1  0
 29 46  1  0
 25 47  1  0
 47 48  2  0
 21 49  1  0
 49 50  2  0
 17 51  1  0
  6 52  1  0
 52 53  1  0
 52 54  1  0
 13  9  1  0
 51 14  1  0
 50 18  1  0
 48 22  1  0
 46 26  1  0
 34 30  1  0
M  END
>  <supplier_code>  (1491) 
DB09102

>  <zinc_id>  (1491) 
ZINC000068204830

>  <catalog_short_name>  (1491) 
dbfda

$$$$

     RDKit          3D

  7  6  0  0  0  0  0  0  0  0999 V2000
   -1.7196   -0.7198   -1.0466 O   0  0  0  0  0  0  0  0  0  0  0  0
   -0.8502   -0.1046    0.0250 S   0  0  0  0  0  0  0  0  0  0  0  0
   -1.7071   -0.0464    1.2700 O   0  0  0  0  0  0  0  0  0  0  0  0
   -0.3390    1.4368   -0.4185 O   0  0  0  0  0  0  0  0  0  0  0  0
    0.5654   -1.0632    0.4022 C   0  0  0  0  0  0  0  0  0  0  0  0
    1.8203   -0.6160   -0.2933 C   0  0  0  0  0  0  0  0  0  0  0  0
    2.2302    1.1132    0.0613 S   0  0  0  0  0  0  0  0  0  0  0  0
  1  2  2  0
  2  3  2  0
  2  4  1  0
  2  5  1  0
  5  6  1  0
  6  7  1  0
M  END
>  <supplier_code>  (1492) 
DB09110

>  <zinc_id>  (1492) 
ZINC000003831040

>  <catalog_short_name>  (1492) 
dbfda

$$$$

     RDKit          3D

 22 24  0  0  0  0  0  0  0  0999 V2000
    4.1875   -1.0350    1.7436 C   0  0  0  0  0  0  0  0  0  0  0  0
    3.5818   -1.1062    0.7544 C   0  0  0  0  0  0  0  0  0  0  0  0
    4.2359   -1.5181   -0.2518 O   0  0  0  0  0  0  0  0  0  0  0  0
    2.6080   -0.1577    0.4240 O   0  0  0  0  0  0  0  0  0  0  0  0
    1.6363   -0.6486   -0.7087 C   0  0  1  0  0  0  0  0  0  0  0  0
    0.6995   -1.4850    0.3944 C   0  0  0  0  0  0  0  0  0  0  0  0
   -0.6374   -1.6105   -0.2697 C   0  0  0  0  0  0  0  0  0  0  0  0
   -0.9915   -2.8490   -0.7013 C   0  0  0  0  0  0  0  0  0  0  0  0
   -2.3282   -3.0095   -1.0553 C   0  0  0  0  0  0  0  0  0  0  0  0
   -3.2960   -2.1941   -0.4772 C   0  0  0  0  0  0  0  0  0  0  0  0
   -2.9552   -1.0272    0.2007 C   0  0  0  0  0  0  0  0  0  0  0  0
   -1.6232   -0.7584    0.2384 C   0  0  0  0  0  0  0  0  0  0  0  0
   -1.2740    0.6259    0.3937 N   0  0  0  0  0  0  0  0  0  0  0  0
   -2.2755    1.3317    1.1119 C   0  0  0  0  0  0  0  0  0  0  0  0
   -1.9138    1.7470    2.4337 N   0  0  0  0  0  0  0  0  0  0  0  0
   -3.4390    1.2904    0.6860 O   0  0  0  0  0  0  0  0  0  0  0  0
   -0.0200    1.2967    0.1651 C   0  0  0  0  0  0  0  0  0  0  0  0
   -0.3386    2.6369   -0.0676 C   0  0  0  0  0  0  0  0  0  0  0  0
    0.2587    3.3545   -1.1038 C   0  0  0  0  0  0  0  0  0  0  0  0
    1.2843    2.7806   -1.8470 C   0  0  0  0  0  0  0  0  0  0  0  0
    1.7601    1.5659   -1.3698 C   0  0  0  0  0  0  0  0  0  0  0  0
    0.8401    0.7699   -0.6936 C   0  0  0  0  0  0  0  0  0  0  0  0
  1  2  1  0
  2  3  2  0
  2  4  1  0
  5  4  1  1
  5  6  1  0
  6  7  1  0
  7  8  2  0
  8  9  1  0
  9 10  2  0
 10 11  1  0
 11 12  2  0
 12 13  1  0
 13 14  1  0
 14 15  1  0
 14 16  2  0
 13 17  1  0
 17 18  2  0
 18 19  1  0
 19 20  2  0
 20 21  1  0
 21 22  2  0
 22  5  1  0
 12  7  1  0
 22 17  1  0
M  END
>  <supplier_code>  (1493) 
DB09119

>  <zinc_id>  (1493) 
ZINC000000007295

>  <catalog_short_name>  (1493) 
dbfda

$$$$

     RDKit          3D

 13 12  0  0  0  0  0  0  0  0999 V2000
   -2.7280   -0.3559   -0.6820 O   0  0  0  0  0  0  0  0  0  0  0  0
   -2.0751   -0.6765    0.3452 C   0  0  0  0  0  0  0  0  0  0  0  0
   -2.5845   -1.7454    1.0910 O   0  0  0  0  0  0  0  0  0  0  0  0
   -0.6959   -0.2692    0.6360 C   0  0  0  0  0  0  0  0  0  0  0  0
    0.0147    0.4194   -0.4775 C   0  0  0  0  0  0  0  0  0  0  0  0
   -0.7998    0.6536   -1.5979 O   0  0  0  0  0  0  0  0  0  0  0  0
    1.2542   -0.2472   -0.9548 C   0  0  0  0  0  0  0  0  0  0  0  0
    1.8365   -1.2549   -0.0758 C   0  0  0  0  0  0  0  0  0  0  0  0
    1.3446   -1.7188    0.9721 O   0  0  0  0  0  0  0  0  0  0  0  0
    3.2072   -1.5000   -0.2307 O   0  0  0  0  0  0  0  0  0  0  0  0
    0.3942    1.7810    0.0175 C   0  0  0  0  0  0  0  0  0  0  0  0
    0.0970    2.1945    1.1675 O   0  0  0  0  0  0  0  0  0  0  0  0
    0.7349    2.7193   -0.9441 O   0  0  0  0  0  0  0  0  0  0  0  0
  1  2  2  0
  2  3  1  0
  2  4  1  0
  4  5  1  0
  5  6  1  0
  5  7  1  0
  7  8  1  0
  8  9  2  0
  8 10  1  0
  5 11  1  0
 11 12  2  0
 11 13  1  0
M  END
>  <supplier_code>  (1494) 
DB09125

>  <zinc_id>  (1494) 
ZINC000000895081

>  <catalog_short_name>  (1494) 
dbfda

$$$$

     RDKit          3D

 31 35  0  0  0  0  0  0  0  0999 V2000
   -8.8999   -2.1057   -0.5555 O   0  0  0  0  0  0  0  0  0  0  0  0
   -8.0167   -1.2522   -0.2716 C   0  0  0  0  0  0  0  0  0  0  0  0
   -8.4387   -0.0392    0.2318 C   0  0  0  0  0  0  0  0  0  0  0  0
   -7.5662    0.7444    0.9688 C   0  0  0  0  0  0  0  0  0  0  0  0
   -6.2627    0.2904    1.0665 C   0  0  0  0  0  0  0  0  0  0  0  0
   -5.2990    1.1266    1.6069 C   0  0  0  0  0  0  0  0  0  0  0  0
   -3.9891    1.1420    1.1464 C   0  0  0  0  0  0  0  0  0  0  0  0
   -3.5914    0.1496    0.2604 C   0  0  0  0  0  0  0  0  0  0  0  0
   -2.5279    0.3333   -0.6185 O   0  0  0  0  0  0  0  0  0  0  0  0
   -1.3477   -0.4573   -0.5745 C   0  0  0  0  0  0  0  0  0  0  0  0
   -0.6969   -0.2231    0.7799 C   0  0  0  0  0  0  0  0  0  0  0  0
    0.0684    1.0702    0.7241 C   0  0  0  0  0  0  0  0  0  0  0  0
    1.3536    0.9095    1.4813 C   0  0  0  0  0  0  0  0  0  0  0  0
    1.9892   -0.3846    1.2357 N   0  0  0  0  0  0  0  0  0  0  0  0
    3.2956   -0.3052    1.8335 C   0  0  0  0  0  0  0  0  0  0  0  0
    4.2021   -1.4433    1.4630 C   0  0  0  0  0  0  0  0  0  0  0  0
    4.2921   -1.4410    0.0038 N   0  0  0  0  0  0  0  0  0  0  0  0
    5.4232   -0.7468   -0.5335 C   0  0  0  0  0  0  0  0  0  0  0  0
    6.6568   -1.1571   -0.1063 C   0  0  0  0  0  0  0  0  0  0  0  0
    7.8166   -0.4315   -0.2659 C   0  0  0  0  0  0  0  0  0  0  0  0
    7.6609    0.8490   -0.7842 C   0  0  0  0  0  0  0  0  0  0  0  0
    6.4396    1.2725   -1.2983 C   0  0  0  0  0  0  0  0  0  0  0  0
    5.7415    2.7700   -1.7661 S   0  0  0  0  0  0  0  0  0  0  0  0
    4.1290    2.2437   -2.0330 C   0  0  0  0  0  0  0  0  0  0  0  0
    4.3254    0.8673   -2.0478 C   0  0  0  0  0  0  0  0  0  0  0  0
    5.3023    0.4816   -1.1739 C   0  0  0  0  0  0  0  0  0  0  0  0
    3.0254   -1.5331   -0.6868 C   0  0  0  0  0  0  0  0  0  0  0  0
    1.9998   -0.5644   -0.1884 C   0  0  0  0  0  0  0  0  0  0  0  0
   -4.5059   -0.8388   -0.0725 C   0  0  0  0  0  0  0  0  0  0  0  0
   -5.8376   -0.7730    0.2956 C   0  0  0  0  0  0  0  0  0  0  0  0
   -6.7417   -1.6864   -0.1211 N   0  0  0  0  0  0  0  0  0  0  0  0
  1  2  2  0
  2  3  1  0
  3  4  2  0
  4  5  1  0
  5  6  2  0
  6  7  1  0
  7  8  2  0
  8  9  1  0
  9 10  1  0
 10 11  1  0
 11 12  1  0
 12 13  1  0
 13 14  1  0
 14 15  1  0
 15 16  1  0
 16 17  1  0
 17 18  1  0
 18 19  2  0
 19 20  1  0
 20 21  2  0
 21 22  1  0
 22 23  1  0
 23 24  1  0
 24 25  2  0
 25 26  1  0
 17 27  1  0
 27 28  1  0
  8 29  1  0
 29 30  2  0
 30 31  1  0
 31  2  1  0
 30  5  1  0
 28 14  1  0
 26 18  1  0
 26 22  2  0
M  END
>  <supplier_code>  (1495) 
DB09128

>  <zinc_id>  (1495) 
ZINC000084758479

>  <catalog_short_name>  (1495) 
dbfda

$$$$

     RDKit          3D

 28 28  0  0  0  0  0  0  0  0999 V2000
   -5.0394   -0.5032    0.3340 O   0  0  0  0  0  0  0  0  0  0  0  0
   -4.8101   -0.1058   -0.8473 C   0  0  0  0  0  0  0  0  0  0  0  0
   -5.9208    0.0427   -1.6626 O   0  0  0  0  0  0  0  0  0  0  0  0
   -3.4710    0.3661   -1.2897 C   0  0  0  0  0  0  0  0  0  0  0  0
   -2.5700    0.2063   -0.1704 N   0  0  0  0  0  0  0  0  0  0  0  0
   -1.7575    1.3653    0.0799 C   0  0  0  0  0  0  0  0  0  0  0  0
   -1.4880    2.1707   -1.1709 C   0  0  0  0  0  0  0  0  0  0  0  0
   -0.1573    2.7744   -1.1466 N   0  0  0  0  0  0  0  0  0  0  0  0
   -0.2527    4.1455   -0.6674 C   0  0  0  0  0  0  0  0  0  0  0  0
    0.4107    4.3307    0.6427 C   0  0  0  0  0  0  0  0  0  0  0  0
    1.6724    4.2429    0.7407 O   0  0  0  0  0  0  0  0  0  0  0  0
   -0.2478    5.0843    1.6183 O   0  0  0  0  0  0  0  0  0  0  0  0
    0.7329    2.0644   -0.2356 C   0  0  0  0  0  0  0  0  0  0  0  0
    1.6392    1.1011   -0.9641 C   0  0  0  0  0  0  0  0  0  0  0  0
    2.0974    0.1069   -0.0270 N   0  0  0  0  0  0  0  0  0  0  0  0
    3.4607    0.3211    0.3831 C   0  0  0  0  0  0  0  0  0  0  0  0
    4.4540   -0.2386   -0.5543 C   0  0  0  0  0  0  0  0  0  0  0  0
    5.5098    0.4296   -0.7372 O   0  0  0  0  0  0  0  0  0  0  0  0
    4.2113   -1.3091   -1.3997 O   0  0  0  0  0  0  0  0  0  0  0  0
    1.8426   -1.2422   -0.4610 C   0  0  0  0  0  0  0  0  0  0  0  0
    1.3065   -2.1179    0.6652 C   0  0  0  0  0  0  0  0  0  0  0  0
   -0.0641   -2.4178    0.3735 N   0  0  0  0  0  0  0  0  0  0  0  0
   -0.4657   -3.7591    0.6782 C   0  0  0  0  0  0  0  0  0  0  0  0
    0.4425   -4.4520    1.6260 C   0  0  0  0  0  0  0  0  0  0  0  0
    1.4294   -5.0534    1.1027 O   0  0  0  0  0  0  0  0  0  0  0  0
   -0.1794   -5.1591    2.6607 O   0  0  0  0  0  0  0  0  0  0  0  0
   -0.9926   -1.4101    0.8175 C   0  0  0  0  0  0  0  0  0  0  0  0
   -1.7930   -0.9835   -0.3885 C   0  0  0  0  0  0  0  0  0  0  0  0
  1  2  2  0
  2  3  1  0
  2  4  1  0
  4  5  1  0
  5  6  1  0
  6  7  1  0
  7  8  1  0
  8  9  1  0
  9 10  1  0
 10 11  2  0
 10 12  1  0
  8 13  1  0
 13 14  1  0
 14 15  1  0
 15 16  1  0
 16 17  1  0
 17 18  2  0
 17 19  1  0
 15 20  1  0
 20 21  1  0
 21 22  1  0
 22 23  1  0
 23 24  1  0
 24 25  2  0
 24 26  1  0
 22 27  1  0
 27 28  1  0
 28  5  1  0
M  END
>  <supplier_code>  (1496) 
DB09132

>  <zinc_id>  (1496) 
ZINC000022059268

>  <catalog_short_name>  (1496) 
dbfda

$$$$

     RDKit          3D

 20 20  0  0  0  0  0  0  0  0999 V2000
    3.8704   -1.9697    1.5826 C   0  0  0  0  0  0  0  0  0  0  0  0
    2.9016   -0.9439    1.2589 N   0  0  0  0  0  0  0  0  0  0  0  0
    2.6408   -0.5526   -0.0899 C   0  0  0  0  0  0  0  0  0  0  0  0
    3.2791   -1.1427   -0.9821 O   0  0  0  0  0  0  0  0  0  0  0  0
    1.2692   -0.1415   -0.4095 C   0  0  0  0  0  0  0  0  0  0  0  0
    0.2485   -1.0603   -0.5984 C   0  0  0  0  0  0  0  0  0  0  0  0
    0.5167   -3.0219    0.1080 I   0  0  0  0  0  0  0  0  0  0  0  0
   -1.0070   -0.6056   -0.9808 C   0  0  0  0  0  0  0  0  0  0  0  0
   -2.0765   -1.5228   -0.9051 N   0  0  0  0  0  0  0  0  0  0  0  0
   -2.5169   -1.9928    0.3753 C   0  0  0  0  0  0  0  0  0  0  0  0
   -3.6699   -2.9453    0.3228 C   0  0  0  0  0  0  0  0  0  0  0  0
   -2.2791   -1.2511    1.3491 O   0  0  0  0  0  0  0  0  0  0  0  0
   -1.3227    0.7367   -0.8067 C   0  0  0  0  0  0  0  0  0  0  0  0
   -3.2405    1.5095   -1.1809 I   0  0  0  0  0  0  0  0  0  0  0  0
   -0.3578    1.6564   -0.4130 C   0  0  0  0  0  0  0  0  0  0  0  0
   -0.6919    2.8438    0.3837 C   0  0  0  0  0  0  0  0  0  0  0  0
   -1.1710    2.6053    1.5339 O   0  0  0  0  0  0  0  0  0  0  0  0
    0.1963    3.9116    0.3142 O   0  0  0  0  0  0  0  0  0  0  0  0
    0.9480    1.2090   -0.3749 C   0  0  0  0  0  0  0  0  0  0  0  0
    2.4628    2.6782   -0.4875 I   0  0  0  0  0  0  0  0  0  0  0  0
  1  2  1  0
  2  3  1  0
  3  4  2  0
  3  5  1  0
  5  6  2  0
  6  7  1  0
  6  8  1  0
  8  9  1  0
  9 10  1  0
 10 11  1  0
 10 12  2  0
  8 13  2  0
 13 14  1  0
 13 15  1  0
 15 16  1  0
 16 17  2  0
 16 18  1  0
 15 19  2  0
 19 20  1  0
 19  5  1  0
M  END
>  <supplier_code>  (1497) 
DB09133

>  <zinc_id>  (1497) 
ZINC000003830961

>  <catalog_short_name>  (1497) 
dbfda

$$$$

     RDKit          3D

 33 33  0  0  0  0  0  0  0  0999 V2000
   -2.1111   -3.3915   -0.2300 O   0  0  0  0  0  0  0  0  0  0  0  0
   -1.1949   -3.6145    0.0142 C   0  0  0  0  0  0  0  0  0  0  0  0
   -0.4342   -4.6060   -0.8086 C   0  0  0  0  0  0  0  0  0  0  0  0
   -0.7664   -4.3958   -2.1569 O   0  0  0  0  0  0  0  0  0  0  0  0
   -0.5314   -2.8880    1.0604 N   0  0  0  0  0  0  0  0  0  0  0  0
   -0.8654   -3.3068    2.3965 C   0  0  0  0  0  0  0  0  0  0  0  0
   -2.2734   -3.8687    2.5031 C   0  0  0  0  0  0  0  0  0  0  0  0
   -2.3808   -5.1637    2.0487 O   0  0  0  0  0  0  0  0  0  0  0  0
   -0.0661   -1.5869    0.7131 C   0  0  0  0  0  0  0  0  0  0  0  0
    1.0154   -1.3844   -0.1388 C   0  0  0  0  0  0  0  0  0  0  0  0
    2.4936   -2.8600   -0.1664 I   0  0  0  0  0  0  0  0  0  0  0  0
    1.2729   -0.1124   -0.6452 C   0  0  0  0  0  0  0  0  0  0  0  0
    2.5958    0.2759   -1.0930 C   0  0  0  0  0  0  0  0  0  0  0  0
    2.8232    0.1424   -2.3326 O   0  0  0  0  0  0  0  0  0  0  0  0
    3.7039    0.4929   -0.2173 N   0  0  0  0  0  0  0  0  0  0  0  0
    5.0022    0.1356   -0.6902 C   0  0  0  0  0  0  0  0  0  0  0  0
    5.8398    1.5866   -0.8200 C   0  0  1  0  0  0  0  0  0  0  0  0
    4.6263    2.3083   -1.4554 O   0  0  0  0  0  0  0  0  0  0  0  0
    5.3755    2.0617    0.7250 C   0  0  0  0  0  0  0  0  0  0  0  0
    6.6589    2.2985    1.2511 O   0  0  0  0  0  0  0  0  0  0  0  0
    0.1311    0.6404   -0.9027 C   0  0  0  0  0  0  0  0  0  0  0  0
    0.2854    2.3572   -2.1155 I   0  0  0  0  0  0  0  0  0  0  0  0
   -1.0191    0.4644   -0.1895 C   0  0  0  0  0  0  0  0  0  0  0  0
   -2.1143    1.4063   -0.1132 C   0  0  0  0  0  0  0  0  0  0  0  0
   -2.9688    1.3304    0.8207 O   0  0  0  0  0  0  0  0  0  0  0  0
   -2.1986    2.5999   -0.9000 N   0  0  0  0  0  0  0  0  0  0  0  0
   -2.5605    3.7918   -0.2072 C   0  0  0  0  0  0  0  0  0  0  0  0
   -4.0607    4.2660   -0.7924 C   0  0  1  0  0  0  0  0  0  0  0  0
   -4.5436    2.8192   -1.0605 O   0  0  0  0  0  0  0  0  0  0  0  0
   -4.7197    4.2239    0.7557 C   0  0  0  0  0  0  0  0  0  0  0  0
   -3.8304    4.9872    1.4995 O   0  0  0  0  0  0  0  0  0  0  0  0
   -1.0031   -0.5637    0.7452 C   0  0  0  0  0  0  0  0  0  0  0  0
   -2.1814   -0.4460    2.5022 I   0  0  0  0  0  0  0  0  0  0  0  0
  1  2  2  0
  2  3  1  0
  3  4  1  0
  2  5  1  0
  5  6  1  0
  6  7  1  0
  7  8  1  0
  5  9  1  0
  9 10  2  0
 10 11  1  0
 10 12  1  0
 12 13  1  0
 13 14  2  0
 13 15  1  0
 15 16  1  0
 17 16  1  1
 17 18  1  0
 17 19  1  0
 19 20  1  0
 12 21  2  0
 21 22  1  0
 21 23  1  0
 23 24  1  0
 24 25  2  0
 24 26  1  0
 26 27  1  0
 28 27  1  1
 28 29  1  0
 28 30  1  0
 30 31  1  0
 23 32  2  0
 32 33  1  0
 32  9  1  0
M  END
>  <supplier_code>  (1498) 
DB09134

>  <zinc_id>  (1498) 
ZINC000008035395

>  <catalog_short_name>  (1498) 
dbfda

$$$$

     RDKit          3D

 33 33  0  0  0  0  0  0  0  0999 V2000
   -1.6212    4.0060   -0.9408 O   0  0  0  0  0  0  0  0  0  0  0  0
   -1.0764    4.1755   -0.7303 C   0  0  0  0  0  0  0  0  0  0  0  0
   -0.6600    5.6036   -0.9187 C   0  0  0  0  0  0  0  0  0  0  0  0
    0.6944    5.7928   -0.8016 O   0  0  0  0  0  0  0  0  0  0  0  0
   -0.2378    3.2065   -0.0845 N   0  0  0  0  0  0  0  0  0  0  0  0
    0.8952    3.7267    0.6403 C   0  0  0  0  0  0  0  0  0  0  0  0
    0.6720    3.5290    2.1010 C   0  0  0  0  0  0  0  0  0  0  0  0
   -0.6657    3.7365    2.3827 O   0  0  0  0  0  0  0  0  0  0  0  0
   -0.2867    1.8237   -0.4445 C   0  0  0  0  0  0  0  0  0  0  0  0
    0.8798    1.1265   -0.7342 C   0  0  0  0  0  0  0  0  0  0  0  0
    2.5158    2.2868   -1.3668 I   0  0  0  0  0  0  0  0  0  0  0  0
    1.0387   -0.2168   -0.4901 C   0  0  0  0  0  0  0  0  0  0  0  0
    2.3722   -0.7409   -0.1623 C   0  0  0  0  0  0  0  0  0  0  0  0
    3.3875    0.0130   -0.2566 O   0  0  0  0  0  0  0  0  0  0  0  0
    2.5871   -1.9994    0.4377 N   0  0  0  0  0  0  0  0  0  0  0  0
    3.8104   -2.3309    1.1273 C   0  0  0  0  0  0  0  0  0  0  0  0
    4.9577   -1.9306    0.0116 C   0  0  2  0  0  0  0  0  0  0  0  0
    4.6315   -3.1486   -0.8350 O   0  0  0  0  0  0  0  0  0  0  0  0
    6.1286   -2.7499    0.8358 C   0  0  0  0  0  0  0  0  0  0  0  0
    7.0756   -2.9702   -0.1575 O   0  0  0  0  0  0  0  0  0  0  0  0
   -0.0215   -0.8777    0.1042 C   0  0  0  0  0  0  0  0  0  0  0  0
    0.2282   -2.8793    0.6746 I   0  0  0  0  0  0  0  0  0  0  0  0
   -1.2892   -0.3408   -0.0650 C   0  0  0  0  0  0  0  0  0  0  0  0
   -2.4231   -1.2275    0.2132 C   0  0  0  0  0  0  0  0  0  0  0  0
   -2.5342   -1.6070    1.4184 O   0  0  0  0  0  0  0  0  0  0  0  0
   -2.9717   -2.0989   -0.7729 N   0  0  0  0  0  0  0  0  0  0  0  0
   -3.2537   -3.4980   -0.5527 C   0  0  0  0  0  0  0  0  0  0  0  0
   -4.1931   -3.5297    0.8030 C   0  0  2  0  0  0  0  0  0  0  0  0
   -4.6053   -4.9694    0.5499 O   0  0  0  0  0  0  0  0  0  0  0  0
   -5.5000   -2.9541   -0.0231 C   0  0  0  0  0  0  0  0  0  0  0  0
   -5.9021   -1.9030    0.7977 O   0  0  0  0  0  0  0  0  0  0  0  0
   -1.3892    1.0182   -0.1936 C   0  0  0  0  0  0  0  0  0  0  0  0
   -3.2438    1.9285    0.1726 I   0  0  0  0  0  0  0  0  0  0  0  0
  1  2  2  0
  2  3  1  0
  3  4  1  0
  2  5  1  0
  5  6  1  0
  6  7  1  0
  7  8  1  0
  5  9  1  0
  9 10  2  0
 10 11  1  0
 10 12  1  0
 12 13  1  0
 13 14  2  0
 13 15  1  0
 15 16  1  0
 17 16  1  1
 17 18  1  0
 17 19  1  0
 19 20  1  0
 12 21  2  0
 21 22  1  0
 21 23  1  0
 23 24  1  0
 24 25  2  0
 24 26  1  0
 26 27  1  0
 28 27  1  6
 28 29  1  0
 28 30  1  0
 30 31  1  0
 23 32  2  0
 32 33  1  0
 32  9  1  0
M  END
>  <supplier_code>  (1499) 
DB09134

>  <zinc_id>  (1499) 
ZINC000008143864

>  <catalog_short_name>  (1499) 
dbfda

$$$$

     RDKit          3D

 33 33  0  0  0  0  0  0  0  0999 V2000
    1.3584   -3.1301    0.8551 O   0  0  0  0  0  0  0  0  0  0  0  0
    1.7682   -2.2394    0.4500 C   0  0  0  0  0  0  0  0  0  0  0  0
    3.0885   -2.3326    0.0022 N   0  0  0  0  0  0  0  0  0  0  0  0
    3.5101   -3.5964   -0.5468 C   0  0  0  0  0  0  0  0  0  0  0  0
    4.9601   -3.2709   -1.3119 C   0  0  1  0  0  0  0  0  0  0  0  0
    4.4248   -1.9646   -1.9309 O   0  0  0  0  0  0  0  0  0  0  0  0
    5.5567   -2.4648    0.0284 C   0  0  0  0  0  0  0  0  0  0  0  0
    6.3706   -1.4853   -0.5528 O   0  0  0  0  0  0  0  0  0  0  0  0
    0.8520   -1.1236    0.1955 C   0  0  0  0  0  0  0  0  0  0  0  0
   -0.5138   -1.3760    0.2711 C   0  0  0  0  0  0  0  0  0  0  0  0
   -1.1529   -3.3764    0.5186 I   0  0  0  0  0  0  0  0  0  0  0  0
   -1.4400   -0.3601    0.4713 C   0  0  0  0  0  0  0  0  0  0  0  0
   -2.8450   -0.5923    0.1651 C   0  0  0  0  0  0  0  0  0  0  0  0
   -3.2377   -0.3000   -1.0058 O   0  0  0  0  0  0  0  0  0  0  0  0
   -3.8564   -0.7298    1.1420 N   0  0  0  0  0  0  0  0  0  0  0  0
   -5.2583   -0.8778    0.8161 C   0  0  0  0  0  0  0  0  0  0  0  0
   -5.1314   -1.7671   -0.5954 C   0  0  2  0  0  0  0  0  0  0  0  0
   -6.0895   -0.8134   -1.3324 O   0  0  0  0  0  0  0  0  0  0  0  0
   -6.4001   -2.7549   -0.1331 C   0  0  0  0  0  0  0  0  0  0  0  0
   -5.8869   -3.3421    1.0254 O   0  0  0  0  0  0  0  0  0  0  0  0
   -1.0201    0.9499    0.5838 C   0  0  0  0  0  0  0  0  0  0  0  0
   -2.2631    2.2666    1.6471 I   0  0  0  0  0  0  0  0  0  0  0  0
    0.3051    1.2428    0.2820 C   0  0  0  0  0  0  0  0  0  0  0  0
    0.7183    2.6149    0.3232 N   0  0  0  0  0  0  0  0  0  0  0  0
    2.1662    2.8049    0.2157 C   0  0  0  0  0  0  0  0  0  0  0  0
    2.5777    4.2385    0.2951 C   0  0  0  0  0  0  0  0  0  0  0  0
    3.1671    4.6785   -0.9012 O   0  0  0  0  0  0  0  0  0  0  0  0
   -0.0318    3.6438   -0.3387 C   0  0  0  0  0  0  0  0  0  0  0  0
    0.1296    3.6900   -1.5941 O   0  0  0  0  0  0  0  0  0  0  0  0
   -0.3753    4.8661    0.4334 C   0  0  0  0  0  0  0  0  0  0  0  0
    0.1208    6.0259   -0.1287 O   0  0  0  0  0  0  0  0  0  0  0  0
    1.2155    0.1924    0.3046 C   0  0  0  0  0  0  0  0  0  0  0  0
    3.2127    0.6833    0.8109 I   0  0  0  0  0  0  0  0  0  0  0  0
  1  2  2  0
  2  3  1  0
  3  4  1  0
  5  4  1  1
  5  6  1  0
  5  7  1  0
  7  8  1  0
  2  9  1  0
  9 10  2  0
 10 11  1  0
 10 12  1  0
 12 13  1  0
 13 14  2  0
 13 15  1  0
 15 16  1  0
 17 16  1  1
 17 18  1  0
 17 19  1  0
 19 20  1  0
 12 21  2  0
 21 22  1  0
 21 23  1  0
 23 24  1  0
 24 25  1  0
 25 26  1  0
 26 27  1  0
 24 28  1  0
 28 29  2  0
 28 30  1  0
 30 31  1  0
 23 32  2  0
 32 33  1  0
 32  9  1  0
M  END
>  <supplier_code>  (1500) 
DB09134

>  <zinc_id>  (1500) 
ZINC000008143866

>  <catalog_short_name>  (1500) 
dbfda

$$$$

     RDKit          3D

 32 32  0  0  0  0  0  0  0  0999 V2000
   -1.6996   -0.9382    2.7917 C   0  0  0  0  0  0  0  0  0  0  0  0
   -2.5709   -1.3359    2.0188 C   0  0  0  0  0  0  0  0  0  0  0  0
   -3.7668   -1.4650    2.4204 O   0  0  0  0  0  0  0  0  0  0  0  0
   -2.3641   -1.2957    0.6036 N   0  0  0  0  0  0  0  0  0  0  0  0
   -3.3882   -1.7140   -0.3485 C   0  0  0  0  0  0  0  0  0  0  0  0
   -2.5673   -2.9286   -1.1789 C   0  0  2  0  0  0  0  0  0  0  0  0
   -3.4998   -2.7642   -2.4066 O   0  0  0  0  0  0  0  0  0  0  0  0
   -3.5778   -4.1060   -0.5230 C   0  0  0  0  0  0  0  0  0  0  0  0
   -2.8361   -4.5025    0.6021 O   0  0  0  0  0  0  0  0  0  0  0  0
   -1.3866   -0.3819    0.1215 C   0  0  0  0  0  0  0  0  0  0  0  0
   -1.6861    0.9639    0.1190 C   0  0  0  0  0  0  0  0  0  0  0  0
   -3.4670    1.6998    0.9903 I   0  0  0  0  0  0  0  0  0  0  0  0
   -0.8330    1.7980   -0.5905 C   0  0  0  0  0  0  0  0  0  0  0  0
   -1.1816    3.2244   -0.5713 C   0  0  0  0  0  0  0  0  0  0  0  0
   -2.3445    3.5581   -0.9126 O   0  0  0  0  0  0  0  0  0  0  0  0
   -0.4302    4.1937    0.1427 N   0  0  0  0  0  0  0  0  0  0  0  0
   -1.0610    5.0979    1.1026 C   0  0  0  0  0  0  0  0  0  0  0  0
    0.0338    5.4351    2.1095 C   0  0  0  0  0  0  0  0  0  0  0  0
    1.2076    5.6165    1.3618 O   0  0  0  0  0  0  0  0  0  0  0  0
    0.5024    1.4547   -0.7172 C   0  0  0  0  0  0  0  0  0  0  0  0
    1.7827    2.7788   -1.7506 I   0  0  0  0  0  0  0  0  0  0  0  0
    0.8022    0.1154   -0.6780 C   0  0  0  0  0  0  0  0  0  0  0  0
    1.9684   -0.4625   -1.3590 C   0  0  0  0  0  0  0  0  0  0  0  0
    1.9675   -0.6661   -2.6122 O   0  0  0  0  0  0  0  0  0  0  0  0
    2.8449   -1.3250   -0.6225 N   0  0  0  0  0  0  0  0  0  0  0  0
    4.2327   -1.3839   -1.0784 C   0  0  0  0  0  0  0  0  0  0  0  0
    4.9601   -1.4145    0.4416 C   0  0  2  0  0  0  0  0  0  0  0  0
    5.6344   -0.0420    0.1868 O   0  0  0  0  0  0  0  0  0  0  0  0
    6.3002   -2.2245   -0.1784 C   0  0  0  0  0  0  0  0  0  0  0  0
    5.9087   -3.5458    0.0875 O   0  0  0  0  0  0  0  0  0  0  0  0
   -0.0587   -0.7413   -0.0033 C   0  0  0  0  0  0  0  0  0  0  0  0
    0.5738   -2.6986    0.4312 I   0  0  0  0  0  0  0  0  0  0  0  0
  1  2  1  0
  2  3  2  0
  2  4  1  0
  4  5  1  0
  6  5  1  1
  6  7  1  0
  6  8  1  0
  8  9  1  0
  4 10  1  0
 10 11  2  0
 11 12  1  0
 11 13  1  0
 13 14  1  0
 14 15  2  0
 14 16  1  0
 16 17  1  0
 17 18  1  0
 18 19  1  0
 13 20  2  0
 20 21  1  0
 20 22  1  0
 22 23  1  0
 23 24  2  0
 23 25  1  0
 25 26  1  0
 27 26  1  6
 27 28  1  0
 27 29  1  0
 29 30  1  0
 22 31  2  0
 31 32  1  0
 31 10  1  0
M  END
>  <supplier_code>  (1501) 
DB09135

>  <zinc_id>  (1501) 
ZINC000008214418

>  <catalog_short_name>  (1501) 
dbfda

$$$$

     RDKit          3D

 32 32  0  0  0  0  0  0  0  0999 V2000
   -1.2613   -3.6713   -0.4072 C   0  0  0  0  0  0  0  0  0  0  0  0
   -1.1797   -3.3068    0.0186 C   0  0  0  0  0  0  0  0  0  0  0  0
   -0.9736   -3.4952    1.2469 O   0  0  0  0  0  0  0  0  0  0  0  0
   -1.7271   -2.0705   -0.3258 N   0  0  0  0  0  0  0  0  0  0  0  0
   -3.1141   -1.9328    0.1083 C   0  0  0  0  0  0  0  0  0  0  0  0
   -3.9005   -3.1510   -0.6839 C   0  0  1  0  0  0  0  0  0  0  0  0
   -3.6595   -4.1258    0.4587 O   0  0  0  0  0  0  0  0  0  0  0  0
   -5.3638   -2.7014   -0.0687 C   0  0  0  0  0  0  0  0  0  0  0  0
   -6.0951   -2.2750   -1.1836 O   0  0  0  0  0  0  0  0  0  0  0  0
   -0.8762   -0.9253   -0.4303 C   0  0  0  0  0  0  0  0  0  0  0  0
   -1.4117    0.3395   -0.3557 C   0  0  0  0  0  0  0  0  0  0  0  0
   -3.3143    0.6445   -1.1825 I   0  0  0  0  0  0  0  0  0  0  0  0
   -0.6103    1.4496   -0.1796 C   0  0  0  0  0  0  0  0  0  0  0  0
   -0.9971    2.7966   -0.5934 C   0  0  0  0  0  0  0  0  0  0  0  0
   -1.8842    2.9176   -1.4893 O   0  0  0  0  0  0  0  0  0  0  0  0
   -0.7543    3.9231    0.2274 N   0  0  0  0  0  0  0  0  0  0  0  0
   -1.7517    4.9547    0.3590 C   0  0  0  0  0  0  0  0  0  0  0  0
   -2.7054    4.9161   -0.8216 C   0  0  0  0  0  0  0  0  0  0  0  0
   -4.0193    5.0311   -0.3492 O   0  0  0  0  0  0  0  0  0  0  0  0
    0.7270    1.3083    0.1712 C   0  0  0  0  0  0  0  0  0  0  0  0
    1.8282    2.9152    0.9967 I   0  0  0  0  0  0  0  0  0  0  0  0
    1.2831    0.0358    0.1592 C   0  0  0  0  0  0  0  0  0  0  0  0
    2.6898   -0.1947    0.5215 C   0  0  0  0  0  0  0  0  0  0  0  0
    2.9912   -0.5104    1.6894 O   0  0  0  0  0  0  0  0  0  0  0  0
    3.7033   -0.3397   -0.4784 N   0  0  0  0  0  0  0  0  0  0  0  0
    5.0735   -0.7368   -0.1707 C   0  0  0  0  0  0  0  0  0  0  0  0
    5.8794    0.6255   -0.6485 C   0  0  2  0  0  0  0  0  0  0  0  0
    7.2433   -0.0391   -0.5132 O   0  0  0  0  0  0  0  0  0  0  0  0
    5.9224    1.2440    0.8842 C   0  0  0  0  0  0  0  0  0  0  0  0
    6.3437    0.2070    1.6793 O   0  0  0  0  0  0  0  0  0  0  0  0
    0.4779   -1.0374   -0.1446 C   0  0  0  0  0  0  0  0  0  0  0  0
    1.4361   -2.7953   -0.8070 I   0  0  0  0  0  0  0  0  0  0  0  0
  1  2  1  0
  2  3  2  0
  2  4  1  0
  4  5  1  0
  6  5  1  1
  6  7  1  0
  6  8  1  0
  8  9  1  0
  4 10  1  0
 10 11  2  0
 11 12  1  0
 11 13  1  0
 13 14  1  0
 14 15  2  0
 14 16  1  0
 16 17  1  0
 17 18  1  0
 18 19  1  0
 13 20  2  0
 20 21  1  0
 20 22  1  0
 22 23  1  0
 23 24  2  0
 23 25  1  0
 25 26  1  0
 27 26  1  1
 27 28  1  0
 27 29  1  0
 29 30  1  0
 22 31  2  0
 31 32  1  0
 31 10  1  0
M  END
>  <supplier_code>  (1502) 
DB09135

>  <zinc_id>  (1502) 
ZINC000085540215

>  <catalog_short_name>  (1502) 
dbfda

$$$$

     RDKit          3D

 32 32  0  0  0  0  0  0  0  0999 V2000
   -2.0532   -3.2454   -0.2020 C   0  0  0  0  0  0  0  0  0  0  0  0
   -1.9541   -3.0655   -0.4862 C   0  0  0  0  0  0  0  0  0  0  0  0
   -2.5547   -4.0285   -0.9061 O   0  0  0  0  0  0  0  0  0  0  0  0
   -2.2655   -1.7882   -0.0159 N   0  0  0  0  0  0  0  0  0  0  0  0
   -3.0583   -1.9266    1.2218 C   0  0  0  0  0  0  0  0  0  0  0  0
   -4.5746   -1.4203    0.8161 C   0  0  2  0  0  0  0  0  0  0  0  0
   -4.9809   -1.3579    2.2826 O   0  0  0  0  0  0  0  0  0  0  0  0
   -5.1534   -2.9596    0.6570 C   0  0  0  0  0  0  0  0  0  0  0  0
   -5.9123   -2.7704   -0.5127 O   0  0  0  0  0  0  0  0  0  0  0  0
   -1.1835   -0.8364   -0.0425 C   0  0  0  0  0  0  0  0  0  0  0  0
   -1.4024    0.5319    0.0094 C   0  0  0  0  0  0  0  0  0  0  0  0
   -3.2725    1.3241   -0.5204 I   0  0  0  0  0  0  0  0  0  0  0  0
   -0.3621    1.4395    0.1775 C   0  0  0  0  0  0  0  0  0  0  0  0
   -0.6226    2.8843    0.0998 C   0  0  0  0  0  0  0  0  0  0  0  0
   -1.7044    3.2759   -0.4365 O   0  0  0  0  0  0  0  0  0  0  0  0
   -0.0838    3.7877    1.0734 N   0  0  0  0  0  0  0  0  0  0  0  0
   -0.2278    5.2087    0.8710 C   0  0  0  0  0  0  0  0  0  0  0  0
   -1.6136    5.5175    0.3260 C   0  0  0  0  0  0  0  0  0  0  0  0
   -1.7193    6.9081    0.2836 O   0  0  0  0  0  0  0  0  0  0  0  0
    0.9426    1.0193   -0.0486 C   0  0  0  0  0  0  0  0  0  0  0  0
    2.5399    2.3894   -0.2406 I   0  0  0  0  0  0  0  0  0  0  0  0
    1.1795   -0.3102   -0.2659 C   0  0  0  0  0  0  0  0  0  0  0  0
    2.5678   -0.7858   -0.1760 C   0  0  0  0  0  0  0  0  0  0  0  0
    2.7570   -1.7087    0.6735 O   0  0  0  0  0  0  0  0  0  0  0  0
    3.5053   -0.6314   -1.2221 N   0  0  0  0  0  0  0  0  0  0  0  0
    4.6894   -1.4710   -1.3457 C   0  0  0  0  0  0  0  0  0  0  0  0
    5.6448   -0.9576   -0.0973 C   0  0  1  0  0  0  0  0  0  0  0  0
    6.7572   -1.9207   -0.4917 O   0  0  0  0  0  0  0  0  0  0  0  0
    6.2937    0.2485   -1.0240 C   0  0  0  0  0  0  0  0  0  0  0  0
    7.1446    0.9345   -0.1782 O   0  0  0  0  0  0  0  0  0  0  0  0
    0.1238   -1.2140   -0.3219 C   0  0  0  0  0  0  0  0  0  0  0  0
    0.5534   -3.0710   -1.1675 I   0  0  0  0  0  0  0  0  0  0  0  0
  1  2  1  0
  2  3  2  0
  2  4  1  0
  4  5  1  0
  6  5  1  1
  6  7  1  0
  6  8  1  0
  8  9  1  0
  4 10  1  0
 10 11  2  0
 11 12  1  0
 11 13  1  0
 13 14  1  0
 14 15  2  0
 14 16  1  0
 16 17  1  0
 17 18  1  0
 18 19  1  0
 13 20  2  0
 20 21  1  0
 20 22  1  0
 22 23  1  0
 23 24  2  0
 23 25  1  0
 25 26  1  0
 27 26  1  6
 27 28  1  0
 27 29  1  0
 29 30  1  0
 22 31  2  0
 31 32  1  0
 31 10  1  0
M  END
>  <supplier_code>  (1503) 
DB09135

>  <zinc_id>  (1503) 
ZINC000085540219

>  <catalog_short_name>  (1503) 
dbfda

$$$$

     RDKit          3D

 32 32  0  0  0  0  0  0  0  0999 V2000
   -2.2577   -2.2799   -1.4350 C   0  0  0  0  0  0  0  0  0  0  0  0
   -1.9847   -2.2533   -1.3202 C   0  0  0  0  0  0  0  0  0  0  0  0
   -1.6437   -1.8798   -2.4137 O   0  0  0  0  0  0  0  0  0  0  0  0
   -2.0743   -1.7572   -0.0226 N   0  0  0  0  0  0  0  0  0  0  0  0
   -3.4036   -2.0096    0.5573 C   0  0  0  0  0  0  0  0  0  0  0  0
   -3.2010   -3.3708    1.4731 C   0  0  1  0  0  0  0  0  0  0  0  0
   -4.7060   -3.5593    1.5928 O   0  0  0  0  0  0  0  0  0  0  0  0
   -3.1400   -4.3536    0.1468 C   0  0  0  0  0  0  0  0  0  0  0  0
   -2.1809   -5.2685    0.5533 O   0  0  0  0  0  0  0  0  0  0  0  0
   -1.2946   -0.7058    0.5141 C   0  0  0  0  0  0  0  0  0  0  0  0
   -1.5948    0.5581    0.0180 C   0  0  0  0  0  0  0  0  0  0  0  0
   -3.3825    0.9039   -1.0385 I   0  0  0  0  0  0  0  0  0  0  0  0
   -0.7185    1.6067    0.1542 C   0  0  0  0  0  0  0  0  0  0  0  0
   -1.2099    2.9890    0.2281 C   0  0  0  0  0  0  0  0  0  0  0  0
   -0.8535    3.6398    1.2558 O   0  0  0  0  0  0  0  0  0  0  0  0
   -1.5357    3.7544   -0.9183 N   0  0  0  0  0  0  0  0  0  0  0  0
   -0.9673    5.0621   -1.2038 C   0  0  0  0  0  0  0  0  0  0  0  0
   -1.7683    6.1820   -0.6026 C   0  0  0  0  0  0  0  0  0  0  0  0
   -3.1454    5.9850   -0.7391 O   0  0  0  0  0  0  0  0  0  0  0  0
    0.6122    1.3621    0.4122 C   0  0  0  0  0  0  0  0  0  0  0  0
    2.0231    2.9115    0.6051 I   0  0  0  0  0  0  0  0  0  0  0  0
    1.0140    0.0467    0.6025 C   0  0  0  0  0  0  0  0  0  0  0  0
    2.4428   -0.2938    0.5729 C   0  0  0  0  0  0  0  0  0  0  0  0
    2.7182   -1.5250    0.7018 O   0  0  0  0  0  0  0  0  0  0  0  0
    3.3636    0.5288   -0.1245 N   0  0  0  0  0  0  0  0  0  0  0  0
    4.5348   -0.1120   -0.7143 C   0  0  0  0  0  0  0  0  0  0  0  0
    5.7967    0.4480    0.1939 C   0  0  1  0  0  0  0  0  0  0  0  0
    5.1460    0.0030    1.4970 O   0  0  0  0  0  0  0  0  0  0  0  0
    6.6618   -0.9407   -0.0083 C   0  0  0  0  0  0  0  0  0  0  0  0
    6.0682   -1.9471    0.6221 O   0  0  0  0  0  0  0  0  0  0  0  0
    0.0346   -0.9110    0.8266 C   0  0  0  0  0  0  0  0  0  0  0  0
    0.6468   -2.8137    1.4445 I   0  0  0  0  0  0  0  0  0  0  0  0
  1  2  1  0
  2  3  2  0
  2  4  1  0
  4  5  1  0
  6  5  1  6
  6  7  1  0
  6  8  1  0
  8  9  1  0
  4 10  1  0
 10 11  2  0
 11 12  1  0
 11 13  1  0
 13 14  1  0
 14 15  2  0
 14 16  1  0
 16 17  1  0
 17 18  1  0
 18 19  1  0
 13 20  2  0
 20 21  1  0
 20 22  1  0
 22 23  1  0
 23 24  2  0
 23 25  1  0
 25 26  1  0
 27 26  1  6
 27 28  1  0
 27 29  1  0
 29 30  1  0
 22 31  2  0
 31 32  1  0
 31 10  1  0
M  END
>  <supplier_code>  (1504) 
DB09135

>  <zinc_id>  (1504) 
ZINC000085540223

>  <catalog_short_name>  (1504) 
dbfda

$$$$

     RDKit          3D

 37 39  0  0  0  0  0  0  0  0999 V2000
   -4.8475   -2.1191   -0.0361 C   0  0  0  0  0  0  0  0  0  0  0  0
   -4.6193   -3.5497   -0.5019 C   0  0  0  0  0  0  0  0  0  0  0  0
   -3.3208   -3.9390    0.0197 N   0  0  0  0  0  0  0  0  0  0  0  0
   -3.1975   -5.2950    0.5102 C   0  0  0  0  0  0  0  0  0  0  0  0
   -3.8199   -6.2846   -0.4642 C   0  0  0  0  0  0  0  0  0  0  0  0
   -2.2240   -3.0227    0.1107 C   0  0  0  0  0  0  0  0  0  0  0  0
   -1.9484   -2.5132    1.3733 C   0  0  0  0  0  0  0  0  0  0  0  0
   -0.9068   -1.5958    1.4387 C   0  0  0  0  0  0  0  0  0  0  0  0
   -0.8265   -0.6903    0.4170 C   0  0  0  0  0  0  0  0  0  0  0  0
    0.1637    0.3989    0.3750 C   0  0  0  0  0  0  0  0  0  0  0  0
   -0.3646    1.6979   -0.0656 C   0  0  0  0  0  0  0  0  0  0  0  0
   -1.6907    1.8728   -0.4298 C   0  0  0  0  0  0  0  0  0  0  0  0
   -2.2442    3.1082   -0.6904 C   0  0  0  0  0  0  0  0  0  0  0  0
   -3.9087    3.4803   -0.2581 S   0  0  0  0  0  0  0  0  0  0  0  0
   -3.9344    4.3308    0.9909 O   0  0  0  0  0  0  0  0  0  0  0  0
   -4.5737    2.1787    0.1064 O   0  0  0  0  0  0  0  0  0  0  0  0
   -4.7178    4.2239   -1.5191 O   0  0  0  0  0  0  0  0  0  0  0  0
   -1.3346    4.1144   -0.9935 C   0  0  0  0  0  0  0  0  0  0  0  0
   -0.0093    3.9634   -0.6055 C   0  0  0  0  0  0  0  0  0  0  0  0
    0.4356    2.8263    0.0563 C   0  0  0  0  0  0  0  0  0  0  0  0
    1.7284    2.8958    1.2188 S   0  0  0  0  0  0  0  0  0  0  0  0
    1.4263    2.1197    2.4672 O   0  0  0  0  0  0  0  0  0  0  0  0
    3.0502    2.4842    0.6087 O   0  0  0  0  0  0  0  0  0  0  0  0
    1.9662    4.4945    1.7231 O   0  0  0  0  0  0  0  0  0  0  0  0
    1.3711   -0.0314   -0.0036 C   0  0  0  0  0  0  0  0  0  0  0  0
    1.6402   -0.2046   -1.4382 C   0  0  0  0  0  0  0  0  0  0  0  0
    2.6603   -0.9661   -1.8374 C   0  0  0  0  0  0  0  0  0  0  0  0
    3.6557   -1.2696   -0.8016 C   0  0  0  0  0  0  0  0  0  0  0  0
    4.8809   -1.5785   -1.0894 N   0  0  0  0  0  0  0  0  0  0  0  0
    5.7934   -0.4830   -1.4030 C   0  0  0  0  0  0  0  0  0  0  0  0
    6.0970    0.3298   -0.1559 C   0  0  0  0  0  0  0  0  0  0  0  0
    5.4833   -2.7712   -0.5323 C   0  0  0  0  0  0  0  0  0  0  0  0
    6.5331   -2.4600    0.4976 C   0  0  0  0  0  0  0  0  0  0  0  0
    3.1428   -1.5104    0.5452 C   0  0  0  0  0  0  0  0  0  0  0  0
    1.9368   -1.0879    0.8484 C   0  0  0  0  0  0  0  0  0  0  0  0
   -1.4185   -0.9692   -0.8092 C   0  0  0  0  0  0  0  0  0  0  0  0
   -2.0579   -2.1783   -0.9796 C   0  0  0  0  0  0  0  0  0  0  0  0
  1  2  1  0
  2  3  1  0
  3  4  1  0
  4  5  1  0
  3  6  1  0
  6  7  2  0
  7  8  1  0
  8  9  2  0
  9 10  1  0
 10 11  1  0
 11 12  2  0
 12 13  1  0
 13 14  1  0
 14 15  2  0
 14 16  2  0
 14 17  1  0
 13 18  2  0
 18 19  1  0
 19 20  2  0
 20 21  1  0
 21 22  2  0
 21 23  2  0
 21 24  1  0
 10 25  2  3
 25 26  1  0
 26 27  2  0
 27 28  1  0
 28 29  2  3
 29 30  1  0
 30 31  1  0
 29 32  1  0
 32 33  1  0
 28 34  1  0
 34 35  2  0
  9 36  1  0
 36 37  2  0
 37  6  1  0
 20 11  1  0
 35 25  1  0
M  CHG  1  29   1
M  END
>  <supplier_code>  (1505) 
DB09136

>  <zinc_id>  (1505) 
ZINC000003873832

>  <catalog_short_name>  (1505) 
dbfda

$$$$

     RDKit          3D

 23 23  0  0  0  0  0  0  0  0999 V2000
    5.8944    0.7279   -0.2682 C   0  0  0  0  0  0  0  0  0  0  0  0
    4.4174    0.6533   -0.0715 C   0  0  0  0  0  0  0  0  0  0  0  0
    3.6602    1.7608    0.2900 C   0  0  0  0  0  0  0  0  0  0  0  0
    2.2714    1.7177    0.3134 C   0  0  0  0  0  0  0  0  0  0  0  0
    1.4742    2.9715    0.4610 C   0  0  0  0  0  0  0  0  0  0  0  0
    1.7001    0.7340   -0.4857 C   0  0  0  0  0  0  0  0  0  0  0  0
    0.2780    0.6045   -0.3696 N   0  0  0  0  0  0  0  0  0  0  0  0
   -0.3512    0.2127    0.8334 C   0  0  0  0  0  0  0  0  0  0  0  0
    0.3285   -0.4591    1.6515 O   0  0  0  0  0  0  0  0  0  0  0  0
   -1.7771    0.5408    1.1336 C   0  0  0  0  0  0  0  0  0  0  0  0
   -2.6300   -0.2582    0.2986 N   0  0  0  0  0  0  0  0  0  0  0  0
   -3.2636    0.5797   -0.6794 C   0  0  0  0  0  0  0  0  0  0  0  0
   -4.0565    1.6313    0.0227 C   0  0  0  0  0  0  0  0  0  0  0  0
   -4.2335    1.5586    1.2753 O   0  0  0  0  0  0  0  0  0  0  0  0
   -5.1311    2.1690   -0.6911 O   0  0  0  0  0  0  0  0  0  0  0  0
   -1.9901   -1.4150   -0.2638 C   0  0  0  0  0  0  0  0  0  0  0  0
   -2.7015   -2.6848    0.0653 C   0  0  0  0  0  0  0  0  0  0  0  0
   -2.6875   -3.6409   -0.7675 O   0  0  0  0  0  0  0  0  0  0  0  0
   -3.7401   -2.7341    0.9998 O   0  0  0  0  0  0  0  0  0  0  0  0
    2.3720   -0.4691   -0.6735 C   0  0  0  0  0  0  0  0  0  0  0  0
    1.7752   -1.5311   -1.5416 C   0  0  0  0  0  0  0  0  0  0  0  0
    3.7323   -0.4972   -0.4096 C   0  0  0  0  0  0  0  0  0  0  0  0
    4.6586   -2.1722   -0.4481 Br  0  0  0  0  0  0  0  0  0  0  0  0
  1  2  1  0
  2  3  2  0
  3  4  1  0
  4  5  1  0
  4  6  2  0
  6  7  1  0
  7  8  1  0
  8  9  2  0
  8 10  1  0
 10 11  1  0
 11 12  1  0
 12 13  1  0
 13 14  2  0
 13 15  1  0
 11 16  1  0
 16 17  1  0
 17 18  2  0
 17 19  1  0
  6 20  1  0
 20 21  1  0
 20 22  2  0
 22 23  1  0
 22  2  1  0
M  END
>  <supplier_code>  (1506) 
DB09137

>  <zinc_id>  (1506) 
ZINC000000537957

>  <catalog_short_name>  (1506) 
dbfda

$$$$

     RDKit          3D

  9  8  0  0  0  0  0  0  0  0999 V2000
    1.3181   -1.5102    0.3800 O   0  0  0  0  0  0  0  0  0  0  0  0
    1.5045   -0.0619   -0.0456 P   0  0  0  0  0  0  0  0  0  0  0  0
    2.8161    0.0967   -1.1174 O   0  0  0  0  0  0  0  0  0  0  0  0
    1.8536    0.8916    1.3197 O   0  0  0  0  0  0  0  0  0  0  0  0
    0.0494    0.5563   -0.9216 C   0  0  0  0  0  0  0  0  0  0  0  0
   -1.4935    0.1021   -0.1238 P   0  0  0  0  0  0  0  0  0  0  0  0
   -2.4049   -0.6517   -1.0796 O   0  0  0  0  0  0  0  0  0  0  0  0
   -1.2502   -0.8826    1.2197 O   0  0  0  0  0  0  0  0  0  0  0  0
   -2.3929    1.4596    0.3685 O   0  0  0  0  0  0  0  0  0  0  0  0
  1  2  2  0
  2  3  1  0
  2  4  1  0
  2  5  1  0
  5  6  1  0
  6  7  2  0
  6  8  1  0
  6  9  1  0
M  END
>  <supplier_code>  (1507) 
DB09138

>  <zinc_id>  (1507) 
ZINC000008015016

>  <catalog_short_name>  (1507) 
dbfda

$$$$

     RDKit          3D

 35 38  0  0  0  0  0  0  0  0999 V2000
    2.1801   -1.8173   -1.1305 C   0  0  0  0  0  0  0  0  0  0  0  0
    1.6710   -0.8293   -0.2584 C   0  0  0  0  0  0  0  0  0  0  0  0
    0.3268   -0.8120    0.0900 C   0  0  0  0  0  0  0  0  0  0  0  0
   -0.4786   -1.9910   -0.1256 C   0  0  0  0  0  0  0  0  0  0  0  0
   -0.8763   -2.3398   -1.2802 O   0  0  0  0  0  0  0  0  0  0  0  0
   -1.1235   -2.7294    0.9230 N   0  0  0  0  0  0  0  0  0  0  0  0
   -2.5575   -2.8743    0.9317 C   0  0  0  0  0  0  0  0  0  0  0  0
   -3.2906   -2.9316   -0.2488 C   0  0  0  0  0  0  0  0  0  0  0  0
   -4.4555   -2.1930   -0.4404 C   0  0  0  0  0  0  0  0  0  0  0  0
   -4.6912   -1.1311    0.4167 C   0  0  0  0  0  0  0  0  0  0  0  0
   -5.0839    0.1590    0.0369 N   0  0  0  0  0  0  0  0  0  0  0  0
   -5.6715    0.9583    1.1195 C   0  0  0  0  0  0  0  0  0  0  0  0
   -7.2227    0.8672    0.5680 C   0  0  1  0  0  0  0  0  0  0  0  0
   -7.7155    2.0366    1.6185 C   0  0  0  0  0  0  0  0  0  0  0  0
   -6.9172    1.8961   -0.5013 O   0  0  0  0  0  0  0  0  0  0  0  0
   -6.6683    0.9812   -1.6836 C   0  0  1  0  0  0  0  0  0  0  0  0
   -6.3093    2.2749   -2.6432 C   0  0  0  0  0  0  0  0  0  0  0  0
   -5.0913    0.7384   -1.2668 C   0  0  0  0  0  0  0  0  0  0  0  0
   -4.2826   -1.3835    1.6883 N   0  0  0  0  0  0  0  0  0  0  0  0
   -3.2046   -2.1687    1.9447 C   0  0  0  0  0  0  0  0  0  0  0  0
   -0.1659    0.4159    0.5146 C   0  0  0  0  0  0  0  0  0  0  0  0
    0.6723    1.4320    0.9321 C   0  0  0  0  0  0  0  0  0  0  0  0
    2.0199    1.3255    0.7355 C   0  0  0  0  0  0  0  0  0  0  0  0
    2.4925    0.0843    0.3509 C   0  0  0  0  0  0  0  0  0  0  0  0
    3.8856   -0.3292    0.5712 C   0  0  0  0  0  0  0  0  0  0  0  0
    4.5079   -1.1047   -0.4002 C   0  0  0  0  0  0  0  0  0  0  0  0
    5.8181   -0.8495   -0.7846 C   0  0  0  0  0  0  0  0  0  0  0  0
    6.5238    0.1515   -0.1371 C   0  0  0  0  0  0  0  0  0  0  0  0
    7.3968    0.9630   -0.8753 O   0  0  0  0  0  0  0  0  0  0  0  0
    6.9906    2.2677   -1.2174 C   0  0  0  0  0  0  0  0  0  0  0  0
    7.9089    2.7527   -2.1426 F   0  0  0  0  0  0  0  0  0  0  0  0
    6.9440    3.0774   -0.0895 F   0  0  0  0  0  0  0  0  0  0  0  0
    5.7313    2.3138   -1.7808 F   0  0  0  0  0  0  0  0  0  0  0  0
    6.0155    0.5462    1.0943 C   0  0  0  0  0  0  0  0  0  0  0  0
    4.7210    0.2426    1.5021 C   0  0  0  0  0  0  0  0  0  0  0  0
  1  2  1  0
  2  3  2  0
  3  4  1  0
  4  5  2  0
  4  6  1  0
  6  7  1  0
  7  8  2  0
  8  9  1  0
  9 10  2  0
 10 11  1  0
 11 12  1  0
 12 13  1  0
 13 14  1  1
 13 15  1  0
 15 16  1  0
 16 17  1  6
 16 18  1  0
 10 19  1  0
 19 20  2  0
  3 21  1  0
 21 22  2  0
 22 23  1  0
 23 24  2  0
 24 25  1  0
 25 26  2  0
 26 27  1  0
 27 28  2  0
 28 29  1  0
 29 30  1  0
 30 31  1  0
 30 32  1  0
 30 33  1  0
 28 34  1  0
 34 35  2  0
 24  2  1  0
 35 25  1  0
 20  7  1  0
 18 11  1  0
M  END
>  <supplier_code>  (1508) 
DB09143

>  <zinc_id>  (1508) 
ZINC000068202099

>  <catalog_short_name>  (1508) 
dbfda

$$$$

     RDKit          3D

 26 27  0  0  0  0  0  0  0  0999 V2000
   -3.7165    4.0074   -1.4967 C   0  0  0  0  0  0  0  0  0  0  0  0
   -3.7148    3.2675   -0.7590 C   0  0  0  0  0  0  0  0  0  0  0  0
   -4.1236    3.6800    0.3557 O   0  0  0  0  0  0  0  0  0  0  0  0
   -3.1349    1.9964   -0.7370 O   0  0  0  0  0  0  0  0  0  0  0  0
   -2.4711    1.4961    0.4216 C   0  0  0  0  0  0  0  0  0  0  0  0
   -1.5916    0.2698   -0.3002 C   0  0  1  0  0  0  0  0  0  0  0  0
   -0.3395    1.1486   -0.3587 O   0  0  0  0  0  0  0  0  0  0  0  0
    0.4468   -0.0241   -0.9558 C   0  0  1  0  0  0  0  0  0  0  0  0
    1.8327    0.6213   -0.4279 N   0  0  0  0  0  0  0  0  0  0  0  0
    2.2773    1.3939   -1.4538 C   0  0  0  0  0  0  0  0  0  0  0  0
    3.6442    1.6101   -1.5373 C   0  0  0  0  0  0  0  0  0  0  0  0
    4.4388    1.0328   -0.6044 C   0  0  0  0  0  0  0  0  0  0  0  0
    5.6811    1.2426   -0.6131 O   0  0  0  0  0  0  0  0  0  0  0  0
    3.9496    0.1651    0.3049 N   0  0  0  0  0  0  0  0  0  0  0  0
    2.6862   -0.2621    0.0715 C   0  0  0  0  0  0  0  0  0  0  0  0
    2.2335   -1.0500    0.9270 O   0  0  0  0  0  0  0  0  0  0  0  0
    0.2743   -1.0739    0.4277 C   0  0  2  0  0  0  0  0  0  0  0  0
   -0.7512   -1.9132   -0.3468 O   0  0  0  0  0  0  0  0  0  0  0  0
   -0.2614   -2.6610   -1.3909 C   0  0  0  0  0  0  0  0  0  0  0  0
   -1.2539   -3.5323   -2.0985 C   0  0  0  0  0  0  0  0  0  0  0  0
    0.8545   -3.2297   -1.1937 O   0  0  0  0  0  0  0  0  0  0  0  0
   -0.8929   -0.1254    1.2344 C   0  0  2  0  0  0  0  0  0  0  0  0
   -1.8805   -1.2690    1.5321 O   0  0  0  0  0  0  0  0  0  0  0  0
   -1.4116   -2.0091    2.6022 C   0  0  0  0  0  0  0  0  0  0  0  0
   -1.9305   -3.3676    2.8432 C   0  0  0  0  0  0  0  0  0  0  0  0
   -0.8452   -1.4143    3.5535 O   0  0  0  0  0  0  0  0  0  0  0  0
  1  2  1  0
  2  3  2  0
  2  4  1  0
  4  5  1  0
  6  5  1  1
  6  7  1  0
  7  8  1  0
  8  9  1  1
  9 10  1  0
 10 11  2  0
 11 12  1  0
 12 13  2  0
 12 14  1  0
 14 15  1  0
 15 16  2  0
  8 17  1  0
 17 18  1  6
 18 19  1  0
 19 20  1  0
 19 21  2  0
 17 22  1  0
 22 23  1  1
 23 24  1  0
 24 25  1  0
 24 26  2  0
 22  6  1  0
 15  9  1  0
M  END
>  <supplier_code>  (1509) 
DB09144

>  <zinc_id>  (1509) 
ZINC000003843198

>  <catalog_short_name>  (1509) 
dbfda

$$$$

     RDKit          3D

 23 24  0  0  0  0  0  0  0  0999 V2000
   -4.1918    1.6796    1.3748 O   0  0  0  0  0  0  0  0  0  0  0  0
   -2.9606    1.0717    1.1271 C   0  0  0  0  0  0  0  0  0  0  0  0
   -3.3524   -0.5095    0.7982 C   0  0  1  0  0  0  0  0  0  0  0  0
   -2.7248   -0.4501   -0.5648 O   0  0  0  0  0  0  0  0  0  0  0  0
   -1.4501   -0.6887   -0.5828 C   0  0  1  0  0  0  0  0  0  0  0  0
   -1.1626   -1.1838   -1.9629 C   0  0  0  0  0  0  0  0  0  0  0  0
   -1.9196   -0.3948   -2.8461 O   0  0  0  0  0  0  0  0  0  0  0  0
   -0.7694    0.2389   -0.0121 O   0  0  0  0  0  0  0  0  0  0  0  0
    0.7428    0.0147    0.0206 C   0  0  1  0  0  0  0  0  0  0  0  0
    1.0271    0.8254   -1.2588 O   0  0  0  0  0  0  0  0  0  0  0  0
    2.5165    1.1079   -1.0705 C   0  0  2  0  0  0  0  0  0  0  0  0
    2.9757    0.0455   -2.2489 C   0  0  0  0  0  0  0  0  0  0  0  0
    3.8908    0.8534   -2.9342 O   0  0  0  0  0  0  0  0  0  0  0  0
    2.7594   -0.0843    0.1607 C   0  0  1  0  0  0  0  0  0  0  0  0
    4.2479    0.1037    0.1413 O   0  0  0  0  0  0  0  0  0  0  0  0
    2.5789    1.0855    1.4032 C   0  0  2  0  0  0  0  0  0  0  0  0
    2.2587    0.0312    2.4376 O   0  0  0  0  0  0  0  0  0  0  0  0
    0.8999    1.3533    1.1420 C   0  0  1  0  0  0  0  0  0  0  0  0
    1.0871    2.4667    0.1580 O   0  0  0  0  0  0  0  0  0  0  0  0
   -1.6170   -2.0991    0.2431 C   0  0  1  0  0  0  0  0  0  0  0  0
   -0.1378   -2.2044    0.5939 O   0  0  0  0  0  0  0  0  0  0  0  0
   -1.9440   -1.0960    1.6026 C   0  0  2  0  0  0  0  0  0  0  0  0
   -2.7547   -2.1668    2.2777 O   0  0  0  0  0  0  0  0  0  0  0  0
  1  2  1  0
  3  2  1  1
  3  4  1  0
  4  5  1  0
  5  6  1  6
  6  7  1  0
  5  8  1  0
  9  8  1  6
  9 10  1  0
 10 11  1  0
 11 12  1  6
 12 13  1  0
 11 14  1  0
 14 15  1  6
 14 16  1  0
 16 17  1  1
 16 18  1  0
 18 19  1  6
  5 20  1  0
 20 21  1  1
 20 22  1  0
 22 23  1  1
 22  3  1  0
 18  9  1  0
M  END
>  <supplier_code>  (1510) 
DB09146

>  <zinc_id>  (1510) 
ZINC000004217475

>  <catalog_short_name>  (1510) 
dbfda

$$$$

     RDKit          3D

  9  8  0  0  0  0  0  0  0  0999 V2000
    1.3637    1.4191    0.3891 O   0  0  0  0  0  0  0  0  0  0  0  0
    1.3883   -0.0136   -0.0921 P   0  0  0  0  0  0  0  0  0  0  0  0
    2.8025   -0.3808   -0.9287 O   0  0  0  0  0  0  0  0  0  0  0  0
    1.1422   -1.0590    1.2253 O   0  0  0  0  0  0  0  0  0  0  0  0
    0.0316   -0.2013   -1.1032 O   0  0  0  0  0  0  0  0  0  0  0  0
   -1.3401   -0.0168   -0.1386 P   0  0  0  0  0  0  0  0  0  0  0  0
   -2.2619   -1.1923   -0.3367 O   0  0  0  0  0  0  0  0  0  0  0  0
   -0.9427    0.0553    1.5136 O   0  0  0  0  0  0  0  0  0  0  0  0
   -2.1837    1.3895   -0.5287 O   0  0  0  0  0  0  0  0  0  0  0  0
  1  2  2  0
  2  3  1  0
  2  4  1  0
  2  5  1  0
  5  6  1  0
  6  7  2  0
  6  8  1  0
  6  9  1  0
M  END
>  <supplier_code>  (1511) 
DB09147

>  <zinc_id>  (1511) 
ZINC000006827695

>  <catalog_short_name>  (1511) 
dbfda

$$$$

     RDKit          3D

 26 27  0  0  0  0  0  0  0  0999 V2000
   -7.9670   -2.7542   -0.2018 C   0  0  0  0  0  0  0  0  0  0  0  0
   -8.1103   -1.3289    0.0795 N   0  0  0  0  0  0  0  0  0  0  0  0
   -6.9407   -0.5236    0.1894 C   0  0  0  0  0  0  0  0  0  0  0  0
   -6.8463    0.5137    1.1106 C   0  0  0  0  0  0  0  0  0  0  0  0
   -5.6566    1.2079    1.2682 C   0  0  0  0  0  0  0  0  0  0  0  0
   -4.5882    0.8147    0.4819 C   0  0  0  0  0  0  0  0  0  0  0  0
   -3.2208    1.1365    0.8730 C   0  0  0  0  0  0  0  0  0  0  0  0
   -2.2906    0.1926    0.9060 C   0  0  0  0  0  0  0  0  0  0  0  0
   -0.9185    0.4536    0.4591 C   0  0  0  0  0  0  0  0  0  0  0  0
   -0.2677    1.6492    0.7364 C   0  0  0  0  0  0  0  0  0  0  0  0
    0.8655    2.0168    0.0216 C   0  0  0  0  0  0  0  0  0  0  0  0
    1.4900    1.1143   -0.8304 C   0  0  0  0  0  0  0  0  0  0  0  0
    2.8677    0.9862   -0.9077 O   0  0  0  0  0  0  0  0  0  0  0  0
    3.7766    1.7519   -0.1566 C   0  0  0  0  0  0  0  0  0  0  0  0
    4.3232    1.0307    1.0432 C   0  0  0  0  0  0  0  0  0  0  0  0
    3.9596   -0.3110    1.0901 O   0  0  0  0  0  0  0  0  0  0  0  0
    4.2525   -0.9881   -0.0790 C   0  0  0  0  0  0  0  0  0  0  0  0
    5.1460   -2.1779    0.1161 C   0  0  0  0  0  0  0  0  0  0  0  0
    6.4586   -1.8211    0.3580 O   0  0  0  0  0  0  0  0  0  0  0  0
    7.0270   -1.0768   -0.6619 C   0  0  0  0  0  0  0  0  0  0  0  0
    8.2458   -0.3880   -0.0827 C   0  0  0  0  0  0  0  0  0  0  0  0
    9.1854   -1.2980    0.3511 F   0  0  0  0  0  0  0  0  0  0  0  0
    0.6887    0.0731   -1.2823 C   0  0  0  0  0  0  0  0  0  0  0  0
   -0.5428   -0.1684   -0.7251 C   0  0  0  0  0  0  0  0  0  0  0  0
   -4.9119    0.3618   -0.7915 C   0  0  0  0  0  0  0  0  0  0  0  0
   -6.0255   -0.4670   -0.8551 C   0  0  0  0  0  0  0  0  0  0  0  0
  1  2  1  0
  2  3  1  0
  3  4  2  0
  4  5  1  0
  5  6  2  0
  6  7  1  0
  7  8  2  0
  8  9  1  0
  9 10  2  0
 10 11  1  0
 11 12  2  0
 12 13  1  0
 13 14  1  0
 14 15  1  0
 15 16  1  0
 16 17  1  0
 17 18  1  0
 18 19  1  0
 19 20  1  0
 20 21  1  0
 21 22  1  0
 12 23  1  0
 23 24  2  0
  6 25  1  0
 25 26  2  0
 26  3  1  0
 24  9  1  0
M  END
>  <supplier_code>  (1512) 
DB09148

>  <zinc_id>  (1512) 
ZINC000043194409

>  <catalog_short_name>  (1512) 
dbfda

$$$$

     RDKit          3D

 26 27  0  0  0  0  0  0  0  0999 V2000
   -6.3697   -0.4770    1.5137 C   0  0  0  0  0  0  0  0  0  0  0  0
   -7.2562    0.1041    0.5089 N   0  0  0  0  0  0  0  0  0  0  0  0
   -6.7954    0.3481   -0.8257 C   0  0  0  0  0  0  0  0  0  0  0  0
   -6.5072   -0.7074   -1.6841 C   0  0  0  0  0  0  0  0  0  0  0  0
   -5.3670   -0.6744   -2.4799 C   0  0  0  0  0  0  0  0  0  0  0  0
   -4.4952    0.4094   -2.4598 C   0  0  0  0  0  0  0  0  0  0  0  0
   -3.0373    0.2260   -2.4317 C   0  0  0  0  0  0  0  0  0  0  0  0
   -2.4224   -0.5664   -1.5875 C   0  0  0  0  0  0  0  0  0  0  0  0
   -1.2475   -0.2212   -0.8140 C   0  0  0  0  0  0  0  0  0  0  0  0
   -0.4445   -1.2830   -0.4095 C   0  0  0  0  0  0  0  0  0  0  0  0
    0.7210   -0.9202    0.2550 C   0  0  0  0  0  0  0  0  0  0  0  0
    1.0209    0.3962    0.5401 C   0  0  0  0  0  0  0  0  0  0  0  0
    2.3411    0.8521    0.6028 O   0  0  0  0  0  0  0  0  0  0  0  0
    3.2839   -0.0139    1.2109 C   0  0  0  0  0  0  0  0  0  0  0  0
    3.2810    0.2513    2.6962 C   0  0  0  0  0  0  0  0  0  0  0  0
    4.3788   -0.3674    3.3096 O   0  0  0  0  0  0  0  0  0  0  0  0
    5.0087   -1.1912    2.3903 C   0  0  0  0  0  0  0  0  0  0  0  0
    6.0835   -0.3951    1.6624 C   0  0  0  0  0  0  0  0  0  0  0  0
    6.3398   -0.9539    0.4189 O   0  0  0  0  0  0  0  0  0  0  0  0
    6.8680    0.0159   -0.4455 C   0  0  0  0  0  0  0  0  0  0  0  0
    8.3771    0.1338   -0.2693 C   0  0  0  0  0  0  0  0  0  0  0  0
    8.6783    0.3251    1.0646 F   0  0  0  0  0  0  0  0  0  0  0  0
    0.0289    1.3018    0.3732 N   0  0  0  0  0  0  0  0  0  0  0  0
   -1.1915    0.8866    0.0252 C   0  0  0  0  0  0  0  0  0  0  0  0
   -5.0634    1.5818   -1.9724 C   0  0  0  0  0  0  0  0  0  0  0  0
   -6.2139    1.5562   -1.1924 C   0  0  0  0  0  0  0  0  0  0  0  0
  1  2  1  0
  2  3  1  0
  3  4  2  0
  4  5  1  0
  5  6  2  0
  6  7  1  0
  7  8  2  0
  8  9  1  0
  9 10  2  0
 10 11  1  0
 11 12  2  0
 12 13  1  0
 13 14  1  0
 14 15  1  0
 15 16  1  0
 16 17  1  0
 17 18  1  0
 18 19  1  0
 19 20  1  0
 20 21  1  0
 21 22  1  0
 12 23  1  0
 23 24  2  0
  6 25  1  0
 25 26  2  0
 26  3  1  0
 24  9  1  0
M  END
>  <supplier_code>  (1513) 
DB09149

>  <zinc_id>  (1513) 
ZINC000043207237

>  <catalog_short_name>  (1513) 
dbfda

$$$$

     RDKit          3D

 26 27  0  0  0  0  0  0  0  0999 V2000
   -7.3709    3.0804    0.0966 C   0  0  0  0  0  0  0  0  0  0  0  0
   -6.0860    2.8124   -0.4956 N   0  0  0  0  0  0  0  0  0  0  0  0
   -5.5544    1.4959   -0.4908 C   0  0  0  0  0  0  0  0  0  0  0  0
   -4.2638    1.2656   -0.9523 C   0  0  0  0  0  0  0  0  0  0  0  0
   -3.9262   -0.0721   -1.1214 C   0  0  0  0  0  0  0  0  0  0  0  0
   -4.2688   -0.9187   -0.0744 C   0  0  0  0  0  0  0  0  0  0  0  0
   -3.9428   -2.3508   -0.1154 C   0  0  0  0  0  0  0  0  0  0  0  0
   -2.8272   -2.6824    0.5366 C   0  0  0  0  0  0  0  0  0  0  0  0
   -1.6256   -1.9551    0.1046 C   0  0  0  0  0  0  0  0  0  0  0  0
   -1.2278   -0.7698    0.6583 C   0  0  0  0  0  0  0  0  0  0  0  0
   -0.0459   -0.2130    0.1877 C   0  0  0  0  0  0  0  0  0  0  0  0
    0.8765   -0.9923   -0.4641 C   0  0  0  0  0  0  0  0  0  0  0  0
    2.0374   -0.5102   -1.0421 O   0  0  0  0  0  0  0  0  0  0  0  0
    3.1927   -0.2376   -0.2925 C   0  0  0  0  0  0  0  0  0  0  0  0
    3.7496   -1.4641    0.3931 C   0  0  0  0  0  0  0  0  0  0  0  0
    5.0783   -1.2743    0.7353 O   0  0  0  0  0  0  0  0  0  0  0  0
    5.8904   -0.9591   -0.3370 C   0  0  0  0  0  0  0  0  0  0  0  0
    5.9474    0.5267   -0.5971 C   0  0  0  0  0  0  0  0  0  0  0  0
    6.7735    1.1515    0.3502 O   0  0  0  0  0  0  0  0  0  0  0  0
    6.0942    2.3235    0.7182 C   0  0  0  0  0  0  0  0  0  0  0  0
    6.6563    3.5363    0.0061 C   0  0  0  0  0  0  0  0  0  0  0  0
    6.5432    3.3917   -1.3581 F   0  0  0  0  0  0  0  0  0  0  0  0
    0.6423   -2.3233   -0.4598 N   0  0  0  0  0  0  0  0  0  0  0  0
   -0.6486   -2.7346   -0.5042 C   0  0  0  0  0  0  0  0  0  0  0  0
   -5.4592   -0.6025    0.5710 C   0  0  0  0  0  0  0  0  0  0  0  0
   -6.2346    0.4760    0.1638 C   0  0  0  0  0  0  0  0  0  0  0  0
  1  2  1  0
  2  3  1  0
  3  4  2  0
  4  5  1  0
  5  6  2  0
  6  7  1  0
  7  8  2  0
  8  9  1  0
  9 10  2  0
 10 11  1  0
 11 12  2  0
 12 13  1  0
 13 14  1  0
 14 15  1  0
 15 16  1  0
 16 17  1  0
 17 18  1  0
 18 19  1  0
 19 20  1  0
 20 21  1  0
 21 22  1  0
 12 23  1  0
 23 24  2  0
  6 25  1  0
 25 26  2  0
 26  3  1  0
 24  9  1  0
M  END
>  <supplier_code>  (1514) 
DB09149

>  <zinc_id>  (1514) 
ZINC000145808877

>  <catalog_short_name>  (1514) 
dbfda

$$$$

     RDKit          3D

 19 21  0  0  0  0  0  0  0  0999 V2000
    5.3924    1.3549   -0.8854 C   0  0  0  0  0  0  0  0  0  0  0  0
    4.9110    0.0143   -1.1824 N   0  0  0  0  0  0  0  0  0  0  0  0
    3.6335   -0.3198   -0.6300 C   0  0  0  0  0  0  0  0  0  0  0  0
    3.0755   -1.5563   -0.9309 C   0  0  0  0  0  0  0  0  0  0  0  0
    1.7241   -1.6841   -0.6315 C   0  0  0  0  0  0  0  0  0  0  0  0
    1.1712   -1.0698    0.4841 C   0  0  0  0  0  0  0  0  0  0  0  0
   -0.2905   -0.9028    0.4891 C   0  0  0  0  0  0  0  0  0  0  0  0
   -0.9832   -0.5514   -0.6228 N   0  0  0  0  0  0  0  0  0  0  0  0
   -2.3004   -0.5339   -0.4104 C   0  0  0  0  0  0  0  0  0  0  0  0
   -3.3218   -0.7054   -1.3389 C   0  0  0  0  0  0  0  0  0  0  0  0
   -4.3713    0.2050   -1.3665 C   0  0  0  0  0  0  0  0  0  0  0  0
   -4.6404    1.0515   -0.2994 C   0  0  0  0  0  0  0  0  0  0  0  0
   -5.3032    2.2660   -0.5068 O   0  0  0  0  0  0  0  0  0  0  0  0
   -3.8637    0.8406    0.8347 C   0  0  0  0  0  0  0  0  0  0  0  0
   -2.6279    0.2212    0.7114 C   0  0  0  0  0  0  0  0  0  0  0  0
   -1.2359   -0.0859    1.6710 S   0  0  0  0  0  0  0  0  0  0  0  0
    2.0079   -0.1739    1.1388 C   0  0  0  0  0  0  0  0  0  0  0  0
    3.1725    0.2663    0.5431 C   0  0  0  0  0  0  0  0  0  0  0  0
    3.8503    1.3635    0.9645 F   0  0  0  0  0  0  0  0  0  0  0  0
  1  2  1  0
  2  3  1  0
  3  4  2  0
  4  5  1  0
  5  6  2  0
  6  7  1  0
  7  8  2  0
  8  9  1  0
  9 10  2  0
 10 11  1  0
 11 12  2  0
 12 13  1  0
 12 14  1  0
 14 15  2  0
 15 16  1  0
  6 17  1  0
 17 18  2  0
 18 19  1  0
 18  3  1  0
 16  7  1  0
 15  9  1  0
M  END
>  <supplier_code>  (1515) 
DB09151

>  <zinc_id>  (1515) 
ZINC000034220093

>  <catalog_short_name>  (1515) 
dbfda

$$$$

     RDKit          3D

 13 12  0  0  0  0  0  0  0  0999 V2000
   -1.3019    2.6019   -0.0305 O   0  0  0  0  0  0  0  0  0  0  0  0
   -1.6431    1.3813   -0.0561 C   0  0  0  0  0  0  0  0  0  0  0  0
   -2.5039    0.9657    0.9375 O   0  0  0  0  0  0  0  0  0  0  0  0
   -1.1057    0.5145   -1.1194 C   0  0  0  0  0  0  0  0  0  0  0  0
   -0.0282   -0.3956   -0.5502 C   0  0  0  0  0  0  0  0  0  0  0  0
    0.8278   -0.6978   -1.5868 O   0  0  0  0  0  0  0  0  0  0  0  0
    0.6090    0.3358    0.5907 C   0  0  0  0  0  0  0  0  0  0  0  0
    2.0825    0.2982    0.5746 C   0  0  0  0  0  0  0  0  0  0  0  0
    2.7664    0.2784   -0.4928 O   0  0  0  0  0  0  0  0  0  0  0  0
    2.7450    0.7856    1.7012 O   0  0  0  0  0  0  0  0  0  0  0  0
   -0.7280   -1.6303   -0.0825 C   0  0  0  0  0  0  0  0  0  0  0  0
   -1.4724   -2.1904   -0.9364 O   0  0  0  0  0  0  0  0  0  0  0  0
   -0.2475   -2.2471    1.0506 O   0  0  0  0  0  0  0  0  0  0  0  0
  1  2  2  0
  2  3  1  0
  2  4  1  0
  4  5  1  0
  5  6  1  0
  5  7  1  0
  7  8  1  0
  8  9  2  0
  8 10  1  0
  5 11  1  0
 11 12  2  0
 11 13  1  0
M  END
>  <supplier_code>  (1516) 
DB09154

>  <zinc_id>  (1516) 
ZINC000000895081

>  <catalog_short_name>  (1516) 
dbfda

$$$$

     RDKit          3D

 32 32  0  0  0  0  0  0  0  0999 V2000
    0.1656    6.7955    0.5250 C   0  0  0  0  0  0  0  0  0  0  0  0
    0.2931    5.8369   -0.3232 O   0  0  0  0  0  0  0  0  0  0  0  0
    1.2768    4.9432    0.0613 C   0  0  0  0  0  0  0  0  0  0  0  0
    1.2353    3.7764   -0.8335 C   0  0  0  0  0  0  0  0  0  0  0  0
    1.5418    3.7642   -2.0572 O   0  0  0  0  0  0  0  0  0  0  0  0
    0.0583    3.0100   -0.7821 N   0  0  0  0  0  0  0  0  0  0  0  0
   -0.0219    1.6092   -0.9242 C   0  0  0  0  0  0  0  0  0  0  0  0
   -1.3101    1.2006   -0.5747 C   0  0  0  0  0  0  0  0  0  0  0  0
   -2.8323    1.9320   -1.8589 I   0  0  0  0  0  0  0  0  0  0  0  0
   -1.5855    0.2072    0.3523 C   0  0  0  0  0  0  0  0  0  0  0  0
   -2.9339   -0.3769    0.3637 C   0  0  0  0  0  0  0  0  0  0  0  0
   -3.6289   -0.1193   -0.6702 O   0  0  0  0  0  0  0  0  0  0  0  0
   -3.3138   -1.5634    1.0050 N   0  0  0  0  0  0  0  0  0  0  0  0
   -3.8871   -2.7155    0.4997 C   0  0  0  0  0  0  0  0  0  0  0  0
   -5.5284   -2.7059    0.5415 C   0  0  2  0  0  0  0  0  0  0  0  0
   -5.6117   -2.1208   -0.8614 O   0  0  0  0  0  0  0  0  0  0  0  0
   -5.6694   -1.2182    1.2466 C   0  0  0  0  0  0  0  0  0  0  0  0
   -5.3893   -1.6072    2.5640 O   0  0  0  0  0  0  0  0  0  0  0  0
   -0.4959   -0.4892    0.8659 C   0  0  0  0  0  0  0  0  0  0  0  0
   -0.8058   -1.7871    2.4475 I   0  0  0  0  0  0  0  0  0  0  0  0
    0.7099   -0.4376    0.1764 C   0  0  0  0  0  0  0  0  0  0  0  0
    1.6408   -1.5531    0.2600 C   0  0  0  0  0  0  0  0  0  0  0  0
    1.1332   -2.6628    0.6207 O   0  0  0  0  0  0  0  0  0  0  0  0
    2.7029   -1.7571   -0.6848 N   0  0  0  0  0  0  0  0  0  0  0  0
    2.4179   -1.8725   -2.1168 C   0  0  0  0  0  0  0  0  0  0  0  0
    3.7135   -2.7210   -0.2328 C   0  0  0  0  0  0  0  0  0  0  0  0
    5.1027   -1.8367   -0.1413 C   0  0  2  0  0  0  0  0  0  0  0  0
    5.6858   -2.5509   -1.3476 O   0  0  0  0  0  0  0  0  0  0  0  0
    5.7809   -2.9115    0.9092 C   0  0  0  0  0  0  0  0  0  0  0  0
    5.6611   -2.1531    2.0876 O   0  0  0  0  0  0  0  0  0  0  0  0
    0.9642    0.7184   -0.5188 C   0  0  0  0  0  0  0  0  0  0  0  0
    2.9300    1.3661   -0.5990 I   0  0  0  0  0  0  0  0  0  0  0  0
  1  2  1  0
  2  3  1  0
  3  4  1  0
  4  5  2  0
  4  6  1  0
  6  7  1  0
  7  8  2  0
  8  9  1  0
  8 10  1  0
 10 11  1  0
 11 12  2  0
 11 13  1  0
 13 14  1  0
 15 14  1  6
 15 16  1  0
 15 17  1  0
 17 18  1  0
 10 19  2  0
 19 20  1  0
 19 21  1  0
 21 22  1  0
 22 23  2  0
 22 24  1  0
 24 25  1  0
 24 26  1  0
 27 26  1  6
 27 28  1  0
 27 29  1  0
 29 30  1  0
 21 31  2  0
 31 32  1  0
 31  7  1  0
M  END
>  <supplier_code>  (1517) 
DB09156

>  <zinc_id>  (1517) 
ZINC000003830957

>  <catalog_short_name>  (1517) 
dbfda

$$$$

     RDKit          3D

 32 32  0  0  0  0  0  0  0  0999 V2000
   -1.5414    6.9045    0.3195 C   0  0  0  0  0  0  0  0  0  0  0  0
   -0.7477    5.8798    0.0089 O   0  0  0  0  0  0  0  0  0  0  0  0
   -1.4195    5.0483   -0.9025 C   0  0  0  0  0  0  0  0  0  0  0  0
   -0.8251    3.6806   -0.7814 C   0  0  0  0  0  0  0  0  0  0  0  0
   -0.2156    3.1692   -1.7467 O   0  0  0  0  0  0  0  0  0  0  0  0
   -1.3087    2.8642    0.2924 N   0  0  0  0  0  0  0  0  0  0  0  0
   -0.8772    1.4996    0.3028 C   0  0  0  0  0  0  0  0  0  0  0  0
   -1.7666    0.4797   -0.0067 C   0  0  0  0  0  0  0  0  0  0  0  0
   -3.8143    0.8114    0.4016 I   0  0  0  0  0  0  0  0  0  0  0  0
   -1.2490   -0.7745   -0.2544 C   0  0  0  0  0  0  0  0  0  0  0  0
   -2.1657   -1.9057   -0.0414 C   0  0  0  0  0  0  0  0  0  0  0  0
   -2.1018   -2.6132    1.0111 O   0  0  0  0  0  0  0  0  0  0  0  0
   -3.0023   -2.4191   -1.0357 N   0  0  0  0  0  0  0  0  0  0  0  0
   -3.6241   -3.6598   -1.1754 C   0  0  0  0  0  0  0  0  0  0  0  0
   -5.2569   -3.3754   -1.4702 C   0  0  2  0  0  0  0  0  0  0  0  0
   -5.0243   -1.9385   -2.0015 O   0  0  0  0  0  0  0  0  0  0  0  0
   -5.4855   -2.8293    0.1039 C   0  0  0  0  0  0  0  0  0  0  0  0
   -5.2710   -3.9721    0.8623 O   0  0  0  0  0  0  0  0  0  0  0  0
    0.1289   -0.9462   -0.3022 C   0  0  0  0  0  0  0  0  0  0  0  0
    0.8715   -2.8679   -0.7822 I   0  0  0  0  0  0  0  0  0  0  0  0
    1.0167    0.0535    0.0818 C   0  0  0  0  0  0  0  0  0  0  0  0
    2.2982   -0.3086    0.6735 C   0  0  0  0  0  0  0  0  0  0  0  0
    2.3450   -0.4648    1.9320 O   0  0  0  0  0  0  0  0  0  0  0  0
    3.5540   -0.1446    0.0171 N   0  0  0  0  0  0  0  0  0  0  0  0
    4.0565    1.2257   -0.0614 C   0  0  0  0  0  0  0  0  0  0  0  0
    4.4909   -1.2438    0.2616 C   0  0  0  0  0  0  0  0  0  0  0  0
    5.9433   -0.6391   -0.3257 C   0  0  1  0  0  0  0  0  0  0  0  0
    6.4745   -0.4161    1.1111 O   0  0  0  0  0  0  0  0  0  0  0  0
    6.6223   -2.1778   -0.3738 C   0  0  0  0  0  0  0  0  0  0  0  0
    5.9205   -2.6803   -1.4605 O   0  0  0  0  0  0  0  0  0  0  0  0
    0.4742    1.2589    0.5184 C   0  0  0  0  0  0  0  0  0  0  0  0
    1.5005    2.5014    1.8953 I   0  0  0  0  0  0  0  0  0  0  0  0
  1  2  1  0
  2  3  1  0
  3  4  1  0
  4  5  2  0
  4  6  1  0
  6  7  1  0
  7  8  2  0
  8  9  1  0
  8 10  1  0
 10 11  1  0
 11 12  2  0
 11 13  1  0
 13 14  1  0
 15 14  1  1
 15 16  1  0
 15 17  1  0
 17 18  1  0
 10 19  2  0
 19 20  1  0
 19 21  1  0
 21 22  1  0
 22 23  2  0
 22 24  1  0
 24 25  1  0
 24 26  1  0
 27 26  1  1
 27 28  1  0
 27 29  1  0
 29 30  1  0
 21 31  2  0
 31 32  1  0
 31  7  1  0
M  END
>  <supplier_code>  (1518) 
DB09156

>  <zinc_id>  (1518) 
ZINC000003830958

>  <catalog_short_name>  (1518) 
dbfda

$$$$

     RDKit          3D

 32 32  0  0  0  0  0  0  0  0999 V2000
    2.2267    5.7996   -0.5818 C   0  0  0  0  0  0  0  0  0  0  0  0
    1.0184    6.4220   -0.2293 O   0  0  0  0  0  0  0  0  0  0  0  0
   -0.0348    5.4987   -0.3413 C   0  0  0  0  0  0  0  0  0  0  0  0
    0.3322    4.2084    0.2732 C   0  0  0  0  0  0  0  0  0  0  0  0
    0.2930    4.0266    1.5280 O   0  0  0  0  0  0  0  0  0  0  0  0
    0.8862    3.1141   -0.4650 N   0  0  0  0  0  0  0  0  0  0  0  0
    0.5173    1.7706   -0.1578 C   0  0  0  0  0  0  0  0  0  0  0  0
    1.5397    0.8507   -0.0557 C   0  0  0  0  0  0  0  0  0  0  0  0
    3.3059    1.4053    0.9155 I   0  0  0  0  0  0  0  0  0  0  0  0
    1.2786   -0.4574   -0.4304 C   0  0  0  0  0  0  0  0  0  0  0  0
    2.3609   -1.4502   -0.3662 C   0  0  0  0  0  0  0  0  0  0  0  0
    3.1141   -1.4610   -1.3829 O   0  0  0  0  0  0  0  0  0  0  0  0
    2.8981   -1.9077    0.8746 N   0  0  0  0  0  0  0  0  0  0  0  0
    4.3174   -2.2292    0.9708 C   0  0  0  0  0  0  0  0  0  0  0  0
    4.2136   -3.8948    0.9965 C   0  0  1  0  0  0  0  0  0  0  0  0
    4.2656   -3.9783   -0.5365 O   0  0  0  0  0  0  0  0  0  0  0  0
    5.8665   -4.0676    1.1312 C   0  0  0  0  0  0  0  0  0  0  0  0
    6.4067   -3.2220    0.1980 O   0  0  0  0  0  0  0  0  0  0  0  0
   -0.0404   -0.8444   -0.6046 C   0  0  0  0  0  0  0  0  0  0  0  0
   -0.4534   -2.6721   -1.5049 I   0  0  0  0  0  0  0  0  0  0  0  0
   -1.1258   -0.0092   -0.3697 C   0  0  0  0  0  0  0  0  0  0  0  0
   -2.2444   -0.5559    0.3206 C   0  0  0  0  0  0  0  0  0  0  0  0
   -2.1907   -0.7372    1.5743 O   0  0  0  0  0  0  0  0  0  0  0  0
   -3.5275   -0.9152   -0.2274 N   0  0  0  0  0  0  0  0  0  0  0  0
   -3.5515   -2.3748   -0.2389 C   0  0  0  0  0  0  0  0  0  0  0  0
   -4.4929   -0.0057    0.1996 C   0  0  0  0  0  0  0  0  0  0  0  0
   -6.0209   -0.6425    0.1022 C   0  0  2  0  0  0  0  0  0  0  0  0
   -5.6455   -1.8867    0.9232 O   0  0  0  0  0  0  0  0  0  0  0  0
   -5.7128   -1.4070   -1.3501 C   0  0  0  0  0  0  0  0  0  0  0  0
   -6.6773   -2.4269   -1.2712 O   0  0  0  0  0  0  0  0  0  0  0  0
   -0.7898    1.3348   -0.2438 C   0  0  0  0  0  0  0  0  0  0  0  0
   -2.3333    2.7151   -0.0537 I   0  0  0  0  0  0  0  0  0  0  0  0
  1  2  1  0
  2  3  1  0
  3  4  1  0
  4  5  2  0
  4  6  1  0
  6  7  1  0
  7  8  2  0
  8  9  1  0
  8 10  1  0
 10 11  1  0
 11 12  2  0
 11 13  1  0
 13 14  1  0
 15 14  1  6
 15 16  1  0
 15 17  1  0
 17 18  1  0
 10 19  2  0
 19 20  1  0
 19 21  1  0
 21 22  1  0
 22 23  2  0
 22 24  1  0
 24 25  1  0
 24 26  1  0
 27 26  1  1
 27 28  1  0
 27 29  1  0
 29 30  1  0
 21 31  2  0
 31 32  1  0
 31  7  1  0
M  END
>  <supplier_code>  (1519) 
DB09156

>  <zinc_id>  (1519) 
ZINC000003830959

>  <catalog_short_name>  (1519) 
dbfda

$$$$

     RDKit          3D

 32 32  0  0  0  0  0  0  0  0999 V2000
   -1.7790    5.8986    0.5123 C   0  0  0  0  0  0  0  0  0  0  0  0
   -1.3266    5.3079    1.4502 O   0  0  0  0  0  0  0  0  0  0  0  0
    0.0635    5.2180    1.4984 C   0  0  0  0  0  0  0  0  0  0  0  0
    0.4023    4.0125    0.6735 C   0  0  0  0  0  0  0  0  0  0  0  0
    1.5853    3.8177    0.2986 O   0  0  0  0  0  0  0  0  0  0  0  0
   -0.5606    2.9785    0.4343 N   0  0  0  0  0  0  0  0  0  0  0  0
   -0.2525    1.7685   -0.2582 C   0  0  0  0  0  0  0  0  0  0  0  0
   -1.2058    1.1681   -1.0824 C   0  0  0  0  0  0  0  0  0  0  0  0
   -3.0495    2.0782   -1.5038 I   0  0  0  0  0  0  0  0  0  0  0  0
   -1.0626   -0.1530   -1.4188 C   0  0  0  0  0  0  0  0  0  0  0  0
   -2.1452   -1.0599   -1.7605 C   0  0  0  0  0  0  0  0  0  0  0  0
   -1.9100   -2.3033   -1.6416 O   0  0  0  0  0  0  0  0  0  0  0  0
   -3.5123   -0.7628   -1.6369 N   0  0  0  0  0  0  0  0  0  0  0  0
   -4.6044   -1.5797   -2.0202 C   0  0  0  0  0  0  0  0  0  0  0  0
   -4.6186   -2.8912   -1.0213 C   0  0  1  0  0  0  0  0  0  0  0  0
   -4.2774   -2.0779    0.2191 O   0  0  0  0  0  0  0  0  0  0  0  0
   -6.2428   -2.7361   -0.7620 C   0  0  0  0  0  0  0  0  0  0  0  0
   -6.4166   -3.1129    0.5677 O   0  0  0  0  0  0  0  0  0  0  0  0
    0.2290   -0.6545   -1.2882 C   0  0  0  0  0  0  0  0  0  0  0  0
    0.6111   -2.5412   -2.1690 I   0  0  0  0  0  0  0  0  0  0  0  0
    1.1400   -0.1398   -0.3735 C   0  0  0  0  0  0  0  0  0  0  0  0
    2.1454   -1.0060    0.1914 C   0  0  0  0  0  0  0  0  0  0  0  0
    1.8026   -2.2107    0.3769 O   0  0  0  0  0  0  0  0  0  0  0  0
    3.5014   -0.6456    0.3473 N   0  0  0  0  0  0  0  0  0  0  0  0
    3.9627    0.7199    0.2061 C   0  0  0  0  0  0  0  0  0  0  0  0
    4.5153   -1.6870    0.2488 C   0  0  0  0  0  0  0  0  0  0  0  0
    5.4905   -1.3404    1.5383 C   0  0  1  0  0  0  0  0  0  0  0  0
    4.3978   -1.6684    2.5456 O   0  0  0  0  0  0  0  0  0  0  0  0
    6.1289   -2.8642    1.6181 C   0  0  0  0  0  0  0  0  0  0  0  0
    5.0558   -3.7035    1.4735 O   0  0  0  0  0  0  0  0  0  0  0  0
    0.7331    0.9848    0.3364 C   0  0  0  0  0  0  0  0  0  0  0  0
    1.1993    1.1857    2.3999 I   0  0  0  0  0  0  0  0  0  0  0  0
  1  2  1  0
  2  3  1  0
  3  4  1  0
  4  5  2  0
  4  6  1  0
  6  7  1  0
  7  8  2  0
  8  9  1  0
  8 10  1  0
 10 11  1  0
 11 12  2  0
 11 13  1  0
 13 14  1  0
 15 14  1  6
 15 16  1  0
 15 17  1  0
 17 18  1  0
 10 19  2  0
 19 20  1  0
 19 21  1  0
 21 22  1  0
 22 23  2  0
 22 24  1  0
 24 25  1  0
 24 26  1  0
 27 26  1  6
 27 28  1  0
 27 29  1  0
 29 30  1  0
 21 31  2  0
 31 32  1  0
 31  7  1  0
M  END
>  <supplier_code>  (1520) 
DB09156

>  <zinc_id>  (1520) 
ZINC000003830960

>  <catalog_short_name>  (1520) 
dbfda

$$$$

     RDKit          3D

 58 63  0  0  0  0  0  0  0  0999 V2000
    3.0943   -3.0821    1.9540 C   0  0  0  0  0  0  0  0  0  0  0  0
    2.5777   -2.0073    1.0561 C   0  0  0  0  0  0  0  0  0  0  0  0
    1.6457   -1.1008    1.5395 C   0  0  0  0  0  0  0  0  0  0  0  0
    1.1103   -0.1219    0.7304 C   0  0  0  0  0  0  0  0  0  0  0  0
   -0.2051    0.4187    1.0940 C   0  0  0  0  0  0  0  0  0  0  0  0
   -0.7492    1.5094    0.4378 C   0  0  0  0  0  0  0  0  0  0  0  0
   -2.1027    1.7915    0.4543 C   0  0  0  0  0  0  0  0  0  0  0  0
   -2.9607    0.7934    0.8952 C   0  0  0  0  0  0  0  0  0  0  0  0
   -4.3012    0.7599    0.4449 N   0  0  0  0  0  0  0  0  0  0  0  0
   -5.0079   -0.2798    0.3739 N   0  0  0  0  0  0  0  0  0  0  0  0
   -6.4232   -0.1502    0.3562 C   0  0  0  0  0  0  0  0  0  0  0  0
   -7.0833    0.9584    0.8506 C   0  0  0  0  0  0  0  0  0  0  0  0
   -6.2941    2.0115    1.2844 O   0  0  0  0  0  0  0  0  0  0  0  0
   -8.4236    1.2004    0.6282 C   0  0  0  0  0  0  0  0  0  0  0  0
   -9.0253    2.3979    0.9913 C   0  0  0  0  0  0  0  0  0  0  0  0
   -8.2778    3.3313    1.7650 N   0  0  0  0  0  0  0  0  0  0  0  0
  -10.2379    2.7801    0.4449 C   0  0  0  0  0  0  0  0  0  0  0  0
  -10.8629    1.9829   -0.5043 C   0  0  0  0  0  0  0  0  0  0  0  0
  -11.8409    2.7053   -1.7747 S   0  0  0  0  0  0  0  0  0  0  0  0
  -12.8831    1.7129   -2.2285 O   0  0  0  0  0  0  0  0  0  0  0  0
  -12.4708    3.9403   -1.2236 O   0  0  0  0  0  0  0  0  0  0  0  0
  -10.8403    3.0214   -3.0798 O   0  0  0  0  0  0  0  0  0  0  0  0
  -10.3930    0.6812   -0.6033 C   0  0  0  0  0  0  0  0  0  0  0  0
   -9.1382    0.3133   -0.1353 C   0  0  0  0  0  0  0  0  0  0  0  0
   -8.5254   -0.8654   -0.5281 C   0  0  0  0  0  0  0  0  0  0  0  0
   -7.1683   -1.0925   -0.3427 C   0  0  0  0  0  0  0  0  0  0  0  0
   -6.5682   -2.7187   -0.5128 S   0  0  0  0  0  0  0  0  0  0  0  0
   -7.6902   -3.6766   -0.8290 O   0  0  0  0  0  0  0  0  0  0  0  0
   -5.6166   -2.7798   -1.6822 O   0  0  0  0  0  0  0  0  0  0  0  0
   -5.7555   -3.2239    0.8633 O   0  0  0  0  0  0  0  0  0  0  0  0
   -2.4221   -0.1424    1.7555 C   0  0  0  0  0  0  0  0  0  0  0  0
   -3.3263   -1.0735    2.4612 C   0  0  0  0  0  0  0  0  0  0  0  0
   -1.0546   -0.2561    1.9620 C   0  0  0  0  0  0  0  0  0  0  0  0
    1.3727   -0.1969   -0.6299 C   0  0  0  0  0  0  0  0  0  0  0  0
    2.5096   -0.8981   -1.0121 C   0  0  0  0  0  0  0  0  0  0  0  0
    2.9845   -1.9737   -0.2721 C   0  0  0  0  0  0  0  0  0  0  0  0
    4.3218   -2.4267   -0.5140 N   0  0  0  0  0  0  0  0  0  0  0  0
    5.1761   -1.5404   -0.7693 N   0  0  0  0  0  0  0  0  0  0  0  0
    6.5761   -1.7047   -0.6847 C   0  0  0  0  0  0  0  0  0  0  0  0
    7.2564   -1.5251    0.5135 C   0  0  0  0  0  0  0  0  0  0  0  0
    6.5983   -1.9760    1.6561 O   0  0  0  0  0  0  0  0  0  0  0  0
    8.4789   -0.8821    0.5799 C   0  0  0  0  0  0  0  0  0  0  0  0
    8.9919   -0.4938    1.8112 C   0  0  0  0  0  0  0  0  0  0  0  0
    8.1097   -0.5963    2.9345 N   0  0  0  0  0  0  0  0  0  0  0  0
    9.8560    0.5918    1.7989 C   0  0  0  0  0  0  0  0  0  0  0  0
   10.5234    0.9614    0.6491 C   0  0  0  0  0  0  0  0  0  0  0  0
   11.4055    2.4827    0.6373 S   0  0  0  0  0  0  0  0  0  0  0  0
   11.8765    2.7633    2.0247 O   0  0  0  0  0  0  0  0  0  0  0  0
   12.5307    2.4355   -0.3591 O   0  0  0  0  0  0  0  0  0  0  0  0
   10.3145    3.6788    0.1724 O   0  0  0  0  0  0  0  0  0  0  0  0
   10.2211    0.2936   -0.5298 C   0  0  0  0  0  0  0  0  0  0  0  0
    9.1529   -0.5838   -0.5981 C   0  0  0  0  0  0  0  0  0  0  0  0
    8.5913   -0.9525   -1.8141 C   0  0  0  0  0  0  0  0  0  0  0  0
    7.3215   -1.5166   -1.8390 C   0  0  0  0  0  0  0  0  0  0  0  0
    6.4721   -1.4659   -3.3788 S   0  0  0  0  0  0  0  0  0  0  0  0
    5.4160   -2.5421   -3.3898 O   0  0  0  0  0  0  0  0  0  0  0  0
    7.4459   -1.6937   -4.4877 O   0  0  0  0  0  0  0  0  0  0  0  0
    5.7173    0.0224   -3.6029 O   0  0  0  0  0  0  0  0  0  0  0  0
  1  2  1  0
  2  3  2  0
  3  4  1  0
  4  5  1  0
  5  6  2  0
  6  7  1  0
  7  8  2  0
  8  9  1  0
  9 10  2  0
 10 11  1  0
 11 12  2  0
 12 13  1  0
 12 14  1  0
 14 15  2  0
 15 16  1  0
 15 17  1  0
 17 18  2  0
 18 19  1  0
 19 20  2  0
 19 21  2  0
 19 22  1  0
 18 23  1  0
 23 24  2  0
 24 25  1  0
 25 26  2  0
 26 27  1  0
 27 28  2  0
 27 29  2  0
 27 30  1  0
  8 31  1  0
 31 32  1  0
 31 33  2  0
  4 34  2  0
 34 35  1  0
 35 36  2  0
 36 37  1  0
 37 38  2  0
 38 39  1  0
 39 40  2  0
 40 41  1  0
 40 42  1  0
 42 43  2  0
 43 44  1  0
 43 45  1  0
 45 46  2  0
 46 47  1  0
 47 48  2  0
 47 49  2  0
 47 50  1  0
 46 51  1  0
 51 52  2  0
 52 53  1  0
 53 54  2  0
 54 55  1  0
 55 56  2  0
 55 57  2  0
 55 58  1  0
 36  2  1  0
 54 39  1  0
 33  5  1  0
 52 42  1  0
 26 11  1  0
 24 14  1  0
M  END
>  <supplier_code>  (1521) 
DB09158

>  <zinc_id>  (1521) 
ZINC000169289767

>  <catalog_short_name>  (1521) 
dbfda

$$$$

     RDKit          3D

  8  7  0  0  0  0  0  0  0  0999 V2000
    2.8972    0.2527    0.2435 C   0  0  0  0  0  0  0  0  0  0  0  0
    1.8993   -0.0291   -0.2925 N   0  0  0  0  0  0  0  0  0  0  0  0
    0.7636    0.2291   -1.0799 C   0  0  0  0  0  0  0  0  0  0  0  0
   -0.4587    0.1387   -0.2185 C   0  0  0  0  0  0  0  0  0  0  0  0
   -0.1910   -0.4560    1.1381 C   0  0  0  0  0  0  0  0  0  0  0  0
   -1.0632    1.5120    0.0194 C   0  0  0  0  0  0  0  0  0  0  0  0
   -1.4142   -0.6041   -0.9292 O   0  0  0  0  0  0  0  0  0  0  0  0
   -2.4329   -1.0435   -0.0896 C   0  0  0  0  0  0  0  0  0  0  0  0
  1  2  3  0
  2  3  1  0
  3  4  1  0
  4  5  1  0
  4  6  1  0
  4  7  1  0
  7  8  1  0
M  CHG  2   1  -1   2   1
M  END
>  <supplier_code>  (1522) 
DB09161

>  <zinc_id>  (1522) 
ZINC000059111167

>  <catalog_short_name>  (1522) 
dbfda

$$$$

     RDKit          3D

 25 25  0  0  0  0  0  0  0  0999 V2000
   -3.6716   -2.7804    1.2116 C   0  0  0  0  0  0  0  0  0  0  0  0
   -2.8038   -2.1497    0.1307 C   0  0  0  0  0  0  0  0  0  0  0  0
   -3.0220   -2.9464   -1.1435 C   0  0  0  0  0  0  0  0  0  0  0  0
   -3.2302   -0.7357   -0.0981 C   0  0  0  0  0  0  0  0  0  0  0  0
   -4.5710   -0.4172   -0.2214 C   0  0  0  0  0  0  0  0  0  0  0  0
   -4.9712    0.8679    0.0737 C   0  0  0  0  0  0  0  0  0  0  0  0
   -4.0419    1.8155    0.4369 C   0  0  0  0  0  0  0  0  0  0  0  0
   -2.7010    1.5330    0.2106 C   0  0  0  0  0  0  0  0  0  0  0  0
   -1.7124    2.6317    0.0150 C   0  0  0  0  0  0  0  0  0  0  0  0
   -2.4426    3.9674    0.0087 C   0  0  0  0  0  0  0  0  0  0  0  0
   -0.7341    2.7086    1.1811 C   0  0  0  0  0  0  0  0  0  0  0  0
   -2.2460    0.2248    0.0966 C   0  0  0  0  0  0  0  0  0  0  0  0
   -1.0087    0.0078   -0.5924 N   0  0  0  0  0  0  0  0  0  0  0  0
    0.1646   -0.3050    0.1669 C   0  0  0  0  0  0  0  0  0  0  0  0
    0.0021   -1.2036    1.0460 O   0  0  0  0  0  0  0  0  0  0  0  0
    1.5123   -0.1907   -0.4695 C   0  0  0  0  0  0  0  0  0  0  0  0
    2.4875   -0.3597    0.5843 N   0  0  0  0  0  0  0  0  0  0  0  0
    3.3291    0.8066    0.6518 C   0  0  0  0  0  0  0  0  0  0  0  0
    3.9764    1.1208   -0.6473 C   0  0  0  0  0  0  0  0  0  0  0  0
    4.4887    0.2264   -1.3702 O   0  0  0  0  0  0  0  0  0  0  0  0
    4.2488    2.4528   -0.9637 O   0  0  0  0  0  0  0  0  0  0  0  0
    3.2242   -1.5843    0.3531 C   0  0  0  0  0  0  0  0  0  0  0  0
    4.1674   -1.8439    1.4766 C   0  0  0  0  0  0  0  0  0  0  0  0
    4.5491   -3.0295    1.7029 O   0  0  0  0  0  0  0  0  0  0  0  0
    5.0064   -0.8174    1.8542 O   0  0  0  0  0  0  0  0  0  0  0  0
  1  2  1  0
  2  3  1  0
  2  4  1  0
  4  5  2  0
  5  6  1  0
  6  7  2  0
  7  8  1  0
  8  9  1  0
  9 10  1  0
  9 11  1  0
  8 12  2  0
 12 13  1  0
 13 14  1  0
 14 15  2  0
 14 16  1  0
 16 17  1  0
 17 18  1  0
 18 19  1  0
 19 20  2  0
 19 21  1  0
 17 22  1  0
 22 23  1  0
 23 24  2  0
 23 25  1  0
 12  4  1  0
M  END
>  <supplier_code>  (1523) 
DB09164

>  <zinc_id>  (1523) 
ZINC000000001317

>  <catalog_short_name>  (1523) 
dbfda

$$$$

     RDKit          3D

  9  8  0  0  0  0  0  0  0  0999 V2000
    1.3637    1.4191    0.3891 O   0  0  0  0  0  0  0  0  0  0  0  0
    1.3883   -0.0136   -0.0921 P   0  0  0  0  0  0  0  0  0  0  0  0
    2.8025   -0.3808   -0.9287 O   0  0  0  0  0  0  0  0  0  0  0  0
    1.1422   -1.0590    1.2253 O   0  0  0  0  0  0  0  0  0  0  0  0
    0.0316   -0.2013   -1.1032 O   0  0  0  0  0  0  0  0  0  0  0  0
   -1.3401   -0.0168   -0.1386 P   0  0  0  0  0  0  0  0  0  0  0  0
   -2.2619   -1.1923   -0.3367 O   0  0  0  0  0  0  0  0  0  0  0  0
   -0.9427    0.0553    1.5136 O   0  0  0  0  0  0  0  0  0  0  0  0
   -2.1837    1.3895   -0.5287 O   0  0  0  0  0  0  0  0  0  0  0  0
  1  2  2  0
  2  3  1  0
  2  4  1  0
  2  5  1  0
  5  6  1  0
  6  7  2  0
  6  8  1  0
  6  9  1  0
M  END
>  <supplier_code>  (1524) 
DB09165

>  <zinc_id>  (1524) 
ZINC000006827695

>  <catalog_short_name>  (1524) 
dbfda

$$$$

     RDKit          3D

 35 38  0  0  0  0  0  0  0  0999 V2000
    0.0502   -2.2442   -2.4715 C   0  0  0  0  0  0  0  0  0  0  0  0
   -0.7335   -2.6289   -1.3439 O   0  0  0  0  0  0  0  0  0  0  0  0
   -1.5494   -1.6515   -0.8084 C   0  0  0  0  0  0  0  0  0  0  0  0
   -0.9974   -0.6812    0.0153 C   0  0  0  0  0  0  0  0  0  0  0  0
    0.2241   -0.9613    0.7798 C   0  0  0  0  0  0  0  0  0  0  0  0
    0.6514   -2.2717    0.9596 C   0  0  0  0  0  0  0  0  0  0  0  0
    1.9999   -2.5826    1.0796 C   0  0  0  0  0  0  0  0  0  0  0  0
    2.9434   -1.5653    1.1434 C   0  0  0  0  0  0  0  0  0  0  0  0
    4.2014   -1.7064    0.5706 C   0  0  0  0  0  0  0  0  0  0  0  0
    5.0379   -0.6030    0.4512 C   0  0  0  0  0  0  0  0  0  0  0  0
    6.0462   -0.5240   -0.5444 N   0  0  0  0  0  0  0  0  0  0  0  0
    6.8216    0.9820   -0.8318 S   0  0  0  0  0  0  0  0  0  0  0  0
    8.0592    0.8337   -2.0807 C   0  0  0  0  0  0  0  0  0  0  0  0
    7.3971    1.5593    0.4419 O   0  0  0  0  0  0  0  0  0  0  0  0
    5.7883    1.9681   -1.3082 O   0  0  0  0  0  0  0  0  0  0  0  0
    4.6791    0.4971    1.2205 C   0  0  0  0  0  0  0  0  0  0  0  0
    3.3847    0.6705    1.6949 C   0  0  0  0  0  0  0  0  0  0  0  0
    2.4360   -0.2975    1.4001 C   0  0  0  0  0  0  0  0  0  0  0  0
    1.1073    0.0232    1.1542 C   0  0  0  0  0  0  0  0  0  0  0  0
   -1.7502    0.4577    0.2105 C   0  0  0  0  0  0  0  0  0  0  0  0
   -3.0019    0.5920   -0.3771 C   0  0  0  0  0  0  0  0  0  0  0  0
   -3.6483    1.8601   -0.4865 N   0  0  0  0  0  0  0  0  0  0  0  0
   -3.2034    2.8080   -1.3446 C   0  0  0  0  0  0  0  0  0  0  0  0
   -3.2609    4.1450   -0.9937 C   0  0  0  0  0  0  0  0  0  0  0  0
   -3.7737    4.5116    0.2444 C   0  0  0  0  0  0  0  0  0  0  0  0
   -3.2501    5.4328    0.9399 O   0  0  0  0  0  0  0  0  0  0  0  0
   -4.5730    3.5892    0.8337 N   0  0  0  0  0  0  0  0  0  0  0  0
   -4.5245    2.2889    0.4546 C   0  0  0  0  0  0  0  0  0  0  0  0
   -5.1210    1.3872    1.1138 O   0  0  0  0  0  0  0  0  0  0  0  0
   -3.6272   -0.5713   -0.8091 C   0  0  0  0  0  0  0  0  0  0  0  0
   -2.9153   -1.7328   -1.0444 C   0  0  0  0  0  0  0  0  0  0  0  0
   -3.5831   -3.0492   -1.2843 C   0  0  0  0  0  0  0  0  0  0  0  0
   -4.3015   -3.0568   -2.6063 C   0  0  0  0  0  0  0  0  0  0  0  0
   -2.4974   -4.1068   -1.3513 C   0  0  0  0  0  0  0  0  0  0  0  0
   -4.5162   -3.3720   -0.1235 C   0  0  0  0  0  0  0  0  0  0  0  0
  1  2  1  0
  2  3  1  0
  3  4  2  0
  4  5  1  0
  5  6  2  0
  6  7  1  0
  7  8  2  0
  8  9  1  0
  9 10  2  0
 10 11  1  0
 11 12  1  0
 12 13  1  0
 12 14  2  0
 12 15  2  0
 10 16  1  0
 16 17  2  0
 17 18  1  0
 18 19  2  0
  4 20  1  0
 20 21  2  0
 21 22  1  0
 22 23  1  0
 23 24  2  0
 24 25  1  0
 25 26  2  0
 25 27  1  0
 27 28  1  0
 28 29  2  0
 21 30  1  0
 30 31  2  0
 31 32  1  0
 32 33  1  0
 32 34  1  0
 32 35  1  0
 31  3  1  0
 19  5  1  0
 28 22  1  0
 18  8  1  0
M  END
>  <supplier_code>  (1525) 
DB09183

>  <zinc_id>  (1525) 
ZINC000095616937

>  <catalog_short_name>  (1525) 
dbfda

$$$$

     RDKit          3D

 20 22  0  0  0  0  0  0  0  0999 V2000
   -3.6499    2.5316    0.5959 C   0  0  0  0  0  0  0  0  0  0  0  0
   -4.2326    1.1977    0.7232 N   0  0  0  0  0  0  0  0  0  0  0  0
   -4.6362    0.8329    2.0804 C   0  0  0  0  0  0  0  0  0  0  0  0
   -3.5734    0.1445    0.0088 C   0  0  0  0  0  0  0  0  0  0  0  0
   -3.4792    0.1287   -1.3765 C   0  0  0  0  0  0  0  0  0  0  0  0
   -2.3490   -0.3869   -2.0040 C   0  0  0  0  0  0  0  0  0  0  0  0
   -1.2283   -0.7053   -1.2426 C   0  0  0  0  0  0  0  0  0  0  0  0
   -0.0243   -0.8191   -1.8131 N   0  0  0  0  0  0  0  0  0  0  0  0
    1.1471   -0.6402   -1.1860 C   0  0  0  0  0  0  0  0  0  0  0  0
    2.2612   -0.0909   -1.8117 C   0  0  0  0  0  0  0  0  0  0  0  0
    3.2483    0.4494   -1.0095 C   0  0  0  0  0  0  0  0  0  0  0  0
    3.4775    0.0157    0.2868 C   0  0  0  0  0  0  0  0  0  0  0  0
    4.1339    0.8311    1.0443 N   0  0  0  0  0  0  0  0  0  0  0  0
    5.5561    0.9633    0.7407 C   0  0  0  0  0  0  0  0  0  0  0  0
    3.7288    1.1347    2.4068 C   0  0  0  0  0  0  0  0  0  0  0  0
    2.5521   -0.8814    0.8061 C   0  0  0  0  0  0  0  0  0  0  0  0
    1.3807   -1.2133    0.1482 C   0  0  0  0  0  0  0  0  0  0  0  0
   -0.1038   -1.6150    0.9137 S   0  0  0  0  0  0  0  0  0  0  0  0
   -1.5094   -1.1428    0.0479 C   0  0  0  0  0  0  0  0  0  0  0  0
   -2.6996   -0.7346    0.6407 C   0  0  0  0  0  0  0  0  0  0  0  0
  1  2  1  0
  2  3  1  0
  2  4  1  0
  4  5  2  0
  5  6  1  0
  6  7  2  0
  7  8  1  0
  8  9  2  0
  9 10  1  0
 10 11  2  0
 11 12  1  0
 12 13  2  3
 13 14  1  0
 13 15  1  0
 12 16  1  0
 16 17  2  0
 17 18  1  0
 18 19  1  0
 19 20  2  0
 20  4  1  0
 19  7  1  0
 17  9  1  0
M  CHG  1  13   1
M  END
>  <supplier_code>  (1526) 
DB09241

>  <zinc_id>  (1526) 
ZINC000012414057

>  <catalog_short_name>  (1526) 
dbfda

$$$$

     RDKit          3D

 29 31  0  0  0  0  0  0  0  0999 V2000
   -4.8850    2.4160   -0.4912 O   0  0  0  0  0  0  0  0  0  0  0  0
   -5.9568    1.3953   -0.1849 S   0  0  0  0  0  0  0  0  0  0  0  0
   -7.1590    2.0044    0.4470 O   0  0  0  0  0  0  0  0  0  0  0  0
   -6.3267    0.6249   -1.6205 O   0  0  0  0  0  0  0  0  0  0  0  0
   -5.2243    0.2432    0.8450 O   0  0  0  0  0  0  0  0  0  0  0  0
   -4.0391   -0.3558    0.4093 C   0  0  0  0  0  0  0  0  0  0  0  0
   -3.4197    0.0265   -0.7673 C   0  0  0  0  0  0  0  0  0  0  0  0
   -2.0358    0.0309   -0.8937 C   0  0  0  0  0  0  0  0  0  0  0  0
   -1.2370   -0.4792    0.1227 C   0  0  0  0  0  0  0  0  0  0  0  0
    0.0992   -0.9522   -0.2644 C   0  0  0  0  0  0  0  0  0  0  0  0
    1.1829    0.0046    0.0029 C   0  0  0  0  0  0  0  0  0  0  0  0
    1.2104    0.8565    1.1001 C   0  0  0  0  0  0  0  0  0  0  0  0
    2.4226    1.4792    1.3708 C   0  0  0  0  0  0  0  0  0  0  0  0
    3.3788    1.6280    0.3807 C   0  0  0  0  0  0  0  0  0  0  0  0
    4.7253    1.8657    0.6730 O   0  0  0  0  0  0  0  0  0  0  0  0
    5.6828    2.5969   -0.5313 S   0  0  0  0  0  0  0  0  0  0  0  0
    6.5212    3.6725    0.0864 O   0  0  0  0  0  0  0  0  0  0  0  0
    6.5991    1.6282   -1.1990 O   0  0  0  0  0  0  0  0  0  0  0  0
    4.7072    3.2824   -1.7255 O   0  0  0  0  0  0  0  0  0  0  0  0
    2.9525    1.3430   -0.9099 C   0  0  0  0  0  0  0  0  0  0  0  0
    1.9103    0.4442   -1.0970 C   0  0  0  0  0  0  0  0  0  0  0  0
    0.3945   -2.3316    0.1586 C   0  0  0  0  0  0  0  0  0  0  0  0
    1.5542   -2.9026   -0.3486 C   0  0  0  0  0  0  0  0  0  0  0  0
    1.8273   -4.2180   -0.0633 C   0  0  0  0  0  0  0  0  0  0  0  0
    1.0111   -4.8635    0.8579 C   0  0  0  0  0  0  0  0  0  0  0  0
   -0.2268   -4.3137    1.1195 C   0  0  0  0  0  0  0  0  0  0  0  0
   -0.6077   -3.1902    0.4652 N   0  0  0  0  0  0  0  0  0  0  0  0
   -1.8407   -0.9390    1.2587 C   0  0  0  0  0  0  0  0  0  0  0  0
   -3.2210   -0.9968    1.3325 C   0  0  0  0  0  0  0  0  0  0  0  0
  1  2  2  0
  2  3  2  0
  2  4  1  0
  2  5  1  0
  5  6  1  0
  6  7  2  0
  7  8  1  0
  8  9  2  0
  9 10  1  0
 10 11  1  0
 11 12  2  0
 12 13  1  0
 13 14  2  0
 14 15  1  0
 15 16  1  0
 16 17  2  0
 16 18  2  0
 16 19  1  0
 14 20  1  0
 20 21  2  0
 10 22  1  0
 22 23  2  0
 23 24  1  0
 24 25  2  0
 25 26  1  0
 26 27  2  0
  9 28  1  0
 28 29  2  0
 29  6  1  0
 21 11  1  0
 27 22  1  0
M  END
>  <supplier_code>  (1527) 
DB09268

>  <zinc_id>  (1527) 
ZINC000003873921

>  <catalog_short_name>  (1527) 
dbfda

$$$$

     RDKit          3D

 10 10  0  0  0  0  0  0  0  0999 V2000
    2.0117   -0.6951   -0.9058 O   0  0  0  0  0  0  0  0  0  0  0  0
    2.1323    0.1810   -0.0124 C   0  0  0  0  0  0  0  0  0  0  0  0
    3.2016    1.0817    0.0207 O   0  0  0  0  0  0  0  0  0  0  0  0
    1.1655    0.1446    1.0954 C   0  0  0  0  0  0  0  0  0  0  0  0
   -0.2116   -0.1961    0.6669 C   0  0  0  0  0  0  0  0  0  0  0  0
   -0.5026   -1.0697   -0.3594 C   0  0  0  0  0  0  0  0  0  0  0  0
   -1.6603   -0.9204   -1.1130 C   0  0  0  0  0  0  0  0  0  0  0  0
   -2.4378    0.2177   -0.9248 C   0  0  0  0  0  0  0  0  0  0  0  0
   -2.4048    0.7387    0.3636 C   0  0  0  0  0  0  0  0  0  0  0  0
   -1.2939    0.5174    1.1688 C   0  0  0  0  0  0  0  0  0  0  0  0
  1  2  2  0
  2  3  1  0
  2  4  1  0
  4  5  1  0
  5  6  2  0
  6  7  1  0
  7  8  2  0
  8  9  1  0
  9 10  2  0
 10  5  1  0
M  END
>  <supplier_code>  (1528) 
DB09269

>  <zinc_id>  (1528) 
ZINC000000388462

>  <catalog_short_name>  (1528) 
dbfda

$$$$

     RDKit          3D

 42 45  0  0  0  0  0  0  0  0999 V2000
   -0.8302    6.5403    1.0987 C   0  0  0  0  0  0  0  0  0  0  0  0
   -1.0160    6.0740    1.1596 O   0  0  0  0  0  0  0  0  0  0  0  0
   -1.1613    4.7206    0.8577 C   0  0  0  0  0  0  0  0  0  0  0  0
   -0.2034    3.8318    1.2505 C   0  0  0  0  0  0  0  0  0  0  0  0
   -0.0255    2.6844    0.4959 C   0  0  0  0  0  0  0  0  0  0  0  0
   -1.0087    2.2201   -0.3531 C   0  0  0  0  0  0  0  0  0  0  0  0
   -1.2880    0.7800   -0.4689 C   0  0  0  0  0  0  0  0  0  0  0  0
   -0.3712   -0.0169    0.2748 N   0  0  0  0  0  0  0  0  0  0  0  0
    0.9135   -0.3405   -0.1621 C   0  0  0  0  0  0  0  0  0  0  0  0
    1.3100    0.1901   -1.2480 O   0  0  0  0  0  0  0  0  0  0  0  0
    2.1560   -0.0711    0.8773 C   0  0  1  0  0  0  0  0  0  0  0  0
    1.2959   -0.4564    2.1769 N   0  0  0  0  0  0  0  0  0  0  0  0
    2.6687   -1.6574    0.7070 C   0  0  0  0  0  0  0  0  0  0  0  0
    4.0453   -1.5114    0.2034 C   0  0  0  0  0  0  0  0  0  0  0  0
    4.8953   -0.6849    0.9081 C   0  0  0  0  0  0  0  0  0  0  0  0
    4.4257    0.2130    1.9867 C   0  0  0  0  0  0  0  0  0  0  0  0
    6.1672   -0.4434    0.4089 C   0  0  0  0  0  0  0  0  0  0  0  0
    6.5206   -1.1011   -0.7408 C   0  0  0  0  0  0  0  0  0  0  0  0
    7.8095   -0.7084   -1.3251 C   0  0  0  0  0  0  0  0  0  0  0  0
    8.9735   -1.2317   -0.6745 N   0  0  0  0  0  0  0  0  0  0  0  0
    7.8902    0.5169   -1.6428 O   0  0  0  0  0  0  0  0  0  0  0  0
    5.8311   -2.2240   -1.1516 C   0  0  0  0  0  0  0  0  0  0  0  0
    4.6026   -2.5049   -0.5729 C   0  0  0  0  0  0  0  0  0  0  0  0
    3.7633   -3.5950   -1.1591 C   0  0  0  0  0  0  0  0  0  0  0  0
   -1.0014   -1.2043    1.1511 C   0  0  1  0  0  0  0  0  0  0  0  0
   -2.1132   -0.1692    1.8592 C   0  0  0  0  0  0  0  0  0  0  0  0
   -2.0766   -1.6416   -0.0123 C   0  0  0  0  0  0  0  0  0  0  0  0
   -2.6878   -2.8132    0.3185 N   0  0  0  0  0  0  0  0  0  0  0  0
   -3.3782   -3.1942   -0.7891 C   0  0  0  0  0  0  0  0  0  0  0  0
   -4.7858   -3.6253   -0.8337 C   0  0  0  0  0  0  0  0  0  0  0  0
   -5.2467   -4.4257    0.2052 C   0  0  0  0  0  0  0  0  0  0  0  0
   -6.5661   -4.3484    0.6400 C   0  0  0  0  0  0  0  0  0  0  0  0
   -7.3385   -3.2567    0.3232 C   0  0  0  0  0  0  0  0  0  0  0  0
   -6.9461   -2.5057   -0.7787 C   0  0  0  0  0  0  0  0  0  0  0  0
   -5.7710   -2.8505   -1.4374 C   0  0  0  0  0  0  0  0  0  0  0  0
   -2.6285   -2.6252   -1.8143 C   0  0  0  0  0  0  0  0  0  0  0  0
   -1.6118   -1.9266   -1.2453 N   0  0  0  0  0  0  0  0  0  0  0  0
   -1.9965    3.1305   -0.7100 C   0  0  0  0  0  0  0  0  0  0  0  0
   -2.0340    4.4048   -0.1545 C   0  0  0  0  0  0  0  0  0  0  0  0
   -3.3153    5.1228   -0.2286 C   0  0  0  0  0  0  0  0  0  0  0  0
   -3.3672    6.2999   -0.6379 O   0  0  0  0  0  0  0  0  0  0  0  0
   -4.4994    4.4043   -0.0519 O   0  0  0  0  0  0  0  0  0  0  0  0
  1  2  1  0
  2  3  1  0
  3  4  2  0
  4  5  1  0
  5  6  2  0
  6  7  1  0
  7  8  1  0
  8  9  1  0
  9 10  2  0
 11  9  1  6
 11 12  1  0
 11 13  1  0
 13 14  1  0
 14 15  2  0
 15 16  1  0
 15 17  1  0
 17 18  2  0
 18 19  1  0
 19 20  1  0
 19 21  2  0
 18 22  1  0
 22 23  2  0
 23 24  1  0
 25  8  1  6
 25 26  1  0
 25 27  1  0
 27 28  2  0
 28 29  1  0
 29 30  1  0
 30 31  2  0
 31 32  1  0
 32 33  2  0
 33 34  1  0
 34 35  2  0
 29 36  2  0
 36 37  1  0
  6 38  1  0
 38 39  2  0
 39 40  1  0
 40 41  2  0
 40 42  1  0
 39  3  1  0
 23 14  1  0
 37 27  1  0
 35 30  1  0
M  END
>  <supplier_code>  (1529) 
DB09272

>  <zinc_id>  (1529) 
ZINC000014210876

>  <catalog_short_name>  (1529) 
dbfda

$$$$

     RDKit          3D

 13 12  0  0  0  0  0  0  0  0999 V2000
   -1.3019    2.6019   -0.0305 O   0  0  0  0  0  0  0  0  0  0  0  0
   -1.6431    1.3813   -0.0561 C   0  0  0  0  0  0  0  0  0  0  0  0
   -2.5039    0.9657    0.9375 O   0  0  0  0  0  0  0  0  0  0  0  0
   -1.1057    0.5145   -1.1194 C   0  0  0  0  0  0  0  0  0  0  0  0
   -0.0282   -0.3956   -0.5502 C   0  0  0  0  0  0  0  0  0  0  0  0
    0.8278   -0.6978   -1.5868 O   0  0  0  0  0  0  0  0  0  0  0  0
    0.6090    0.3358    0.5907 C   0  0  0  0  0  0  0  0  0  0  0  0
    2.0825    0.2982    0.5746 C   0  0  0  0  0  0  0  0  0  0  0  0
    2.7664    0.2784   -0.4928 O   0  0  0  0  0  0  0  0  0  0  0  0
    2.7450    0.7856    1.7012 O   0  0  0  0  0  0  0  0  0  0  0  0
   -0.7280   -1.6303   -0.0825 C   0  0  0  0  0  0  0  0  0  0  0  0
   -1.4724   -2.1904   -0.9364 O   0  0  0  0  0  0  0  0  0  0  0  0
   -0.2475   -2.2471    1.0506 O   0  0  0  0  0  0  0  0  0  0  0  0
  1  2  2  0
  2  3  1  0
  2  4  1  0
  4  5  1  0
  5  6  1  0
  5  7  1  0
  7  8  1  0
  8  9  2  0
  8 10  1  0
  5 11  1  0
 11 12  2  0
 11 13  1  0
M  END
>  <supplier_code>  (1530) 
DB09275

>  <zinc_id>  (1530) 
ZINC000000895081

>  <catalog_short_name>  (1530) 
dbfda

$$$$

     RDKit          3D

 33 37  0  0  0  0  0  0  0  0999 V2000
    3.1669   -3.5322    0.7849 C   0  0  0  0  0  0  0  0  0  0  0  0
    2.4082   -2.4190    0.1352 C   0  0  0  0  0  0  0  0  0  0  0  0
    1.3364   -2.6816   -0.7082 C   0  0  0  0  0  0  0  0  0  0  0  0
    0.6564   -1.6037   -1.2620 C   0  0  0  0  0  0  0  0  0  0  0  0
    0.9624   -0.2880   -0.9382 C   0  0  0  0  0  0  0  0  0  0  0  0
   -0.1549    0.5844   -0.7163 N   0  0  0  0  0  0  0  0  0  0  0  0
   -0.5751    0.9647    0.5933 C   0  0  0  0  0  0  0  0  0  0  0  0
    0.3659    1.1450    1.4248 O   0  0  0  0  0  0  0  0  0  0  0  0
   -1.9656    0.7402    1.0953 C   0  0  0  0  0  0  0  0  0  0  0  0
   -3.1096    1.2018    0.2893 C   0  0  0  0  0  0  0  0  0  0  0  0
   -3.8006    2.3435    0.6751 C   0  0  0  0  0  0  0  0  0  0  0  0
   -5.1643    2.4752    0.4504 C   0  0  0  0  0  0  0  0  0  0  0  0
   -5.8888    1.4386   -0.1196 C   0  0  0  0  0  0  0  0  0  0  0  0
   -5.1438    0.5039   -0.8251 C   0  0  0  0  0  0  0  0  0  0  0  0
   -3.7810    0.3648   -0.5922 C   0  0  0  0  0  0  0  0  0  0  0  0
   -6.1040   -0.3403   -1.3883 O   0  0  0  0  0  0  0  0  0  0  0  0
   -7.2735   -0.3513   -0.5724 C   0  0  0  0  0  0  0  0  0  0  0  0
   -8.4200   -0.4496   -1.3320 F   0  0  0  0  0  0  0  0  0  0  0  0
   -7.1375   -1.4091    0.3109 F   0  0  0  0  0  0  0  0  0  0  0  0
   -7.1566    0.9023    0.0743 O   0  0  0  0  0  0  0  0  0  0  0  0
   -2.1175    0.6434    2.6057 C   0  0  0  0  0  0  0  0  0  0  0  0
   -2.1804   -0.6176    1.8219 C   0  0  0  0  0  0  0  0  0  0  0  0
    2.1459   -0.1100   -0.3065 N   0  0  0  0  0  0  0  0  0  0  0  0
    2.8965   -1.1184    0.1515 C   0  0  0  0  0  0  0  0  0  0  0  0
    4.3125   -0.8940    0.4681 C   0  0  0  0  0  0  0  0  0  0  0  0
    5.1821   -1.9670    0.6232 C   0  0  0  0  0  0  0  0  0  0  0  0
    6.4976   -1.9133    0.1781 C   0  0  0  0  0  0  0  0  0  0  0  0
    6.9883   -0.6801   -0.2313 C   0  0  0  0  0  0  0  0  0  0  0  0
    6.2677    0.4768    0.0244 C   0  0  0  0  0  0  0  0  0  0  0  0
    6.9734    1.7341    0.2718 C   0  0  0  0  0  0  0  0  0  0  0  0
    6.8657    2.7279   -0.5077 O   0  0  0  0  0  0  0  0  0  0  0  0
    8.0351    1.8059    1.1779 O   0  0  0  0  0  0  0  0  0  0  0  0
    4.9121    0.3224    0.2193 C   0  0  0  0  0  0  0  0  0  0  0  0
  1  2  1  0
  2  3  2  0
  3  4  1  0
  4  5  2  0
  5  6  1  0
  6  7  1  0
  7  8  2  0
  7  9  1  0
  9 10  1  0
 10 11  2  0
 11 12  1  0
 12 13  2  0
 13 14  1  0
 14 15  2  0
 14 16  1  0
 16 17  1  0
 17 18  1  0
 17 19  1  0
 17 20  1  0
  9 21  1  0
 21 22  1  0
  5 23  1  0
 23 24  2  0
 24 25  1  0
 25 26  2  0
 26 27  1  0
 27 28  2  0
 28 29  1  0
 29 30  1  0
 30 31  2  0
 30 32  1  0
 29 33  2  0
 24  2  1  0
 33 25  1  0
 22  9  1  0
 15 10  1  0
 20 13  1  0
M  END
>  <supplier_code>  (1531) 
DB09280

>  <zinc_id>  (1531) 
ZINC000064033452

>  <catalog_short_name>  (1531) 
dbfda

$$$$

     RDKit          3D

 11 10  0  0  0  0  0  0  0  0999 V2000
    1.9310   -1.9867   -0.0379 O   0  0  0  0  0  0  0  0  0  0  0  0
    2.6129   -0.5606   -0.1106 Si  0  0  0  0  0  4  0  0  0  0  0  0
    3.3645    0.0309    1.3426 O   0  0  0  0  0  0  0  0  0  0  0  0
    1.7273    0.6147   -1.0569 O   0  0  0  0  0  0  0  0  0  0  0  0
    0.1368    1.0048   -0.4512 Si  0  0  0  0  0  4  0  0  0  0  0  0
    0.3245    1.4310    1.2079 O   0  0  0  0  0  0  0  0  0  0  0  0
   -0.5233    2.3412   -1.2747 O   0  0  0  0  0  0  0  0  0  0  0  0
   -0.8536   -0.3972   -0.5097 O   0  0  0  0  0  0  0  0  0  0  0  0
   -2.4838   -0.4829    0.0370 Si  0  0  0  0  0  4  0  0  0  0  0  0
   -2.7321   -0.3183    1.5916 O   0  0  0  0  0  0  0  0  0  0  0  0
   -3.5041   -1.6769   -0.7384 O   0  0  0  0  0  0  0  0  0  0  0  0
  1  2  2  0
  2  3  1  0
  2  4  1  0
  4  5  1  0
  5  6  1  0
  5  7  1  0
  5  8  1  0
  8  9  1  0
  9 10  2  0
  9 11  1  0
M  END
>  <supplier_code>  (1532) 
DB09281

>  <zinc_id>  (1532) 
ZINC000247651495

>  <catalog_short_name>  (1532) 
dbfda

$$$$

     RDKit          3D

 35 38  0  0  0  0  0  0  0  0999 V2000
    1.4271    0.9814    2.3915 C   0  0  0  0  0  0  0  0  0  0  0  0
    0.9619   -0.1387    1.2147 C   0  0  1  0  0  0  0  0  0  0  0  0
    0.1887    0.9534    0.4248 O   0  0  0  0  0  0  0  0  0  0  0  0
   -0.9757    0.9328    1.2094 C   0  0  0  0  0  0  0  0  0  0  0  0
   -2.1783    0.4257    0.4756 C   0  0  1  0  0  0  0  0  0  0  0  0
   -1.8042   -0.5953   -0.5478 C   0  0  0  0  0  0  0  0  0  0  0  0
   -1.5746   -1.8752   -0.0566 C   0  0  0  0  0  0  0  0  0  0  0  0
   -1.2329   -2.9265   -0.8970 C   0  0  0  0  0  0  0  0  0  0  0  0
   -1.1604   -2.6615   -2.2565 C   0  0  0  0  0  0  0  0  0  0  0  0
   -1.0693   -1.3453   -2.6500 C   0  0  0  0  0  0  0  0  0  0  0  0
   -1.4806   -0.2958   -1.8389 C   0  0  0  0  0  0  0  0  0  0  0  0
   -3.1753   -0.2685    1.3970 C   0  0  0  0  0  0  0  0  0  0  0  0
   -4.4079   -0.5265    0.5380 C   0  0  0  0  0  0  0  0  0  0  0  0
   -5.1217    0.8032    0.4193 C   0  0  1  0  0  0  0  0  0  0  0  0
   -5.9150    0.9117   -0.8481 C   0  0  0  0  0  0  0  0  0  0  0  0
   -7.2308    0.2124   -0.5325 C   0  0  0  0  0  0  0  0  0  0  0  0
   -7.1586   -0.0903    0.9303 C   0  0  0  0  0  0  0  0  0  0  0  0
   -7.8207   -0.9648    1.5577 O   0  0  0  0  0  0  0  0  0  0  0  0
   -6.1593    0.8073    1.4273 N   0  0  0  0  0  0  0  0  0  0  0  0
   -4.1012    1.8783    0.6050 C   0  0  0  0  0  0  0  0  0  0  0  0
   -2.8668    1.5471   -0.0991 N   0  0  0  0  0  0  0  0  0  0  0  0
    2.3194    0.0863    0.3093 C   0  0  0  0  0  0  0  0  0  0  0  0
    2.8082    1.3288    0.2000 C   0  0  0  0  0  0  0  0  0  0  0  0
    4.1001    1.4236   -0.3185 C   0  0  0  0  0  0  0  0  0  0  0  0
    5.0081    2.5574    0.0534 C   0  0  0  0  0  0  0  0  0  0  0  0
    5.6330    3.0368   -1.0797 F   0  0  0  0  0  0  0  0  0  0  0  0
    6.0333    2.0971    0.8754 F   0  0  0  0  0  0  0  0  0  0  0  0
    4.3316    3.5224    0.7496 F   0  0  0  0  0  0  0  0  0  0  0  0
    4.7663    0.2656   -0.7087 C   0  0  0  0  0  0  0  0  0  0  0  0
    4.1720   -0.9884   -0.6463 C   0  0  0  0  0  0  0  0  0  0  0  0
    4.9996   -2.2306   -0.6041 C   0  0  0  0  0  0  0  0  0  0  0  0
    5.8100   -2.1053    0.5151 F   0  0  0  0  0  0  0  0  0  0  0  0
    4.1802   -3.3228   -0.5041 F   0  0  0  0  0  0  0  0  0  0  0  0
    5.8178   -2.3625   -1.6922 F   0  0  0  0  0  0  0  0  0  0  0  0
    2.8757   -1.0733   -0.1500 C   0  0  0  0  0  0  0  0  0  0  0  0
  2  1  1  1
  2  3  1  0
  3  4  1  0
  5  4  1  1
  5  6  1  0
  6  7  2  0
  7  8  1  0
  8  9  2  0
  9 10  1  0
 10 11  2  0
  5 12  1  0
 12 13  1  0
 14 13  1  6
 14 15  1  0
 15 16  1  0
 16 17  1  0
 17 18  2  0
 17 19  1  0
 14 20  1  0
 20 21  1  0
  2 22  1  0
 22 23  2  0
 23 24  1  0
 24 25  1  0
 25 26  1  0
 25 27  1  0
 25 28  1  0
 24 29  2  0
 29 30  1  0
 30 31  1  0
 31 32  1  0
 31 33  1  0
 31 34  1  0
 30 35  2  0
 21  5  1  0
 35 22  1  0
 11  6  1  0
 19 14  1  0
M  END
>  <supplier_code>  (1533) 
DB09291

>  <zinc_id>  (1533) 
ZINC000003816514

>  <catalog_short_name>  (1533) 
dbfda

$$$$

     RDKit          3D

 30 31  0  0  0  0  0  0  0  0999 V2000
   -2.4595    6.2908    0.9126 C   0  0  0  0  0  0  0  0  0  0  0  0
   -3.3443    5.4132    1.5466 C   0  0  0  0  0  0  0  0  0  0  0  0
   -2.9112    4.0731    1.5765 O   0  0  0  0  0  0  0  0  0  0  0  0
   -2.8925    3.3968    0.3562 C   0  0  0  0  0  0  0  0  0  0  0  0
   -3.5954    3.6477   -0.6073 O   0  0  0  0  0  0  0  0  0  0  0  0
   -1.5348    2.5334    0.1153 C   0  0  2  0  0  0  0  0  0  0  0  0
   -1.1819    3.2924   -1.3217 C   0  0  0  0  0  0  0  0  0  0  0  0
   -2.3403    1.3054   -0.6646 C   0  0  0  0  0  0  0  0  0  0  0  0
   -0.9257    0.5087   -1.0827 C   0  0  1  0  0  0  0  0  0  0  0  0
   -0.4811    0.3304    0.5193 C   0  0  0  0  0  0  0  0  0  0  0  0
    0.9584   -0.0032    0.3913 C   0  0  0  0  0  0  0  0  0  0  0  0
    1.7114    0.8661   -0.3897 C   0  0  0  0  0  0  0  0  0  0  0  0
    3.0466    0.5760   -0.6386 C   0  0  0  0  0  0  0  0  0  0  0  0
    3.5195   -0.6944   -0.3474 C   0  0  0  0  0  0  0  0  0  0  0  0
    4.9585   -0.8335   -0.0811 C   0  0  0  0  0  0  0  0  0  0  0  0
    5.4832   -2.0939    0.1692 C   0  0  0  0  0  0  0  0  0  0  0  0
    6.5420   -2.2859    1.0492 C   0  0  0  0  0  0  0  0  0  0  0  0
    7.0622   -1.1975    1.7390 C   0  0  0  0  0  0  0  0  0  0  0  0
    6.6882    0.0682    1.3055 C   0  0  0  0  0  0  0  0  0  0  0  0
    5.7212    0.2327    0.3597 C   0  0  0  0  0  0  0  0  0  0  0  0
    2.5993   -1.6507    0.0069 C   0  0  0  0  0  0  0  0  0  0  0  0
    1.3813   -1.3136    0.5751 C   0  0  0  0  0  0  0  0  0  0  0  0
   -1.5337   -0.9669   -1.1145 N   0  0  0  0  0  0  0  0  0  0  0  0
   -2.8137   -1.1920   -0.6663 C   0  0  0  0  0  0  0  0  0  0  0  0
   -3.6484   -0.3422   -1.0519 O   0  0  0  0  0  0  0  0  0  0  0  0
   -3.1782   -2.5046   -0.0472 C   0  0  0  0  0  0  0  0  0  0  0  0
   -4.5161   -2.9609   -0.5611 C   0  0  0  0  0  0  0  0  0  0  0  0
   -4.3641   -4.4410   -0.7489 C   0  0  0  0  0  0  0  0  0  0  0  0
   -3.5131   -4.7550   -1.6371 O   0  0  0  0  0  0  0  0  0  0  0  0
   -4.4379   -5.2996    0.3376 O   0  0  0  0  0  0  0  0  0  0  0  0
  1  2  1  0
  2  3  1  0
  3  4  1  0
  4  5  2  0
  6  4  1  1
  6  7  1  0
  6  8  1  0
  9  8  1  1
  9 10  1  0
 10 11  1  0
 11 12  2  0
 12 13  1  0
 13 14  2  0
 14 15  1  0
 15 16  2  0
 16 17  1  0
 17 18  2  0
 18 19  1  0
 19 20  2  0
 14 21  1  0
 21 22  2  0
  9 23  1  0
 23 24  1  0
 24 25  2  0
 24 26  1  0
 26 27  1  0
 27 28  1  0
 28 29  2  0
 28 30  1  0
 22 11  1  0
 20 15  1  0
M  END
>  <supplier_code>  (1534) 
DB09292

>  <zinc_id>  (1534) 
ZINC000003792417

>  <catalog_short_name>  (1534) 
dbfda

$$$$

     RDKit          3D

 65 70  0  0  0  0  0  0  0  0999 V2000
   -9.6437    5.3085   -0.5955 C   0  0  0  0  0  0  0  0  0  0  0  0
   -9.8025    4.2689   -0.7604 O   0  0  0  0  0  0  0  0  0  0  0  0
   -9.7536    3.1908    0.1363 C   0  0  0  0  0  0  0  0  0  0  0  0
   -9.6386    3.5348    1.3490 O   0  0  0  0  0  0  0  0  0  0  0  0
   -9.9157    1.8460   -0.2492 N   0  0  0  0  0  0  0  0  0  0  0  0
  -10.7181    0.9567    0.7763 C   0  0  2  0  0  0  0  0  0  0  0  0
   -9.4207    0.1805    1.3135 C   0  0  0  0  0  0  0  0  0  0  0  0
   -9.4355    0.1609    2.5600 O   0  0  0  0  0  0  0  0  0  0  0  0
   -8.3035   -0.0476    0.4955 N   0  0  0  0  0  0  0  0  0  0  0  0
   -7.8522   -1.3754    0.3328 C   0  0  0  0  0  0  0  0  0  0  0  0
   -6.8964   -1.5879    1.4207 C   0  0  0  0  0  0  0  0  0  0  0  0
   -6.4260   -0.3286    1.9335 C   0  0  0  0  0  0  0  0  0  0  0  0
   -7.0999    0.8378    0.9991 C   0  0  1  0  0  0  0  0  0  0  0  0
   -6.1270    0.5775   -0.2575 C   0  0  0  0  0  0  0  0  0  0  0  0
   -5.7694   -0.5398   -0.5711 O   0  0  0  0  0  0  0  0  0  0  0  0
   -5.0771    1.5635   -0.2985 N   0  0  0  0  0  0  0  0  0  0  0  0
   -3.7066    1.1748   -0.5140 C   0  0  0  0  0  0  0  0  0  0  0  0
   -3.5582    0.2706   -1.5604 C   0  0  0  0  0  0  0  0  0  0  0  0
   -2.4274   -0.5058   -1.6283 C   0  0  0  0  0  0  0  0  0  0  0  0
   -1.6728   -0.8259   -0.5102 C   0  0  0  0  0  0  0  0  0  0  0  0
   -0.0874   -0.5428   -0.6766 C   0  0  2  0  0  0  0  0  0  0  0  0
    0.0493   -1.3454   -2.0983 C   0  0  0  0  0  0  0  0  0  0  0  0
    1.5138   -1.4078   -2.0154 C   0  0  0  0  0  0  0  0  0  0  0  0
    1.8699   -1.8268   -0.4688 C   0  0  1  0  0  0  0  0  0  0  0  0
    2.0846   -0.3334    0.0756 C   0  0  0  0  0  0  0  0  0  0  0  0
    1.9909   -0.1702    1.4295 C   0  0  0  0  0  0  0  0  0  0  0  0
    2.5202    0.9847    1.9889 C   0  0  0  0  0  0  0  0  0  0  0  0
    2.9962    2.0134    1.1826 C   0  0  0  0  0  0  0  0  0  0  0  0
    4.1887    2.7338    1.5522 N   0  0  0  0  0  0  0  0  0  0  0  0
    5.3795    2.1706    1.0859 C   0  0  0  0  0  0  0  0  0  0  0  0
    5.4324    0.9017    1.0730 O   0  0  0  0  0  0  0  0  0  0  0  0
    6.7824    2.8272    1.5071 C   0  0  2  0  0  0  0  0  0  0  0  0
    6.2952    4.3639    1.2053 C   0  0  0  0  0  0  0  0  0  0  0  0
    5.6931    4.2591   -0.1393 C   0  0  0  0  0  0  0  0  0  0  0  0
    6.3685    3.1375   -0.8425 C   0  0  0  0  0  0  0  0  0  0  0  0
    7.3618    2.6639    0.0512 N   0  0  0  0  0  0  0  0  0  0  0  0
    8.7043    3.0510    0.0080 C   0  0  0  0  0  0  0  0  0  0  0  0
    8.9470    4.2782    0.2193 O   0  0  0  0  0  0  0  0  0  0  0  0
    9.6260    2.5160   -1.2001 C   0  0  1  0  0  0  0  0  0  0  0  0
   10.8992    2.6656   -0.2919 N   0  0  0  0  0  0  0  0  0  0  0  0
   11.6059    1.5814    0.1537 C   0  0  0  0  0  0  0  0  0  0  0  0
   11.8019    0.6901   -0.7085 O   0  0  0  0  0  0  0  0  0  0  0  0
   12.4334    1.7506    1.2728 O   0  0  0  0  0  0  0  0  0  0  0  0
   12.8856    0.5582    1.8631 C   0  0  0  0  0  0  0  0  0  0  0  0
    9.3543    0.9231   -0.9187 C   0  0  0  0  0  0  0  0  0  0  0  0
    8.4283    0.4801   -2.0045 C   0  0  0  0  0  0  0  0  0  0  0  0
    8.9925    0.6578    0.4496 C   0  0  0  0  0  0  0  0  0  0  0  0
    2.5934    1.9174   -0.1450 C   0  0  0  0  0  0  0  0  0  0  0  0
    2.2607    0.7039   -0.7376 C   0  0  0  0  0  0  0  0  0  0  0  0
    0.3664   -1.8699    0.0225 N   0  0  0  0  0  0  0  0  0  0  0  0
   -0.2265   -3.1302   -0.1738 C   0  0  0  0  0  0  0  0  0  0  0  0
    0.0986   -4.0128   -1.1972 C   0  0  0  0  0  0  0  0  0  0  0  0
   -0.0267   -5.3914   -1.0620 C   0  0  0  0  0  0  0  0  0  0  0  0
    0.0453   -5.8995    0.2288 C   0  0  0  0  0  0  0  0  0  0  0  0
    0.6213   -7.2228    0.5529 C   0  0  0  0  0  0  0  0  0  0  0  0
   -0.3426   -8.0445    1.4010 C   0  0  0  0  0  0  0  0  0  0  0  0
    1.9046   -7.1303    1.3388 C   0  0  0  0  0  0  0  0  0  0  0  0
    0.9015   -8.0233   -0.6752 C   0  0  0  0  0  0  0  0  0  0  0  0
   -0.6238   -5.1213    1.1655 C   0  0  0  0  0  0  0  0  0  0  0  0
   -0.7659   -3.7562    0.9443 C   0  0  0  0  0  0  0  0  0  0  0  0
   -2.1215   -0.2274    0.6640 C   0  0  0  0  0  0  0  0  0  0  0  0
   -3.0224    0.8341    0.6494 C   0  0  0  0  0  0  0  0  0  0  0  0
  -11.0931   -0.2155   -0.3047 C   0  0  0  0  0  0  0  0  0  0  0  0
  -11.1509   -1.5080    0.4296 C   0  0  0  0  0  0  0  0  0  0  0  0
  -10.2911   -0.1443   -1.5040 C   0  0  0  0  0  0  0  0  0  0  0  0
  1  2  1  0
  2  3  1  0
  3  4  2  0
  3  5  1  0
  6  5  1  6
  6  7  1  0
  7  8  2  0
  7  9  1  0
  9 10  1  0
 10 11  1  0
 11 12  1  0
 12 13  1  0
 13 14  1  6
 14 15  2  0
 14 16  1  0
 16 17  1  0
 17 18  2  0
 18 19  1  0
 19 20  2  0
 21 20  1  1
 21 22  1  0
 22 23  1  0
 23 24  1  0
 24 25  1  1
 25 26  2  0
 26 27  1  0
 27 28  2  0
 28 29  1  0
 29 30  1  0
 30 31  2  0
 32 30  1  6
 32 33  1  0
 33 34  1  0
 34 35  1  0
 35 36  1  0
 36 37  1  0
 37 38  2  0
 39 37  1  1
 39 40  1  0
 40 41  1  0
 41 42  2  0
 41 43  1  0
 43 44  1  0
 39 45  1  0
 45 46  1  0
 45 47  1  0
 28 48  1  0
 48 49  2  0
 24 50  1  0
 50 51  1  0
 51 52  2  0
 52 53  1  0
 53 54  2  0
 54 55  1  0
 55 56  1  0
 55 57  1  0
 55 58  1  0
 54 59  1  0
 59 60  2  0
 20 61  1  0
 61 62  2  0
  6 63  1  0
 63 64  1  0
 63 65  1  0
 13  9  1  0
 62 17  1  0
 50 21  1  0
 60 51  1  0
 49 25  1  0
 36 32  1  0
M  END
>  <supplier_code>  (1535) 
DB09296

>  <zinc_id>  (1535) 
ZINC000150601177

>  <catalog_short_name>  (1535) 
dbfda

$$$$

     RDKit          3D

 55 62  0  0  0  0  0  0  0  0999 V2000
    8.9475   -3.5992    1.3278 C   0  0  0  0  0  0  0  0  0  0  0  0
    7.9456   -2.8628    0.6831 C   0  0  0  0  0  0  0  0  0  0  0  0
    7.0738   -3.4845   -0.1881 C   0  0  0  0  0  0  0  0  0  0  0  0
    6.4425   -2.7567   -1.1420 N   0  0  0  0  0  0  0  0  0  0  0  0
    6.4299   -1.4034   -1.0757 C   0  0  0  0  0  0  0  0  0  0  0  0
    5.2132   -0.7054   -1.5164 C   0  0  0  0  0  0  0  0  0  0  0  0
    4.8227   -0.9735   -2.6625 O   0  0  0  0  0  0  0  0  0  0  0  0
    4.3590   -0.2589   -0.5608 N   0  0  0  0  0  0  0  0  0  0  0  0
    2.8435    0.0956   -0.8968 C   0  0  1  0  0  0  0  0  0  0  0  0
    2.7886   -0.6866   -2.3748 C   0  0  0  0  0  0  0  0  0  0  0  0
    1.8229    0.1839   -3.0909 C   0  0  0  0  0  0  0  0  0  0  0  0
    2.3491    1.3866   -3.7503 C   0  0  0  0  0  0  0  0  0  0  0  0
    2.8774    2.4535   -2.8371 C   0  0  0  0  0  0  0  0  0  0  0  0
    2.0066    3.7082   -2.8742 C   0  0  0  0  0  0  0  0  0  0  0  0
    2.2465    4.2863   -1.5076 C   0  0  0  0  0  0  0  0  0  0  0  0
    1.6186    3.5328   -0.5909 C   0  0  0  0  0  0  0  0  0  0  0  0
    0.0168    3.9761   -0.7864 C   0  0  1  0  0  0  0  0  0  0  0  0
   -0.5558    2.4164   -1.0675 C   0  0  0  0  0  0  0  0  0  0  0  0
   -0.5485    3.0192    0.4831 C   0  0  2  0  0  0  0  0  0  0  0  0
   -1.6652    3.8219    0.8813 C   0  0  0  0  0  0  0  0  0  0  0  0
   -2.8577    3.7600    0.5551 O   0  0  0  0  0  0  0  0  0  0  0  0
   -1.3026    5.0461    1.5116 N   0  0  0  0  0  0  0  0  0  0  0  0
   -2.2344    6.3285    2.0334 S   0  0  0  0  0  0  0  0  0  0  0  0
   -1.2391    7.4256    2.3729 O   0  0  0  0  0  0  0  0  0  0  0  0
   -2.9283    6.1050    3.3601 O   0  0  0  0  0  0  0  0  0  0  0  0
   -3.3183    7.0388    0.8398 C   0  0  0  0  0  0  0  0  0  0  0  0
   -2.7217    8.0723   -0.0824 C   0  0  0  0  0  0  0  0  0  0  0  0
   -3.5674    8.5631    1.0266 C   0  0  0  0  0  0  0  0  0  0  0  0
    0.4924    2.4751    1.1647 N   0  0  0  0  0  0  0  0  0  0  0  0
    1.0781    1.1683    1.0228 C   0  0  0  0  0  0  0  0  0  0  0  0
    1.5446    0.7145    2.0818 O   0  0  0  0  0  0  0  0  0  0  0  0
    0.1176    0.1442    0.1837 C   0  0  2  0  0  0  0  0  0  0  0  0
   -0.8498   -0.1467    1.4959 C   0  0  0  0  0  0  0  0  0  0  0  0
   -1.1085   -1.7740    1.2760 C   0  0  1  0  0  0  0  0  0  0  0  0
   -2.3540   -1.5347    0.3660 O   0  0  0  0  0  0  0  0  0  0  0  0
   -3.4029   -2.4244    0.5918 C   0  0  0  0  0  0  0  0  0  0  0  0
   -4.6234   -1.9688    0.2213 N   0  0  0  0  0  0  0  0  0  0  0  0
   -5.7004   -2.7753    0.3338 C   0  0  0  0  0  0  0  0  0  0  0  0
   -6.9827   -2.2492    0.3572 C   0  0  0  0  0  0  0  0  0  0  0  0
   -8.0897   -3.0743    0.5035 C   0  0  0  0  0  0  0  0  0  0  0  0
   -7.9238   -4.3769    0.0763 C   0  0  0  0  0  0  0  0  0  0  0  0
   -6.6856   -4.9558   -0.0710 C   0  0  0  0  0  0  0  0  0  0  0  0
   -5.5763   -4.1241    0.0386 C   0  0  0  0  0  0  0  0  0  0  0  0
   -4.2907   -4.6418    0.1580 C   0  0  0  0  0  0  0  0  0  0  0  0
   -4.0836   -6.0102    0.0362 C   0  0  0  0  0  0  0  0  0  0  0  0
   -2.7552   -6.4163    0.0377 C   0  0  0  0  0  0  0  0  0  0  0  0
   -1.7355   -5.6251    0.5320 C   0  0  0  0  0  0  0  0  0  0  0  0
   -2.0679   -4.3178    0.8509 C   0  0  0  0  0  0  0  0  0  0  0  0
   -3.2175   -3.7782    0.3357 C   0  0  0  0  0  0  0  0  0  0  0  0
   -0.1195   -1.8972   -0.0509 C   0  0  0  0  0  0  0  0  0  0  0  0
    1.0169   -1.1368    0.4888 N   0  0  0  0  0  0  0  0  0  0  0  0
    2.2987   -1.1914   -0.0531 C   0  0  0  0  0  0  0  0  0  0  0  0
    2.7666   -2.2844   -0.4239 O   0  0  0  0  0  0  0  0  0  0  0  0
    7.2783   -0.7577   -0.1836 C   0  0  0  0  0  0  0  0  0  0  0  0
    8.1087   -1.5297    0.5595 N   0  0  0  0  0  0  0  0  0  0  0  0
  1  2  1  0
  2  3  2  0
  3  4  1  0
  4  5  2  0
  5  6  1  0
  6  7  2  0
  6  8  1  0
  9  8  1  1
  9 10  1  0
 10 11  1  0
 11 12  1  0
 12 13  1  0
 13 14  1  0
 14 15  1  0
 15 16  2  0
 17 16  1  1
 17 18  1  0
 18 19  1  0
 19 20  1  1
 20 21  2  0
 20 22  1  0
 22 23  1  0
 23 24  2  0
 23 25  2  0
 23 26  1  0
 26 27  1  0
 27 28  1  0
 19 29  1  0
 29 30  1  0
 30 31  2  0
 32 30  1  1
 32 33  1  0
 33 34  1  0
 34 35  1  6
 35 36  1  0
 36 37  2  0
 37 38  1  0
 38 39  2  0
 39 40  1  0
 40 41  2  0
 41 42  1  0
 42 43  2  0
 43 44  1  0
 44 45  2  0
 45 46  1  0
 46 47  2  0
 47 48  1  0
 48 49  2  0
 34 50  1  0
 50 51  1  0
 51 52  1  0
 52 53  2  0
  5 54  1  0
 54 55  2  0
 55  2  1  0
 52  9  1  0
 19 17  1  0
 28 26  1  0
 51 32  1  0
 49 36  1  0
 43 38  1  0
 49 44  1  0
M  END
>  <supplier_code>  (1536) 
DB09297

>  <zinc_id>  (1536) 
ZINC000203757351

>  <catalog_short_name>  (1536) 
dbfda

$$$$

     RDKit          3D

 33 35  0  0  0  0  0  0  0  0999 V2000
   -5.9598   -0.2449    3.8195 C   0  0  0  0  0  0  0  0  0  0  0  0
   -5.3652   -0.0536    3.7423 C   0  0  0  0  0  0  0  0  0  0  0  0
   -4.4981    0.0804    4.9856 C   0  0  0  0  0  0  0  0  0  0  0  0
   -4.5701   -0.7029    2.7557 O   0  0  0  0  0  0  0  0  0  0  0  0
   -4.0324    0.0632    1.7143 C   0  0  0  0  0  0  0  0  0  0  0  0
   -4.8123    0.8876    1.1752 O   0  0  0  0  0  0  0  0  0  0  0  0
   -3.3205   -0.9143    0.6014 C   0  0  2  0  0  0  0  0  0  0  0  0
   -2.2109   -1.4551    1.7329 C   0  0  0  0  0  0  0  0  0  0  0  0
   -2.3373    0.2640    0.1349 N   0  0  0  0  0  0  0  0  0  0  0  0
   -1.1129   -0.5060   -0.8293 P   0  0  2  0  0  0  0  0  0  0  0  0
   -0.6731   -1.8406   -0.2366 O   0  0  0  0  0  0  0  0  0  0  0  0
    0.3690    0.5532   -0.7181 C   0  0  0  0  0  0  0  0  0  0  0  0
    0.5724    0.8274    0.6477 O   0  0  0  0  0  0  0  0  0  0  0  0
    1.4540   -0.3561    1.1134 C   0  0  2  0  0  0  0  0  0  0  0  0
    0.4207   -0.6737    2.4011 C   0  0  0  0  0  0  0  0  0  0  0  0
    2.3871    0.6616    2.0720 C   0  0  0  0  0  0  0  0  0  0  0  0
    3.5957    0.7695    1.2842 N   0  0  0  0  0  0  0  0  0  0  0  0
    3.8329    1.8391    0.4862 C   0  0  0  0  0  0  0  0  0  0  0  0
    5.0436    1.6457   -0.0372 N   0  0  0  0  0  0  0  0  0  0  0  0
    5.4201    0.3781    0.1867 C   0  0  0  0  0  0  0  0  0  0  0  0
    4.3672   -0.2518    0.8381 C   0  0  0  0  0  0  0  0  0  0  0  0
    4.4324   -1.5586    1.1323 N   0  0  0  0  0  0  0  0  0  0  0  0
    5.5508   -2.2561    0.8183 C   0  0  0  0  0  0  0  0  0  0  0  0
    6.5874   -1.6704    0.1905 N   0  0  0  0  0  0  0  0  0  0  0  0
    6.5421   -0.3637   -0.1647 C   0  0  0  0  0  0  0  0  0  0  0  0
    7.6216    0.2756   -0.8207 N   0  0  0  0  0  0  0  0  0  0  0  0
   -1.5705   -0.8448   -2.4045 O   0  0  0  0  0  0  0  0  0  0  0  0
   -2.0267   -0.0006   -3.3787 C   0  0  0  0  0  0  0  0  0  0  0  0
   -1.8281   -0.4206   -4.6898 C   0  0  0  0  0  0  0  0  0  0  0  0
   -2.7514   -0.2582   -5.6901 C   0  0  0  0  0  0  0  0  0  0  0  0
   -3.9225    0.4017   -5.4301 C   0  0  0  0  0  0  0  0  0  0  0  0
   -4.0433    1.0532   -4.2316 C   0  0  0  0  0  0  0  0  0  0  0  0
   -3.1620    0.7800   -3.2007 C   0  0  0  0  0  0  0  0  0  0  0  0
  1  2  1  0
  2  3  1  0
  2  4  1  0
  4  5  1  0
  5  6  2  0
  7  5  1  1
  7  8  1  0
  7  9  1  0
 10  9  1  1
 10 11  2  0
 10 12  1  0
 12 13  1  0
 14 13  1  6
 14 15  1  0
 14 16  1  0
 16 17  1  0
 17 18  1  0
 18 19  2  0
 19 20  1  0
 20 21  2  0
 21 22  1  0
 22 23  2  0
 23 24  1  0
 24 25  2  0
 25 26  1  0
 10 27  1  0
 27 28  1  0
 28 29  2  0
 29 30  1  0
 30 31  2  0
 31 32  1  0
 32 33  2  0
 21 17  1  0
 33 28  1  0
 25 20  1  0
M  END
>  <supplier_code>  (1537) 
DB09299

>  <zinc_id>  (1537) 
ZINC000100055899

>  <catalog_short_name>  (1537) 
dbfda

$$$$

     RDKit          3D

 23 25  0  0  0  0  0  0  0  0999 V2000
   -2.8136    1.2395   -1.8099 C   0  0  0  0  0  0  0  0  0  0  0  0
   -2.6645    0.5399   -1.4276 C   0  0  0  0  0  0  0  0  0  0  0  0
   -3.3204   -0.5006   -2.3250 C   0  0  0  0  0  0  0  0  0  0  0  0
   -1.0170    0.0549   -1.0662 S   0  0  0  0  0  0  0  0  0  0  0  0
   -1.2000    0.7076    0.7210 C   0  0  2  0  0  0  0  0  0  0  0  0
   -0.4796   -0.5025    1.6288 C   0  0  2  0  0  0  0  0  0  0  0  0
    0.6880   -0.7943    0.6049 N   0  0  0  0  0  0  0  0  0  0  0  0
    1.4295   -1.9602    0.9022 C   0  0  0  0  0  0  0  0  0  0  0  0
    1.3950   -2.4600    2.0672 O   0  0  0  0  0  0  0  0  0  0  0  0
    2.7269   -2.1248    0.1741 C   0  0  0  0  0  0  0  0  0  0  0  0
    3.3812   -0.7864    0.0381 C   0  0  0  0  0  0  0  0  0  0  0  0
    4.1155   -0.5042   -1.1038 C   0  0  0  0  0  0  0  0  0  0  0  0
    4.5948    0.7839   -1.2700 C   0  0  0  0  0  0  0  0  0  0  0  0
    4.5683    1.7093   -0.2643 C   0  0  0  0  0  0  0  0  0  0  0  0
    4.0408    1.3486    0.9697 C   0  0  0  0  0  0  0  0  0  0  0  0
    3.4756    0.0864    1.0913 C   0  0  0  0  0  0  0  0  0  0  0  0
   -1.5512   -1.4372    0.8805 C   0  0  0  0  0  0  0  0  0  0  0  0
   -1.7494   -2.6084    1.2216 O   0  0  0  0  0  0  0  0  0  0  0  0
   -2.3706   -0.2496    0.8266 N   0  0  0  0  0  0  0  0  0  0  0  0
   -3.4956    0.4702   -0.0037 C   0  0  1  0  0  0  0  0  0  0  0  0
   -3.0774    1.9538    0.4982 C   0  0  0  0  0  0  0  0  0  0  0  0
   -2.9000    2.8204   -0.3564 O   0  0  0  0  0  0  0  0  0  0  0  0
   -3.7761    2.2137    1.6848 O   0  0  0  0  0  0  0  0  0  0  0  0
  1  2  1  0
  2  3  1  0
  2  4  1  0
  5  4  1  6
  5  6  1  0
  6  7  1  6
  7  8  1  0
  8  9  2  0
  8 10  1  0
 10 11  1  0
 11 12  2  0
 12 13  1  0
 13 14  2  0
 14 15  1  0
 15 16  2  0
  6 17  1  0
 17 18  2  0
 17 19  1  0
 19 20  1  0
 20 21  1  1
 21 22  2  0
 21 23  1  0
 20  2  1  0
 19  5  1  0
 16 11  1  0
M  END
>  <supplier_code>  (1538) 
DB09320

>  <zinc_id>  (1538) 
ZINC000003871701

>  <catalog_short_name>  (1538) 
dbfda

$$$$

     RDKit          3D

 23 25  0  0  0  0  0  0  0  0999 V2000
   -2.8136    1.2395   -1.8099 C   0  0  0  0  0  0  0  0  0  0  0  0
   -2.6645    0.5399   -1.4276 C   0  0  0  0  0  0  0  0  0  0  0  0
   -3.3204   -0.5006   -2.3250 C   0  0  0  0  0  0  0  0  0  0  0  0
   -1.0170    0.0549   -1.0662 S   0  0  0  0  0  0  0  0  0  0  0  0
   -1.2000    0.7076    0.7210 C   0  0  2  0  0  0  0  0  0  0  0  0
   -0.4796   -0.5025    1.6288 C   0  0  2  0  0  0  0  0  0  0  0  0
    0.6880   -0.7943    0.6049 N   0  0  0  0  0  0  0  0  0  0  0  0
    1.4295   -1.9602    0.9022 C   0  0  0  0  0  0  0  0  0  0  0  0
    1.3950   -2.4600    2.0672 O   0  0  0  0  0  0  0  0  0  0  0  0
    2.7269   -2.1248    0.1741 C   0  0  0  0  0  0  0  0  0  0  0  0
    3.3812   -0.7864    0.0381 C   0  0  0  0  0  0  0  0  0  0  0  0
    4.1155   -0.5042   -1.1038 C   0  0  0  0  0  0  0  0  0  0  0  0
    4.5948    0.7839   -1.2700 C   0  0  0  0  0  0  0  0  0  0  0  0
    4.5683    1.7093   -0.2643 C   0  0  0  0  0  0  0  0  0  0  0  0
    4.0408    1.3486    0.9697 C   0  0  0  0  0  0  0  0  0  0  0  0
    3.4756    0.0864    1.0913 C   0  0  0  0  0  0  0  0  0  0  0  0
   -1.5512   -1.4372    0.8805 C   0  0  0  0  0  0  0  0  0  0  0  0
   -1.7494   -2.6084    1.2216 O   0  0  0  0  0  0  0  0  0  0  0  0
   -2.3706   -0.2496    0.8266 N   0  0  0  0  0  0  0  0  0  0  0  0
   -3.4956    0.4702   -0.0037 C   0  0  1  0  0  0  0  0  0  0  0  0
   -3.0774    1.9538    0.4982 C   0  0  0  0  0  0  0  0  0  0  0  0
   -2.9000    2.8204   -0.3564 O   0  0  0  0  0  0  0  0  0  0  0  0
   -3.7761    2.2137    1.6848 O   0  0  0  0  0  0  0  0  0  0  0  0
  1  2  1  0
  2  3  1  0
  2  4  1  0
  5  4  1  6
  5  6  1  0
  6  7  1  6
  7  8  1  0
  8  9  2  0
  8 10  1  0
 10 11  1  0
 11 12  2  0
 12 13  1  0
 13 14  2  0
 14 15  1  0
 15 16  2  0
  6 17  1  0
 17 18  2  0
 17 19  1  0
 19 20  1  0
 20 21  1  1
 21 22  2  0
 21 23  1  0
 20  2  1  0
 19  5  1  0
 16 11  1  0
M  END
>  <supplier_code>  (1539) 
DB09323

>  <zinc_id>  (1539) 
ZINC000003871701

>  <catalog_short_name>  (1539) 
dbfda

$$$$

     RDKit          3D

 15 16  0  0  0  0  0  0  0  0999 V2000
   -1.6162    0.2553    0.6138 C   0  0  0  0  0  0  0  0  0  0  0  0
   -1.2402    0.5917    0.0291 C   0  0  0  0  0  0  0  0  0  0  0  0
   -2.2004    1.2061   -0.9824 C   0  0  0  0  0  0  0  0  0  0  0  0
   -0.6115   -0.6118   -0.9411 C   0  0  2  0  0  0  0  0  0  0  0  0
   -1.2236   -1.8048    0.0136 C   0  0  0  0  0  0  0  0  0  0  0  0
   -0.9891   -1.7040    1.2141 O   0  0  0  0  0  0  0  0  0  0  0  0
   -2.5106   -2.0948   -0.4322 O   0  0  0  0  0  0  0  0  0  0  0  0
    0.8187   -0.6907   -0.2737 N   0  0  0  0  0  0  0  0  0  0  0  0
    2.2198   -0.4914   -0.4334 C   0  0  0  0  0  0  0  0  0  0  0  0
    3.1088   -1.2682   -0.8992 O   0  0  0  0  0  0  0  0  0  0  0  0
    2.3309    0.4051    0.7607 C   0  0  0  0  0  0  0  0  0  0  0  0
    0.7779    0.0785    1.0327 C   0  0  1  0  0  0  0  0  0  0  0  0
    0.1366    1.6385    0.1482 S   0  0  0  0  0  0  0  0  0  0  0  0
    0.9134    1.8681   -1.0506 O   0  0  0  0  0  0  0  0  0  0  0  0
    0.0855    2.6223    1.2002 O   0  0  0  0  0  0  0  0  0  0  0  0
  1  2  1  0
  2  3  1  0
  2  4  1  0
  4  5  1  1
  5  6  2  0
  5  7  1  0
  4  8  1  0
  8  9  1  0
  9 10  2  0
  9 11  1  0
 12 11  1  6
 12 13  1  0
 13 14  2  0
 13 15  2  0
 13  2  1  0
 12  8  1  0
M  END
>  <supplier_code>  (1540) 
DB09324

>  <zinc_id>  (1540) 
ZINC000000897244

>  <catalog_short_name>  (1540) 
dbfda

$$$$

     RDKit          3D

 37 40  0  0  0  0  0  0  0  0999 V2000
    3.7236    0.8837   -4.3062 C   0  0  0  0  0  0  0  0  0  0  0  0
    4.7469    1.0549   -3.4734 C   0  0  0  0  0  0  0  0  0  0  0  0
    4.5214    0.6251   -2.0905 C   0  0  0  0  0  0  0  0  0  0  0  0
    4.4813   -0.6258   -1.8891 O   0  0  0  0  0  0  0  0  0  0  0  0
    3.8933    1.4750   -1.1272 N   0  0  0  0  0  0  0  0  0  0  0  0
    2.9131    0.9606   -0.2175 C   0  0  0  0  0  0  0  0  0  0  0  0
    1.6558    0.5575   -0.6458 C   0  0  0  0  0  0  0  0  0  0  0  0
    1.0997   -0.5746   -0.0623 C   0  0  0  0  0  0  0  0  0  0  0  0
   -0.2321   -0.8978   -0.4789 N   0  0  0  0  0  0  0  0  0  0  0  0
   -1.2838    0.0065   -0.1223 C   0  0  0  0  0  0  0  0  0  0  0  0
   -1.0440    1.0675    0.6860 N   0  0  0  0  0  0  0  0  0  0  0  0
   -2.0011    1.6810    1.3923 C   0  0  0  0  0  0  0  0  0  0  0  0
   -3.2748    1.1306    1.3144 C   0  0  0  0  0  0  0  0  0  0  0  0
   -3.5839    0.3394    0.2229 C   0  0  0  0  0  0  0  0  0  0  0  0
   -4.8823    0.3810   -0.4452 C   0  0  0  0  0  0  0  0  0  0  0  0
   -5.0995    1.0455   -1.6403 C   0  0  0  0  0  0  0  0  0  0  0  0
   -6.3033    0.5923   -2.0639 N   0  0  0  0  0  0  0  0  0  0  0  0
   -6.8553    0.8734   -3.3636 C   0  0  0  0  0  0  0  0  0  0  0  0
   -6.9877    0.1338   -0.9935 C   0  0  0  0  0  0  0  0  0  0  0  0
   -8.2772   -0.3620   -0.8482 C   0  0  0  0  0  0  0  0  0  0  0  0
   -8.6979   -0.5671    0.4598 C   0  0  0  0  0  0  0  0  0  0  0  0
   -7.7588   -0.9451    1.4089 C   0  0  0  0  0  0  0  0  0  0  0  0
   -6.4040   -0.8449    1.1414 C   0  0  0  0  0  0  0  0  0  0  0  0
   -6.0505   -0.2432   -0.0533 C   0  0  0  0  0  0  0  0  0  0  0  0
   -2.5710   -0.3354   -0.3709 N   0  0  0  0  0  0  0  0  0  0  0  0
    1.3706   -0.7439    1.2894 C   0  0  0  0  0  0  0  0  0  0  0  0
    0.6673   -1.7609    1.9410 O   0  0  0  0  0  0  0  0  0  0  0  0
    0.8201   -3.0704    1.3994 C   0  0  0  0  0  0  0  0  0  0  0  0
    2.5850   -0.2770    1.7690 C   0  0  0  0  0  0  0  0  0  0  0  0
    3.1746    0.8079    1.1327 C   0  0  0  0  0  0  0  0  0  0  0  0
    4.4536    1.2330    1.6175 N   0  0  0  0  0  0  0  0  0  0  0  0
    4.5087    2.2930    2.6200 C   0  0  0  0  0  0  0  0  0  0  0  0
    5.4859    0.2174    1.7012 C   0  0  0  0  0  0  0  0  0  0  0  0
    6.8503    0.7444    1.3450 C   0  0  0  0  0  0  0  0  0  0  0  0
    7.6281   -0.3603    0.8336 N   0  0  0  0  0  0  0  0  0  0  0  0
    8.7745    0.0730    0.0772 C   0  0  0  0  0  0  0  0  0  0  0  0
    7.9536   -1.3404    1.8403 C   0  0  0  0  0  0  0  0  0  0  0  0
  1  2  2  0
  2  3  1  0
  3  4  2  0
  3  5  1  0
  5  6  1  0
  6  7  2  0
  7  8  1  0
  8  9  1  0
  9 10  1  0
 10 11  2  0
 11 12  1  0
 12 13  2  0
 13 14  1  0
 14 15  1  0
 15 16  2  0
 16 17  1  0
 17 18  1  0
 17 19  1  0
 19 20  2  0
 20 21  1  0
 21 22  2  0
 22 23  1  0
 23 24  2  0
 14 25  2  0
  8 26  2  0
 26 27  1  0
 27 28  1  0
 26 29  1  0
 29 30  2  0
 30 31  1  0
 31 32  1  0
 31 33  1  0
 33 34  1  0
 34 35  1  0
 35 36  1  0
 35 37  1  0
 30  6  1  0
 25 10  1  0
 24 15  1  0
 24 19  1  0
M  END
>  <supplier_code>  (1541) 
DB09330

>  <zinc_id>  (1541) 
ZINC000098023177

>  <catalog_short_name>  (1541) 
dbfda

$$$$

     RDKit          3D

 16 17  0  0  0  0  0  0  0  0999 V2000
    3.1377   -1.8192    0.8884 N   0  0  0  0  0  0  0  0  0  0  0  0
    2.9279   -0.6170    0.4849 C   0  0  0  0  0  0  0  0  0  0  0  0
    3.7908    0.5211    0.8471 C   0  0  0  0  0  0  0  0  0  0  0  0
    3.4974    1.5209   -0.2345 C   0  0  0  0  0  0  0  0  0  0  0  0
    2.0792    1.2241   -0.6228 C   0  0  0  0  0  0  0  0  0  0  0  0
    1.8847   -0.1979   -0.3953 N   0  0  0  0  0  0  0  0  0  0  0  0
    0.7103   -0.9504   -0.7358 C   0  0  0  0  0  0  0  0  0  0  0  0
   -0.5529   -0.1956   -0.5140 C   0  0  0  0  0  0  0  0  0  0  0  0
   -0.6034    0.8947    0.2761 N   0  0  0  0  0  0  0  0  0  0  0  0
   -1.7500    1.3431    0.8341 C   0  0  0  0  0  0  0  0  0  0  0  0
   -1.9671    2.5844    0.9788 O   0  0  0  0  0  0  0  0  0  0  0  0
   -2.8362    0.5330    0.8005 N   0  0  0  0  0  0  0  0  0  0  0  0
   -2.8654   -0.6087    0.0789 C   0  0  0  0  0  0  0  0  0  0  0  0
   -3.8589   -1.3817    0.0538 O   0  0  0  0  0  0  0  0  0  0  0  0
   -1.7301   -0.9209   -0.6562 C   0  0  0  0  0  0  0  0  0  0  0  0
   -1.8640   -1.9299   -2.0841 Cl  0  0  0  0  0  0  0  0  0  0  0  0
  1  2  2  0
  2  3  1  0
  3  4  1  0
  4  5  1  0
  5  6  1  0
  6  7  1  0
  7  8  1  0
  8  9  1  0
  9 10  1  0
 10 11  2  0
 10 12  1  0
 12 13  1  0
 13 14  2  0
 13 15  1  0
 15 16  1  0
  6  2  1  0
 15  8  2  0
M  END
>  <supplier_code>  (1542) 
DB09343

>  <zinc_id>  (1542) 
ZINC000100032379

>  <catalog_short_name>  (1542) 
dbfda

$$$$

     RDKit          3D

 21 22  0  0  0  0  0  0  0  0999 V2000
   -5.3444    2.5527    0.1659 C   0  0  0  0  0  0  0  0  0  0  0  0
   -5.6103    1.2448   -0.5558 C   0  0  0  0  0  0  0  0  0  0  0  0
   -5.3779    0.1392    0.4545 C   0  0  0  0  0  0  0  0  0  0  0  0
   -5.4308   -1.1771   -0.2710 C   0  0  0  0  0  0  0  0  0  0  0  0
   -4.1464   -1.5682   -0.7205 O   0  0  0  0  0  0  0  0  0  0  0  0
   -3.0098   -1.0337   -0.1356 C   0  0  0  0  0  0  0  0  0  0  0  0
   -2.4370    0.0962   -0.7060 C   0  0  0  0  0  0  0  0  0  0  0  0
   -1.2677    0.5910   -0.1566 C   0  0  0  0  0  0  0  0  0  0  0  0
   -0.5258   -0.2872    0.6233 C   0  0  0  0  0  0  0  0  0  0  0  0
    0.8519   -0.1281    0.8021 O   0  0  0  0  0  0  0  0  0  0  0  0
    1.3588    1.1745    0.5207 C   0  0  0  0  0  0  0  0  0  0  0  0
    1.8022    1.2828   -0.9329 C   0  0  0  0  0  0  0  0  0  0  0  0
    3.3232    1.1915   -0.9149 C   0  0  0  0  0  0  0  0  0  0  0  0
    3.6618    0.0854   -0.0414 N   0  0  0  0  0  0  0  0  0  0  0  0
    4.7777    0.3749    0.8258 C   0  0  0  0  0  0  0  0  0  0  0  0
    6.0829   -0.0278    0.2005 C   0  0  0  0  0  0  0  0  0  0  0  0
    6.0679   -0.0306   -1.1775 O   0  0  0  0  0  0  0  0  0  0  0  0
    5.1134   -0.8599   -1.7365 C   0  0  0  0  0  0  0  0  0  0  0  0
    3.9100   -1.0720   -0.8609 C   0  0  0  0  0  0  0  0  0  0  0  0
   -1.2443   -1.1342    1.4297 C   0  0  0  0  0  0  0  0  0  0  0  0
   -2.5555   -1.4143    1.1115 C   0  0  0  0  0  0  0  0  0  0  0  0
  1  2  1  0
  2  3  1  0
  3  4  1  0
  4  5  1  0
  5  6  1  0
  6  7  2  0
  7  8  1  0
  8  9  2  0
  9 10  1  0
 10 11  1  0
 11 12  1  0
 12 13  1  0
 13 14  1  0
 14 15  1  0
 15 16  1  0
 16 17  1  0
 17 18  1  0
 18 19  1  0
  9 20  1  0
 20 21  2  0
 21  6  1  0
 19 14  1  0
M  END
>  <supplier_code>  (1543) 
DB09345

>  <zinc_id>  (1543) 
ZINC000019594594

>  <catalog_short_name>  (1543) 
dbfda

$$$$

     RDKit          3D

 24 25  0  0  0  0  0  0  0  0999 V2000
    8.6532    0.5443    0.4226 C   0  0  0  0  0  0  0  0  0  0  0  0
    7.3172    0.0059   -0.0192 C   0  0  0  0  0  0  0  0  0  0  0  0
    6.5227    1.1539   -0.5766 C   0  0  0  0  0  0  0  0  0  0  0  0
    5.2187    0.6866   -1.1596 C   0  0  0  0  0  0  0  0  0  0  0  0
    4.1665    0.7256   -0.2616 O   0  0  0  0  0  0  0  0  0  0  0  0
    4.2929   -0.1714    0.7820 C   0  0  0  0  0  0  0  0  0  0  0  0
    3.3310   -1.3242    0.7060 C   0  0  0  0  0  0  0  0  0  0  0  0
    2.0061   -0.9338    0.6354 O   0  0  0  0  0  0  0  0  0  0  0  0
    1.7751   -0.2976   -0.5775 C   0  0  0  0  0  0  0  0  0  0  0  0
    0.5262   -0.8068   -1.2514 C   0  0  0  0  0  0  0  0  0  0  0  0
   -0.0574   -1.7856   -0.4371 O   0  0  0  0  0  0  0  0  0  0  0  0
   -0.6078   -1.0909    0.6513 C   0  0  0  0  0  0  0  0  0  0  0  0
   -1.9410   -0.5518    0.2594 C   0  0  0  0  0  0  0  0  0  0  0  0
   -2.6738   -1.2945   -0.6324 C   0  0  0  0  0  0  0  0  0  0  0  0
   -3.9841   -0.9508   -0.9076 C   0  0  0  0  0  0  0  0  0  0  0  0
   -4.5802    0.0425   -0.1648 C   0  0  0  0  0  0  0  0  0  0  0  0
   -3.7473    0.9490    0.4685 C   0  0  0  0  0  0  0  0  0  0  0  0
   -2.4130    0.6702    0.6922 C   0  0  0  0  0  0  0  0  0  0  0  0
   -1.5712    1.4141    1.6556 C   0  0  0  0  0  0  0  0  0  0  0  0
   -2.3122    2.5810    2.2591 C   0  0  0  0  0  0  0  0  0  0  0  0
   -2.7947    3.5224    1.1787 C   0  0  0  0  0  0  0  0  0  0  0  0
   -5.9458   -0.1949   -0.1591 O   0  0  0  0  0  0  0  0  0  0  0  0
   -6.2133   -1.1957   -1.1157 C   0  0  0  0  0  0  0  0  0  0  0  0
   -4.9678   -1.6976   -1.5408 O   0  0  0  0  0  0  0  0  0  0  0  0
  1  2  1  0
  2  3  1  0
  3  4  1  0
  4  5  1  0
  5  6  1  0
  6  7  1  0
  7  8  1  0
  8  9  1  0
  9 10  1  0
 10 11  1  0
 11 12  1  0
 12 13  1  0
 13 14  2  0
 14 15  1  0
 15 16  2  0
 16 17  1  0
 17 18  2  0
 18 19  1  0
 19 20  1  0
 20 21  1  0
 16 22  1  0
 22 23  1  0
 23 24  1  0
 18 13  1  0
 24 15  1  0
M  END
>  <supplier_code>  (1544) 
DB09350

>  <zinc_id>  (1544) 
ZINC000003875342

>  <catalog_short_name>  (1544) 
dbfda

$$$$

     RDKit          3D

 11 11  0  0  0  0  0  0  0  0999 V2000
    3.8320   -0.8451    0.2473 C   0  0  0  0  0  0  0  0  0  0  0  0
    2.5295   -0.0129    0.7968 C   0  0  1  0  0  0  0  0  0  0  0  0
    2.8903    1.2481   -0.0717 N   0  0  0  0  0  0  0  0  0  0  0  0
    1.5688   -0.6278   -0.3836 C   0  0  0  0  0  0  0  0  0  0  0  0
    0.2450   -0.0369   -0.0107 C   0  0  0  0  0  0  0  0  0  0  0  0
   -0.5466   -0.8657    0.7858 C   0  0  0  0  0  0  0  0  0  0  0  0
   -1.8993   -0.7106    0.8716 C   0  0  0  0  0  0  0  0  0  0  0  0
   -2.5551    0.0616   -0.0575 C   0  0  0  0  0  0  0  0  0  0  0  0
   -3.7788    0.6074    0.3470 O   0  0  0  0  0  0  0  0  0  0  0  0
   -1.8222    0.6656   -1.0416 C   0  0  0  0  0  0  0  0  0  0  0  0
   -0.4637    0.5164   -1.0811 C   0  0  0  0  0  0  0  0  0  0  0  0
  2  1  1  6
  2  3  1  0
  2  4  1  0
  4  5  1  0
  5  6  2  0
  6  7  1  0
  7  8  2  0
  8  9  1  0
  8 10  1  0
 10 11  2  0
 11  5  1  0
M  END
>  <supplier_code>  (1545) 
DB09352

>  <zinc_id>  (1545) 
ZINC000000000373

>  <catalog_short_name>  (1545) 
dbfda

$$$$

     RDKit          3D

 11 11  0  0  0  0  0  0  0  0999 V2000
    3.5236   -1.3698   -0.1378 C   0  0  0  0  0  0  0  0  0  0  0  0
    2.4033   -0.2874   -0.6514 C   0  0  2  0  0  0  0  0  0  0  0  0
    3.2490    0.9271   -0.1225 N   0  0  0  0  0  0  0  0  0  0  0  0
    1.5634   -0.3979    0.7488 C   0  0  0  0  0  0  0  0  0  0  0  0
    0.2346    0.1832    0.4762 C   0  0  0  0  0  0  0  0  0  0  0  0
   -0.3342    0.3272   -0.7584 C   0  0  0  0  0  0  0  0  0  0  0  0
   -1.6966    0.5874   -0.8586 C   0  0  0  0  0  0  0  0  0  0  0  0
   -2.5434    0.1564    0.1558 C   0  0  0  0  0  0  0  0  0  0  0  0
   -3.7831   -0.4303   -0.1165 O   0  0  0  0  0  0  0  0  0  0  0  0
   -1.9985    0.1046    1.4292 C   0  0  0  0  0  0  0  0  0  0  0  0
   -0.6181    0.1995    1.5642 C   0  0  0  0  0  0  0  0  0  0  0  0
  2  1  1  1
  2  3  1  0
  2  4  1  0
  4  5  1  0
  5  6  2  0
  6  7  1  0
  7  8  2  0
  8  9  1  0
  8 10  1  0
 10 11  2  0
 11  5  1  0
M  END
>  <supplier_code>  (1546) 
DB09352

>  <zinc_id>  (1546) 
ZINC000001690604

>  <catalog_short_name>  (1546) 
dbfda

$$$$

     RDKit          3D

 14 13  0  0  0  0  0  0  0  0999 V2000
   -1.9351    1.2024   -0.9009 C   0  0  0  0  0  0  0  0  0  0  0  0
   -2.1258    0.1312   -0.7025 C   0  0  0  0  0  0  0  0  0  0  0  0
   -1.5799   -0.7521   -1.7344 C   0  0  0  0  0  0  0  0  0  0  0  0
   -3.5437   -0.1748   -0.2583 C   0  0  0  0  0  0  0  0  0  0  0  0
   -4.4611    0.3694   -1.1499 O   0  0  0  0  0  0  0  0  0  0  0  0
   -1.3342   -0.2263    0.7432 C   0  0  1  0  0  0  0  0  0  0  0  0
   -1.0572   -1.7030    0.3463 O   0  0  0  0  0  0  0  0  0  0  0  0
    0.1226    0.2801    0.1369 C   0  0  0  0  0  0  0  0  0  0  0  0
    0.1003    1.5513    0.1115 O   0  0  0  0  0  0  0  0  0  0  0  0
    1.2314   -0.2778    0.8444 N   0  0  0  0  0  0  0  0  0  0  0  0
    2.2082    0.5246    1.5708 C   0  0  0  0  0  0  0  0  0  0  0  0
    3.5174    0.6497    0.8595 C   0  0  0  0  0  0  0  0  0  0  0  0
    4.0463   -0.7571    0.6378 C   0  0  0  0  0  0  0  0  0  0  0  0
    4.8108   -0.7440   -0.5045 O   0  0  0  0  0  0  0  0  0  0  0  0
  1  2  1  0
  2  3  1  0
  2  4  1  0
  4  5  1  0
  6  2  1  6
  6  7  1  0
  6  8  1  0
  8  9  2  0
  8 10  1  0
 10 11  1  0
 11 12  1  0
 12 13  1  0
 13 14  1  0
M  END
>  <supplier_code>  (1547) 
DB09357

>  <zinc_id>  (1547) 
ZINC000001530303

>  <catalog_short_name>  (1547) 
dbfda

$$$$

     RDKit          3D

 53 58  0  0  0  0  0  0  0  0999 V2000
    4.0384   -0.3618    2.0847 C   0  0  0  0  0  0  0  0  0  0  0  0
    3.7335   -0.7577    0.6602 C   0  0  0  0  0  0  0  0  0  0  0  0
    2.8299   -1.9578    0.7021 C   0  0  0  0  0  0  0  0  0  0  0  0
    4.9572   -1.1495   -0.0899 C   0  0  0  0  0  0  0  0  0  0  0  0
    4.8650   -0.4662   -1.2946 C   0  0  0  0  0  0  0  0  0  0  0  0
    5.8146   -0.7430   -2.2668 C   0  0  0  0  0  0  0  0  0  0  0  0
    6.9287   -1.4873   -1.9004 C   0  0  0  0  0  0  0  0  0  0  0  0
    7.1831   -1.8024   -0.5718 C   0  0  0  0  0  0  0  0  0  0  0  0
    8.4770   -1.8861   -0.0730 C   0  0  0  0  0  0  0  0  0  0  0  0
    8.7383   -1.7049    1.2793 C   0  0  0  0  0  0  0  0  0  0  0  0
    7.6779   -1.9163    2.1520 C   0  0  0  0  0  0  0  0  0  0  0  0
    6.3941   -2.0569    1.6414 C   0  0  0  0  0  0  0  0  0  0  0  0
    6.1050   -1.8161    0.3032 C   0  0  0  0  0  0  0  0  0  0  0  0
    3.9533    0.6269   -1.1495 N   0  0  0  0  0  0  0  0  0  0  0  0
    3.9418    1.8940   -1.8738 C   0  0  0  0  0  0  0  0  0  0  0  0
    5.3099    2.5449   -1.7933 C   0  0  0  0  0  0  0  0  0  0  0  0
    5.5387    3.2385   -0.4776 C   0  0  0  0  0  0  0  0  0  0  0  0
    6.3774    2.4375    0.4795 C   0  0  0  0  0  0  0  0  0  0  0  0
    7.9788    2.0567   -0.1732 S   0  0  0  0  0  0  0  0  0  0  0  0
    8.8152    1.4815    0.9424 O   0  0  0  0  0  0  0  0  0  0  0  0
    7.9099    1.0369   -1.2656 O   0  0  0  0  0  0  0  0  0  0  0  0
    8.6710    3.4807   -0.7462 O   0  0  0  0  0  0  0  0  0  0  0  0
    3.1889    0.3575   -0.1408 C   0  0  0  0  0  0  0  0  0  0  0  0
    1.8195    0.8733   -0.0255 C   0  0  0  0  0  0  0  0  0  0  0  0
    1.3764    1.1171    1.1934 C   0  0  0  0  0  0  0  0  0  0  0  0
   -0.0319    1.0366    1.5241 C   0  0  0  0  0  0  0  0  0  0  0  0
   -0.7878    0.2238    0.8223 C   0  0  0  0  0  0  0  0  0  0  0  0
   -0.4449   -0.2300   -0.5242 C   0  0  0  0  0  0  0  0  0  0  0  0
   -1.4659   -0.5400   -1.3242 C   0  0  0  0  0  0  0  0  0  0  0  0
   -2.6837    0.2563   -1.1251 C   0  0  0  0  0  0  0  0  0  0  0  0
   -3.6898   -0.2735   -0.4311 C   0  0  0  0  0  0  0  0  0  0  0  0
   -4.5484    0.3777    0.5120 N   0  0  0  0  0  0  0  0  0  0  0  0
   -4.4402    1.7591    0.9668 C   0  0  0  0  0  0  0  0  0  0  0  0
   -5.2369    1.9091    2.2347 C   0  0  0  0  0  0  0  0  0  0  0  0
   -6.4323    2.7869    1.9082 C   0  0  0  0  0  0  0  0  0  0  0  0
   -6.7038    2.7413    0.4299 C   0  0  0  0  0  0  0  0  0  0  0  0
   -6.4224    4.3227   -0.3355 S   0  0  0  0  0  0  0  0  0  0  0  0
   -7.3145    5.3141    0.3739 O   0  0  0  0  0  0  0  0  0  0  0  0
   -6.7919    4.2368   -1.7798 O   0  0  0  0  0  0  0  0  0  0  0  0
   -4.8071    4.7713   -0.1874 O   0  0  0  0  0  0  0  0  0  0  0  0
   -5.3612   -0.6478    1.0948 C   0  0  0  0  0  0  0  0  0  0  0  0
   -6.0405   -0.7526    2.2891 C   0  0  0  0  0  0  0  0  0  0  0  0
   -7.2206   -1.4858    2.3108 C   0  0  0  0  0  0  0  0  0  0  0  0
   -7.4163   -2.4010    1.3007 C   0  0  0  0  0  0  0  0  0  0  0  0
   -8.4580   -3.3022    1.4657 C   0  0  0  0  0  0  0  0  0  0  0  0
   -8.4651   -4.4700    0.7167 C   0  0  0  0  0  0  0  0  0  0  0  0
   -7.6070   -4.5047   -0.3736 C   0  0  0  0  0  0  0  0  0  0  0  0
   -6.6335   -3.5551   -0.5886 C   0  0  0  0  0  0  0  0  0  0  0  0
   -6.3858   -2.6429    0.4005 C   0  0  0  0  0  0  0  0  0  0  0  0
   -5.3605   -1.7235    0.2169 C   0  0  0  0  0  0  0  0  0  0  0  0
   -4.1520   -1.6659   -0.6569 C   0  0  0  0  0  0  0  0  0  0  0  0
   -3.1539   -2.6954   -0.2031 C   0  0  0  0  0  0  0  0  0  0  0  0
   -4.5675   -1.8847   -2.1061 C   0  0  0  0  0  0  0  0  0  0  0  0
  1  2  1  0
  2  3  1  0
  2  4  1  0
  4  5  2  0
  5  6  1  0
  6  7  2  0
  7  8  1  0
  8  9  2  0
  9 10  1  0
 10 11  2  0
 11 12  1  0
 12 13  2  0
  5 14  1  0
 14 15  1  0
 15 16  1  0
 16 17  1  0
 17 18  1  0
 18 19  1  0
 19 20  2  0
 19 21  2  0
 19 22  1  0
 14 23  2  0
 23 24  1  0
 24 25  2  0
 25 26  1  0
 26 27  2  0
 27 28  1  0
 28 29  2  0
 29 30  1  0
 30 31  2  0
 31 32  1  0
 32 33  1  0
 33 34  1  0
 34 35  1  0
 35 36  1  0
 36 37  1  0
 37 38  2  0
 37 39  2  0
 37 40  1  0
 32 41  1  0
 41 42  2  0
 42 43  1  0
 43 44  2  0
 44 45  1  0
 45 46  2  0
 46 47  1  0
 47 48  2  0
 48 49  1  0
 49 50  2  0
 50 51  1  0
 51 52  1  0
 51 53  1  0
 23  2  1  0
 51 31  1  0
 13  4  1  0
 50 41  1  0
 13  8  1  0
 49 44  1  0
M  CHG  1  14   1
M  END
>  <supplier_code>  (1548) 
DB09374

>  <zinc_id>  (1548) 
ZINC000008101127

>  <catalog_short_name>  (1548) 
dbfda

$$$$

     RDKit          3D

 23 26  0  0  0  0  0  0  0  0999 V2000
   -3.9866    2.2376   -1.1339 C   0  0  0  0  0  0  0  0  0  0  0  0
   -3.6668    1.3378   -0.6972 C   0  0  0  0  0  0  0  0  0  0  0  0
   -3.1623    0.0220   -0.3310 C   0  0  2  0  0  0  0  0  0  0  0  0
   -3.5279   -0.9891   -1.1911 O   0  0  0  0  0  0  0  0  0  0  0  0
   -3.3649   -0.3547    1.0994 C   0  0  0  0  0  0  0  0  0  0  0  0
   -2.1050   -1.0944    1.5574 C   0  0  0  0  0  0  0  0  0  0  0  0
   -1.5474   -1.4928    0.0847 C   0  0  2  0  0  0  0  0  0  0  0  0
    0.0993   -1.6528    0.4407 C   0  0  2  0  0  0  0  0  0  0  0  0
    0.2115   -0.8014    1.8009 C   0  0  0  0  0  0  0  0  0  0  0  0
    1.7102   -0.9092    2.0203 C   0  0  0  0  0  0  0  0  0  0  0  0
    2.5249   -0.4361    0.8853 C   0  0  0  0  0  0  0  0  0  0  0  0
    3.6581    0.1454    1.0914 C   0  0  0  0  0  0  0  0  0  0  0  0
    4.5066    0.7759    0.0738 C   0  0  0  0  0  0  0  0  0  0  0  0
    4.7495    2.0223    0.0688 O   0  0  0  0  0  0  0  0  0  0  0  0
    4.2432    0.2183   -1.2948 C   0  0  0  0  0  0  0  0  0  0  0  0
    2.7299    0.2583   -1.3804 C   0  0  0  0  0  0  0  0  0  0  0  0
    2.1942   -1.0370   -0.5554 C   0  0  2  0  0  0  0  0  0  0  0  0
    0.6591   -0.3521   -0.4575 C   0  0  1  0  0  0  0  0  0  0  0  0
    0.0458   -0.9253   -1.8303 C   0  0  0  0  0  0  0  0  0  0  0  0
   -1.1691    0.0141   -1.7827 C   0  0  0  0  0  0  0  0  0  0  0  0
   -1.6301    0.0569   -0.3634 C   0  0  1  0  0  0  0  0  0  0  0  0
   -1.2065    1.0012    0.5630 C   0  0  0  0  0  0  0  0  0  0  0  0
   -1.9656    1.9553    1.3319 C   0  0  0  0  0  0  0  0  0  0  0  0
  1  2  3  0
  3  2  1  6
  3  4  1  0
  3  5  1  0
  5  6  1  0
  7  6  1  1
  7  8  1  0
  8  9  1  1
  9 10  1  0
 10 11  1  0
 11 12  2  0
 12 13  1  0
 13 14  2  0
 13 15  1  0
 15 16  1  0
 17 16  1  6
 17 18  1  0
 18 19  1  6
 19 20  1  0
 20 21  1  0
 21 22  1  1
 22 23  1  0
 21  3  1  0
 21  7  1  0
 18  8  1  0
 17 11  1  0
M  END
>  <supplier_code>  (1549) 
DB09389

>  <zinc_id>  (1549) 
ZINC000000968375

>  <catalog_short_name>  (1549) 
dbfda

$$$$

     RDKit          3D

 23 26  0  0  0  0  0  0  0  0999 V2000
   -1.9961   -2.9017    1.4190 C   0  0  0  0  0  0  0  0  0  0  0  0
   -2.2712   -1.9868    0.8347 C   0  0  0  0  0  0  0  0  0  0  0  0
   -2.7819   -0.8933   -0.0116 C   0  0  2  0  0  0  0  0  0  0  0  0
   -4.1848   -0.9072    0.1075 O   0  0  0  0  0  0  0  0  0  0  0  0
   -2.5193   -1.1965   -1.4843 C   0  0  0  0  0  0  0  0  0  0  0  0
   -1.1539   -0.5723   -1.6160 C   0  0  0  0  0  0  0  0  0  0  0  0
   -1.5821    0.9394   -1.1195 C   0  0  2  0  0  0  0  0  0  0  0  0
   -0.0521    1.3638   -0.4589 C   0  0  2  0  0  0  0  0  0  0  0  0
    0.6265    1.2643   -1.9251 C   0  0  0  0  0  0  0  0  0  0  0  0
    1.5832    0.1900   -2.0446 C   0  0  0  0  0  0  0  0  0  0  0  0
    2.5212   -0.0637   -0.9813 C   0  0  0  0  0  0  0  0  0  0  0  0
    3.8225    0.1964   -0.9665 C   0  0  0  0  0  0  0  0  0  0  0  0
    4.4389    0.0431    0.3589 C   0  0  0  0  0  0  0  0  0  0  0  0
    5.3426    0.8204    0.7839 O   0  0  0  0  0  0  0  0  0  0  0  0
    3.8303   -0.8937    1.3546 C   0  0  0  0  0  0  0  0  0  0  0  0
    2.3431   -1.0447    1.1448 C   0  0  0  0  0  0  0  0  0  0  0  0
    1.9290    0.3955    0.4528 C   0  0  2  0  0  0  0  0  0  0  0  0
    0.3745   -0.1926    0.0478 C   0  0  1  0  0  0  0  0  0  0  0  0
   -0.1435    0.0447    1.5621 C   0  0  0  0  0  0  0  0  0  0  0  0
   -1.4493    0.7211    1.4274 C   0  0  0  0  0  0  0  0  0  0  0  0
   -2.2542    0.4321    0.2864 C   0  0  2  0  0  0  0  0  0  0  0  0
   -3.4357    1.4099    0.3287 C   0  0  0  0  0  0  0  0  0  0  0  0
   -2.9876    2.8319    0.4994 C   0  0  0  0  0  0  0  0  0  0  0  0
  1  2  3  0
  3  2  1  1
  3  4  1  0
  3  5  1  0
  5  6  1  0
  7  6  1  6
  7  8  1  0
  8  9  1  6
  9 10  1  0
 10 11  1  0
 11 12  2  0
 12 13  1  0
 13 14  2  0
 13 15  1  0
 15 16  1  0
 17 16  1  1
 17 18  1  0
 18 19  1  1
 19 20  1  0
 20 21  1  0
 21 22  1  1
 22 23  1  0
 21  3  1  0
 21  7  1  0
 18  8  1  0
 17 11  1  0
M  END
>  <supplier_code>  (1550) 
DB09389

>  <zinc_id>  (1550) 
ZINC000022065398

>  <catalog_short_name>  (1550) 
dbfda

$$$$

     RDKit          3D

 23 26  0  0  0  0  0  0  0  0999 V2000
   -3.9880    1.5547    0.7390 C   0  0  0  0  0  0  0  0  0  0  0  0
   -3.6895    0.7312    0.8925 C   0  0  0  0  0  0  0  0  0  0  0  0
   -2.8869   -0.5219    0.7817 C   0  0  2  0  0  0  0  0  0  0  0  0
   -3.7587   -1.5825    0.8624 O   0  0  0  0  0  0  0  0  0  0  0  0
   -1.9071   -0.5607    1.9534 C   0  0  0  0  0  0  0  0  0  0  0  0
   -0.6521   -0.1140    1.2897 C   0  0  0  0  0  0  0  0  0  0  0  0
   -0.6147   -1.1276    0.0340 C   0  0  2  0  0  0  0  0  0  0  0  0
    0.0392   -0.2846   -1.2776 C   0  0  2  0  0  0  0  0  0  0  0  0
    1.4471   -1.0713   -1.4977 C   0  0  0  0  0  0  0  0  0  0  0  0
    2.5221   -0.0354   -1.7360 C   0  0  0  0  0  0  0  0  0  0  0  0
    2.8958    0.7304   -0.4918 C   0  0  0  0  0  0  0  0  0  0  0  0
    4.0092    0.6025    0.1710 C   0  0  0  0  0  0  0  0  0  0  0  0
    3.9631   -0.0090    1.5113 C   0  0  0  0  0  0  0  0  0  0  0  0
    5.0045   -0.2290    2.1697 O   0  0  0  0  0  0  0  0  0  0  0  0
    2.8331   -0.9027    1.8457 C   0  0  0  0  0  0  0  0  0  0  0  0
    1.8292   -0.8665    0.6970 C   0  0  0  0  0  0  0  0  0  0  0  0
    1.7013    0.7445    0.6092 C   0  0  2  0  0  0  0  0  0  0  0  0
    0.7015    1.1260   -0.6881 C   0  0  2  0  0  0  0  0  0  0  0  0
   -0.6139    1.6720    0.0979 C   0  0  0  0  0  0  0  0  0  0  0  0
   -1.7707    1.0719   -0.4652 C   0  0  0  0  0  0  0  0  0  0  0  0
   -2.0323   -0.4346   -0.3888 C   0  0  2  0  0  0  0  0  0  0  0  0
   -2.4375   -0.8563   -1.7138 C   0  0  0  0  0  0  0  0  0  0  0  0
   -2.5949    0.3628   -2.6286 C   0  0  0  0  0  0  0  0  0  0  0  0
  1  2  3  0
  3  2  1  1
  3  4  1  0
  3  5  1  0
  5  6  1  0
  7  6  1  1
  7  8  1  0
  8  9  1  1
  9 10  1  0
 10 11  1  0
 11 12  2  0
 12 13  1  0
 13 14  2  0
 13 15  1  0
 15 16  1  0
 17 16  1  6
 17 18  1  0
 18 19  1  1
 19 20  1  0
 20 21  1  0
 21 22  1  6
 22 23  1  0
 21  3  1  0
 21  7  1  0
 18  8  1  0
 17 11  1  0
M  END
>  <supplier_code>  (1551) 
DB09389

>  <zinc_id>  (1551) 
ZINC000253498282

>  <catalog_short_name>  (1551) 
dbfda

$$$$

     RDKit          3D

 23 26  0  0  0  0  0  0  0  0999 V2000
    4.5797    1.7270   -0.6178 C   0  0  0  0  0  0  0  0  0  0  0  0
    4.0288    1.3040   -0.2298 C   0  0  0  0  0  0  0  0  0  0  0  0
    3.1619    0.3786    0.5228 C   0  0  2  0  0  0  0  0  0  0  0  0
    3.0290    0.6983    1.8499 O   0  0  0  0  0  0  0  0  0  0  0  0
    3.6059   -1.0703    0.3022 C   0  0  0  0  0  0  0  0  0  0  0  0
    2.3612   -1.8271   -0.1699 C   0  0  0  0  0  0  0  0  0  0  0  0
    1.4568   -0.9571    0.8625 C   0  0  2  0  0  0  0  0  0  0  0  0
   -0.0609   -1.4640    0.3082 C   0  0  2  0  0  0  0  0  0  0  0  0
   -0.2738   -0.5510   -0.9874 C   0  0  0  0  0  0  0  0  0  0  0  0
   -1.6668   -0.8402   -1.3739 C   0  0  0  0  0  0  0  0  0  0  0  0
   -2.4489   -0.1722   -0.2794 C   0  0  0  0  0  0  0  0  0  0  0  0
   -3.7516   -0.2168   -0.5931 C   0  0  0  0  0  0  0  0  0  0  0  0
   -4.7369    0.1502    0.3945 C   0  0  0  0  0  0  0  0  0  0  0  0
   -5.9439    0.0496    0.1097 O   0  0  0  0  0  0  0  0  0  0  0  0
   -4.2741    0.6758    1.6856 C   0  0  0  0  0  0  0  0  0  0  0  0
   -2.8173    0.5255    1.9224 C   0  0  0  0  0  0  0  0  0  0  0  0
   -2.3173   -0.8283    1.1700 C   0  0  2  0  0  0  0  0  0  0  0  0
   -0.6993   -0.4426    1.5003 C   0  0  2  0  0  0  0  0  0  0  0  0
   -0.6022    0.9748    0.7486 C   0  0  0  0  0  0  0  0  0  0  0  0
    0.8175    1.3407    0.5342 C   0  0  0  0  0  0  0  0  0  0  0  0
    1.7339    0.3501   -0.0503 C   0  0  1  0  0  0  0  0  0  0  0  0
    1.9360    0.1541   -1.3941 C   0  0  0  0  0  0  0  0  0  0  0  0
    2.8821    0.0411   -2.3828 C   0  0  0  0  0  0  0  0  0  0  0  0
  1  2  3  0
  3  2  1  6
  3  4  1  0
  3  5  1  0
  5  6  1  0
  7  6  1  6
  7  8  1  0
  8  9  1  6
  9 10  1  0
 10 11  1  0
 11 12  2  0
 12 13  1  0
 13 14  2  0
 13 15  1  0
 15 16  1  0
 17 16  1  1
 17 18  1  0
 18 19  1  6
 19 20  1  0
 20 21  1  0
 21 22  1  6
 22 23  1  0
 21  3  1  0
 21  7  1  0
 18  8  1  0
 17 11  1  0
M  END
>  <supplier_code>  (1552) 
DB09389

>  <zinc_id>  (1552) 
ZINC000253530025

>  <catalog_short_name>  (1552) 
dbfda

$$$$

     RDKit          3D

 25 26  0  0  0  0  0  0  0  0999 V2000
   -3.0073    1.1942    3.7086 C   0  0  0  0  0  0  0  0  0  0  0  0
   -2.4588    0.1653    3.0096 C   0  0  0  0  0  0  0  0  0  0  0  0
   -1.4402    0.5894    1.9977 C   0  0  0  0  0  0  0  0  0  0  0  0
   -0.8590    1.7146    2.0803 O   0  0  0  0  0  0  0  0  0  0  0  0
   -1.5383    0.1975    0.6684 O   0  0  0  0  0  0  0  0  0  0  0  0
   -0.3510   -0.0138   -0.0450 C   0  0  2  0  0  0  0  0  0  0  0  0
    0.6615   -0.7865    0.7234 C   0  0  0  0  0  0  0  0  0  0  0  0
    2.0714   -0.5306    0.3757 C   0  0  0  0  0  0  0  0  0  0  0  0
    2.9184   -0.2987    1.4555 C   0  0  0  0  0  0  0  0  0  0  0  0
    4.2546   -0.5906    1.4479 C   0  0  0  0  0  0  0  0  0  0  0  0
    4.7830   -1.3211    0.4178 C   0  0  0  0  0  0  0  0  0  0  0  0
    3.9311   -1.7983   -0.5486 C   0  0  0  0  0  0  0  0  0  0  0  0
    2.6443   -1.2826   -0.6438 C   0  0  0  0  0  0  0  0  0  0  0  0
    0.1415    1.1322   -0.7977 C   0  0  0  0  0  0  0  0  0  0  0  0
    1.0094    2.1032   -0.3128 C   0  0  0  0  0  0  0  0  0  0  0  0
    0.8164    3.4156   -0.7289 C   0  0  0  0  0  0  0  0  0  0  0  0
    0.0812    3.6782   -1.8790 C   0  0  0  0  0  0  0  0  0  0  0  0
   -0.2802    2.5967   -2.6701 C   0  0  0  0  0  0  0  0  0  0  0  0
   -0.1190    1.3197   -2.1530 C   0  0  0  0  0  0  0  0  0  0  0  0
   -0.7354   -1.1068   -1.2126 C   0  0  2  0  0  0  0  0  0  0  0  0
   -2.1563   -0.3664   -1.5932 C   0  0  0  0  0  0  0  0  0  0  0  0
   -1.4499   -2.1112   -0.1228 C   0  0  0  0  0  0  0  0  0  0  0  0
   -2.5988   -2.6525   -0.7374 N   0  0  0  0  0  0  0  0  0  0  0  0
   -3.8588   -2.1092   -0.3780 C   0  0  0  0  0  0  0  0  0  0  0  0
   -2.4598   -3.1382   -2.0621 C   0  0  0  0  0  0  0  0  0  0  0  0
  1  2  1  0
  2  3  1  0
  3  4  2  0
  3  5  1  0
  6  5  1  1
  6  7  1  0
  7  8  1  0
  8  9  2  0
  9 10  1  0
 10 11  2  0
 11 12  1  0
 12 13  2  0
  6 14  1  0
 14 15  2  0
 15 16  1  0
 16 17  2  0
 17 18  1  0
 18 19  2  0
  6 20  1  0
 20 21  1  6
 20 22  1  0
 22 23  1  0
 23 24  1  0
 23 25  1  0
 13  8  1  0
 19 14  1  0
M  END
>  <supplier_code>  (1553) 
DB09396

>  <zinc_id>  (1553) 
ZINC000001530769

>  <catalog_short_name>  (1553) 
dbfda

$$$$

     RDKit          3D

 27 26  0  0  0  0  0  0  0  0999 V2000
    0.5282   -3.4778    0.6753 O   0  0  0  0  0  0  0  0  0  0  0  0
    0.2383   -2.9089    1.7684 C   0  0  0  0  0  0  0  0  0  0  0  0
    0.2175   -3.7313    2.8988 O   0  0  0  0  0  0  0  0  0  0  0  0
    0.6095   -1.4835    2.0198 C   0  0  0  0  0  0  0  0  0  0  0  0
   -0.0882   -0.6046    1.0965 N   0  0  0  0  0  0  0  0  0  0  0  0
   -1.4556   -0.3978    1.5039 C   0  0  0  0  0  0  0  0  0  0  0  0
   -2.2487    0.2381    0.3942 C   0  0  0  0  0  0  0  0  0  0  0  0
   -3.3415   -0.6159   -0.0599 N   0  0  0  0  0  0  0  0  0  0  0  0
   -3.7929   -0.2802   -1.3814 C   0  0  0  0  0  0  0  0  0  0  0  0
   -2.7078   -0.0521   -2.3503 C   0  0  0  0  0  0  0  0  0  0  0  0
   -1.5247    0.2465   -2.0435 O   0  0  0  0  0  0  0  0  0  0  0  0
   -3.1005    0.3121   -3.6416 O   0  0  0  0  0  0  0  0  0  0  0  0
   -4.4573   -0.3210    0.8386 C   0  0  0  0  0  0  0  0  0  0  0  0
   -5.0302    1.0308    0.5623 C   0  0  0  0  0  0  0  0  0  0  0  0
   -4.9417    1.9755    1.3802 O   0  0  0  0  0  0  0  0  0  0  0  0
   -5.9293    1.1769   -0.4891 O   0  0  0  0  0  0  0  0  0  0  0  0
    0.6774    0.6402    1.0869 C   0  0  0  0  0  0  0  0  0  0  0  0
    1.5571    0.5792   -0.1321 C   0  0  0  0  0  0  0  0  0  0  0  0
    2.9432    0.7423    0.1197 N   0  0  0  0  0  0  0  0  0  0  0  0
    3.6610   -0.4268    0.5025 C   0  0  0  0  0  0  0  0  0  0  0  0
    4.0164   -1.1552   -0.7553 C   0  0  0  0  0  0  0  0  0  0  0  0
    3.3422   -0.9928   -1.8167 O   0  0  0  0  0  0  0  0  0  0  0  0
    5.2694   -1.7475   -0.9354 O   0  0  0  0  0  0  0  0  0  0  0  0
    3.3382    1.9554    0.7545 C   0  0  0  0  0  0  0  0  0  0  0  0
    3.8517    2.8692   -0.3142 C   0  0  0  0  0  0  0  0  0  0  0  0
    4.2442    4.0377   -0.0816 O   0  0  0  0  0  0  0  0  0  0  0  0
    4.1242    2.3913   -1.6005 O   0  0  0  0  0  0  0  0  0  0  0  0
  1  2  2  0
  2  3  1  0
  2  4  1  0
  4  5  1  0
  5  6  1  0
  6  7  1  0
  7  8  1  0
  8  9  1  0
  9 10  1  0
 10 11  2  0
 10 12  1  0
  8 13  1  0
 13 14  1  0
 14 15  2  0
 14 16  1  0
  5 17  1  0
 17 18  1  0
 18 19  1  0
 19 20  1  0
 20 21  1  0
 21 22  2  0
 21 23  1  0
 19 24  1  0
 24 25  1  0
 25 26  2  0
 25 27  1  0
M  END
>  <supplier_code>  (1554) 
DB09425

>  <zinc_id>  (1554) 
ZINC000019419017

>  <catalog_short_name>  (1554) 
dbfda

$$$$

     RDKit          3D

  6  5  0  0  0  0  0  0  0  0999 V2000
    2.0894   -0.7417   -0.2521 O   0  0  0  0  0  0  0  0  0  0  0  0
    0.9352   -0.4243    0.4830 C   0  0  0  0  0  0  0  0  0  0  0  0
    0.0258    0.5005   -0.2637 C   0  0  0  0  0  0  0  0  0  0  0  0
   -0.0054    1.7937    0.2118 O   0  0  0  0  0  0  0  0  0  0  0  0
   -1.3560   -0.0213   -0.4868 C   0  0  0  0  0  0  0  0  0  0  0  0
   -1.6889   -1.1068    0.3078 O   0  0  0  0  0  0  0  0  0  0  0  0
  1  2  1  0
  2  3  1  0
  3  4  1  0
  3  5  1  0
  5  6  1  0
M  END
>  <supplier_code>  (1555) 
DB09462

>  <zinc_id>  (1555) 
ZINC000000895048

>  <catalog_short_name>  (1555) 
dbfda

$$$$

     RDKit          3D

 11 12  0  0  0  0  0  0  0  0999 V2000
   -1.3233    2.3314    0.2868 O   0  0  0  0  0  0  0  0  0  0  0  0
   -1.1969    0.9698    0.0081 C   0  0  0  0  0  0  0  0  0  0  0  0
   -2.3012    0.1547   -0.0154 C   0  0  0  0  0  0  0  0  0  0  0  0
   -2.1200   -1.2214    0.0574 C   0  0  0  0  0  0  0  0  0  0  0  0
   -0.8563   -1.7371    0.0522 C   0  0  0  0  0  0  0  0  0  0  0  0
    0.2623   -0.9233   -0.0443 C   0  0  0  0  0  0  0  0  0  0  0  0
    1.4893   -1.3796    0.3818 C   0  0  0  0  0  0  0  0  0  0  0  0
    2.5683   -0.5228    0.3301 C   0  0  0  0  0  0  0  0  0  0  0  0
    2.3478    0.7394   -0.1954 C   0  0  0  0  0  0  0  0  0  0  0  0
    1.1099    1.1808   -0.5116 N   0  0  0  0  0  0  0  0  0  0  0  0
    0.0202    0.4080   -0.3496 C   0  0  0  0  0  0  0  0  0  0  0  0
  1  2  1  0
  2  3  2  0
  3  4  1  0
  4  5  2  0
  5  6  1  0
  6  7  2  0
  7  8  1  0
  8  9  2  0
  9 10  1  0
 10 11  2  0
 11  2  1  0
 11  6  1  0
M  END
>  <supplier_code>  (1556) 
DB09473

>  <zinc_id>  (1556) 
ZINC000000008492

>  <catalog_short_name>  (1556) 
dbfda

$$$$

     RDKit          3D

 25 26  0  0  0  0  0  0  0  0999 V2000
   -1.1466   -1.6295   -1.2325 C   0  0  0  0  0  0  0  0  0  0  0  0
   -0.6537   -0.4260   -0.2266 C   0  0  2  0  0  0  0  0  0  0  0  0
    0.2968   -1.3959    0.5728 N   0  0  0  0  0  0  0  0  0  0  0  0
    1.4241   -1.4957   -0.5285 C   0  0  1  0  0  0  0  0  0  0  0  0
    2.6209   -1.5374    0.5999 C   0  0  0  0  0  0  0  0  0  0  0  0
    3.8273   -1.0103   -0.1696 C   0  0  0  0  0  0  0  0  0  0  0  0
    3.9026    0.4599   -0.0718 C   0  0  0  0  0  0  0  0  0  0  0  0
    4.7335    1.0093    0.8910 C   0  0  0  0  0  0  0  0  0  0  0  0
    4.9396    2.3656    0.9998 C   0  0  0  0  0  0  0  0  0  0  0  0
    4.4798    3.2066    0.0083 C   0  0  0  0  0  0  0  0  0  0  0  0
    3.6760    2.6657   -0.9659 C   0  0  0  0  0  0  0  0  0  0  0  0
    3.2830    1.3339   -0.9254 C   0  0  0  0  0  0  0  0  0  0  0  0
    1.3753   -3.1014   -0.6196 C   0  0  0  0  0  0  0  0  0  0  0  0
    2.1858   -3.5465   -1.4771 O   0  0  0  0  0  0  0  0  0  0  0  0
    0.9445   -3.8465    0.4151 O   0  0  0  0  0  0  0  0  0  0  0  0
   -1.9142   -0.6390    0.7569 C   0  0  0  0  0  0  0  0  0  0  0  0
   -2.1345   -1.8081    1.1492 O   0  0  0  0  0  0  0  0  0  0  0  0
   -3.0665    0.1599    0.4259 N   0  0  0  0  0  0  0  0  0  0  0  0
   -4.3264   -0.4247    0.2257 C   0  0  0  0  0  0  0  0  0  0  0  0
   -4.5787   -0.3016   -1.2026 C   0  0  0  0  0  0  0  0  0  0  0  0
   -3.9746    0.9095   -1.6627 C   0  0  0  0  0  0  0  0  0  0  0  0
   -2.9052    1.4024   -0.5244 C   0  0  1  0  0  0  0  0  0  0  0  0
   -4.0054    2.2977    0.2433 C   0  0  0  0  0  0  0  0  0  0  0  0
   -3.7641    3.5387    0.1784 O   0  0  0  0  0  0  0  0  0  0  0  0
   -5.2193    1.8134    0.5307 O   0  0  0  0  0  0  0  0  0  0  0  0
  2  1  1  6
  2  3  1  0
  4  3  1  1
  4  5  1  0
  5  6  1  0
  6  7  1  0
  7  8  2  0
  8  9  1  0
  9 10  2  0
 10 11  1  0
 11 12  2  0
  4 13  1  0
 13 14  2  0
 13 15  1  0
  2 16  1  0
 16 17  2  0
 16 18  1  0
 18 19  1  0
 19 20  1  0
 20 21  1  0
 21 22  1  0
 22 23  1  1
 23 24  2  0
 23 25  1  0
 12  7  1  0
 22 18  1  0
M  END
>  <supplier_code>  (1557) 
DB09477

>  <zinc_id>  (1557) 
ZINC000003812851

>  <catalog_short_name>  (1557) 
dbfda

$$$$

     RDKit          3D

  4  3  0  0  0  0  0  0  0  0999 V2000
   -0.4843    1.2019   -0.0359 O   0  0  0  0  0  0  0  0  0  0  0  0
   -0.0017    0.0431    0.1044 C   0  0  0  0  0  0  0  0  0  0  0  0
   -0.8698   -1.0337   -0.0293 O   0  0  0  0  0  0  0  0  0  0  0  0
    1.3558   -0.2113   -0.0392 O   0  0  0  0  0  0  0  0  0  0  0  0
  1  2  2  0
  2  3  1  0
  2  4  1  0
M  END
>  <supplier_code>  (1558) 
DB09481

>  <zinc_id>  (1558) 
ZINC000006827693

>  <catalog_short_name>  (1558) 
dbfda

$$$$

     RDKit          3D

 26 28  0  0  0  0  0  0  0  0999 V2000
   -3.9720   -4.1268   -0.8535 C   0  0  0  0  0  0  0  0  0  0  0  0
   -3.7794   -2.9261    0.0191 C   0  0  0  0  0  0  0  0  0  0  0  0
   -2.9558   -2.9583    1.1379 C   0  0  0  0  0  0  0  0  0  0  0  0
   -2.0576   -1.9304    1.4011 C   0  0  0  0  0  0  0  0  0  0  0  0
   -2.0865   -0.7598    0.6518 C   0  0  0  0  0  0  0  0  0  0  0  0
   -0.8632   -0.0187    0.3196 C   0  0  0  0  0  0  0  0  0  0  0  0
   -1.0206    1.2503   -0.0051 C   0  0  0  0  0  0  0  0  0  0  0  0
   -2.3123    1.8466   -0.4221 C   0  0  0  0  0  0  0  0  0  0  0  0
   -2.2593    3.2848   -0.2959 N   0  0  0  0  0  0  0  0  0  0  0  0
   -2.6331    3.6313    1.0508 C   0  0  0  0  0  0  0  0  0  0  0  0
   -1.7476    4.7604    1.4986 C   0  0  0  0  0  0  0  0  0  0  0  0
   -0.7417    4.9675    0.3963 C   0  0  0  0  0  0  0  0  0  0  0  0
   -0.9361    3.8021   -0.5329 C   0  0  0  0  0  0  0  0  0  0  0  0
    0.3383   -0.7396   -0.1194 C   0  0  0  0  0  0  0  0  0  0  0  0
    0.1366   -1.8790   -0.8859 C   0  0  0  0  0  0  0  0  0  0  0  0
    1.2341   -2.5883   -1.3559 C   0  0  0  0  0  0  0  0  0  0  0  0
    2.4312   -1.8959   -1.3795 C   0  0  0  0  0  0  0  0  0  0  0  0
    2.4575   -0.5393   -1.0999 C   0  0  0  0  0  0  0  0  0  0  0  0
    3.7953    0.0369   -0.9054 C   0  0  0  0  0  0  0  0  0  0  0  0
    4.8214   -0.6577   -0.4677 C   0  0  0  0  0  0  0  0  0  0  0  0
    5.6971   -0.2115    0.6220 C   0  0  0  0  0  0  0  0  0  0  0  0
    5.9142   -1.0672    1.5324 O   0  0  0  0  0  0  0  0  0  0  0  0
    6.2979    1.0367    0.6008 O   0  0  0  0  0  0  0  0  0  0  0  0
    1.4825   -0.0718   -0.2839 N   0  0  0  0  0  0  0  0  0  0  0  0
   -3.2398   -0.5807   -0.1020 C   0  0  0  0  0  0  0  0  0  0  0  0
   -4.0010   -1.6656   -0.5213 C   0  0  0  0  0  0  0  0  0  0  0  0
  1  2  1  0
  2  3  2  0
  3  4  1  0
  4  5  2  0
  5  6  1  0
  6  7  2  0
  7  8  1  0
  8  9  1  0
  9 10  1  0
 10 11  1  0
 11 12  1  0
 12 13  1  0
  6 14  1  0
 14 15  2  0
 15 16  1  0
 16 17  2  0
 17 18  1  0
 18 19  1  0
 19 20  2  0
 20 21  1  0
 21 22  2  0
 21 23  1  0
 18 24  2  0
  5 25  1  0
 25 26  2  0
 26  2  1  0
 13  9  1  0
 24 14  1  0
M  END
>  <supplier_code>  (1559) 
DB09488

>  <zinc_id>  (1559) 
ZINC000003776633

>  <catalog_short_name>  (1559) 
dbfda

$$$$

     RDKit          3D

 26 28  0  0  0  0  0  0  0  0999 V2000
   -2.5494    5.5102   -0.9118 C   0  0  0  0  0  0  0  0  0  0  0  0
   -1.6446    4.6062   -0.1506 C   0  0  0  0  0  0  0  0  0  0  0  0
   -1.9678    4.1173    1.1094 C   0  0  0  0  0  0  0  0  0  0  0  0
   -1.6801    2.7914    1.4101 C   0  0  0  0  0  0  0  0  0  0  0  0
   -0.8443    2.0177    0.6274 C   0  0  0  0  0  0  0  0  0  0  0  0
   -1.1003    0.5754    0.5140 C   0  0  0  0  0  0  0  0  0  0  0  0
   -2.3142    0.0560    0.6290 C   0  0  0  0  0  0  0  0  0  0  0  0
   -2.8962   -0.9093   -0.3237 C   0  0  0  0  0  0  0  0  0  0  0  0
   -2.3261   -2.2272   -0.2145 N   0  0  0  0  0  0  0  0  0  0  0  0
   -3.1699   -3.1203   -0.9972 C   0  0  0  0  0  0  0  0  0  0  0  0
   -4.3878   -3.2510   -0.1101 C   0  0  0  0  0  0  0  0  0  0  0  0
   -3.9189   -2.9284    1.3027 C   0  0  0  0  0  0  0  0  0  0  0  0
   -2.4236   -2.7626    1.1222 C   0  0  0  0  0  0  0  0  0  0  0  0
   -0.1228   -0.2312   -0.2212 C   0  0  0  0  0  0  0  0  0  0  0  0
   -0.0814   -0.0356   -1.5960 C   0  0  0  0  0  0  0  0  0  0  0  0
    1.0507   -0.3354   -2.3427 C   0  0  0  0  0  0  0  0  0  0  0  0
    2.2329   -0.4433   -1.6471 C   0  0  0  0  0  0  0  0  0  0  0  0
    2.1754   -0.7906   -0.3047 C   0  0  0  0  0  0  0  0  0  0  0  0
    3.3045   -1.4755    0.3254 C   0  0  0  0  0  0  0  0  0  0  0  0
    4.4624   -1.5211   -0.3017 C   0  0  0  0  0  0  0  0  0  0  0  0
    5.7235   -1.8585    0.3427 C   0  0  0  0  0  0  0  0  0  0  0  0
    5.9029   -3.0593    0.7019 O   0  0  0  0  0  0  0  0  0  0  0  0
    6.2867   -0.8936    1.1820 O   0  0  0  0  0  0  0  0  0  0  0  0
    1.0628   -0.4812    0.3852 N   0  0  0  0  0  0  0  0  0  0  0  0
   -0.2014    2.6797   -0.4113 C   0  0  0  0  0  0  0  0  0  0  0  0
   -0.5730    3.9705   -0.7662 C   0  0  0  0  0  0  0  0  0  0  0  0
  1  2  1  0
  2  3  2  0
  3  4  1  0
  4  5  2  0
  5  6  1  0
  6  7  2  0
  7  8  1  0
  8  9  1  0
  9 10  1  0
 10 11  1  0
 11 12  1  0
 12 13  1  0
  6 14  1  0
 14 15  2  0
 15 16  1  0
 16 17  2  0
 17 18  1  0
 18 19  1  0
 19 20  2  0
 20 21  1  0
 21 22  2  0
 21 23  1  0
 18 24  2  0
  5 25  1  0
 25 26  2  0
 26  2  1  0
 13  9  1  0
 24 14  1  0
M  END
>  <supplier_code>  (1560) 
DB09488

>  <zinc_id>  (1560) 
ZINC000031274852

>  <catalog_short_name>  (1560) 
dbfda

$$$$

     RDKit          3D

 26 28  0  0  0  0  0  0  0  0999 V2000
   -3.7579    4.8678    0.0815 C   0  0  0  0  0  0  0  0  0  0  0  0
   -3.1085    3.5241    0.0151 C   0  0  0  0  0  0  0  0  0  0  0  0
   -2.9473    2.7228    1.1327 C   0  0  0  0  0  0  0  0  0  0  0  0
   -2.1796    1.5818    1.1222 C   0  0  0  0  0  0  0  0  0  0  0  0
   -1.6981    1.1648   -0.1093 C   0  0  0  0  0  0  0  0  0  0  0  0
   -0.5536    0.2702   -0.1576 C   0  0  0  0  0  0  0  0  0  0  0  0
   -0.7705   -1.0195   -0.0314 C   0  0  0  0  0  0  0  0  0  0  0  0
   -2.0504   -1.6436   -0.4567 C   0  0  0  0  0  0  0  0  0  0  0  0
   -2.5882   -2.5373    0.5614 N   0  0  0  0  0  0  0  0  0  0  0  0
   -1.8250   -3.7623    0.5018 C   0  0  0  0  0  0  0  0  0  0  0  0
   -2.7803   -4.8669    0.9302 C   0  0  0  0  0  0  0  0  0  0  0  0
   -4.1598   -4.3191    0.6653 C   0  0  0  0  0  0  0  0  0  0  0  0
   -3.8815   -2.9742    0.0626 C   0  0  0  0  0  0  0  0  0  0  0  0
    0.8000    0.7940   -0.0204 C   0  0  0  0  0  0  0  0  0  0  0  0
    0.9984    2.1507    0.2019 C   0  0  0  0  0  0  0  0  0  0  0  0
    2.2872    2.6070    0.2002 C   0  0  0  0  0  0  0  0  0  0  0  0
    3.3001    1.6927    0.0180 C   0  0  0  0  0  0  0  0  0  0  0  0
    3.0790    0.3969   -0.4325 C   0  0  0  0  0  0  0  0  0  0  0  0
    4.0884   -0.1439   -1.3533 C   0  0  0  0  0  0  0  0  0  0  0  0
    5.2612   -0.4343   -0.7874 C   0  0  0  0  0  0  0  0  0  0  0  0
    5.1711   -1.3640    0.3452 C   0  0  0  0  0  0  0  0  0  0  0  0
    5.7249   -2.4882    0.1803 O   0  0  0  0  0  0  0  0  0  0  0  0
    4.7155   -0.9954    1.5922 O   0  0  0  0  0  0  0  0  0  0  0  0
    1.8018   -0.0103   -0.4523 N   0  0  0  0  0  0  0  0  0  0  0  0
   -2.0239    1.8558   -1.2689 C   0  0  0  0  0  0  0  0  0  0  0  0
   -2.9031    2.9301   -1.2227 C   0  0  0  0  0  0  0  0  0  0  0  0
  1  2  1  0
  2  3  2  0
  3  4  1  0
  4  5  2  0
  5  6  1  0
  6  7  2  0
  7  8  1  0
  8  9  1  0
  9 10  1  0
 10 11  1  0
 11 12  1  0
 12 13  1  0
  6 14  1  0
 14 15  2  0
 15 16  1  0
 16 17  2  0
 17 18  1  0
 18 19  1  0
 19 20  2  0
 20 21  1  0
 21 22  2  0
 21 23  1  0
 18 24  2  0
  5 25  1  0
 25 26  2  0
 26  2  1  0
 13  9  1  0
 24 14  1  0
M  END
>  <supplier_code>  (1561) 
DB09488

>  <zinc_id>  (1561) 
ZINC000100296828

>  <catalog_short_name>  (1561) 
dbfda

$$$$

     RDKit          3D

 26 28  0  0  0  0  0  0  0  0999 V2000
   -3.6541    5.0474    0.3405 C   0  0  0  0  0  0  0  0  0  0  0  0
   -2.6826    4.1189   -0.3183 C   0  0  0  0  0  0  0  0  0  0  0  0
   -3.1293    3.0678   -1.1099 C   0  0  0  0  0  0  0  0  0  0  0  0
   -2.5177    1.8220   -1.0446 C   0  0  0  0  0  0  0  0  0  0  0  0
   -1.3717    1.6444   -0.2809 C   0  0  0  0  0  0  0  0  0  0  0  0
   -0.8086    0.3165   -0.0188 C   0  0  0  0  0  0  0  0  0  0  0  0
   -1.6998   -0.6740    0.0353 C   0  0  0  0  0  0  0  0  0  0  0  0
   -1.2983   -2.0283    0.4695 C   0  0  0  0  0  0  0  0  0  0  0  0
   -2.4733   -2.8882    0.3813 N   0  0  0  0  0  0  0  0  0  0  0  0
   -3.3789   -2.4035   -0.6305 C   0  0  0  0  0  0  0  0  0  0  0  0
   -4.3823   -1.5926    0.1418 C   0  0  0  0  0  0  0  0  0  0  0  0
   -4.5809   -2.4294    1.3817 C   0  0  0  0  0  0  0  0  0  0  0  0
   -3.1959   -2.9720    1.6207 C   0  0  0  0  0  0  0  0  0  0  0  0
    0.5559   -0.0485   -0.4186 C   0  0  0  0  0  0  0  0  0  0  0  0
    1.2513    0.8725   -1.1930 C   0  0  0  0  0  0  0  0  0  0  0  0
    2.6307    1.0166   -1.1047 C   0  0  0  0  0  0  0  0  0  0  0  0
    3.3094    0.0075   -0.4645 C   0  0  0  0  0  0  0  0  0  0  0  0
    2.6342   -1.0352    0.1605 C   0  0  0  0  0  0  0  0  0  0  0  0
    3.3904   -2.0774    0.8633 C   0  0  0  0  0  0  0  0  0  0  0  0
    4.6961   -2.1150    0.7426 C   0  0  0  0  0  0  0  0  0  0  0  0
    5.4405   -1.2791   -0.2073 C   0  0  0  0  0  0  0  0  0  0  0  0
    6.3523   -0.4909    0.1784 O   0  0  0  0  0  0  0  0  0  0  0  0
    5.6394   -1.8426   -1.4713 O   0  0  0  0  0  0  0  0  0  0  0  0
    1.3176   -0.8625    0.3475 N   0  0  0  0  0  0  0  0  0  0  0  0
   -0.6795    2.8105    0.0176 C   0  0  0  0  0  0  0  0  0  0  0  0
   -1.3649    4.0150    0.1114 C   0  0  0  0  0  0  0  0  0  0  0  0
  1  2  1  0
  2  3  2  0
  3  4  1  0
  4  5  2  0
  5  6  1  0
  6  7  2  0
  7  8  1  0
  8  9  1  0
  9 10  1  0
 10 11  1  0
 11 12  1  0
 12 13  1  0
  6 14  1  0
 14 15  2  0
 15 16  1  0
 16 17  2  0
 17 18  1  0
 18 19  1  0
 19 20  2  0
 20 21  1  0
 21 22  2  0
 21 23  1  0
 18 24  2  0
  5 25  1  0
 25 26  2  0
 26  2  1  0
 13  9  1  0
 24 14  1  0
M  END
>  <supplier_code>  (1562) 
DB09488

>  <zinc_id>  (1562) 
ZINC000100296832

>  <catalog_short_name>  (1562) 
dbfda

$$$$

     RDKit          3D

 23 24  0  0  0  0  0  0  0  0999 V2000
    6.8504   -0.9620    1.2533 C   0  0  0  0  0  0  0  0  0  0  0  0
    6.8361   -0.5632   -0.1100 O   0  0  0  0  0  0  0  0  0  0  0  0
    5.6579   -0.4396   -0.8431 C   0  0  0  0  0  0  0  0  0  0  0  0
    5.0552    0.7941   -1.0572 C   0  0  0  0  0  0  0  0  0  0  0  0
    3.6700    0.8667   -1.1356 C   0  0  0  0  0  0  0  0  0  0  0  0
    2.8676   -0.2621   -1.0265 C   0  0  0  0  0  0  0  0  0  0  0  0
    1.5866   -0.1540   -0.3193 C   0  0  0  0  0  0  0  0  0  0  0  0
    1.6046   -0.4746    0.9073 O   0  0  0  0  0  0  0  0  0  0  0  0
    0.5944    0.8764   -0.7077 C   0  0  0  0  0  0  0  0  0  0  0  0
   -0.3444    1.2106    0.3822 C   0  0  0  0  0  0  0  0  0  0  0  0
    0.1289    1.3551    1.5412 O   0  0  0  0  0  0  0  0  0  0  0  0
   -1.7470    0.9189    0.1884 C   0  0  0  0  0  0  0  0  0  0  0  0
   -2.7241    1.7914    0.6349 C   0  0  0  0  0  0  0  0  0  0  0  0
   -4.0761    1.5316    0.4461 C   0  0  0  0  0  0  0  0  0  0  0  0
   -4.4857    0.2538    0.0969 C   0  0  0  0  0  0  0  0  0  0  0  0
   -5.6931   -0.3948    0.6558 C   0  0  0  0  0  0  0  0  0  0  0  0
   -6.5862    0.6942    1.2347 C   0  0  0  0  0  0  0  0  0  0  0  0
   -5.3722   -1.3503    1.7753 C   0  0  0  0  0  0  0  0  0  0  0  0
   -6.5216   -1.0796   -0.4247 C   0  0  0  0  0  0  0  0  0  0  0  0
   -3.5296   -0.5308   -0.5362 C   0  0  0  0  0  0  0  0  0  0  0  0
   -2.1864   -0.1813   -0.5235 C   0  0  0  0  0  0  0  0  0  0  0  0
    3.5134   -1.4708   -1.2104 C   0  0  0  0  0  0  0  0  0  0  0  0
    4.9013   -1.5419   -1.2221 C   0  0  0  0  0  0  0  0  0  0  0  0
  1  2  1  0
  2  3  1  0
  3  4  2  0
  4  5  1  0
  5  6  2  0
  6  7  1  0
  7  8  2  0
  7  9  1  0
  9 10  1  0
 10 11  2  0
 10 12  1  0
 12 13  2  0
 13 14  1  0
 14 15  2  0
 15 16  1  0
 16 17  1  0
 16 18  1  0
 16 19  1  0
 15 20  1  0
 20 21  2  0
  6 22  1  0
 22 23  2  0
 23  3  1  0
 21 12  1  0
M  END
>  <supplier_code>  (1563) 
DB09495

>  <zinc_id>  (1563) 
ZINC000000000973

>  <catalog_short_name>  (1563) 
dbfda

$$$$

     RDKit          3D

 21 21  0  0  0  0  0  0  0  0999 V2000
    5.2051    2.7857   -0.4265 C   0  0  0  0  0  0  0  0  0  0  0  0
    5.2411    2.0417   -0.1076 C   0  0  0  0  0  0  0  0  0  0  0  0
    4.0916    1.6315    0.7843 C   0  0  0  0  0  0  0  0  0  0  0  0
    4.0560    0.1525    1.0208 C   0  0  0  0  0  0  0  0  0  0  0  0
    4.4446   -0.5578   -0.4120 C   0  0  1  0  0  0  0  0  0  0  0  0
    3.2999   -1.7256   -0.2184 C   0  0  0  0  0  0  0  0  0  0  0  0
    3.6390   -2.3404    1.1345 C   0  0  0  0  0  0  0  0  0  0  0  0
    3.4265    0.3986   -1.2816 C   0  0  0  0  0  0  0  0  0  0  0  0
    2.2369    0.4731   -0.5583 O   0  0  0  0  0  0  0  0  0  0  0  0
    1.0786   -0.0784   -1.0399 C   0  0  0  0  0  0  0  0  0  0  0  0
    1.0965   -0.6165   -2.1622 O   0  0  0  0  0  0  0  0  0  0  0  0
   -0.0811   -0.0592   -0.1491 C   0  0  0  0  0  0  0  0  0  0  0  0
   -1.2343    0.4289   -0.5546 C   0  0  0  0  0  0  0  0  0  0  0  0
   -2.4786   -0.1698   -0.0581 C   0  0  0  0  0  0  0  0  0  0  0  0
   -3.2806    0.4584    0.8560 C   0  0  0  0  0  0  0  0  0  0  0  0
   -4.6497    0.2895    0.7675 C   0  0  0  0  0  0  0  0  0  0  0  0
   -5.2145   -0.6489   -0.0537 C   0  0  0  0  0  0  0  0  0  0  0  0
   -6.5423   -0.5289   -0.4576 O   0  0  0  0  0  0  0  0  0  0  0  0
   -6.9390    0.7533   -0.9356 C   0  0  0  0  0  0  0  0  0  0  0  0
   -4.3751   -1.4730   -0.7697 C   0  0  0  0  0  0  0  0  0  0  0  0
   -3.0208   -1.2147   -0.7765 C   0  0  0  0  0  0  0  0  0  0  0  0
  1  2  1  0
  2  3  1  0
  3  4  1  0
  5  4  1  1
  5  6  1  0
  6  7  1  0
  5  8  1  0
  8  9  1  0
  9 10  1  0
 10 11  2  0
 10 12  1  0
 12 13  2  0
 13 14  1  0
 14 15  2  0
 15 16  1  0
 16 17  2  0
 17 18  1  0
 18 19  1  0
 17 20  1  0
 20 21  2  0
 21 14  1  0
M  END
>  <supplier_code>  (1564) 
DB09496

>  <zinc_id>  (1564) 
ZINC000001633887

>  <catalog_short_name>  (1564) 
dbfda

$$$$

     RDKit          3D

 21 21  0  0  0  0  0  0  0  0999 V2000
    5.8339    3.4329   -0.0934 C   0  0  0  0  0  0  0  0  0  0  0  0
    4.6792    2.7322   -0.6906 C   0  0  0  0  0  0  0  0  0  0  0  0
    4.0629    1.7247    0.2393 C   0  0  0  0  0  0  0  0  0  0  0  0
    4.2583    0.3457   -0.3229 C   0  0  0  0  0  0  0  0  0  0  0  0
    3.5593   -0.5649    0.8714 C   0  0  2  0  0  0  0  0  0  0  0  0
    4.7972   -1.6646    0.8233 C   0  0  0  0  0  0  0  0  0  0  0  0
    4.1437   -2.9803    1.1390 C   0  0  0  0  0  0  0  0  0  0  0  0
    2.6771   -1.4310   -0.2314 C   0  0  0  0  0  0  0  0  0  0  0  0
    1.5400   -0.5832   -0.3410 O   0  0  0  0  0  0  0  0  0  0  0  0
    0.4833   -0.7313    0.5285 C   0  0  0  0  0  0  0  0  0  0  0  0
    0.2184   -1.8945    0.9324 O   0  0  0  0  0  0  0  0  0  0  0  0
   -0.4841    0.3068    0.8243 C   0  0  0  0  0  0  0  0  0  0  0  0
   -1.0538    1.0966   -0.0475 C   0  0  0  0  0  0  0  0  0  0  0  0
   -2.5082    1.1687   -0.2603 C   0  0  0  0  0  0  0  0  0  0  0  0
   -3.0539    0.5266   -1.3668 C   0  0  0  0  0  0  0  0  0  0  0  0
   -4.2070   -0.2422   -1.2776 C   0  0  0  0  0  0  0  0  0  0  0  0
   -4.9002   -0.3185   -0.0951 C   0  0  0  0  0  0  0  0  0  0  0  0
   -5.6531   -1.4279    0.2126 O   0  0  0  0  0  0  0  0  0  0  0  0
   -6.4139   -1.4657    1.4149 C   0  0  0  0  0  0  0  0  0  0  0  0
   -4.6047    0.6625    0.8431 C   0  0  0  0  0  0  0  0  0  0  0  0
   -3.3744    1.3072    0.8197 C   0  0  0  0  0  0  0  0  0  0  0  0
  1  2  1  0
  2  3  1  0
  3  4  1  0
  5  4  1  6
  5  6  1  0
  6  7  1  0
  5  8  1  0
  8  9  1  0
  9 10  1  0
 10 11  2  0
 10 12  1  0
 12 13  2  0
 13 14  1  0
 14 15  2  0
 15 16  1  0
 16 17  2  0
 17 18  1  0
 18 19  1  0
 17 20  1  0
 20 21  2  0
 21 14  1  0
M  END
>  <supplier_code>  (1565) 
DB09496

>  <zinc_id>  (1565) 
ZINC000001633889

>  <catalog_short_name>  (1565) 
dbfda

$$$$

     RDKit          3D

 21 21  0  0  0  0  0  0  0  0999 V2000
   -5.2877    2.4368   -0.1887 C   0  0  0  0  0  0  0  0  0  0  0  0
   -4.5543    1.7965   -0.1536 C   0  0  0  0  0  0  0  0  0  0  0  0
   -4.8044    0.3801    0.3131 C   0  0  0  0  0  0  0  0  0  0  0  0
   -4.1016    0.1807    1.6236 C   0  0  0  0  0  0  0  0  0  0  0  0
   -3.2737   -1.2300    1.5117 C   0  0  1  0  0  0  0  0  0  0  0  0
   -4.5524   -2.0239    0.8577 C   0  0  0  0  0  0  0  0  0  0  0  0
   -3.9511   -3.3893    0.5565 C   0  0  0  0  0  0  0  0  0  0  0  0
   -2.6563   -0.8445    0.0404 C   0  0  0  0  0  0  0  0  0  0  0  0
   -1.4537   -1.5703    0.0885 O   0  0  0  0  0  0  0  0  0  0  0  0
   -0.2106   -1.0157   -0.2590 C   0  0  0  0  0  0  0  0  0  0  0  0
   -0.3554   -0.1457   -1.1745 O   0  0  0  0  0  0  0  0  0  0  0  0
    0.8400   -2.0223   -0.4691 C   0  0  0  0  0  0  0  0  0  0  0  0
    2.1064   -1.8145   -0.2205 C   0  0  0  0  0  0  0  0  0  0  0  0
    2.5500   -0.5211    0.3137 C   0  0  0  0  0  0  0  0  0  0  0  0
    2.5642    0.5183   -0.6119 C   0  0  0  0  0  0  0  0  0  0  0  0
    3.3336    1.6430   -0.4571 C   0  0  0  0  0  0  0  0  0  0  0  0
    4.4073    1.6044    0.4100 C   0  0  0  0  0  0  0  0  0  0  0  0
    4.9615    2.8168    0.8374 O   0  0  0  0  0  0  0  0  0  0  0  0
    6.0633    3.3638    0.1128 C   0  0  0  0  0  0  0  0  0  0  0  0
    4.6330    0.4484    1.1003 C   0  0  0  0  0  0  0  0  0  0  0  0
    3.7417   -0.6114    1.0319 C   0  0  0  0  0  0  0  0  0  0  0  0
  1  2  1  0
  2  3  1  0
  3  4  1  0
  5  4  1  1
  5  6  1  0
  6  7  1  0
  5  8  1  0
  8  9  1  0
  9 10  1  0
 10 11  2  0
 10 12  1  0
 12 13  2  0
 13 14  1  0
 14 15  2  0
 15 16  1  0
 16 17  2  0
 17 18  1  0
 18 19  1  0
 17 20  1  0
 20 21  2  0
 21 14  1  0
M  END
>  <supplier_code>  (1566) 
DB09496

>  <zinc_id>  (1566) 
ZINC000017285869

>  <catalog_short_name>  (1566) 
dbfda

$$$$

     RDKit          3D

 21 21  0  0  0  0  0  0  0  0999 V2000
   -5.5007   -1.8201    0.1411 C   0  0  0  0  0  0  0  0  0  0  0  0
   -4.8838   -1.4676    0.4258 C   0  0  0  0  0  0  0  0  0  0  0  0
   -4.2356   -0.7416    1.5702 C   0  0  0  0  0  0  0  0  0  0  0  0
   -4.6514    0.6865    1.7156 C   0  0  0  0  0  0  0  0  0  0  0  0
   -3.4357    1.5959    1.0602 C   0  0  2  0  0  0  0  0  0  0  0  0
   -3.3763    0.6547   -0.2978 C   0  0  0  0  0  0  0  0  0  0  0  0
   -3.8374    1.6550   -1.3342 C   0  0  0  0  0  0  0  0  0  0  0  0
   -2.2731    0.7595    1.8772 C   0  0  0  0  0  0  0  0  0  0  0  0
   -1.4905    0.0721    1.0140 O   0  0  0  0  0  0  0  0  0  0  0  0
   -0.2340    0.4142    0.4982 C   0  0  0  0  0  0  0  0  0  0  0  0
   -0.1256    1.6681    0.3352 O   0  0  0  0  0  0  0  0  0  0  0  0
    0.1582   -0.5580   -0.5322 C   0  0  0  0  0  0  0  0  0  0  0  0
    0.8696   -0.0642   -1.5071 C   0  0  0  0  0  0  0  0  0  0  0  0
    2.1537    0.5141   -1.0910 C   0  0  0  0  0  0  0  0  0  0  0  0
    2.6768    0.3828    0.1835 C   0  0  0  0  0  0  0  0  0  0  0  0
    4.0485    0.3497    0.4124 C   0  0  0  0  0  0  0  0  0  0  0  0
    4.8470   -0.1636   -0.5909 C   0  0  0  0  0  0  0  0  0  0  0  0
    5.9332   -1.0056   -0.3334 O   0  0  0  0  0  0  0  0  0  0  0  0
    5.8273   -2.1871    0.4358 C   0  0  0  0  0  0  0  0  0  0  0  0
    4.4170    0.0821   -1.8822 C   0  0  0  0  0  0  0  0  0  0  0  0
    3.1131    0.5096   -2.1003 C   0  0  0  0  0  0  0  0  0  0  0  0
  1  2  1  0
  2  3  1  0
  3  4  1  0
  5  4  1  1
  5  6  1  0
  6  7  1  0
  5  8  1  0
  8  9  1  0
  9 10  1  0
 10 11  2  0
 10 12  1  0
 12 13  2  0
 13 14  1  0
 14 15  2  0
 15 16  1  0
 16 17  2  0
 17 18  1  0
 18 19  1  0
 17 20  1  0
 20 21  2  0
 21 14  1  0
M  END
>  <supplier_code>  (1567) 
DB09496

>  <zinc_id>  (1567) 
ZINC000017285872

>  <catalog_short_name>  (1567) 
dbfda

$$$$

     RDKit          3D

  5  4  0  0  0  0  0  0  0  0999 V2000
   -0.1560    1.5127   -0.2630 O   0  0  0  0  0  0  0  0  0  0  0  0
    0.0162    0.0397   -0.0141 S   0  0  0  0  0  0  0  0  0  0  0  0
    1.6156   -0.4427   -0.2247 O   0  0  0  0  0  0  0  0  0  0  0  0
   -1.0035   -0.7755   -1.0677 O   0  0  0  0  0  0  0  0  0  0  0  0
   -0.4724   -0.3341    1.5695 S   0  0  0  0  0  0  0  0  0  0  0  0
  1  2  2  0
  2  3  1  0
  2  4  1  0
  2  5  2  0
M  END
>  <supplier_code>  (1568) 
DB09499

>  <zinc_id>  (1568) 
ZINC000008214573

>  <catalog_short_name>  (1568) 
dbfda

$$$$

     RDKit          3D

 12 11  0  0  0  0  0  0  0  0999 V2000
    3.2087    0.4582   -0.4176 O   0  0  0  0  0  0  0  0  0  0  0  0
    2.4641    0.9016    0.4084 C   0  0  0  0  0  0  0  0  0  0  0  0
    1.0971    0.0239    0.6200 C   0  0  2  0  0  0  0  0  0  0  0  0
    1.8850   -1.2795    0.6791 F   0  0  0  0  0  0  0  0  0  0  0  0
    0.7580   -0.1002   -1.0813 C   0  0  1  0  0  0  0  0  0  0  0  0
    0.3325   -1.5479   -1.0153 O   0  0  0  0  0  0  0  0  0  0  0  0
   -0.8918    0.3759   -1.0039 C   0  0  2  0  0  0  0  0  0  0  0  0
   -0.5637    1.8464   -0.8939 O   0  0  0  0  0  0  0  0  0  0  0  0
   -1.0575    0.1910    0.7097 C   0  0  2  0  0  0  0  0  0  0  0  0
   -1.3608   -1.3012    0.5743 O   0  0  0  0  0  0  0  0  0  0  0  0
   -2.6527    0.6040    0.6238 C   0  0  0  0  0  0  0  0  0  0  0  0
   -3.2189   -0.1722   -0.3325 O   0  0  0  0  0  0  0  0  0  0  0  0
  1  2  2  0
  3  2  1  6
  3  4  1  0
  3  5  1  0
  5  6  1  1
  5  7  1  0
  7  8  1  1
  7  9  1  0
  9 10  1  6
  9 11  1  0
 11 12  1  0
M  END
>  <supplier_code>  (1569) 
DB09502

>  <zinc_id>  (1569) 
ZINC000001846431

>  <catalog_short_name>  (1569) 
dbfda

$$$$

     RDKit          3D

 24 23  0  0  0  0  0  0  0  0999 V2000
   -2.4042    2.8659   -1.4276 O   0  0  0  0  0  0  0  0  0  0  0  0
   -3.1880    1.5843   -1.4236 P   0  0  0  0  0  0  0  0  0  0  0  0
   -4.5910    1.8380   -0.5313 O   0  0  0  0  0  0  0  0  0  0  0  0
   -3.6482    1.2403   -3.0218 O   0  0  0  0  0  0  0  0  0  0  0  0
   -2.2121    0.1904   -0.7676 C   0  0  0  0  0  0  0  0  0  0  0  0
   -1.8478    0.4905    0.5798 N   0  0  0  0  0  0  0  0  0  0  0  0
   -0.4454    0.6273    0.8213 C   0  0  0  0  0  0  0  0  0  0  0  0
    0.4325    0.1652   -0.3025 C   0  0  0  0  0  0  0  0  0  0  0  0
    1.7340   -0.1285    0.2661 N   0  0  0  0  0  0  0  0  0  0  0  0
    2.8062   -0.0347   -0.6826 C   0  0  0  0  0  0  0  0  0  0  0  0
    2.8438   -1.6054   -1.6061 P   0  0  0  0  0  0  0  0  0  0  0  0
    4.1895   -1.8680   -2.2153 O   0  0  0  0  0  0  0  0  0  0  0  0
    2.4353   -2.8530   -0.5279 O   0  0  0  0  0  0  0  0  0  0  0  0
    1.6125   -1.5453   -2.7671 O   0  0  0  0  0  0  0  0  0  0  0  0
    1.9439    0.6045    1.4790 C   0  0  0  0  0  0  0  0  0  0  0  0
    3.3058    1.7723    1.4158 P   0  0  0  0  0  0  0  0  0  0  0  0
    3.2339    2.6147    2.6813 O   0  0  0  0  0  0  0  0  0  0  0  0
    4.7736    0.9510    1.4654 O   0  0  0  0  0  0  0  0  0  0  0  0
    3.2091    2.8398    0.1237 O   0  0  0  0  0  0  0  0  0  0  0  0
   -2.5682   -0.2258    1.5840 C   0  0  0  0  0  0  0  0  0  0  0  0
   -2.8202   -1.9671    1.2235 P   0  0  0  0  0  0  0  0  0  0  0  0
   -3.5426   -2.1159   -0.0893 O   0  0  0  0  0  0  0  0  0  0  0  0
   -1.4061   -2.8700    1.2833 O   0  0  0  0  0  0  0  0  0  0  0  0
   -3.8463   -2.5705    2.4396 O   0  0  0  0  0  0  0  0  0  0  0  0
  1  2  2  0
  2  3  1  0
  2  4  1  0
  2  5  1  0
  5  6  1  0
  6  7  1  0
  7  8  1  0
  8  9  1  0
  9 10  1  0
 10 11  1  0
 11 12  2  0
 11 13  1  0
 11 14  1  0
  9 15  1  0
 15 16  1  0
 16 17  2  0
 16 18  1  0
 16 19  1  0
  6 20  1  0
 20 21  1  0
 21 22  2  0
 21 23  1  0
 21 24  1  0
M  END
>  <supplier_code>  (1570) 
DB09509

>  <zinc_id>  (1570) 
ZINC000019855121

>  <catalog_short_name>  (1570) 
dbfda

$$$$

     RDKit          3D

 23 24  0  0  0  0  0  0  0  0999 V2000
   -4.1918    1.6796    1.3748 O   0  0  0  0  0  0  0  0  0  0  0  0
   -2.9606    1.0717    1.1271 C   0  0  0  0  0  0  0  0  0  0  0  0
   -3.3524   -0.5095    0.7982 C   0  0  1  0  0  0  0  0  0  0  0  0
   -2.7248   -0.4501   -0.5648 O   0  0  0  0  0  0  0  0  0  0  0  0
   -1.4501   -0.6887   -0.5828 C   0  0  1  0  0  0  0  0  0  0  0  0
   -1.1626   -1.1838   -1.9629 C   0  0  0  0  0  0  0  0  0  0  0  0
   -1.9196   -0.3948   -2.8461 O   0  0  0  0  0  0  0  0  0  0  0  0
   -0.7694    0.2389   -0.0121 O   0  0  0  0  0  0  0  0  0  0  0  0
    0.7428    0.0147    0.0206 C   0  0  1  0  0  0  0  0  0  0  0  0
    1.0271    0.8254   -1.2588 O   0  0  0  0  0  0  0  0  0  0  0  0
    2.5165    1.1079   -1.0705 C   0  0  2  0  0  0  0  0  0  0  0  0
    2.9757    0.0455   -2.2489 C   0  0  0  0  0  0  0  0  0  0  0  0
    3.8908    0.8534   -2.9342 O   0  0  0  0  0  0  0  0  0  0  0  0
    2.7594   -0.0843    0.1607 C   0  0  1  0  0  0  0  0  0  0  0  0
    4.2479    0.1037    0.1413 O   0  0  0  0  0  0  0  0  0  0  0  0
    2.5789    1.0855    1.4032 C   0  0  2  0  0  0  0  0  0  0  0  0
    2.2587    0.0312    2.4376 O   0  0  0  0  0  0  0  0  0  0  0  0
    0.8999    1.3533    1.1420 C   0  0  1  0  0  0  0  0  0  0  0  0
    1.0871    2.4667    0.1580 O   0  0  0  0  0  0  0  0  0  0  0  0
   -1.6170   -2.0991    0.2431 C   0  0  1  0  0  0  0  0  0  0  0  0
   -0.1378   -2.2044    0.5939 O   0  0  0  0  0  0  0  0  0  0  0  0
   -1.9440   -1.0960    1.6026 C   0  0  2  0  0  0  0  0  0  0  0  0
   -2.7547   -2.1668    2.2777 O   0  0  0  0  0  0  0  0  0  0  0  0
  1  2  1  0
  3  2  1  1
  3  4  1  0
  4  5  1  0
  5  6  1  6
  6  7  1  0
  5  8  1  0
  9  8  1  6
  9 10  1  0
 10 11  1  0
 11 12  1  6
 12 13  1  0
 11 14  1  0
 14 15  1  6
 14 16  1  0
 16 17  1  1
 16 18  1  0
 18 19  1  6
  5 20  1  0
 20 21  1  1
 20 22  1  0
 22 23  1  1
 22  3  1  0
 18  9  1  0
M  END
>  <supplier_code>  (1571) 
DB09517

>  <zinc_id>  (1571) 
ZINC000004217475

>  <catalog_short_name>  (1571) 
dbfda

$$$$

     RDKit          3D

  8  8  0  0  0  0  0  0  0  0999 V2000
    2.6692    0.4999   -0.0234 O   0  0  0  0  0  0  0  0  0  0  0  0
    1.3642    0.0069   -0.0057 C   0  0  0  0  0  0  0  0  0  0  0  0
    0.6713   -0.1010    1.1936 C   0  0  0  0  0  0  0  0  0  0  0  0
   -0.7170   -0.0604    1.2104 C   0  0  0  0  0  0  0  0  0  0  0  0
   -1.3668    0.0335   -0.0093 C   0  0  0  0  0  0  0  0  0  0  0  0
   -2.6681    0.5278   -0.1208 O   0  0  0  0  0  0  0  0  0  0  0  0
   -0.6713   -0.4536   -1.1097 C   0  0  0  0  0  0  0  0  0  0  0  0
    0.7185   -0.4532   -1.1350 C   0  0  0  0  0  0  0  0  0  0  0  0
  1  2  1  0
  2  3  2  0
  3  4  1  0
  4  5  2  0
  5  6  1  0
  5  7  1  0
  7  8  2  0
  8  2  1  0
M  END
>  <supplier_code>  (1572) 
DB09526

>  <zinc_id>  (1572) 
ZINC000005133378

>  <catalog_short_name>  (1572) 
dbfda

$$$$

     RDKit          2D

 38 42  0  0  0  0  0  0  0  0999 V2000
   -2.8522    1.4244    0.0000 C   0  0  0  0  0  0  0  0  0  0  0  0
   -4.3418    1.2488    0.0000 C   0  0  0  0  0  0  0  0  0  0  0  0
   -3.3631    0.1121    0.0000 C   0  0  0  0  0  0  0  0  0  0  0  0
   -4.7232    2.6995    0.0000 C   0  0  0  0  0  0  0  0  0  0  0  0
   -6.2207    2.7851    0.0000 C   0  0  0  0  0  0  0  0  0  0  0  0
   -6.7649    1.3873    0.0000 C   0  0  0  0  0  0  0  0  0  0  0  0
   -5.6037    0.4378    0.0000 C   0  0  0  0  0  0  0  0  0  0  0  0
   -5.6893   -1.0598    0.0000 C   0  0  0  0  0  0  0  0  0  0  0  0
   -7.0290   -1.7344    0.0000 S   0  0  0  0  0  0  0  0  0  0  0  0
   -6.3544   -3.0741    0.0000 O   0  0  0  0  0  0  0  0  0  0  0  0
   -7.7037   -0.3947    0.0000 O   0  0  0  0  0  0  0  0  0  0  0  0
   -8.3687   -2.4091    0.0000 O   0  0  0  0  0  0  0  0  0  0  0  0
   -4.1061    0.3522    0.0000 C   0  0  0  0  0  0  0  0  0  0  0  0
   -3.2951   -0.9097    0.0000 O   0  0  0  0  0  0  0  0  0  0  0  0
   -3.5620    1.7500    0.0000 C   0  0  0  0  0  0  0  0  0  0  0  0
   -2.1112    2.1313    0.0000 C   0  0  0  0  0  0  0  0  0  0  0  0
   -1.0556    1.0657    0.0000 C   0  0  0  0  0  0  0  0  0  0  0  0
   -1.4507   -0.3814    0.0000 C   0  0  0  0  0  0  0  0  0  0  0  0
   -0.3951   -1.4470    0.0000 C   0  0  0  0  0  0  0  0  0  0  0  0
    1.0556   -1.0657    0.0000 C   0  0  0  0  0  0  0  0  0  0  0  0
    2.1112   -2.1313    0.0000 C   0  0  0  0  0  0  0  0  0  0  0  0
    3.5620   -1.7500    0.0000 C   0  0  0  0  0  0  0  0  0  0  0  0
    4.1061   -0.3522    0.0000 C   0  0  0  0  0  0  0  0  0  0  0  0
    3.2951    0.9097    0.0000 O   0  0  0  0  0  0  0  0  0  0  0  0
    5.6037   -0.4378    0.0000 C   0  0  0  0  0  0  0  0  0  0  0  0
    5.6893    1.0598    0.0000 C   0  0  0  0  0  0  0  0  0  0  0  0
    7.0290    1.7344    0.0000 S   0  0  0  0  0  0  0  0  0  0  0  0
    6.3544    3.0741    0.0000 O   0  0  0  0  0  0  0  0  0  0  0  0
    7.7037    0.3947    0.0000 O   0  0  0  0  0  0  0  0  0  0  0  0
    8.3687    2.4091    0.0000 O   0  0  0  0  0  0  0  0  0  0  0  0
    6.7649   -1.3873    0.0000 C   0  0  0  0  0  0  0  0  0  0  0  0
    6.2207   -2.7851    0.0000 C   0  0  0  0  0  0  0  0  0  0  0  0
    4.7232   -2.6995    0.0000 C   0  0  0  0  0  0  0  0  0  0  0  0
    4.3418   -1.2488    0.0000 C   0  0  0  0  0  0  0  0  0  0  0  0
    2.8522   -1.4244    0.0000 C   0  0  0  0  0  0  0  0  0  0  0  0
    3.3631   -0.1121    0.0000 C   0  0  0  0  0  0  0  0  0  0  0  0
    1.4507    0.3814    0.0000 C   0  0  0  0  0  0  0  0  0  0  0  0
    0.3951    1.4470    0.0000 C   0  0  0  0  0  0  0  0  0  0  0  0
  1  2  1  0
  2  3  1  0
  2  4  1  0
  4  5  1  1
  5  6  1  0
  6  7  1  0
  7  8  1  1
  8  9  1  0
  9 10  2  0
  9 11  2  0
  9 12  1  0
  7 13  1  0
 13 14  2  0
 13 15  1  0
 15 16  2  0
 16 17  1  0
 17 18  2  0
 18 19  1  0
 19 20  2  0
 20 21  1  0
 21 22  2  0
 22 23  1  0
 23 24  2  0
 23 25  1  0
 25 26  1  6
 26 27  1  0
 27 28  2  0
 27 29  2  0
 27 30  1  0
 25 31  1  0
 31 32  1  0
 33 32  1  6
 33 34  1  0
 34 35  1  0
 34 36  1  0
 20 37  1  0
 37 38  2  0
  7  2  1  0
 38 17  1  0
 15  4  1  0
 33 22  1  0
 34 25  1  0
M  END
>  <supplier_code>  (1573) 
DB09534

>  <zinc_id>  (1573) 
ZINC000100073786

>  <catalog_short_name>  (1573) 
dbfda

$$$$

     RDKit          2D

 38 42  0  0  0  0  0  0  0  0999 V2000
   -3.7523   -1.1096    0.0000 C   0  0  0  0  0  0  0  0  0  0  0  0
   -4.8356   -0.0721    0.0000 C   0  0  0  0  0  0  0  0  0  0  0  0
   -5.0899   -1.5503    0.0000 C   0  0  0  0  0  0  0  0  0  0  0  0
   -3.9589    1.1451    0.0000 C   0  0  0  0  0  0  0  0  0  0  0  0
   -4.8456    2.3550    0.0000 C   0  0  0  0  0  0  0  0  0  0  0  0
   -6.2703    1.8856    0.0000 C   0  0  0  0  0  0  0  0  0  0  0  0
   -6.2641    0.3856    0.0000 C   0  0  0  0  0  0  0  0  0  0  0  0
   -7.4739   -0.5011    0.0000 C   0  0  0  0  0  0  0  0  0  0  0  0
   -8.8468    0.1033    0.0000 S   0  0  0  0  0  0  0  0  0  0  0  0
   -9.4512   -1.2695    0.0000 O   0  0  0  0  0  0  0  0  0  0  0  0
   -8.2423    1.4761    0.0000 O   0  0  0  0  0  0  0  0  0  0  0  0
  -10.2196    0.7077    0.0000 O   0  0  0  0  0  0  0  0  0  0  0  0
   -5.3774   -0.8243    0.0000 C   0  0  0  0  0  0  0  0  0  0  0  0
   -5.8350   -2.2528    0.0000 O   0  0  0  0  0  0  0  0  0  0  0  0
   -3.9527   -0.3549    0.0000 C   0  0  0  0  0  0  0  0  0  0  0  0
   -2.7356   -1.2315    0.0000 C   0  0  0  0  0  0  0  0  0  0  0  0
   -1.3678   -0.6158    0.0000 C   0  0  0  0  0  0  0  0  0  0  0  0
   -0.1506   -1.4924    0.0000 C   0  0  0  0  0  0  0  0  0  0  0  0
    1.2172   -0.8767    0.0000 C   0  0  0  0  0  0  0  0  0  0  0  0
    1.3678    0.6158    0.0000 C   0  0  0  0  0  0  0  0  0  0  0  0
    2.7356    1.2315    0.0000 C   0  0  0  0  0  0  0  0  0  0  0  0
    3.9527    0.3549    0.0000 C   0  0  0  0  0  0  0  0  0  0  0  0
    5.3774    0.8243    0.0000 C   0  0  0  0  0  0  0  0  0  0  0  0
    5.8350    2.2528    0.0000 O   0  0  0  0  0  0  0  0  0  0  0  0
    6.2641   -0.3856    0.0000 C   0  0  0  0  0  0  0  0  0  0  0  0
    7.4739    0.5011    0.0000 C   0  0  0  0  0  0  0  0  0  0  0  0
    8.8468   -0.1033    0.0000 S   0  0  0  0  0  0  0  0  0  0  0  0
    9.4512    1.2695    0.0000 O   0  0  0  0  0  0  0  0  0  0  0  0
    8.2423   -1.4761    0.0000 O   0  0  0  0  0  0  0  0  0  0  0  0
   10.2196   -0.7077    0.0000 O   0  0  0  0  0  0  0  0  0  0  0  0
    6.2703   -1.8856    0.0000 C   0  0  0  0  0  0  0  0  0  0  0  0
    4.8456   -2.3550    0.0000 C   0  0  0  0  0  0  0  0  0  0  0  0
    3.9589   -1.1451    0.0000 C   0  0  0  0  0  0  0  0  0  0  0  0
    4.8356    0.0721    0.0000 C   0  0  0  0  0  0  0  0  0  0  0  0
    3.7523    1.1096    0.0000 C   0  0  0  0  0  0  0  0  0  0  0  0
    5.0899    1.5503    0.0000 C   0  0  0  0  0  0  0  0  0  0  0  0
    0.1506    1.4924    0.0000 C   0  0  0  0  0  0  0  0  0  0  0  0
   -1.2172    0.8767    0.0000 C   0  0  0  0  0  0  0  0  0  0  0  0
  1  2  1  0
  2  3  1  0
  2  4  1  0
  4  5  1  1
  5  6  1  0
  6  7  1  0
  7  8  1  1
  8  9  1  0
  9 10  2  0
  9 11  2  0
  9 12  1  0
  7 13  1  0
 13 14  2  0
 13 15  1  0
 15 16  2  0
 16 17  1  0
 17 18  2  0
 18 19  1  0
 19 20  2  0
 20 21  1  0
 21 22  2  0
 22 23  1  0
 23 24  2  0
 23 25  1  0
 25 26  1  6
 26 27  1  0
 27 28  2  0
 27 29  2  0
 27 30  1  0
 25 31  1  0
 31 32  1  0
 33 32  1  6
 33 34  1  0
 34 35  1  0
 34 36  1  0
 20 37  1  0
 37 38  2  0
  7  2  1  0
 38 17  1  0
 15  4  1  0
 33 22  1  0
 34 25  1  0
M  END
>  <supplier_code>  (1574) 
DB09534

>  <zinc_id>  (1574) 
ZINC000100370145

>  <catalog_short_name>  (1574) 
dbfda

$$$$

     RDKit          2D

 38 42  0  0  0  0  0  0  0  0999 V2000
   -3.4697    1.5522    0.0000 C   0  0  0  0  0  0  0  0  0  0  0  0
   -4.8896    1.0684    0.0000 C   0  0  0  0  0  0  0  0  0  0  0  0
   -3.6944    0.1619    0.0000 C   0  0  0  0  0  0  0  0  0  0  0  0
   -5.5663    2.4071    0.0000 C   0  0  0  0  0  0  0  0  0  0  0  0
   -7.0485    2.1772    0.0000 C   0  0  0  0  0  0  0  0  0  0  0  0
   -7.2879    0.6964    0.0000 C   0  0  0  0  0  0  0  0  0  0  0  0
   -5.9536    0.0112    0.0000 C   0  0  0  0  0  0  0  0  0  0  0  0
   -5.7237   -1.4711    0.0000 C   0  0  0  0  0  0  0  0  0  0  0  0
   -6.8924   -2.4114    0.0000 S   0  0  0  0  0  0  0  0  0  0  0  0
   -5.9522   -3.5801    0.0000 O   0  0  0  0  0  0  0  0  0  0  0  0
   -7.8327   -1.2426    0.0000 O   0  0  0  0  0  0  0  0  0  0  0  0
   -8.0611   -3.3516    0.0000 O   0  0  0  0  0  0  0  0  0  0  0  0
   -4.4713    0.2411    0.0000 C   0  0  0  0  0  0  0  0  0  0  0  0
   -3.4141   -0.8230    0.0000 O   0  0  0  0  0  0  0  0  0  0  0  0
   -4.2319    1.7219    0.0000 C   0  0  0  0  0  0  0  0  0  0  0  0
   -2.8933    2.3986    0.0000 C   0  0  0  0  0  0  0  0  0  0  0  0
   -1.6379    1.5776    0.0000 C   0  0  0  0  0  0  0  0  0  0  0  0
   -1.7212    0.0799    0.0000 C   0  0  0  0  0  0  0  0  0  0  0  0
   -0.4658   -0.7411    0.0000 C   0  0  0  0  0  0  0  0  0  0  0  0
    0.8729   -0.0644    0.0000 C   0  0  0  0  0  0  0  0  0  0  0  0
    2.1283   -0.8853    0.0000 C   0  0  0  0  0  0  0  0  0  0  0  0
    3.4670   -0.2086    0.0000 C   0  0  0  0  0  0  0  0  0  0  0  0
    4.8013   -0.8939    0.0000 C   0  0  0  0  0  0  0  0  0  0  0  0
    5.0312   -2.3761    0.0000 O   0  0  0  0  0  0  0  0  0  0  0  0
    5.8653    0.1634    0.0000 C   0  0  0  0  0  0  0  0  0  0  0  0
    6.9226   -0.9006    0.0000 C   0  0  0  0  0  0  0  0  0  0  0  0
    8.3727   -0.5170    0.0000 S   0  0  0  0  0  0  0  0  0  0  0  0
    8.7563   -1.9672    0.0000 O   0  0  0  0  0  0  0  0  0  0  0  0
    7.9891    0.9331    0.0000 O   0  0  0  0  0  0  0  0  0  0  0  0
    9.8229   -0.1334    0.0000 O   0  0  0  0  0  0  0  0  0  0  0  0
    6.1047    1.6442    0.0000 C   0  0  0  0  0  0  0  0  0  0  0  0
    4.7704    2.3294    0.0000 C   0  0  0  0  0  0  0  0  0  0  0  0
    3.7064    1.2722    0.0000 C   0  0  0  0  0  0  0  0  0  0  0  0
    4.3831   -0.0665    0.0000 C   0  0  0  0  0  0  0  0  0  0  0  0
    3.1517   -0.9230    0.0000 C   0  0  0  0  0  0  0  0  0  0  0  0
    4.4044   -1.5664    0.0000 C   0  0  0  0  0  0  0  0  0  0  0  0
    0.9562    1.4333    0.0000 C   0  0  0  0  0  0  0  0  0  0  0  0
   -0.2992    2.2543    0.0000 C   0  0  0  0  0  0  0  0  0  0  0  0
  1  2  1  0
  2  3  1  0
  2  4  1  0
  4  5  1  6
  5  6  1  0
  6  7  1  0
  7  8  1  6
  8  9  1  0
  9 10  2  0
  9 11  2  0
  9 12  1  0
  7 13  1  0
 13 14  2  0
 13 15  1  0
 15 16  2  0
 16 17  1  0
 17 18  2  0
 18 19  1  0
 19 20  2  0
 20 21  1  0
 21 22  2  0
 22 23  1  0
 23 24  2  0
 23 25  1  0
 25 26  1  6
 26 27  1  0
 27 28  2  0
 27 29  2  0
 27 30  1  0
 25 31  1  0
 31 32  1  0
 33 32  1  6
 33 34  1  0
 34 35  1  0
 34 36  1  0
 20 37  1  0
 37 38  2  0
  7  2  1  0
 38 17  1  0
 15  4  1  0
 33 22  1  0
 34 25  1  0
M  END
>  <supplier_code>  (1575) 
DB09534

>  <zinc_id>  (1575) 
ZINC000111460375

>  <catalog_short_name>  (1575) 
dbfda

$$$$

     RDKit          3D

 11 11  0  0  0  0  0  0  0  0999 V2000
    3.2451   -0.0590   -1.0399 C   0  0  0  0  0  0  0  0  0  0  0  0
    2.1309    0.5104   -0.4047 O   0  0  0  0  0  0  0  0  0  0  0  0
    1.3515   -0.1038    0.5481 C   0  0  0  0  0  0  0  0  0  0  0  0
    1.8525   -1.1107    1.1250 O   0  0  0  0  0  0  0  0  0  0  0  0
   -0.1087    0.0488    0.5286 C   0  0  0  0  0  0  0  0  0  0  0  0
   -0.9317   -0.8063    1.2471 C   0  0  0  0  0  0  0  0  0  0  0  0
   -2.1980   -1.0996    0.7575 C   0  0  0  0  0  0  0  0  0  0  0  0
   -2.6063   -0.6480   -0.4901 C   0  0  0  0  0  0  0  0  0  0  0  0
   -1.9672    0.4962   -0.9491 C   0  0  0  0  0  0  0  0  0  0  0  0
   -0.7477    0.8594   -0.3925 C   0  0  0  0  0  0  0  0  0  0  0  0
   -0.0204    1.9126   -0.9301 O   0  0  0  0  0  0  0  0  0  0  0  0
  1  2  1  0
  2  3  1  0
  3  4  2  0
  3  5  1  0
  5  6  2  0
  6  7  1  0
  7  8  2  0
  8  9  1  0
  9 10  2  0
 10 11  1  0
 10  5  1  0
M  END
>  <supplier_code>  (1576) 
DB09543

>  <zinc_id>  (1576) 
ZINC000000000490

>  <catalog_short_name>  (1576) 
dbfda

$$$$

     RDKit          3D

 12 12  0  0  0  0  0  0  0  0999 V2000
   -3.6397   -1.1720    0.9616 C   0  0  0  0  0  0  0  0  0  0  0  0
   -2.7059   -0.7893   -0.0241 O   0  0  0  0  0  0  0  0  0  0  0  0
   -1.6819    0.1233    0.2271 C   0  0  0  0  0  0  0  0  0  0  0  0
   -1.9218    0.9556    1.1529 O   0  0  0  0  0  0  0  0  0  0  0  0
   -0.3449   -0.0330   -0.3471 C   0  0  0  0  0  0  0  0  0  0  0  0
    0.2743   -1.2555   -0.4873 C   0  0  0  0  0  0  0  0  0  0  0  0
    1.6460   -1.3999   -0.4838 C   0  0  0  0  0  0  0  0  0  0  0  0
    2.4263   -0.3166   -0.1728 C   0  0  0  0  0  0  0  0  0  0  0  0
    3.6924   -0.4216    0.6151 C   0  0  0  0  0  0  0  0  0  0  0  0
    1.8661    0.9418   -0.2628 C   0  0  0  0  0  0  0  0  0  0  0  0
    0.4920    1.0718   -0.4270 C   0  0  0  0  0  0  0  0  0  0  0  0
   -0.1028    2.2954   -0.7517 O   0  0  0  0  0  0  0  0  0  0  0  0
  1  2  1  0
  2  3  1  0
  3  4  2  0
  3  5  1  0
  5  6  2  0
  6  7  1  0
  7  8  2  0
  8  9  1  0
  8 10  1  0
 10 11  2  0
 11 12  1  0
 11  5  1  0
M  END
>  <supplier_code>  (1577) 
DB09543

>  <zinc_id>  (1577) 
ZINC000000395010

>  <catalog_short_name>  (1577) 
dbfda

$$$$

     RDKit          3D

 37 38  0  0  0  0  0  0  0  0999 V2000
   10.2054   -0.4273    3.4524 C   0  0  0  0  0  0  0  0  0  0  0  0
   10.3827    0.3580    2.1622 C   0  0  0  0  0  0  0  0  0  0  0  0
   10.1284   -0.6195    1.0219 C   0  0  0  0  0  0  0  0  0  0  0  0
    8.7146   -0.3291    0.5323 C   0  0  0  0  0  0  0  0  0  0  0  0
    8.7911    0.3426   -0.8333 C   0  0  0  0  0  0  0  0  0  0  0  0
    9.0558   -0.6807   -1.9311 C   0  0  0  0  0  0  0  0  0  0  0  0
    8.1163   -0.4085   -3.0800 C   0  0  0  0  0  0  0  0  0  0  0  0
    6.8008   -1.0911   -2.7919 C   0  0  0  0  0  0  0  0  0  0  0  0
    5.6410   -0.1073   -2.8594 C   0  0  0  0  0  0  0  0  0  0  0  0
    5.5152    0.6279   -1.5406 C   0  0  0  0  0  0  0  0  0  0  0  0
    4.9449   -0.2900   -0.4662 C   0  0  0  0  0  0  0  0  0  0  0  0
    3.6345    0.2932    0.0101 C   0  0  0  0  0  0  0  0  0  0  0  0
    3.2141    1.4710   -0.8376 C   0  0  0  0  0  0  0  0  0  0  0  0
    1.8558    1.1986   -1.4705 C   0  0  0  0  0  0  0  0  0  0  0  0
    0.9348    0.6749   -0.3788 C   0  0  0  0  0  0  0  0  0  0  0  0
   -0.5142    0.8479   -0.8159 C   0  0  0  0  0  0  0  0  0  0  0  0
   -0.9098   -0.4090   -1.4141 N   0  0  0  0  0  0  0  0  0  0  0  0
    0.2281   -1.1786   -1.8762 C   0  0  0  0  0  0  0  0  0  0  0  0
   -1.7965   -0.1034   -2.5305 C   0  0  0  0  0  0  0  0  0  0  0  0
   -1.6993   -1.1745   -0.4599 C   0  0  0  0  0  0  0  0  0  0  0  0
   -1.9812   -0.3156    0.7517 C   0  0  0  0  0  0  0  0  0  0  0  0
   -3.3164    0.2737    0.6984 N   0  0  0  0  0  0  0  0  0  0  0  0
   -3.5306    1.4420    1.5154 C   0  0  0  0  0  0  0  0  0  0  0  0
   -4.8127    1.3881    2.2676 C   0  0  0  0  0  0  0  0  0  0  0  0
   -5.8466    2.2454    1.9115 C   0  0  0  0  0  0  0  0  0  0  0  0
   -7.1713    1.8296    1.9675 C   0  0  0  0  0  0  0  0  0  0  0  0
   -7.4919    0.5253    2.3249 C   0  0  0  0  0  0  0  0  0  0  0  0
   -8.5148   -0.1582    1.6609 O   0  0  0  0  0  0  0  0  0  0  0  0
   -8.1571   -0.7838    0.4375 C   0  0  0  0  0  0  0  0  0  0  0  0
   -6.4982   -0.1544    3.0189 C   0  0  0  0  0  0  0  0  0  0  0  0
   -5.1825    0.2921    3.0361 C   0  0  0  0  0  0  0  0  0  0  0  0
   -4.3791   -0.5477    0.2050 C   0  0  0  0  0  0  0  0  0  0  0  0
   -4.2842   -1.8939    0.3201 N   0  0  0  0  0  0  0  0  0  0  0  0
   -5.0903   -2.7392   -0.3534 C   0  0  0  0  0  0  0  0  0  0  0  0
   -5.9733   -2.2385   -1.2992 C   0  0  0  0  0  0  0  0  0  0  0  0
   -5.8528   -0.8851   -1.5865 C   0  0  0  0  0  0  0  0  0  0  0  0
   -5.1607   -0.0552   -0.7694 N   0  0  0  0  0  0  0  0  0  0  0  0
  1  2  1  0
  2  3  1  0
  3  4  1  0
  4  5  1  0
  5  6  1  0
  6  7  1  0
  7  8  1  0
  8  9  1  0
  9 10  1  0
 10 11  1  0
 11 12  1  0
 12 13  1  0
 13 14  1  0
 14 15  1  0
 15 16  1  0
 16 17  1  0
 17 18  1  0
 17 19  1  0
 17 20  1  0
 20 21  1  0
 21 22  1  0
 22 23  1  0
 23 24  1  0
 24 25  2  0
 25 26  1  0
 26 27  2  0
 27 28  1  0
 28 29  1  0
 27 30  1  0
 30 31  2  0
 22 32  1  0
 32 33  2  0
 33 34  1  0
 34 35  2  0
 35 36  1  0
 36 37  2  0
 31 24  1  0
 37 32  1  0
M  CHG  1  17   1
M  END
>  <supplier_code>  (1578) 
DB09552

>  <zinc_id>  (1578) 
ZINC000008035268

>  <catalog_short_name>  (1578) 
dbfda

$$$$

     RDKit          3D

 19 20  0  0  0  0  0  0  0  0999 V2000
   -3.5122   -2.2576   -1.4813 C   0  0  0  0  0  0  0  0  0  0  0  0
   -2.6987   -2.4722   -0.6146 N   0  0  0  0  0  0  0  0  0  0  0  0
   -3.0704   -2.7912    0.7311 C   0  0  0  0  0  0  0  0  0  0  0  0
   -1.3031   -2.1972   -0.7991 C   0  0  0  0  0  0  0  0  0  0  0  0
   -1.0345   -0.7255   -0.9682 C   0  0  0  0  0  0  0  0  0  0  0  0
   -0.8084   -0.1646    0.5880 C   0  0  1  0  0  0  0  0  0  0  0  0
    0.8061   -0.3769    0.5158 C   0  0  0  0  0  0  0  0  0  0  0  0
    1.4510    0.0568   -0.5828 C   0  0  0  0  0  0  0  0  0  0  0  0
    2.8260   -0.1500   -0.6102 C   0  0  0  0  0  0  0  0  0  0  0  0
    3.4185   -0.9734    0.3403 C   0  0  0  0  0  0  0  0  0  0  0  0
    5.0060   -1.6508   -0.0129 Cl  0  0  0  0  0  0  0  0  0  0  0  0
    2.7020   -1.3550    1.4689 C   0  0  0  0  0  0  0  0  0  0  0  0
    1.3487   -1.0502    1.5775 C   0  0  0  0  0  0  0  0  0  0  0  0
   -0.7035    1.3835    0.0650 C   0  0  0  0  0  0  0  0  0  0  0  0
   -1.8985    1.8852   -0.3979 C   0  0  0  0  0  0  0  0  0  0  0  0
   -1.8851    3.2316   -0.7450 C   0  0  0  0  0  0  0  0  0  0  0  0
   -0.7280    3.9601   -0.4933 C   0  0  0  0  0  0  0  0  0  0  0  0
    0.0790    3.4763    0.5299 C   0  0  0  0  0  0  0  0  0  0  0  0
    0.0050    2.1710    0.8889 N   0  0  0  0  0  0  0  0  0  0  0  0
  1  2  1  0
  2  3  1  0
  2  4  1  0
  4  5  1  0
  6  5  1  6
  6  7  1  0
  7  8  2  0
  8  9  1  0
  9 10  2  0
 10 11  1  0
 10 12  1  0
 12 13  2  0
  6 14  1  0
 14 15  2  0
 15 16  1  0
 16 17  2  0
 17 18  1  0
 18 19  2  0
 13  7  1  0
 19 14  1  0
M  END
>  <supplier_code>  (1579) 
DB09555

>  <zinc_id>  (1579) 
ZINC000000113404

>  <catalog_short_name>  (1579) 
dbfda

$$$$

     RDKit          3D

 23 23  0  0  0  0  0  0  0  0999 V2000
    6.3395   -0.4920   -0.5508 C   0  0  0  0  0  0  0  0  0  0  0  0
    4.9709   -0.7221   -0.1842 C   0  0  0  0  0  0  0  0  0  0  0  0
    4.7228   -2.2312   -0.3467 C   0  0  0  0  0  0  0  0  0  0  0  0
    4.6387   -0.4260    1.2183 C   0  0  0  0  0  0  0  0  0  0  0  0
    3.1847    0.2967    1.3103 C   0  0  2  0  0  0  0  0  0  0  0  0
    2.5318   -0.5350    0.1543 N   0  0  0  0  0  0  0  0  0  0  0  0
    1.1572   -0.1389    0.0294 C   0  0  0  0  0  0  0  0  0  0  0  0
    0.5185    0.1201    1.0987 O   0  0  0  0  0  0  0  0  0  0  0  0
    0.3383   -0.3591   -1.1811 C   0  0  0  0  0  0  0  0  0  0  0  0
   -1.0373   -0.0364   -0.9321 N   0  0  0  0  0  0  0  0  0  0  0  0
   -1.7197   -0.7260    0.1229 C   0  0  0  0  0  0  0  0  0  0  0  0
   -1.3571   -1.9271    0.3021 O   0  0  0  0  0  0  0  0  0  0  0  0
   -3.1470   -0.4369    0.3116 C   0  0  0  0  0  0  0  0  0  0  0  0
   -3.4541    0.8642    0.6794 C   0  0  0  0  0  0  0  0  0  0  0  0
   -4.7583    1.2849    0.7084 C   0  0  0  0  0  0  0  0  0  0  0  0
   -5.0815    2.9760    1.0564 Cl  0  0  0  0  0  0  0  0  0  0  0  0
   -5.7426    0.4611    0.1871 C   0  0  0  0  0  0  0  0  0  0  0  0
   -5.3665   -0.6531   -0.5273 C   0  0  0  0  0  0  0  0  0  0  0  0
   -4.0570   -1.1038   -0.4975 C   0  0  0  0  0  0  0  0  0  0  0  0
   -3.5176   -2.4554   -1.4602 Cl  0  0  0  0  0  0  0  0  0  0  0  0
    3.5704    1.5819    0.2548 B   0  0  0  0  0  0  0  0  0  0  0  0
    2.3955    2.4697    0.3470 O   0  0  0  0  0  0  0  0  0  0  0  0
    4.8704    2.1885    0.3661 O   0  0  0  0  0  0  0  0  0  0  0  0
  1  2  1  0
  2  3  1  0
  2  4  1  0
  5  4  1  6
  5  6  1  0
  6  7  1  0
  7  8  2  0
  7  9  1  0
  9 10  1  0
 10 11  1  0
 11 12  2  0
 11 13  1  0
 13 14  2  0
 14 15  1  0
 15 16  1  0
 15 17  2  0
 17 18  1  0
 18 19  2  0
 19 20  1  0
  5 21  1  0
 21 22  1  0
 21 23  1  0
 19 13  1  0
M  END
>  <supplier_code>  (1580) 
DB09570

>  <zinc_id>  (1580) 
ZINC000169946773

>  <catalog_short_name>  (1580) 
dbfda

$$$$

     RDKit          3D

 11 11  0  0  0  0  0  0  0  0999 V2000
   -2.5707    1.3441   -0.4180 C   0  0  0  0  0  0  0  0  0  0  0  0
   -2.9957    0.3240   -0.2256 N   0  0  0  0  0  0  0  0  0  0  0  0
   -1.8175   -0.7426   -0.3975 C   0  0  2  0  0  0  0  0  0  0  0  0
   -2.3587   -1.6156    0.9175 C   0  0  0  0  0  0  0  0  0  0  0  0
   -0.8005    0.1616    0.5686 C   0  0  0  0  0  0  0  0  0  0  0  0
    0.4327    0.1091   -0.2776 C   0  0  0  0  0  0  0  0  0  0  0  0
    1.1043   -1.0870   -0.3430 C   0  0  0  0  0  0  0  0  0  0  0  0
    2.3893   -1.1397   -0.8662 C   0  0  0  0  0  0  0  0  0  0  0  0
    3.0825    0.0648   -0.9375 C   0  0  0  0  0  0  0  0  0  0  0  0
    2.4438    1.2859   -0.8022 C   0  0  0  0  0  0  0  0  0  0  0  0
    1.0905    1.2954   -0.5041 C   0  0  0  0  0  0  0  0  0  0  0  0
  1  2  1  0
  3  2  1  1
  3  4  1  0
  3  5  1  0
  5  6  1  0
  6  7  2  0
  7  8  1  0
  8  9  2  0
  9 10  1  0
 10 11  2  0
 11  6  1  0
M  END
>  <supplier_code>  (1581) 
DB09571

>  <zinc_id>  (1581) 
ZINC000008466459

>  <catalog_short_name>  (1581) 
dbfda

$$$$

     RDKit          3D

 22 22  0  0  0  0  0  0  0  0999 V2000
    6.6337    3.4458   -0.0912 C   0  0  0  0  0  0  0  0  0  0  0  0
    5.8581    2.2589    0.4670 C   0  0  0  0  0  0  0  0  0  0  0  0
    5.7944    1.1884   -0.5868 C   0  0  0  0  0  0  0  0  0  0  0  0
    7.0357    0.3105   -0.5178 C   0  0  0  0  0  0  0  0  0  0  0  0
    6.5753   -1.0774   -0.0914 C   0  0  0  0  0  0  0  0  0  0  0  0
    5.2247   -1.3061   -0.7542 C   0  0  0  0  0  0  0  0  0  0  0  0
    4.1266   -1.0384    0.2492 C   0  0  0  0  0  0  0  0  0  0  0  0
    2.8449   -1.6030   -0.3526 C   0  0  0  0  0  0  0  0  0  0  0  0
    1.8364   -0.4650   -0.3277 C   0  0  0  0  0  0  0  0  0  0  0  0
    0.7165   -0.9019    0.6009 C   0  0  0  0  0  0  0  0  0  0  0  0
    0.3869   -2.3565    0.3361 C   0  0  0  0  0  0  0  0  0  0  0  0
   -1.0979   -2.5618    0.2471 C   0  0  0  0  0  0  0  0  0  0  0  0
   -1.8461   -1.8796    1.3753 C   0  0  0  0  0  0  0  0  0  0  0  0
   -3.2456   -2.4727    1.4853 C   0  0  0  0  0  0  0  0  0  0  0  0
   -4.2838   -1.5496    0.8853 C   0  0  0  0  0  0  0  0  0  0  0  0
   -3.6733   -0.4205    0.1003 C   0  0  0  0  0  0  0  0  0  0  0  0
   -4.5224    0.7554    0.0554 N   0  0  0  0  0  0  0  0  0  0  0  0
   -5.2104    1.1486    1.1477 C   0  0  0  0  0  0  0  0  0  0  0  0
   -6.3186    1.9761    1.0489 C   0  0  0  0  0  0  0  0  0  0  0  0
   -6.6015    2.5647   -0.1780 C   0  0  0  0  0  0  0  0  0  0  0  0
   -5.5633    2.5238   -1.0995 C   0  0  0  0  0  0  0  0  0  0  0  0
   -4.6703    1.4604   -1.0918 C   0  0  0  0  0  0  0  0  0  0  0  0
  1  2  1  0
  2  3  1  0
  3  4  1  0
  4  5  1  0
  5  6  1  0
  6  7  1  0
  7  8  1  0
  8  9  1  0
  9 10  1  0
 10 11  1  0
 11 12  1  0
 12 13  1  0
 13 14  1  0
 14 15  1  0
 15 16  1  0
 16 17  1  0
 17 18  2  0
 18 19  1  0
 19 20  2  0
 20 21  1  0
 21 22  2  0
 22 17  1  0
M  CHG  1  17   1
M  END
>  <supplier_code>  (1582) 
DB11073

>  <zinc_id>  (1582) 
ZINC000006845963

>  <catalog_short_name>  (1582) 
dbfda

$$$$

     RDKit          3D

 10  9  0  0  0  0  0  0  0  0999 V2000
    3.0560    0.1695   -0.1095 O   0  0  0  0  0  0  0  0  0  0  0  0
    2.4997    0.0999    1.1764 C   0  0  0  0  0  0  0  0  0  0  0  0
    1.1534   -0.5565    1.1814 C   0  0  0  0  0  0  0  0  0  0  0  0
    0.2657   -0.0763    0.1501 N   0  0  0  0  0  0  0  0  0  0  0  0
   -0.9844    0.4324    0.6665 C   0  0  0  0  0  0  0  0  0  0  0  0
   -1.1425    1.9152    0.4467 C   0  0  0  0  0  0  0  0  0  0  0  0
   -1.1889    2.2680   -0.8935 O   0  0  0  0  0  0  0  0  0  0  0  0
    0.0057   -1.1505   -0.7899 C   0  0  0  0  0  0  0  0  0  0  0  0
   -1.4076   -1.1527   -1.3062 C   0  0  0  0  0  0  0  0  0  0  0  0
   -2.2571   -1.9489   -0.5220 O   0  0  0  0  0  0  0  0  0  0  0  0
  1  2  1  0
  2  3  1  0
  3  4  1  0
  4  5  1  0
  5  6  1  0
  6  7  1  0
  4  8  1  0
  8  9  1  0
  9 10  1  0
M  END
>  <supplier_code>  (1583) 
DB11079

>  <zinc_id>  (1583) 
ZINC000000896409

>  <catalog_short_name>  (1583) 
dbfda

$$$$

     RDKit          3D

  8  8  0  0  0  0  0  0  0  0999 V2000
    2.3970   -0.9794   -0.2437 O   0  0  0  0  0  0  0  0  0  0  0  0
    1.1842   -0.3215   -0.4382 C   0  0  0  0  0  0  0  0  0  0  0  0
    1.1367    1.0665   -0.3918 C   0  0  0  0  0  0  0  0  0  0  0  0
   -0.0125    1.6421    0.1443 C   0  0  0  0  0  0  0  0  0  0  0  0
   -1.2076    0.9973   -0.1564 C   0  0  0  0  0  0  0  0  0  0  0  0
   -1.2071   -0.3917   -0.2016 C   0  0  0  0  0  0  0  0  0  0  0  0
   -2.3141   -0.9784   -0.8232 O   0  0  0  0  0  0  0  0  0  0  0  0
    0.0235   -1.0348   -0.1636 C   0  0  0  0  0  0  0  0  0  0  0  0
  1  2  1  0
  2  3  2  0
  3  4  1  0
  4  5  2  0
  5  6  1  0
  6  7  1  0
  6  8  2  0
  8  2  1  0
M  END
>  <supplier_code>  (1584) 
DB11085

>  <zinc_id>  (1584) 
ZINC000000002028

>  <catalog_short_name>  (1584) 
dbfda

$$$$

     RDKit          3D

 13 12  0  0  0  0  0  0  0  0999 V2000
   -1.3019    2.6019   -0.0305 O   0  0  0  0  0  0  0  0  0  0  0  0
   -1.6431    1.3813   -0.0561 C   0  0  0  0  0  0  0  0  0  0  0  0
   -2.5039    0.9657    0.9375 O   0  0  0  0  0  0  0  0  0  0  0  0
   -1.1057    0.5145   -1.1194 C   0  0  0  0  0  0  0  0  0  0  0  0
   -0.0282   -0.3956   -0.5502 C   0  0  0  0  0  0  0  0  0  0  0  0
    0.8278   -0.6978   -1.5868 O   0  0  0  0  0  0  0  0  0  0  0  0
    0.6090    0.3358    0.5907 C   0  0  0  0  0  0  0  0  0  0  0  0
    2.0825    0.2982    0.5746 C   0  0  0  0  0  0  0  0  0  0  0  0
    2.7664    0.2784   -0.4928 O   0  0  0  0  0  0  0  0  0  0  0  0
    2.7450    0.7856    1.7012 O   0  0  0  0  0  0  0  0  0  0  0  0
   -0.7280   -1.6303   -0.0825 C   0  0  0  0  0  0  0  0  0  0  0  0
   -1.4724   -2.1904   -0.9364 O   0  0  0  0  0  0  0  0  0  0  0  0
   -0.2475   -2.2471    1.0506 O   0  0  0  0  0  0  0  0  0  0  0  0
  1  2  2  0
  2  3  1  0
  2  4  1  0
  4  5  1  0
  5  6  1  0
  5  7  1  0
  7  8  1  0
  8  9  2  0
  8 10  1  0
  5 11  1  0
 11 12  2  0
 11 13  1  0
M  END
>  <supplier_code>  (1585) 
DB11093

>  <zinc_id>  (1585) 
ZINC000000895081

>  <catalog_short_name>  (1585) 
dbfda

$$$$

     RDKit          3D

  4  3  0  0  0  0  0  0  0  0999 V2000
   -0.4843    1.2019   -0.0359 O   0  0  0  0  0  0  0  0  0  0  0  0
   -0.0017    0.0431    0.1044 C   0  0  0  0  0  0  0  0  0  0  0  0
   -0.8698   -1.0337   -0.0293 O   0  0  0  0  0  0  0  0  0  0  0  0
    1.3558   -0.2113   -0.0392 O   0  0  0  0  0  0  0  0  0  0  0  0
  1  2  2  0
  2  3  1  0
  2  4  1  0
M  END
>  <supplier_code>  (1586) 
DB11098

>  <zinc_id>  (1586) 
ZINC000006827693

>  <catalog_short_name>  (1586) 
dbfda

$$$$

     RDKit          3D

 16 16  0  0  0  0  0  0  0  0999 V2000
   -2.9443    2.8863    0.1740 C   0  0  0  0  0  0  0  0  0  0  0  0
   -2.8144    1.5810    0.1291 C   0  0  0  0  0  0  0  0  0  0  0  0
   -3.8171    0.8677   -0.1796 O   0  0  0  0  0  0  0  0  0  0  0  0
   -1.7229    0.8081    0.6557 N   0  0  0  0  0  0  0  0  0  0  0  0
   -1.2394   -0.3243   -0.3770 C   0  0  1  0  0  0  0  0  0  0  0  0
   -0.0863   -0.8823    0.7050 C   0  0  0  0  0  0  0  0  0  0  0  0
    1.1899   -0.3446    0.1371 C   0  0  0  0  0  0  0  0  0  0  0  0
    2.0935   -1.3082   -0.2929 C   0  0  0  0  0  0  0  0  0  0  0  0
    3.3616   -0.9017   -0.6587 C   0  0  0  0  0  0  0  0  0  0  0  0
    3.9037    0.1779   -0.0134 C   0  0  0  0  0  0  0  0  0  0  0  0
    5.1799    0.5796   -0.3857 O   0  0  0  0  0  0  0  0  0  0  0  0
    3.1054    0.9525    0.7825 C   0  0  0  0  0  0  0  0  0  0  0  0
    1.7286    0.8065    0.6672 C   0  0  0  0  0  0  0  0  0  0  0  0
   -2.3603   -1.4012    0.1492 C   0  0  0  0  0  0  0  0  0  0  0  0
   -2.4779   -1.5227    1.3591 O   0  0  0  0  0  0  0  0  0  0  0  0
   -3.1003   -1.9748   -0.8518 O   0  0  0  0  0  0  0  0  0  0  0  0
  1  2  1  0
  2  3  2  0
  2  4  1  0
  5  4  1  1
  5  6  1  0
  6  7  1  0
  7  8  2  0
  8  9  1  0
  9 10  2  0
 10 11  1  0
 10 12  1  0
 12 13  2  0
  5 14  1  0
 14 15  2  0
 14 16  1  0
 13  7  1  0
M  END
>  <supplier_code>  (1587) 
DB11102

>  <zinc_id>  (1587) 
ZINC000000156395

>  <catalog_short_name>  (1587) 
dbfda

$$$$

     RDKit          3D

  7  6  0  0  0  0  0  0  0  0999 V2000
   -0.6583    1.7985    0.1329 F   0  0  0  0  0  0  0  0  0  0  0  0
    0.0977    0.4602   -0.0863 S   0  0  0  0  0  0  0  0  0  0  0  0
   -1.0849   -0.9799    1.4273 F   0  0  0  0  0  0  0  0  0  0  0  0
    1.4591    0.4827   -1.1973 F   0  0  0  0  0  0  0  0  0  0  0  0
   -1.5573   -0.1841   -1.2358 F   0  0  0  0  0  0  0  0  0  0  0  0
    1.1847    0.3018    1.5536 F   0  0  0  0  0  0  0  0  0  0  0  0
    0.5591   -1.8792   -0.5944 F   0  0  0  0  0  0  0  0  0  0  0  0
  1  2  1  0
  2  3  1  0
  2  4  1  0
  2  5  1  0
  2  6  1  0
  2  7  1  0
M  END
>  <supplier_code>  (1588) 
DB11104

>  <zinc_id>  (1588) 
ZINC000245224194

>  <catalog_short_name>  (1588) 
dbfda

$$$$

     RDKit          3D

 14 15  0  0  0  0  0  0  0  0999 V2000
   -0.4282    2.8292   -0.1340 C   0  0  0  0  0  0  0  0  0  0  0  0
   -0.5378    1.3825   -0.2797 N   0  0  0  0  0  0  0  0  0  0  0  0
    0.5978    0.6679   -0.3386 C   0  0  0  0  0  0  0  0  0  0  0  0
    1.9122    0.9257   -0.1710 N   0  0  0  0  0  0  0  0  0  0  0  0
    2.5897   -0.2179    0.0798 C   0  0  0  0  0  0  0  0  0  0  0  0
    4.2151   -0.4101    1.0722 Br  0  0  0  0  0  0  0  0  0  0  0  0
    1.7795   -1.1969   -0.3903 N   0  0  0  0  0  0  0  0  0  0  0  0
    0.5225   -0.7142   -0.3751 C   0  0  0  0  0  0  0  0  0  0  0  0
   -0.7516   -1.2666   -0.4034 C   0  0  0  0  0  0  0  0  0  0  0  0
   -0.8222   -2.5203   -0.2302 O   0  0  0  0  0  0  0  0  0  0  0  0
   -1.7804   -0.5585    0.1241 N   0  0  0  0  0  0  0  0  0  0  0  0
   -2.8331   -1.1806    0.9139 C   0  0  0  0  0  0  0  0  0  0  0  0
   -1.7371    0.7768   -0.1086 C   0  0  0  0  0  0  0  0  0  0  0  0
   -2.7264    1.4830    0.2409 O   0  0  0  0  0  0  0  0  0  0  0  0
  1  2  1  0
  2  3  1  0
  3  4  1  0
  4  5  2  0
  5  6  1  0
  5  7  1  0
  7  8  1  0
  8  9  1  0
  9 10  2  0
  9 11  1  0
 11 12  1  0
 11 13  1  0
 13 14  2  0
 13  2  1  0
  8  3  2  0
M  END
>  <supplier_code>  (1589) 
DB11106

>  <zinc_id>  (1589) 
ZINC000100005670

>  <catalog_short_name>  (1589) 
dbfda

$$$$

     RDKit          3D

 13 12  0  0  0  0  0  0  0  0999 V2000
   -1.3019    2.6019   -0.0305 O   0  0  0  0  0  0  0  0  0  0  0  0
   -1.6431    1.3813   -0.0561 C   0  0  0  0  0  0  0  0  0  0  0  0
   -2.5039    0.9657    0.9375 O   0  0  0  0  0  0  0  0  0  0  0  0
   -1.1057    0.5145   -1.1194 C   0  0  0  0  0  0  0  0  0  0  0  0
   -0.0282   -0.3956   -0.5502 C   0  0  0  0  0  0  0  0  0  0  0  0
    0.8278   -0.6978   -1.5868 O   0  0  0  0  0  0  0  0  0  0  0  0
    0.6090    0.3358    0.5907 C   0  0  0  0  0  0  0  0  0  0  0  0
    2.0825    0.2982    0.5746 C   0  0  0  0  0  0  0  0  0  0  0  0
    2.7664    0.2784   -0.4928 O   0  0  0  0  0  0  0  0  0  0  0  0
    2.7450    0.7856    1.7012 O   0  0  0  0  0  0  0  0  0  0  0  0
   -0.7280   -1.6303   -0.0825 C   0  0  0  0  0  0  0  0  0  0  0  0
   -1.4724   -2.1904   -0.9364 O   0  0  0  0  0  0  0  0  0  0  0  0
   -0.2475   -2.2471    1.0506 O   0  0  0  0  0  0  0  0  0  0  0  0
  1  2  2  0
  2  3  1  0
  2  4  1  0
  4  5  1  0
  5  6  1  0
  5  7  1  0
  7  8  1  0
  8  9  2  0
  8 10  1  0
  5 11  1  0
 11 12  2  0
 11 13  1  0
M  END
>  <supplier_code>  (1590) 
DB11110

>  <zinc_id>  (1590) 
ZINC000000895081

>  <catalog_short_name>  (1590) 
dbfda

$$$$

     RDKit          3D

 19 21  0  0  0  0  0  0  0  0999 V2000
    3.3162    2.3997   -0.3804 O   0  0  0  0  0  0  0  0  0  0  0  0
    4.0391    1.0898   -0.1758 S   0  0  0  0  0  0  0  0  0  0  0  0
    4.8031    1.1990    1.1135 O   0  0  0  0  0  0  0  0  0  0  0  0
    5.1366    0.8380   -1.4307 O   0  0  0  0  0  0  0  0  0  0  0  0
    2.8947   -0.2426   -0.0675 C   0  0  0  0  0  0  0  0  0  0  0  0
    2.7531   -0.9900    1.0946 C   0  0  0  0  0  0  0  0  0  0  0  0
    1.4965   -1.4328    1.4895 C   0  0  0  0  0  0  0  0  0  0  0  0
    0.4124   -1.3174    0.6600 C   0  0  0  0  0  0  0  0  0  0  0  0
   -0.8842   -1.0753    0.9559 N   0  0  0  0  0  0  0  0  0  0  0  0
   -1.5411   -0.8892   -0.1938 C   0  0  0  0  0  0  0  0  0  0  0  0
   -2.9344   -0.4417   -0.2864 C   0  0  0  0  0  0  0  0  0  0  0  0
   -3.7696   -0.3723    0.8099 C   0  0  0  0  0  0  0  0  0  0  0  0
   -4.7740    0.5858    0.8562 C   0  0  0  0  0  0  0  0  0  0  0  0
   -4.9300    1.4677   -0.1882 C   0  0  0  0  0  0  0  0  0  0  0  0
   -4.4494    1.0492   -1.4223 C   0  0  0  0  0  0  0  0  0  0  0  0
   -3.4467    0.0887   -1.4653 C   0  0  0  0  0  0  0  0  0  0  0  0
   -0.6171   -0.7099   -1.1407 N   0  0  0  0  0  0  0  0  0  0  0  0
    0.6288   -0.8873   -0.6404 C   0  0  0  0  0  0  0  0  0  0  0  0
    1.8660   -0.3595   -0.9916 C   0  0  0  0  0  0  0  0  0  0  0  0
  1  2  2  0
  2  3  2  0
  2  4  1  0
  2  5  1  0
  5  6  2  0
  6  7  1  0
  7  8  2  0
  8  9  1  0
  9 10  1  0
 10 11  1  0
 11 12  2  0
 12 13  1  0
 13 14  2  0
 14 15  1  0
 15 16  2  0
 10 17  2  0
 17 18  1  0
 18 19  2  0
 19  5  1  0
 18  8  1  0
 16 11  1  0
M  END
>  <supplier_code>  (1591) 
DB11115

>  <zinc_id>  (1591) 
ZINC000006467621

>  <catalog_short_name>  (1591) 
dbfda

$$$$

     RDKit          3D

 10 10  0  0  0  0  0  0  0  0999 V2000
   -1.0587    2.4808   -0.2935 C   0  0  0  0  0  0  0  0  0  0  0  0
   -0.3294    1.1925   -0.2035 C   0  0  0  0  0  0  0  0  0  0  0  0
    1.0561    1.1271   -0.2914 C   0  0  0  0  0  0  0  0  0  0  0  0
    1.7305   -0.0627   -0.0423 C   0  0  0  0  0  0  0  0  0  0  0  0
    2.8774   -0.1099    0.7559 O   0  0  0  0  0  0  0  0  0  0  0  0
    0.9802   -1.2110   -0.2647 C   0  0  0  0  0  0  0  0  0  0  0  0
   -0.4070   -1.1542   -0.2832 C   0  0  0  0  0  0  0  0  0  0  0  0
   -1.2373   -2.3935   -0.2706 C   0  0  0  0  0  0  0  0  0  0  0  0
   -1.0896    0.0370   -0.0667 C   0  0  0  0  0  0  0  0  0  0  0  0
   -2.5222    0.0940    0.9600 Cl  0  0  0  0  0  0  0  0  0  0  0  0
  1  2  1  0
  2  3  2  0
  3  4  1  0
  4  5  1  0
  4  6  2  0
  6  7  1  0
  7  8  1  0
  7  9  2  0
  9 10  1  0
  9  2  1  0
M  END
>  <supplier_code>  (1592) 
DB11121

>  <zinc_id>  (1592) 
ZINC000000001132

>  <catalog_short_name>  (1592) 
dbfda

$$$$

     RDKit          3D

 30 31  0  0  0  0  0  0  0  0999 V2000
    6.2270    0.0002   -2.3297 C   0  0  0  0  0  0  0  0  0  0  0  0
    6.9741    0.7586   -1.2591 C   0  0  0  0  0  0  0  0  0  0  0  0
    6.4879    2.1976   -1.2210 C   0  0  0  0  0  0  0  0  0  0  0  0
    8.4448    0.8184   -1.6561 C   0  0  0  0  0  0  0  0  0  0  0  0
    6.9208    0.0931    0.0855 C   0  0  0  0  0  0  0  0  0  0  0  0
    5.7806   -0.8712    0.2398 C   0  0  0  0  0  0  0  0  0  0  0  0
    5.9151   -2.0979   -0.6173 C   0  0  0  0  0  0  0  0  0  0  0  0
    5.7652   -1.3358    1.6840 C   0  0  0  0  0  0  0  0  0  0  0  0
    4.4997   -0.1389   -0.0110 C   0  0  0  0  0  0  0  0  0  0  0  0
    4.2487    0.9179    0.8560 C   0  0  0  0  0  0  0  0  0  0  0  0
    2.9413    1.3779    0.9560 C   0  0  0  0  0  0  0  0  0  0  0  0
    1.8871    0.5006    0.7332 C   0  0  0  0  0  0  0  0  0  0  0  0
    0.7650    0.4777    1.5672 O   0  0  0  0  0  0  0  0  0  0  0  0
    0.0261   -0.7368    1.6109 C   0  0  0  0  0  0  0  0  0  0  0  0
   -0.7354   -0.8112    0.2938 C   0  0  0  0  0  0  0  0  0  0  0  0
   -1.9910   -0.2373    0.5496 O   0  0  0  0  0  0  0  0  0  0  0  0
   -2.8440   -1.3059    0.8599 C   0  0  0  0  0  0  0  0  0  0  0  0
   -3.4225   -1.8313   -0.4485 C   0  0  0  0  0  0  0  0  0  0  0  0
   -4.4246   -0.8718   -0.9051 N   0  0  0  0  0  0  0  0  0  0  0  0
   -3.7117    0.0671   -1.7638 C   0  0  0  0  0  0  0  0  0  0  0  0
   -5.4173   -1.5580   -1.6844 C   0  0  0  0  0  0  0  0  0  0  0  0
   -4.9367   -0.2165    0.2631 C   0  0  0  0  0  0  0  0  0  0  0  0
   -6.2093    0.4863    0.0642 C   0  0  0  0  0  0  0  0  0  0  0  0
   -6.8658    0.9275    1.2066 C   0  0  0  0  0  0  0  0  0  0  0  0
   -8.0668    1.6048    1.1549 C   0  0  0  0  0  0  0  0  0  0  0  0
   -8.7821    1.5062   -0.0318 C   0  0  0  0  0  0  0  0  0  0  0  0
   -8.2151    0.8757   -1.1326 C   0  0  0  0  0  0  0  0  0  0  0  0
   -6.8373    0.6954   -1.1297 C   0  0  0  0  0  0  0  0  0  0  0  0
    2.1432   -0.5073   -0.1881 C   0  0  0  0  0  0  0  0  0  0  0  0
    3.4333   -0.7849   -0.6260 C   0  0  0  0  0  0  0  0  0  0  0  0
  1  2  1  0
  2  3  1  0
  2  4  1  0
  2  5  1  0
  5  6  1  0
  6  7  1  0
  6  8  1  0
  6  9  1  0
  9 10  2  0
 10 11  1  0
 11 12  2  0
 12 13  1  0
 13 14  1  0
 14 15  1  0
 15 16  1  0
 16 17  1  0
 17 18  1  0
 18 19  1  0
 19 20  1  0
 19 21  1  0
 19 22  1  0
 22 23  1  0
 23 24  2  0
 24 25  1  0
 25 26  2  0
 26 27  1  0
 27 28  2  0
 12 29  1  0
 29 30  2  0
 30  9  1  0
 28 23  1  0
M  CHG  1  19   1
M  END
>  <supplier_code>  (1593) 
DB11125

>  <zinc_id>  (1593) 
ZINC000001571009

>  <catalog_short_name>  (1593) 
dbfda

$$$$

     RDKit          3D

 13 12  0  0  0  0  0  0  0  0999 V2000
    3.0216   -0.7635   -0.6746 O   0  0  0  0  0  0  0  0  0  0  0  0
    2.7795   -0.3158   -0.3039 C   0  0  0  0  0  0  0  0  0  0  0  0
    3.1554    1.0282   -0.4551 O   0  0  0  0  0  0  0  0  0  0  0  0
    1.3922   -0.5130    0.5108 C   0  0  2  0  0  0  0  0  0  0  0  0
    1.2120   -1.9143   -0.0321 O   0  0  0  0  0  0  0  0  0  0  0  0
    0.5290    0.3276   -0.7194 C   0  0  1  0  0  0  0  0  0  0  0  0
   -0.1993   -0.8293   -1.3278 O   0  0  0  0  0  0  0  0  0  0  0  0
   -0.6833    0.7475    0.4184 C   0  0  2  0  0  0  0  0  0  0  0  0
   -1.0839   -0.6639    0.7286 O   0  0  0  0  0  0  0  0  0  0  0  0
   -1.8271    1.0252   -0.8319 C   0  0  2  0  0  0  0  0  0  0  0  0
   -2.1425    2.3966   -0.2783 O   0  0  0  0  0  0  0  0  0  0  0  0
   -3.0874    0.3629   -0.0124 C   0  0  0  0  0  0  0  0  0  0  0  0
   -3.0662   -0.8881   -0.6542 O   0  0  0  0  0  0  0  0  0  0  0  0
  1  2  2  0
  2  3  1  0
  4  2  1  6
  4  5  1  0
  4  6  1  0
  6  7  1  6
  6  8  1  0
  8  9  1  1
  8 10  1  0
 10 11  1  1
 10 12  1  0
 12 13  1  0
M  END
>  <supplier_code>  (1594) 
DB11126

>  <zinc_id>  (1594) 
ZINC000001531008

>  <catalog_short_name>  (1594) 
dbfda

$$$$

     RDKit          3D

  4  3  0  0  0  0  0  0  0  0999 V2000
   -1.1071   -0.8406   -0.0421 N   0  0  0  0  0  0  0  0  0  0  0  0
    0.0023    0.0370    0.0023 C   0  0  0  0  0  0  0  0  0  0  0  0
    1.3378   -0.4669    0.0496 N   0  0  0  0  0  0  0  0  0  0  0  0
   -0.2330    1.2706   -0.0097 O   0  0  0  0  0  0  0  0  0  0  0  0
  1  2  1  0
  2  3  1  0
  2  4  2  0
M  END
>  <supplier_code>  (1595) 
DB11129

>  <zinc_id>  (1595) 
ZINC000008214514

>  <catalog_short_name>  (1595) 
dbfda

$$$$

     RDKit          3D

 19 20  0  0  0  0  0  0  0  0999 V2000
   -0.5437   -0.2777   -0.4864 O   0  0  0  0  0  0  0  0  0  0  0  0
   -0.2518   -1.4204   -0.0197 C   0  0  0  0  0  0  0  0  0  0  0  0
   -1.3417   -2.1229    0.5876 N   0  0  0  0  0  0  0  0  0  0  0  0
   -2.6546   -1.5493    0.6485 C   0  0  0  0  0  0  0  0  0  0  0  0
   -2.7930   -0.4254    1.4477 C   0  0  0  0  0  0  0  0  0  0  0  0
   -3.6430    0.6214    1.1117 C   0  0  0  0  0  0  0  0  0  0  0  0
   -4.2730    0.6314   -0.1143 C   0  0  0  0  0  0  0  0  0  0  0  0
   -4.6947    2.0821   -0.9773 Cl  0  0  0  0  0  0  0  0  0  0  0  0
   -4.3452   -0.5846   -0.7738 C   0  0  0  0  0  0  0  0  0  0  0  0
   -3.4614   -1.6145   -0.4727 C   0  0  0  0  0  0  0  0  0  0  0  0
    1.1019   -1.6328    0.3260 N   0  0  0  0  0  0  0  0  0  0  0  0
    2.0545   -0.5679    0.4273 C   0  0  0  0  0  0  0  0  0  0  0  0
    3.2770   -0.7922    0.9964 C   0  0  0  0  0  0  0  0  0  0  0  0
    4.3741   -0.0518    0.5726 C   0  0  0  0  0  0  0  0  0  0  0  0
    4.2369    1.0609   -0.2484 C   0  0  0  0  0  0  0  0  0  0  0  0
    5.5095    1.5552   -1.3565 Cl  0  0  0  0  0  0  0  0  0  0  0  0
    2.9287    1.4618   -0.4858 C   0  0  0  0  0  0  0  0  0  0  0  0
    2.6650    2.9713   -1.3253 Cl  0  0  0  0  0  0  0  0  0  0  0  0
    1.8544    0.6552   -0.1945 C   0  0  0  0  0  0  0  0  0  0  0  0
  1  2  2  0
  2  3  1  0
  3  4  1  0
  4  5  2  0
  5  6  1  0
  6  7  2  0
  7  8  1  0
  7  9  1  0
  9 10  2  0
  2 11  1  0
 11 12  1  0
 12 13  2  0
 13 14  1  0
 14 15  2  0
 15 16  1  0
 15 17  1  0
 17 18  1  0
 17 19  2  0
 10  4  1  0
 19 12  1  0
M  END
>  <supplier_code>  (1596) 
DB11155

>  <zinc_id>  (1596) 
ZINC000000121480

>  <catalog_short_name>  (1596) 
dbfda

$$$$

     RDKit          3D

 14 15  0  0  0  0  0  0  0  0999 V2000
    1.9774   -1.5436    1.3747 C   0  0  0  0  0  0  0  0  0  0  0  0
    2.1943   -0.3648    0.5721 N   0  0  0  0  0  0  0  0  0  0  0  0
    2.9297    0.8041    1.0524 C   0  0  0  0  0  0  0  0  0  0  0  0
    3.8014    1.2548   -0.1109 C   0  0  0  0  0  0  0  0  0  0  0  0
    2.9787    1.4917   -1.3575 C   0  0  0  0  0  0  0  0  0  0  0  0
    1.6543    0.9119   -1.2653 N   0  0  0  0  0  0  0  0  0  0  0  0
    1.4126   -0.1896   -0.6158 C   0  0  0  0  0  0  0  0  0  0  0  0
    0.1147   -0.8600   -0.7763 C   0  0  0  0  0  0  0  0  0  0  0  0
   -0.6930   -1.1325    0.2180 C   0  0  0  0  0  0  0  0  0  0  0  0
   -2.0622   -0.6186    0.3350 C   0  0  0  0  0  0  0  0  0  0  0  0
   -3.2000   -1.0267   -0.3442 C   0  0  0  0  0  0  0  0  0  0  0  0
   -4.0885   -0.0052   -0.5108 C   0  0  0  0  0  0  0  0  0  0  0  0
   -4.2942    0.6937    0.6734 C   0  0  0  0  0  0  0  0  0  0  0  0
   -2.7251    0.5848    1.3609 S   0  0  0  0  0  0  0  0  0  0  0  0
  1  2  1  0
  2  3  1  0
  3  4  1  0
  4  5  1  0
  5  6  1  0
  6  7  2  0
  7  8  1  0
  8  9  2  0
  9 10  1  0
 10 11  2  0
 11 12  1  0
 12 13  2  0
 13 14  1  0
  7  2  1  0
 14 10  1  0
M  END
>  <supplier_code>  (1597) 
DB11156

>  <zinc_id>  (1597) 
ZINC000000097996

>  <catalog_short_name>  (1597) 
dbfda

$$$$

     RDKit          3D

 14 15  0  0  0  0  0  0  0  0999 V2000
   -2.1094   -2.0860    0.6913 C   0  0  0  0  0  0  0  0  0  0  0  0
   -2.1018   -0.6533    0.4125 N   0  0  0  0  0  0  0  0  0  0  0  0
   -3.3338    0.0503    0.6159 C   0  0  0  0  0  0  0  0  0  0  0  0
   -3.3383    1.4566    0.1040 C   0  0  0  0  0  0  0  0  0  0  0  0
   -1.9607    2.0226   -0.1053 C   0  0  0  0  0  0  0  0  0  0  0  0
   -1.1979    1.0390   -0.8480 N   0  0  0  0  0  0  0  0  0  0  0  0
   -1.0071   -0.1558   -0.3666 C   0  0  0  0  0  0  0  0  0  0  0  0
   -0.2574   -1.0452   -1.2632 C   0  0  0  0  0  0  0  0  0  0  0  0
    0.8692   -1.5270   -0.8111 C   0  0  0  0  0  0  0  0  0  0  0  0
    1.8035   -0.5790   -0.1879 C   0  0  0  0  0  0  0  0  0  0  0  0
    2.0710    0.6984   -0.6715 C   0  0  0  0  0  0  0  0  0  0  0  0
    3.0295    1.3156    0.1189 C   0  0  0  0  0  0  0  0  0  0  0  0
    4.1501    0.4998    0.2383 C   0  0  0  0  0  0  0  0  0  0  0  0
    3.3831   -1.0360    0.3129 S   0  0  0  0  0  0  0  0  0  0  0  0
  1  2  1  0
  2  3  1  0
  3  4  1  0
  4  5  1  0
  5  6  1  0
  6  7  2  0
  7  8  1  0
  8  9  2  0
  9 10  1  0
 10 11  2  0
 11 12  1  0
 12 13  2  0
 13 14  1  0
  7  2  1  0
 14 10  1  0
M  END
>  <supplier_code>  (1598) 
DB11156

>  <zinc_id>  (1598) 
ZINC000100299039

>  <catalog_short_name>  (1598) 
dbfda

$$$$

     RDKit          3D

 19 20  0  0  0  0  0  0  0  0999 V2000
    2.9781    1.8787    2.1376 C   0  0  0  0  0  0  0  0  0  0  0  0
    4.0396    0.9839    1.6845 N   0  0  0  0  0  0  0  0  0  0  0  0
    5.2651    1.7374    1.4341 C   0  0  0  0  0  0  0  0  0  0  0  0
    3.5569    0.3681    0.4518 C   0  0  0  0  0  0  0  0  0  0  0  0
    2.0349    0.3421    0.4685 C   0  0  0  0  0  0  0  0  0  0  0  0
    1.6020    0.3393   -0.8825 O   0  0  0  0  0  0  0  0  0  0  0  0
    0.9049   -0.7857   -1.3362 C   0  0  0  0  0  0  0  0  0  0  0  0
    1.0869   -1.2850   -2.6210 C   0  0  0  0  0  0  0  0  0  0  0  0
    0.0003   -1.6147   -3.4225 C   0  0  0  0  0  0  0  0  0  0  0  0
   -1.2387   -1.7977   -2.8447 C   0  0  0  0  0  0  0  0  0  0  0  0
   -1.3165   -1.7355   -1.4590 C   0  0  0  0  0  0  0  0  0  0  0  0
   -0.2648   -1.2121   -0.7162 C   0  0  0  0  0  0  0  0  0  0  0  0
   -0.4954   -0.6494    0.6524 C   0  0  0  0  0  0  0  0  0  0  0  0
   -1.8420   -0.0418    0.7518 C   0  0  0  0  0  0  0  0  0  0  0  0
   -2.9113   -0.7894    1.2154 C   0  0  0  0  0  0  0  0  0  0  0  0
   -4.0452   -0.1430    1.6745 C   0  0  0  0  0  0  0  0  0  0  0  0
   -4.1011    1.2411    1.6082 C   0  0  0  0  0  0  0  0  0  0  0  0
   -3.2053    1.8995    0.8044 C   0  0  0  0  0  0  0  0  0  0  0  0
   -2.0485    1.2644    0.3989 C   0  0  0  0  0  0  0  0  0  0  0  0
  1  2  1  0
  2  3  1  0
  2  4  1  0
  4  5  1  0
  5  6  1  0
  6  7  1  0
  7  8  2  0
  8  9  1  0
  9 10  2  0
 10 11  1  0
 11 12  2  0
 12 13  1  0
 13 14  1  0
 14 15  2  0
 15 16  1  0
 16 17  2  0
 17 18  1  0
 18 19  2  0
 12  7  1  0
 19 14  1  0
M  END
>  <supplier_code>  (1599) 
DB11160

>  <zinc_id>  (1599) 
ZINC000000001931

>  <catalog_short_name>  (1599) 
dbfda

$$$$

     RDKit          3D

  9  8  0  0  0  0  0  0  0  0999 V2000
   -0.3880   -1.3043   -0.4014 O   0  0  0  0  0  0  0  0  0  0  0  0
   -0.8556   -1.0044    0.0184 C   0  0  0  0  0  0  0  0  0  0  0  0
   -2.1518   -1.4683    0.2756 O   0  0  0  0  0  0  0  0  0  0  0  0
   -0.7013    0.3936    0.8654 C   0  0  2  0  0  0  0  0  0  0  0  0
   -1.6508    1.1153   -0.1051 O   0  0  0  0  0  0  0  0  0  0  0  0
    0.6997    0.8646   -0.0970 C   0  0  1  0  0  0  0  0  0  0  0  0
    0.8875    2.1447    0.7211 O   0  0  0  0  0  0  0  0  0  0  0  0
    1.7268    0.0280    0.9085 C   0  0  0  0  0  0  0  0  0  0  0  0
    2.4334   -0.7693   -0.0064 O   0  0  0  0  0  0  0  0  0  0  0  0
  1  2  2  0
  2  3  1  0
  4  2  1  6
  4  5  1  0
  4  6  1  0
  6  7  1  1
  6  8  1  0
  8  9  1  0
M  END
>  <supplier_code>  (1600) 
DB11168

>  <zinc_id>  (1600) 
ZINC000000901061

>  <catalog_short_name>  (1600) 
dbfda

$$$$

     RDKit          3D

 21 22  0  0  0  0  0  0  0  0999 V2000
   -2.9915   -2.5478    1.4874 C   0  0  0  0  0  0  0  0  0  0  0  0
   -3.3552   -1.5802    0.5041 O   0  0  0  0  0  0  0  0  0  0  0  0
   -2.2947   -1.0932   -0.2665 C   0  0  0  0  0  0  0  0  0  0  0  0
   -1.4832   -1.9625   -0.9837 C   0  0  0  0  0  0  0  0  0  0  0  0
   -0.2366   -1.5790   -1.4617 C   0  0  0  0  0  0  0  0  0  0  0  0
    0.2463   -2.0067   -2.6890 O   0  0  0  0  0  0  0  0  0  0  0  0
    0.3842   -0.5659   -0.7444 C   0  0  0  0  0  0  0  0  0  0  0  0
    1.7161   -0.1694   -1.1650 C   0  0  0  0  0  0  0  0  0  0  0  0
    1.8807    0.1953   -2.3656 O   0  0  0  0  0  0  0  0  0  0  0  0
    2.7603    0.1976   -0.2108 C   0  0  0  0  0  0  0  0  0  0  0  0
    3.2849    1.4735   -0.1457 C   0  0  0  0  0  0  0  0  0  0  0  0
    3.8890    1.9205    1.0204 C   0  0  0  0  0  0  0  0  0  0  0  0
    3.7796    1.1343    2.1612 C   0  0  0  0  0  0  0  0  0  0  0  0
    3.6702   -0.2312    1.9412 C   0  0  0  0  0  0  0  0  0  0  0  0
    3.2646   -0.7124    0.7087 C   0  0  0  0  0  0  0  0  0  0  0  0
   -0.3942    0.3601   -0.0589 C   0  0  0  0  0  0  0  0  0  0  0  0
   -1.7408    0.1023    0.1771 C   0  0  0  0  0  0  0  0  0  0  0  0
   -2.8841    1.4068    0.4733 S   0  0  0  0  0  0  0  0  0  0  0  0
   -4.0322    1.3687   -0.4858 O   0  0  0  0  0  0  0  0  0  0  0  0
   -3.3715    1.4125    1.8851 O   0  0  0  0  0  0  0  0  0  0  0  0
   -2.0915    2.8765    0.2188 O   0  0  0  0  0  0  0  0  0  0  0  0
  1  2  1  0
  2  3  1  0
  3  4  2  0
  4  5  1  0
  5  6  1  0
  5  7  2  0
  7  8  1  0
  8  9  2  0
  8 10  1  0
 10 11  2  0
 11 12  1  0
 12 13  2  0
 13 14  1  0
 14 15  2  0
  7 16  1  0
 16 17  2  0
 17 18  1  0
 18 19  2  0
 18 20  2  0
 18 21  1  0
 17  3  1  0
 15 10  1  0
M  END
>  <supplier_code>  (1601) 
DB11185

>  <zinc_id>  (1601) 
ZINC000001690324

>  <catalog_short_name>  (1601) 
dbfda

$$$$

     RDKit          3D

 19 20  0  0  0  0  0  0  0  0999 V2000
   -2.4238    3.0585   -0.2135 O   0  0  0  0  0  0  0  0  0  0  0  0
   -2.7709    2.1322    0.6747 C   0  0  0  0  0  0  0  0  0  0  0  0
   -2.2803    0.8842   -0.2751 C   0  0  1  0  0  0  0  0  0  0  0  0
   -1.0375    0.6429    0.5548 O   0  0  0  0  0  0  0  0  0  0  0  0
   -0.9988    0.0845   -0.8736 C   0  0  1  0  0  0  0  0  0  0  0  0
    0.5135    0.2373   -1.0283 O   0  0  0  0  0  0  0  0  0  0  0  0
    1.3994    0.4293   -0.0451 C   0  0  0  0  0  0  0  0  0  0  0  0
    2.4069    1.3843   -0.2523 C   0  0  0  0  0  0  0  0  0  0  0  0
    3.7632    1.0593   -0.2637 C   0  0  0  0  0  0  0  0  0  0  0  0
    4.1360   -0.2511   -0.0481 C   0  0  0  0  0  0  0  0  0  0  0  0
    5.3661   -0.8071   -0.1808 O   0  0  0  0  0  0  0  0  0  0  0  0
    3.2407   -0.9201    0.7867 C   0  0  0  0  0  0  0  0  0  0  0  0
    1.8788   -0.6380    0.7129 C   0  0  0  0  0  0  0  0  0  0  0  0
   -0.8766   -1.4974   -0.2796 C   0  0  2  0  0  0  0  0  0  0  0  0
   -1.6481   -2.0077   -1.4722 O   0  0  0  0  0  0  0  0  0  0  0  0
   -2.2318   -1.6296    0.7177 C   0  0  1  0  0  0  0  0  0  0  0  0
   -1.5604   -1.0330    1.9395 O   0  0  0  0  0  0  0  0  0  0  0  0
   -3.2407   -0.2982    0.4540 C   0  0  2  0  0  0  0  0  0  0  0  0
   -3.6357   -0.8301   -0.9080 O   0  0  0  0  0  0  0  0  0  0  0  0
  1  2  1  0
  3  2  1  1
  3  4  1  0
  4  5  1  0
  5  6  1  6
  6  7  1  0
  7  8  2  0
  8  9  1  0
  9 10  2  0
 10 11  1  0
 10 12  1  0
 12 13  2  0
  5 14  1  0
 14 15  1  6
 14 16  1  0
 16 17  1  1
 16 18  1  0
 18 19  1  6
 18  3  1  0
 13  7  1  0
M  END
>  <supplier_code>  (1602) 
DB11217

>  <zinc_id>  (1602) 
ZINC000000518554

>  <catalog_short_name>  (1602) 
dbfda

$$$$

     RDKit          3D

 19 21  0  0  0  0  0  0  0  0999 V2000
    4.4536    1.0973    0.0758 C   0  0  0  0  0  0  0  0  0  0  0  0
    3.6772   -0.1276    0.2897 C   0  0  0  0  0  0  0  0  0  0  0  0
    3.1969   -0.8996   -0.7615 C   0  0  0  0  0  0  0  0  0  0  0  0
    2.0459   -1.6497   -0.5503 C   0  0  0  0  0  0  0  0  0  0  0  0
    1.3058   -1.4764    0.6161 C   0  0  0  0  0  0  0  0  0  0  0  0
   -0.1251   -1.7171    0.6715 C   0  0  0  0  0  0  0  0  0  0  0  0
   -1.0487   -0.7731    0.4797 C   0  0  0  0  0  0  0  0  0  0  0  0
   -0.7967    0.6131    0.6761 C   0  0  0  0  0  0  0  0  0  0  0  0
    0.3132    1.1811    0.7649 O   0  0  0  0  0  0  0  0  0  0  0  0
   -2.0116    1.2842    0.1770 C   0  0  2  0  0  0  0  0  0  0  0  0
   -1.9895    2.7457    0.1478 C   0  0  0  0  0  0  0  0  0  0  0  0
   -3.1937    0.6164    0.7617 C   0  0  0  0  0  0  0  0  0  0  0  0
   -3.4071   -0.6967    0.1456 C   0  0  0  0  0  0  0  0  0  0  0  0
   -2.0578   -0.9086   -0.7853 C   0  0  1  0  0  0  0  0  0  0  0  0
   -1.9732    0.6926   -1.1898 C   0  0  0  0  0  0  0  0  0  0  0  0
   -0.6540    0.8172   -1.8843 C   0  0  0  0  0  0  0  0  0  0  0  0
   -3.1628    0.9698   -2.0386 C   0  0  0  0  0  0  0  0  0  0  0  0
    2.0814   -1.1627    1.7268 C   0  0  0  0  0  0  0  0  0  0  0  0
    3.3461   -0.6061    1.5528 C   0  0  0  0  0  0  0  0  0  0  0  0
  1  2  1  0
  2  3  2  0
  3  4  1  0
  4  5  2  0
  5  6  1  0
  6  7  2  0
  7  8  1  0
  8  9  2  0
  8 10  1  0
 10 11  1  6
 10 12  1  0
 12 13  1  0
 14 13  1  1
 14 15  1  0
 15 16  1  0
 15 17  1  0
  5 18  1  0
 18 19  2  0
 19  2  1  0
 14  7  1  0
 15 10  1  0
M  END
>  <supplier_code>  (1603) 
DB11219

>  <zinc_id>  (1603) 
ZINC000002008310

>  <catalog_short_name>  (1603) 
dbfda

$$$$

     RDKit          3D

 19 21  0  0  0  0  0  0  0  0999 V2000
    4.7725    1.5874    0.3297 C   0  0  0  0  0  0  0  0  0  0  0  0
    4.0912    0.2888    0.3758 C   0  0  0  0  0  0  0  0  0  0  0  0
    3.1465   -0.0234    1.3486 C   0  0  0  0  0  0  0  0  0  0  0  0
    1.9264   -0.5737    0.9666 C   0  0  0  0  0  0  0  0  0  0  0  0
    1.6932   -1.0495   -0.3067 C   0  0  0  0  0  0  0  0  0  0  0  0
    0.4845   -0.7386   -1.0812 C   0  0  0  0  0  0  0  0  0  0  0  0
   -0.4575   -0.0110   -0.4766 C   0  0  0  0  0  0  0  0  0  0  0  0
   -1.4874    0.6913   -1.1636 C   0  0  0  0  0  0  0  0  0  0  0  0
   -1.6259    1.0152   -2.3694 O   0  0  0  0  0  0  0  0  0  0  0  0
   -2.5086    0.9111   -0.0989 C   0  0  2  0  0  0  0  0  0  0  0  0
   -3.7417    1.5598   -0.5140 C   0  0  0  0  0  0  0  0  0  0  0  0
   -1.7776    1.4373    1.0730 C   0  0  0  0  0  0  0  0  0  0  0  0
   -1.1037    0.3317    1.7847 C   0  0  0  0  0  0  0  0  0  0  0  0
   -1.1479   -0.8952    0.6861 C   0  0  1  0  0  0  0  0  0  0  0  0
   -2.6885   -0.5261    0.2329 C   0  0  0  0  0  0  0  0  0  0  0  0
   -3.5536   -0.8077    1.4076 C   0  0  0  0  0  0  0  0  0  0  0  0
   -2.9206   -1.4160   -0.9523 C   0  0  0  0  0  0  0  0  0  0  0  0
    2.8590   -1.2217   -1.0496 C   0  0  0  0  0  0  0  0  0  0  0  0
    4.0397   -0.5598   -0.7257 C   0  0  0  0  0  0  0  0  0  0  0  0
  1  2  1  0
  2  3  2  0
  3  4  1  0
  4  5  2  0
  5  6  1  0
  6  7  2  0
  7  8  1  0
  8  9  2  0
  8 10  1  0
 10 11  1  6
 10 12  1  0
 12 13  1  0
 14 13  1  1
 14 15  1  0
 15 16  1  0
 15 17  1  0
  5 18  1  0
 18 19  2  0
 19  2  1  0
 14  7  1  0
 15 10  1  0
M  END
>  <supplier_code>  (1604) 
DB11219

>  <zinc_id>  (1604) 
ZINC000013831141

>  <catalog_short_name>  (1604) 
dbfda

$$$$

     RDKit          3D

 21 22  0  0  0  0  0  0  0  0999 V2000
    5.3100   -1.2124   -1.4893 C   0  0  0  0  0  0  0  0  0  0  0  0
    5.2880   -1.0431   -0.0890 O   0  0  0  0  0  0  0  0  0  0  0  0
    4.0976   -0.9380    0.6377 C   0  0  0  0  0  0  0  0  0  0  0  0
    3.0616   -1.8469    0.4541 C   0  0  0  0  0  0  0  0  0  0  0  0
    1.7376   -1.4232    0.4626 C   0  0  0  0  0  0  0  0  0  0  0  0
    1.4101   -0.0752    0.5628 C   0  0  0  0  0  0  0  0  0  0  0  0
    0.3868    0.5506   -0.3328 C   0  0  0  0  0  0  0  0  0  0  0  0
   -0.9566    0.3503    0.1381 N   0  0  0  0  0  0  0  0  0  0  0  0
   -1.5080   -0.9697    0.3206 C   0  0  0  0  0  0  0  0  0  0  0  0
   -1.8899   -1.6232   -0.9812 C   0  0  0  0  0  0  0  0  0  0  0  0
   -2.4270   -2.9313   -0.7246 N   0  0  0  0  0  0  0  0  0  0  0  0
   -3.0300   -2.9162    0.5927 C   0  0  0  0  0  0  0  0  0  0  0  0
   -3.5039   -3.2563   -1.6563 C   0  0  0  0  0  0  0  0  0  0  0  0
   -1.8071    1.5038    0.1517 C   0  0  0  0  0  0  0  0  0  0  0  0
   -2.8579    1.6496   -0.6586 N   0  0  0  0  0  0  0  0  0  0  0  0
   -3.2398    2.8764   -1.0472 C   0  0  0  0  0  0  0  0  0  0  0  0
   -2.9046    3.9436   -0.2353 C   0  0  0  0  0  0  0  0  0  0  0  0
   -1.9190    3.8062    0.7009 C   0  0  0  0  0  0  0  0  0  0  0  0
   -1.3594    2.5803    0.8285 N   0  0  0  0  0  0  0  0  0  0  0  0
    2.4001    0.7136    1.1390 C   0  0  0  0  0  0  0  0  0  0  0  0
    3.7115    0.2612    1.2254 C   0  0  0  0  0  0  0  0  0  0  0  0
  1  2  1  0
  2  3  1  0
  3  4  2  0
  4  5  1  0
  5  6  2  0
  6  7  1  0
  7  8  1  0
  8  9  1  0
  9 10  1  0
 10 11  1  0
 11 12  1  0
 11 13  1  0
  8 14  1  0
 14 15  2  0
 15 16  1  0
 16 17  2  0
 17 18  1  0
 18 19  2  0
  6 20  1  0
 20 21  2  0
 21  3  1  0
 19 14  1  0
M  END
>  <supplier_code>  (1605) 
DB11235

>  <zinc_id>  (1605) 
ZINC000000057513

>  <catalog_short_name>  (1605) 
dbfda

$$$$

     RDKit          3D

 13 12  0  0  0  0  0  0  0  0999 V2000
    3.2706    0.2693   -1.4069 O   0  0  0  0  0  0  0  0  0  0  0  0
    2.2690   -0.1887   -1.0586 C   0  0  0  0  0  0  0  0  0  0  0  0
    2.3046   -1.4929   -0.7184 O   0  0  0  0  0  0  0  0  0  0  0  0
    1.4535    0.8184   -0.0492 C   0  0  2  0  0  0  0  0  0  0  0  0
    2.4852    0.5621    1.0600 O   0  0  0  0  0  0  0  0  0  0  0  0
    0.3421   -0.4262    0.4875 C   0  0  1  0  0  0  0  0  0  0  0  0
    0.7101   -0.3484    1.9480 O   0  0  0  0  0  0  0  0  0  0  0  0
   -0.9179    0.7273    0.7522 C   0  0  2  0  0  0  0  0  0  0  0  0
   -1.6620   -0.2766    1.5982 O   0  0  0  0  0  0  0  0  0  0  0  0
   -1.6815    0.3217   -0.7659 C   0  0  2  0  0  0  0  0  0  0  0  0
   -2.2768    1.7327   -0.8548 O   0  0  0  0  0  0  0  0  0  0  0  0
   -3.0914   -0.2685   -0.1124 C   0  0  0  0  0  0  0  0  0  0  0  0
   -3.2055   -1.4303   -0.8797 O   0  0  0  0  0  0  0  0  0  0  0  0
  1  2  2  0
  2  3  1  0
  4  2  1  6
  4  5  1  0
  4  6  1  0
  6  7  1  1
  6  8  1  0
  8  9  1  1
  8 10  1  0
 10 11  1  6
 10 12  1  0
 12 13  1  0
M  END
>  <supplier_code>  (1606) 
DB11248

>  <zinc_id>  (1606) 
ZINC000001531008

>  <catalog_short_name>  (1606) 
dbfda

$$$$

     RDKit          3D

 14 14  0  0  0  0  0  0  0  0999 V2000
    5.8847   -0.3525   -0.7256 C   0  0  0  0  0  0  0  0  0  0  0  0
    4.6587    0.4661   -0.3476 C   0  0  0  0  0  0  0  0  0  0  0  0
    3.6935   -0.3645    0.4888 C   0  0  0  0  0  0  0  0  0  0  0  0
    2.3869    0.3878    0.5480 C   0  0  0  0  0  0  0  0  0  0  0  0
    1.4552   -0.0360   -0.5811 C   0  0  0  0  0  0  0  0  0  0  0  0
    0.4767   -1.0294   -0.0145 C   0  0  0  0  0  0  0  0  0  0  0  0
   -0.9279   -0.6137   -0.1582 C   0  0  0  0  0  0  0  0  0  0  0  0
   -1.9124   -1.5654    0.0636 C   0  0  0  0  0  0  0  0  0  0  0  0
   -3.1749   -1.1003    0.4149 C   0  0  0  0  0  0  0  0  0  0  0  0
   -3.5741    0.1343   -0.0725 C   0  0  0  0  0  0  0  0  0  0  0  0
   -4.8881    0.5614    0.1418 O   0  0  0  0  0  0  0  0  0  0  0  0
   -2.5636    1.0696   -0.2330 C   0  0  0  0  0  0  0  0  0  0  0  0
   -1.2303    0.7171   -0.3146 C   0  0  0  0  0  0  0  0  0  0  0  0
   -0.2844    1.7254   -0.2791 O   0  0  0  0  0  0  0  0  0  0  0  0
  1  2  1  0
  2  3  1  0
  3  4  1  0
  4  5  1  0
  5  6  1  0
  6  7  1  0
  7  8  2  0
  8  9  1  0
  9 10  2  0
 10 11  1  0
 10 12  1  0
 12 13  2  0
 13 14  1  0
 13  7  1  0
M  END
>  <supplier_code>  (1607) 
DB11254

>  <zinc_id>  (1607) 
ZINC000001576892

>  <catalog_short_name>  (1607) 
dbfda

$$$$

     RDKit          3D

 33 35  0  0  0  0  0  0  0  0999 V2000
   -3.8835    1.6049    1.9585 C   0  0  0  0  0  0  0  0  0  0  0  0
   -4.1851    0.8468    0.7693 N   0  0  0  0  0  0  0  0  0  0  0  0
   -5.1941   -0.1116    0.7678 C   0  0  0  0  0  0  0  0  0  0  0  0
   -5.6717   -0.4390   -0.5006 C   0  0  0  0  0  0  0  0  0  0  0  0
   -6.9509   -0.6667   -0.7861 N   0  0  0  0  0  0  0  0  0  0  0  0
   -7.8818   -0.4563    0.1815 C   0  0  0  0  0  0  0  0  0  0  0  0
   -9.1275    0.1517   -0.1877 N   0  0  0  0  0  0  0  0  0  0  0  0
   -7.4231   -0.4090    1.4574 N   0  0  0  0  0  0  0  0  0  0  0  0
   -6.1615   -0.0602    1.7645 C   0  0  0  0  0  0  0  0  0  0  0  0
   -5.7866    0.2973    2.9108 O   0  0  0  0  0  0  0  0  0  0  0  0
   -4.6118   -0.3041   -1.4607 N   0  0  0  0  0  0  0  0  0  0  0  0
   -3.3447   -0.7455   -0.8689 C   0  0  0  0  0  0  0  0  0  0  0  0
   -2.8233    0.5731    0.0033 C   0  0  2  0  0  0  0  0  0  0  0  0
   -2.2803   -0.3977    1.2433 C   0  0  0  0  0  0  0  0  0  0  0  0
   -0.9080    0.1114    1.2807 N   0  0  0  0  0  0  0  0  0  0  0  0
   -0.2355   -0.1338    0.0397 C   0  0  0  0  0  0  0  0  0  0  0  0
    0.3634    0.8660   -0.7053 C   0  0  0  0  0  0  0  0  0  0  0  0
    1.5445    0.5305   -1.3605 C   0  0  0  0  0  0  0  0  0  0  0  0
    2.1268   -0.7279   -1.2252 C   0  0  0  0  0  0  0  0  0  0  0  0
    3.5514   -0.8680   -0.8682 C   0  0  0  0  0  0  0  0  0  0  0  0
    3.7436   -1.1794    0.3468 O   0  0  0  0  0  0  0  0  0  0  0  0
    4.4085    0.0630   -1.5021 N   0  0  0  0  0  0  0  0  0  0  0  0
    5.7197    0.4318   -0.6686 C   0  0  1  0  0  0  0  0  0  0  0  0
    6.1560   -1.1689   -0.4965 C   0  0  0  0  0  0  0  0  0  0  0  0
    6.8280   -1.2525    0.8372 C   0  0  0  0  0  0  0  0  0  0  0  0
    6.8502    0.0007    1.6005 C   0  0  0  0  0  0  0  0  0  0  0  0
    6.1045    0.0789    2.6233 O   0  0  0  0  0  0  0  0  0  0  0  0
    7.5353    1.1440    1.2728 O   0  0  0  0  0  0  0  0  0  0  0  0
    6.6089    0.6077   -2.0280 C   0  0  0  0  0  0  0  0  0  0  0  0
    6.5006   -0.2818   -2.8732 O   0  0  0  0  0  0  0  0  0  0  0  0
    7.3234    1.7684   -2.0978 O   0  0  0  0  0  0  0  0  0  0  0  0
    1.1982   -1.7216   -0.9267 C   0  0  0  0  0  0  0  0  0  0  0  0
   -0.0936   -1.4071   -0.5013 C   0  0  0  0  0  0  0  0  0  0  0  0
  1  2  1  0
  2  3  1  0
  3  4  2  0
  4  5  1  0
  5  6  2  0
  6  7  1  0
  6  8  1  0
  8  9  1  0
  9 10  2  0
  4 11  1  0
 11 12  1  0
 12 13  1  0
 13 14  1  1
 14 15  1  0
 15 16  1  0
 16 17  2  0
 17 18  1  0
 18 19  2  0
 19 20  1  0
 20 21  2  0
 20 22  1  0
 23 22  1  6
 23 24  1  0
 24 25  1  0
 25 26  1  0
 26 27  2  0
 26 28  1  0
 23 29  1  0
 29 30  2  0
 29 31  1  0
 19 32  1  0
 32 33  2  0
 13  2  1  0
 33 16  1  0
  9  3  1  0
M  END
>  <supplier_code>  (1608) 
DB11256

>  <zinc_id>  (1608) 
ZINC000002005305

>  <catalog_short_name>  (1608) 
dbfda

$$$$

     RDKit          3D

 22 24  0  0  0  0  0  0  0  0999 V2000
    4.7139    2.1885    0.1013 C   0  0  0  0  0  0  0  0  0  0  0  0
    5.0769    0.8235   -0.0488 O   0  0  0  0  0  0  0  0  0  0  0  0
    4.1688   -0.1505   -0.4734 C   0  0  0  0  0  0  0  0  0  0  0  0
    3.3640    0.0430   -1.5907 C   0  0  0  0  0  0  0  0  0  0  0  0
    2.0713   -0.4658   -1.6003 C   0  0  0  0  0  0  0  0  0  0  0  0
    1.5158   -1.0869   -0.4873 C   0  0  0  0  0  0  0  0  0  0  0  0
    0.1344   -0.8104   -0.0690 C   0  0  0  0  0  0  0  0  0  0  0  0
   -0.1551   -0.4305    1.2336 C   0  0  0  0  0  0  0  0  0  0  0  0
   -1.4804   -0.3904    1.6180 C   0  0  0  0  0  0  0  0  0  0  0  0
   -1.7701   -0.1186    2.8208 O   0  0  0  0  0  0  0  0  0  0  0  0
   -2.4180   -0.1799    0.6141 C   0  0  0  0  0  0  0  0  0  0  0  0
   -3.7136    0.2132    0.9153 C   0  0  0  0  0  0  0  0  0  0  0  0
   -4.1610    0.0418    2.2139 O   0  0  0  0  0  0  0  0  0  0  0  0
   -4.4645    0.8678   -0.0530 C   0  0  0  0  0  0  0  0  0  0  0  0
   -3.9057    1.2197   -1.2671 C   0  0  0  0  0  0  0  0  0  0  0  0
   -4.3500    2.4038   -1.8624 O   0  0  0  0  0  0  0  0  0  0  0  0
   -2.7514    0.5793   -1.6296 C   0  0  0  0  0  0  0  0  0  0  0  0
   -1.9671   -0.0796   -0.6918 C   0  0  0  0  0  0  0  0  0  0  0  0
   -0.7376   -0.4456   -0.9862 O   0  0  0  0  0  0  0  0  0  0  0  0
    2.4358   -1.5318    0.4550 C   0  0  0  0  0  0  0  0  0  0  0  0
    3.7841   -1.2074    0.3437 C   0  0  0  0  0  0  0  0  0  0  0  0
    4.6095   -1.4832    1.4318 O   0  0  0  0  0  0  0  0  0  0  0  0
  1  2  1  0
  2  3  1  0
  3  4  2  0
  4  5  1  0
  5  6  2  0
  6  7  1  0
  7  8  2  0
  8  9  1  0
  9 10  2  0
  9 11  1  0
 11 12  2  0
 12 13  1  0
 12 14  1  0
 14 15  2  0
 15 16  1  0
 15 17  1  0
 17 18  2  0
 18 19  1  0
  6 20  1  0
 20 21  2  0
 21 22  1  0
 21  3  1  0
 19  7  1  0
 18 11  1  0
M  END
>  <supplier_code>  (1609) 
DB11259

>  <zinc_id>  (1609) 
ZINC000005733652

>  <catalog_short_name>  (1609) 
dbfda

$$$$

     RDKit          3D

 38 41  0  0  0  0  0  0  0  0999 V2000
    1.2911    2.4431   -1.6185 C   0  0  0  0  0  0  0  0  0  0  0  0
    1.4996    1.8121   -0.8734 C   0  0  0  0  0  0  0  0  0  0  0  0
    2.3071    2.2496    0.2658 C   0  0  0  0  0  0  0  0  0  0  0  0
    2.6511    1.4120    1.2996 C   0  0  0  0  0  0  0  0  0  0  0  0
    4.1739    1.3666    1.8614 C   0  0  1  0  0  0  0  0  0  0  0  0
    4.6776   -0.1135    1.1315 C   0  0  1  0  0  0  0  0  0  0  0  0
    3.3838   -0.3494    0.2066 C   0  0  0  0  0  0  0  0  0  0  0  0
    3.2025   -1.3131   -0.5696 C   0  0  0  0  0  0  0  0  0  0  0  0
    3.8115   -1.6007   -1.9262 C   0  0  0  0  0  0  0  0  0  0  0  0
    1.9915   -2.0676   -0.1743 C   0  0  0  0  0  0  0  0  0  0  0  0
    2.0481   -3.2727   -0.5748 O   0  0  0  0  0  0  0  0  0  0  0  0
    0.6223   -1.4905   -0.0648 C   0  0  1  0  0  0  0  0  0  0  0  0
    0.0091   -1.7474   -1.2017 O   0  0  0  0  0  0  0  0  0  0  0  0
   -0.4361   -3.0386   -1.5050 C   0  0  0  0  0  0  0  0  0  0  0  0
   -1.4416   -3.0941   -2.6236 C   0  0  0  0  0  0  0  0  0  0  0  0
   -0.6526   -3.9269   -0.6238 O   0  0  0  0  0  0  0  0  0  0  0  0
   -0.0265   -2.3510    1.0228 C   0  0  0  0  0  0  0  0  0  0  0  0
   -0.2216   -1.3236    2.2466 C   0  0  2  0  0  0  0  0  0  0  0  0
   -1.6641   -1.9112    2.6807 C   0  0  0  0  0  0  0  0  0  0  0  0
   -0.8735   -0.0876    1.2668 C   0  0  2  0  0  0  0  0  0  0  0  0
   -1.6493   -0.9651    0.3115 O   0  0  0  0  0  0  0  0  0  0  0  0
   -2.7070   -0.2851   -0.1589 C   0  0  0  0  0  0  0  0  0  0  0  0
   -2.3646    0.0645   -1.2957 O   0  0  0  0  0  0  0  0  0  0  0  0
   -4.0648    0.0605    0.0980 C   0  0  0  0  0  0  0  0  0  0  0  0
   -4.5814    1.3291   -0.2066 C   0  0  0  0  0  0  0  0  0  0  0  0
   -5.8007    1.4843   -0.8746 C   0  0  0  0  0  0  0  0  0  0  0  0
   -6.7341    0.4980   -0.6271 C   0  0  0  0  0  0  0  0  0  0  0  0
   -6.3062   -0.7507   -0.3249 C   0  0  0  0  0  0  0  0  0  0  0  0
   -4.9869   -0.9635   -0.0947 C   0  0  0  0  0  0  0  0  0  0  0  0
    0.6790   -0.0574    0.5625 C   0  0  2  0  0  0  0  0  0  0  0  0
    0.1366    0.9746   -0.6779 C   0  0  1  0  0  0  0  0  0  0  0  0
   -0.3404    2.0066    0.3568 O   0  0  0  0  0  0  0  0  0  0  0  0
   -0.9170    3.1615   -0.0500 C   0  0  0  0  0  0  0  0  0  0  0  0
   -1.6260    3.9608    1.0066 C   0  0  0  0  0  0  0  0  0  0  0  0
   -1.4899    3.2102   -1.1748 O   0  0  0  0  0  0  0  0  0  0  0  0
    5.1250    1.3925    0.4533 C   0  0  0  0  0  0  0  0  0  0  0  0
    4.6987    1.7747   -0.7658 C   0  0  0  0  0  0  0  0  0  0  0  0
    6.5759    1.5093    0.8679 C   0  0  0  0  0  0  0  0  0  0  0  0
  1  2  2  0
  2  3  1  0
  3  4  1  0
  5  4  1  6
  5  6  1  0
  6  7  1  6
  7  8  2  0
  8  9  1  0
  8 10  1  0
 10 11  2  0
 10 12  1  0
 12 13  1  6
 13 14  1  0
 14 15  1  0
 14 16  2  0
 12 17  1  0
 17 18  1  0
 18 19  1  1
 18 20  1  0
 20 21  1  6
 21 22  1  0
 22 23  2  0
 22 24  1  0
 24 25  2  0
 25 26  1  0
 26 27  2  0
 27 28  1  0
 28 29  2  0
 20 30  1  0
 30 31  1  6
 31 32  1  1
 32 33  1  0
 33 34  1  0
 33 35  2  0
  6 36  1  0
 36 37  1  0
 36 38  1  0
 31  2  1  0
 36  5  1  0
 30 12  1  0
 29 24  1  0
M  END
>  <supplier_code>  (1610) 
DB11260

>  <zinc_id>  (1610) 
ZINC000096903163

>  <catalog_short_name>  (1610) 
dbfda

$$$$

     RDKit          3D

 28 30  0  0  0  0  0  0  0  0999 V2000
   -3.7156   -2.1933   -0.0934 O   0  0  0  0  0  0  0  0  0  0  0  0
   -3.5228   -1.7539    0.2043 C   0  0  0  0  0  0  0  0  0  0  0  0
   -3.2765   -1.6900    1.8340 C   0  0  1  0  0  0  0  0  0  0  0  0
   -2.7204   -0.3576    2.0605 O   0  0  0  0  0  0  0  0  0  0  0  0
   -2.8484    0.7647    1.1127 C   0  0  1  0  0  0  0  0  0  0  0  0
   -2.2233    0.0446   -0.1087 O   0  0  0  0  0  0  0  0  0  0  0  0
   -1.1420    0.6943   -0.6977 C   0  0  0  0  0  0  0  0  0  0  0  0
   -1.2330    0.6497   -2.0920 C   0  0  0  0  0  0  0  0  0  0  0  0
   -0.2186    1.0712   -2.9066 C   0  0  0  0  0  0  0  0  0  0  0  0
   -0.4873    1.6566   -4.1455 O   0  0  0  0  0  0  0  0  0  0  0  0
    0.9900    1.3258   -2.2694 C   0  0  0  0  0  0  0  0  0  0  0  0
    1.2367    0.8077   -0.9991 C   0  0  0  0  0  0  0  0  0  0  0  0
    2.6175    0.5591   -0.6359 C   0  0  0  0  0  0  0  0  0  0  0  0
    3.5695    0.4883   -1.5588 C   0  0  0  0  0  0  0  0  0  0  0  0
    4.9075    0.0888   -1.2063 C   0  0  0  0  0  0  0  0  0  0  0  0
    5.4206   -1.1776   -1.4335 C   0  0  0  0  0  0  0  0  0  0  0  0
    6.2682   -1.7259   -0.4765 C   0  0  0  0  0  0  0  0  0  0  0  0
    6.7623   -0.9678    0.5783 C   0  0  0  0  0  0  0  0  0  0  0  0
    7.4156   -1.5828    1.6214 O   0  0  0  0  0  0  0  0  0  0  0  0
    6.6067    0.4002    0.4640 C   0  0  0  0  0  0  0  0  0  0  0  0
    5.6710    0.9331   -0.4181 C   0  0  0  0  0  0  0  0  0  0  0  0
    0.1437    0.3804   -0.2499 C   0  0  0  0  0  0  0  0  0  0  0  0
   -4.4941    0.4828    0.6680 C   0  0  2  0  0  0  0  0  0  0  0  0
   -4.7859    1.9445    0.7361 O   0  0  0  0  0  0  0  0  0  0  0  0
   -4.8669    0.2931    2.3129 C   0  0  1  0  0  0  0  0  0  0  0  0
   -6.3319    0.4259    2.0221 O   0  0  0  0  0  0  0  0  0  0  0  0
   -4.9524   -1.3833    2.1031 C   0  0  2  0  0  0  0  0  0  0  0  0
   -4.7901   -1.6090    3.5743 O   0  0  0  0  0  0  0  0  0  0  0  0
  1  2  1  0
  3  2  1  6
  3  4  1  0
  4  5  1  0
  5  6  1  6
  6  7  1  0
  7  8  2  0
  8  9  1  0
  9 10  1  0
  9 11  2  0
 11 12  1  0
 12 13  1  0
 13 14  2  0
 14 15  1  0
 15 16  2  0
 16 17  1  0
 17 18  2  0
 18 19  1  0
 18 20  1  0
 20 21  2  0
 12 22  2  0
  5 23  1  0
 23 24  1  1
 23 25  1  0
 25 26  1  6
 25 27  1  0
 27 28  1  1
 27  3  1  0
 22  7  1  0
 21 15  1  0
M  END
>  <supplier_code>  (1611) 
DB11263

>  <zinc_id>  (1611) 
ZINC000004098633

>  <catalog_short_name>  (1611) 
dbfda

$$$$

     RDKit          3D

 29 31  0  0  0  0  0  0  0  0999 V2000
    5.8358    3.4809   -0.1540 C   0  0  0  0  0  0  0  0  0  0  0  0
    4.5077    2.7455   -0.1464 C   0  0  0  0  0  0  0  0  0  0  0  0
    4.7062    1.3021   -0.2403 N   0  0  0  0  0  0  0  0  0  0  0  0
    6.0282    0.7100   -0.0619 C   0  0  0  0  0  0  0  0  0  0  0  0
    5.9687   -0.1301    1.2025 C   0  0  0  0  0  0  0  0  0  0  0  0
    3.5556    0.4977   -0.3853 C   0  0  0  0  0  0  0  0  0  0  0  0
    3.3937   -0.7312    0.2373 C   0  0  0  0  0  0  0  0  0  0  0  0
    2.0839   -1.1556    0.4231 C   0  0  0  0  0  0  0  0  0  0  0  0
    1.0667   -0.7720   -0.4429 C   0  0  0  0  0  0  0  0  0  0  0  0
   -0.2968   -1.2472   -0.2725 C   0  0  0  0  0  0  0  0  0  0  0  0
   -0.5133   -2.6384    0.0546 C   0  0  0  0  0  0  0  0  0  0  0  0
   -1.7342   -3.2853   -0.0690 C   0  0  0  0  0  0  0  0  0  0  0  0
   -1.7817   -4.5956   -0.5287 C   0  0  0  0  0  0  0  0  0  0  0  0
   -0.7164   -5.4207   -0.2837 C   0  0  0  0  0  0  0  0  0  0  0  0
    0.4329   -4.8638    0.2185 C   0  0  0  0  0  0  0  0  0  0  0  0
    0.5616   -3.4835    0.3024 C   0  0  0  0  0  0  0  0  0  0  0  0
   -1.2843   -0.4214   -0.5201 C   0  0  0  0  0  0  0  0  0  0  0  0
   -2.6974   -0.7753   -0.3764 C   0  0  0  0  0  0  0  0  0  0  0  0
   -3.6379    0.0971   -0.0997 C   0  0  0  0  0  0  0  0  0  0  0  0
   -3.2816    1.4873    0.0857 C   0  0  0  0  0  0  0  0  0  0  0  0
   -4.1592    2.3500    0.4859 N   0  0  0  0  0  0  0  0  0  0  0  0
   -3.7889    3.7585    0.5666 C   0  0  0  0  0  0  0  0  0  0  0  0
   -3.3104    4.2810   -0.7598 C   0  0  0  0  0  0  0  0  0  0  0  0
   -5.5489    2.0538    0.1505 C   0  0  0  0  0  0  0  0  0  0  0  0
   -6.4382    2.7316    1.1717 C   0  0  0  0  0  0  0  0  0  0  0  0
   -1.9178    1.9107   -0.2259 C   0  0  0  0  0  0  0  0  0  0  0  0
   -1.0321    1.0175   -0.6688 C   0  0  0  0  0  0  0  0  0  0  0  0
    1.4384    0.1482   -1.4090 C   0  0  0  0  0  0  0  0  0  0  0  0
    2.5599    0.9482   -1.2246 C   0  0  0  0  0  0  0  0  0  0  0  0
  1  2  1  0
  2  3  1  0
  3  4  1  0
  4  5  1  0
  3  6  1  0
  6  7  2  0
  7  8  1  0
  8  9  2  0
  9 10  1  0
 10 11  1  0
 11 12  2  0
 12 13  1  0
 13 14  2  0
 14 15  1  0
 15 16  2  0
 10 17  2  3
 17 18  1  0
 18 19  2  0
 19 20  1  0
 20 21  2  3
 21 22  1  0
 22 23  1  0
 21 24  1  0
 24 25  1  0
 20 26  1  0
 26 27  2  0
  9 28  1  0
 28 29  2  0
 29  6  1  0
 16 11  1  0
 27 17  1  0
M  CHG  1  21   1
M  END
>  <supplier_code>  (1612) 
DB11279

>  <zinc_id>  (1612) 
ZINC000004235575

>  <catalog_short_name>  (1612) 
dbfda

$$$$

     RDKit          3D

 15 15  0  0  0  0  0  0  0  0999 V2000
    5.5134    0.8819    0.0872 C   0  0  0  0  0  0  0  0  0  0  0  0
    5.0900   -0.5599    0.3155 C   0  0  0  0  0  0  0  0  0  0  0  0
    3.6386   -0.6376    0.7313 C   0  0  0  0  0  0  0  0  0  0  0  0
    2.9562   -1.7746   -0.0202 C   0  0  0  0  0  0  0  0  0  0  0  0
    1.5633   -1.6412    0.0234 O   0  0  0  0  0  0  0  0  0  0  0  0
    1.2556   -0.3571   -0.3742 C   0  0  0  0  0  0  0  0  0  0  0  0
   -0.1772   -0.1230   -0.6188 C   0  0  0  0  0  0  0  0  0  0  0  0
   -0.5349    0.9932   -1.3679 C   0  0  0  0  0  0  0  0  0  0  0  0
   -1.6899    1.7196   -1.1049 C   0  0  0  0  0  0  0  0  0  0  0  0
   -2.5837    1.2661   -0.1429 C   0  0  0  0  0  0  0  0  0  0  0  0
   -3.2160    2.1776    0.7098 O   0  0  0  0  0  0  0  0  0  0  0  0
   -2.3853   -0.0317    0.3109 C   0  0  0  0  0  0  0  0  0  0  0  0
   -3.4701   -0.6127    0.9723 O   0  0  0  0  0  0  0  0  0  0  0  0
   -4.7616   -0.5834    0.4110 C   0  0  0  0  0  0  0  0  0  0  0  0
   -1.1984   -0.7172    0.0915 C   0  0  0  0  0  0  0  0  0  0  0  0
  1  2  1  0
  2  3  1  0
  3  4  1  0
  4  5  1  0
  5  6  1  0
  6  7  1  0
  7  8  2  0
  8  9  1  0
  9 10  2  0
 10 11  1  0
 10 12  1  0
 12 13  1  0
 13 14  1  0
 12 15  2  0
 15  7  1  0
M  END
>  <supplier_code>  (1613) 
DB11299

>  <zinc_id>  (1613) 
ZINC000002561203

>  <catalog_short_name>  (1613) 
dbfda

$$$$

     RDKit          3D

 13 13  0  0  0  0  0  0  0  0999 V2000
    0.9452   -1.2668    0.8998 O   0  0  0  0  0  0  0  0  0  0  0  0
    0.4782   -0.8168   -0.1844 C   0  0  0  0  0  0  0  0  0  0  0  0
    1.4142   -0.6464   -1.2091 O   0  0  0  0  0  0  0  0  0  0  0  0
    2.8145   -0.7185   -0.9460 C   0  0  0  0  0  0  0  0  0  0  0  0
    3.2025    0.4100   -0.0103 C   0  0  0  0  0  0  0  0  0  0  0  0
    4.3740    0.1582    0.6787 O   0  0  0  0  0  0  0  0  0  0  0  0
   -0.7555   -0.0291   -0.1157 C   0  0  0  0  0  0  0  0  0  0  0  0
   -0.6268    1.2807    0.3289 C   0  0  0  0  0  0  0  0  0  0  0  0
   -1.6899    2.1285    0.0466 C   0  0  0  0  0  0  0  0  0  0  0  0
   -2.9517    1.5783    0.2392 C   0  0  0  0  0  0  0  0  0  0  0  0
   -3.1072    0.2655   -0.1845 C   0  0  0  0  0  0  0  0  0  0  0  0
   -2.0102   -0.5807   -0.2899 C   0  0  0  0  0  0  0  0  0  0  0  0
   -2.0873   -1.7630   -1.0297 O   0  0  0  0  0  0  0  0  0  0  0  0
  1  2  2  0
  2  3  1  0
  3  4  1  0
  4  5  1  0
  5  6  1  0
  2  7  1  0
  7  8  2  0
  8  9  1  0
  9 10  2  0
 10 11  1  0
 11 12  2  0
 12 13  1  0
 12  7  1  0
M  END
>  <supplier_code>  (1614) 
DB11323

>  <zinc_id>  (1614) 
ZINC000001698306

>  <catalog_short_name>  (1614) 
dbfda

$$$$

     RDKit          3D

  4  3  0  0  0  0  0  0  0  0999 V2000
    1.3477   -0.5682   -0.0333 O   0  0  0  0  0  0  0  0  0  0  0  0
    0.0116   -0.0038    0.1313 B   0  0  0  0  0  0  0  0  0  0  0  0
   -1.1694   -0.8604   -0.0532 O   0  0  0  0  0  0  0  0  0  0  0  0
   -0.1900    1.4325   -0.0448 O   0  0  0  0  0  0  0  0  0  0  0  0
  1  2  1  0
  2  3  1  0
  2  4  1  0
M  END
>  <supplier_code>  (1615) 
DB11326

>  <zinc_id>  (1615) 
ZINC000245189278

>  <catalog_short_name>  (1615) 
dbfda

$$$$

     RDKit          3D

 35 37  0  0  0  0  0  0  0  0999 V2000
   -0.9263   -2.2709   -1.3597 C   0  0  0  0  0  0  0  0  0  0  0  0
    0.1709   -2.4027   -0.3212 C   0  0  0  0  0  0  0  0  0  0  0  0
   -0.3102   -3.4536    0.6724 C   0  0  0  0  0  0  0  0  0  0  0  0
    0.2980   -1.1375    0.3881 N   0  0  0  0  0  0  0  0  0  0  0  0
    1.6116   -0.6876    0.8015 C   0  0  0  0  0  0  0  0  0  0  0  0
    1.8044    0.7495    0.3878 C   0  0  0  0  0  0  0  0  0  0  0  0
    3.1051    0.9863   -0.3281 C   0  0  0  0  0  0  0  0  0  0  0  0
    3.4964   -0.1357   -1.2469 C   0  0  0  0  0  0  0  0  0  0  0  0
    3.6421   -1.3536   -0.6095 O   0  0  0  0  0  0  0  0  0  0  0  0
    4.9224   -1.5862   -0.1383 C   0  0  0  0  0  0  0  0  0  0  0  0
    5.7163   -0.3211   -0.0434 C   0  0  0  0  0  0  0  0  0  0  0  0
    5.7396    0.2141    1.1064 O   0  0  0  0  0  0  0  0  0  0  0  0
    6.9696   -0.3307   -0.7377 N   0  0  0  0  0  0  0  0  0  0  0  0
    8.2089    0.7828   -0.2633 S   0  0  0  0  0  0  0  0  0  0  0  0
    9.8022    0.2433   -0.8185 C   0  0  0  0  0  0  0  0  0  0  0  0
    7.8380    2.1198   -0.8510 O   0  0  0  0  0  0  0  0  0  0  0  0
    8.2519    0.9236    1.2375 O   0  0  0  0  0  0  0  0  0  0  0  0
   -0.8543   -0.5357    0.9899 C   0  0  0  0  0  0  0  0  0  0  0  0
   -1.7046   -1.2905    1.7888 C   0  0  0  0  0  0  0  0  0  0  0  0
   -3.0374   -1.0447    1.8177 N   0  0  0  0  0  0  0  0  0  0  0  0
   -3.6047   -0.2260    0.8976 C   0  0  0  0  0  0  0  0  0  0  0  0
   -4.8573   -0.5801    0.2159 C   0  0  0  0  0  0  0  0  0  0  0  0
   -4.8577   -0.9274   -1.1290 C   0  0  0  0  0  0  0  0  0  0  0  0
   -5.6004   -1.9793   -1.6222 C   0  0  0  0  0  0  0  0  0  0  0  0
   -6.4796   -2.6556   -0.7923 C   0  0  0  0  0  0  0  0  0  0  0  0
   -6.7670   -2.0580    0.4204 C   0  0  0  0  0  0  0  0  0  0  0  0
   -5.8013   -1.2395    0.9939 C   0  0  0  0  0  0  0  0  0  0  0  0
   -2.7491    0.7203    0.3467 C   0  0  0  0  0  0  0  0  0  0  0  0
   -3.3447    1.8131   -0.3966 C   0  0  0  0  0  0  0  0  0  0  0  0
   -2.5136    2.7831   -0.9428 C   0  0  0  0  0  0  0  0  0  0  0  0
   -2.8752    4.1088   -1.0319 C   0  0  0  0  0  0  0  0  0  0  0  0
   -4.1995    4.4159   -0.8732 C   0  0  0  0  0  0  0  0  0  0  0  0
   -5.0402    3.5413   -0.2370 C   0  0  0  0  0  0  0  0  0  0  0  0
   -4.6478    2.2225   -0.1437 C   0  0  0  0  0  0  0  0  0  0  0  0
   -1.4065    0.5917    0.4790 N   0  0  0  0  0  0  0  0  0  0  0  0
  1  2  1  0
  2  3  1  0
  2  4  1  0
  4  5  1  0
  5  6  1  0
  6  7  1  0
  7  8  1  0
  8  9  1  0
  9 10  1  0
 10 11  1  0
 11 12  2  0
 11 13  1  0
 13 14  1  0
 14 15  1  0
 14 16  2  0
 14 17  2  0
  4 18  1  0
 18 19  2  0
 19 20  1  0
 20 21  2  0
 21 22  1  0
 22 23  2  0
 23 24  1  0
 24 25  2  0
 25 26  1  0
 26 27  2  0
 21 28  1  0
 28 29  1  0
 29 30  2  0
 30 31  1  0
 31 32  2  0
 32 33  1  0
 33 34  2  0
 28 35  2  0
 35 18  1  0
 27 22  1  0
 34 29  1  0
M  END
>  <supplier_code>  (1616) 
DB11362

>  <zinc_id>  (1616) 
ZINC000003990451

>  <catalog_short_name>  (1616) 
dbfda

$$$$

     RDKit          3D

 36 41  0  0  0  0  0  0  0  0999 V2000
    1.5410   -4.0917    1.0754 C   0  0  0  0  0  0  0  0  0  0  0  0
    1.5777   -3.1816   -0.1414 C   0  0  0  0  0  0  0  0  0  0  0  0
    0.9451   -1.8965    0.2721 C   0  0  0  0  0  0  0  0  0  0  0  0
   -0.1585   -1.8570    1.1154 C   0  0  0  0  0  0  0  0  0  0  0  0
   -0.9511   -0.7158    1.1507 C   0  0  0  0  0  0  0  0  0  0  0  0
   -0.4983    0.4405    0.5415 C   0  0  0  0  0  0  0  0  0  0  0  0
    0.7642    0.4382    0.0089 C   0  0  0  0  0  0  0  0  0  0  0  0
    1.4536   -0.7310   -0.2884 C   0  0  0  0  0  0  0  0  0  0  0  0
    2.8616   -0.6165   -0.5260 N   0  0  0  0  0  0  0  0  0  0  0  0
    3.6721   -0.3770    0.6657 C   0  0  0  0  0  0  0  0  0  0  0  0
    4.7128   -1.4919    0.6757 C   0  0  0  0  0  0  0  0  0  0  0  0
    5.6677   -1.1573   -0.4649 C   0  0  0  0  0  0  0  0  0  0  0  0
    5.9351    0.2738   -0.3357 N   0  0  0  0  0  0  0  0  0  0  0  0
    6.8289    0.6905   -1.3867 C   0  0  0  0  0  0  0  0  0  0  0  0
    7.3047    2.0783   -1.0638 C   0  0  0  0  0  0  0  0  0  0  0  0
    7.9900    2.0855    0.1564 O   0  0  0  0  0  0  0  0  0  0  0  0
    7.0314    1.8677    1.1482 C   0  0  0  0  0  0  0  0  0  0  0  0
    6.4683    0.4783    0.9885 C   0  0  0  0  0  0  0  0  0  0  0  0
    4.8785   -1.3176   -1.7514 C   0  0  0  0  0  0  0  0  0  0  0  0
    3.4126   -1.5281   -1.5095 C   0  0  0  0  0  0  0  0  0  0  0  0
   -1.3210    1.6604    0.7302 C   0  0  0  0  0  0  0  0  0  0  0  0
   -0.8607    2.8152   -0.1133 C   0  0  0  0  0  0  0  0  0  0  0  0
   -1.2664    2.0177    2.2105 C   0  0  0  0  0  0  0  0  0  0  0  0
   -2.7596    1.3783    0.4311 C   0  0  0  0  0  0  0  0  0  0  0  0
   -3.7533    2.0598   -0.1583 N   0  0  0  0  0  0  0  0  0  0  0  0
   -4.8440    1.2825   -0.3180 C   0  0  0  0  0  0  0  0  0  0  0  0
   -6.1426    1.4961   -0.7629 C   0  0  0  0  0  0  0  0  0  0  0  0
   -7.0824    0.4838   -0.7704 C   0  0  0  0  0  0  0  0  0  0  0  0
   -8.4863    0.7829   -0.8754 C   0  0  0  0  0  0  0  0  0  0  0  0
   -9.6297    0.8882   -1.0302 N   0  0  0  0  0  0  0  0  0  0  0  0
   -6.6073   -0.8135   -0.6886 C   0  0  0  0  0  0  0  0  0  0  0  0
   -5.4103   -0.9971   -0.0334 C   0  0  0  0  0  0  0  0  0  0  0  0
   -4.6217    0.0827    0.3415 C   0  0  0  0  0  0  0  0  0  0  0  0
   -3.3370    0.1911    0.8601 C   0  0  0  0  0  0  0  0  0  0  0  0
   -2.4032   -0.8418    1.3185 C   0  0  0  0  0  0  0  0  0  0  0  0
   -2.9121   -1.8773    1.8185 O   0  0  0  0  0  0  0  0  0  0  0  0
  1  2  1  0
  2  3  1  0
  3  4  2  0
  4  5  1  0
  5  6  2  0
  6  7  1  0
  7  8  2  0
  8  9  1  0
  9 10  1  0
 10 11  1  0
 11 12  1  0
 12 13  1  0
 13 14  1  0
 14 15  1  0
 15 16  1  0
 16 17  1  0
 17 18  1  0
 12 19  1  0
 19 20  1  0
  6 21  1  0
 21 22  1  0
 21 23  1  0
 21 24  1  0
 24 25  1  0
 25 26  1  0
 26 27  2  0
 27 28  1  0
 28 29  1  0
 29 30  3  0
 28 31  2  0
 31 32  1  0
 32 33  2  0
 33 34  1  0
 34 35  1  0
 35 36  2  0
  8  3  1  0
 20  9  1  0
 34 24  2  0
 35  5  1  0
 18 13  1  0
 33 26  1  0
M  END
>  <supplier_code>  (1617) 
DB11363

>  <zinc_id>  (1617) 
ZINC000066166864

>  <catalog_short_name>  (1617) 
dbfda

$$$$

     RDKit          3D

 24 27  0  0  0  0  0  0  0  0999 V2000
    5.0683    1.6859    0.7013 O   0  0  0  0  0  0  0  0  0  0  0  0
    4.6613    1.8205   -0.4929 C   0  0  0  0  0  0  0  0  0  0  0  0
    4.3427    3.1334   -0.8557 O   0  0  0  0  0  0  0  0  0  0  0  0
    3.7929    0.7289   -1.0379 C   0  0  0  0  0  0  0  0  0  0  0  0
    2.5495    0.3870    0.2391 S   0  0  0  0  0  0  0  0  0  0  0  0
    1.9398   -1.2952    0.0751 C   0  0  0  0  0  0  0  0  0  0  0  0
    2.6395   -2.4467    0.1553 N   0  0  0  0  0  0  0  0  0  0  0  0
    1.9228   -3.3575    0.8122 N   0  0  0  0  0  0  0  0  0  0  0  0
    0.6535   -2.9202    0.7712 C   0  0  0  0  0  0  0  0  0  0  0  0
   -0.9597   -3.9309    0.9666 Br  0  0  0  0  0  0  0  0  0  0  0  0
    0.6652   -1.6504    0.3427 N   0  0  0  0  0  0  0  0  0  0  0  0
   -0.4237   -0.7444    0.5558 C   0  0  0  0  0  0  0  0  0  0  0  0
   -0.7275   -0.2534    1.7981 C   0  0  0  0  0  0  0  0  0  0  0  0
   -1.8504    0.5171    1.9795 C   0  0  0  0  0  0  0  0  0  0  0  0
   -2.4820    0.9912    0.8545 C   0  0  0  0  0  0  0  0  0  0  0  0
   -3.4583    2.1240    0.9028 C   0  0  0  0  0  0  0  0  0  0  0  0
   -3.0496    3.2927    0.0452 C   0  0  0  0  0  0  0  0  0  0  0  0
   -2.8018    3.3644    1.5694 C   0  0  0  0  0  0  0  0  0  0  0  0
   -2.1557    0.5270   -0.4053 C   0  0  0  0  0  0  0  0  0  0  0  0
   -2.7967    0.9415   -1.5445 C   0  0  0  0  0  0  0  0  0  0  0  0
   -2.7923    0.1093   -2.6570 C   0  0  0  0  0  0  0  0  0  0  0  0
   -2.2423   -1.1652   -2.5998 C   0  0  0  0  0  0  0  0  0  0  0  0
   -1.2844   -1.3787   -1.6173 C   0  0  0  0  0  0  0  0  0  0  0  0
   -1.2109   -0.4804   -0.5584 C   0  0  0  0  0  0  0  0  0  0  0  0
  1  2  2  0
  2  3  1  0
  2  4  1  0
  4  5  1  0
  5  6  1  0
  6  7  2  0
  7  8  1  0
  8  9  2  0
  9 10  1  0
  9 11  1  0
 11 12  1  0
 12 13  2  0
 13 14  1  0
 14 15  2  0
 15 16  1  0
 16 17  1  0
 17 18  1  0
 15 19  1  0
 19 20  2  0
 20 21  1  0
 21 22  2  0
 22 23  1  0
 23 24  2  0
 11  6  1  0
 24 12  1  0
 18 16  1  0
 24 19  1  0
M  END
>  <supplier_code>  (1618) 
DB11560

>  <zinc_id>  (1618) 
ZINC000084757007

>  <catalog_short_name>  (1618) 
dbfda

$$$$

     RDKit          3D

 20 20  0  0  0  0  0  0  0  0999 V2000
    6.5216   -1.6401    0.3381 C   0  0  0  0  0  0  0  0  0  0  0  0
    5.1784   -1.1181   -0.1138 C   0  0  0  0  0  0  0  0  0  0  0  0
    5.2581    0.3758   -0.0136 C   0  0  0  0  0  0  0  0  0  0  0  0
    4.2387    1.1017   -0.8308 C   0  0  0  0  0  0  0  0  0  0  0  0
    2.8688    0.1752   -0.7423 C   0  0  1  0  0  0  0  0  0  0  0  0
    2.8538    0.2035    0.9122 C   0  0  0  0  0  0  0  0  0  0  0  0
    3.1183    1.6135    1.3169 C   0  0  0  0  0  0  0  0  0  0  0  0
    1.8978    1.5125   -0.8454 C   0  0  0  0  0  0  0  0  0  0  0  0
    0.7271    1.1551   -0.1606 O   0  0  0  0  0  0  0  0  0  0  0  0
    0.1235   -0.0682   -0.4201 C   0  0  0  0  0  0  0  0  0  0  0  0
    0.3547   -0.5897   -1.5528 O   0  0  0  0  0  0  0  0  0  0  0  0
   -1.2496   -0.2220    0.0763 C   0  0  0  0  0  0  0  0  0  0  0  0
   -1.8447   -1.4542    0.1273 C   0  0  0  0  0  0  0  0  0  0  0  0
   -3.2290   -1.5290    0.1807 C   0  0  0  0  0  0  0  0  0  0  0  0
   -3.9521   -0.3818   -0.0136 C   0  0  0  0  0  0  0  0  0  0  0  0
   -5.3813   -0.4212   -0.1040 N   0  0  0  0  0  0  0  0  0  0  0  0
   -6.0092    0.6857   -0.7837 C   0  0  0  0  0  0  0  0  0  0  0  0
   -6.1037   -1.0920    0.9737 C   0  0  0  0  0  0  0  0  0  0  0  0
   -3.3646    0.8326    0.2509 C   0  0  0  0  0  0  0  0  0  0  0  0
   -2.0065    0.8608    0.5057 C   0  0  0  0  0  0  0  0  0  0  0  0
  1  2  1  0
  2  3  1  0
  3  4  1  0
  5  4  1  6
  5  6  1  0
  6  7  1  0
  5  8  1  0
  8  9  1  0
  9 10  1  0
 10 11  2  0
 10 12  1  0
 12 13  2  0
 13 14  1  0
 14 15  2  0
 15 16  1  0
 16 17  1  0
 16 18  1  0
 15 19  1  0
 19 20  2  0
 20 12  1  0
M  END
>  <supplier_code>  (1619) 
DB11570

>  <zinc_id>  (1619) 
ZINC000002016257

>  <catalog_short_name>  (1619) 
dbfda

$$$$

     RDKit          3D

 20 20  0  0  0  0  0  0  0  0999 V2000
    5.1719    2.9422    0.2868 C   0  0  0  0  0  0  0  0  0  0  0  0
    4.2987    1.8426   -0.0829 C   0  0  0  0  0  0  0  0  0  0  0  0
    5.1648    0.6829   -0.5546 C   0  0  0  0  0  0  0  0  0  0  0  0
    4.2768   -0.5179   -0.7269 C   0  0  0  0  0  0  0  0  0  0  0  0
    3.4736   -0.6374    0.7083 C   0  0  2  0  0  0  0  0  0  0  0  0
    4.2644   -2.0306    1.1012 C   0  0  0  0  0  0  0  0  0  0  0  0
    3.2442   -2.8938    1.7898 C   0  0  0  0  0  0  0  0  0  0  0  0
    2.2303   -1.4625    0.0050 C   0  0  0  0  0  0  0  0  0  0  0  0
    1.1026   -0.7597    0.4915 O   0  0  0  0  0  0  0  0  0  0  0  0
   -0.1022   -0.8879   -0.1566 C   0  0  0  0  0  0  0  0  0  0  0  0
   -0.2112   -1.7082   -1.0883 O   0  0  0  0  0  0  0  0  0  0  0  0
   -1.3420   -0.2435    0.2818 C   0  0  0  0  0  0  0  0  0  0  0  0
   -1.6118    0.9911   -0.2960 C   0  0  0  0  0  0  0  0  0  0  0  0
   -2.8993    1.4538   -0.3314 C   0  0  0  0  0  0  0  0  0  0  0  0
   -3.9352    0.6711    0.1344 C   0  0  0  0  0  0  0  0  0  0  0  0
   -5.2664    1.1885    0.1958 N   0  0  0  0  0  0  0  0  0  0  0  0
   -5.3730    2.5858    0.5529 C   0  0  0  0  0  0  0  0  0  0  0  0
   -6.4272    0.3383    0.1756 C   0  0  0  0  0  0  0  0  0  0  0  0
   -3.6800   -0.5450    0.7397 C   0  0  0  0  0  0  0  0  0  0  0  0
   -2.3792   -1.0099    0.7517 C   0  0  0  0  0  0  0  0  0  0  0  0
  1  2  1  0
  2  3  1  0
  3  4  1  0
  5  4  1  6
  5  6  1  0
  6  7  1  0
  5  8  1  0
  8  9  1  0
  9 10  1  0
 10 11  2  0
 10 12  1  0
 12 13  2  0
 13 14  1  0
 14 15  2  0
 15 16  1  0
 16 17  1  0
 16 18  1  0
 15 19  1  0
 19 20  2  0
 20 12  1  0
M  END
>  <supplier_code>  (1620) 
DB11570

>  <zinc_id>  (1620) 
ZINC000002016258

>  <catalog_short_name>  (1620) 
dbfda

$$$$

     RDKit          3D

 65 73  0  0  0  0  0  0  0  0999 V2000
    8.3848    4.2028   -0.1536 C   0  0  0  0  0  0  0  0  0  0  0  0
    9.1868    3.2391    0.4733 O   0  0  0  0  0  0  0  0  0  0  0  0
    9.5038    2.0540   -0.1772 C   0  0  0  0  0  0  0  0  0  0  0  0
    9.3828    2.0949   -1.4394 O   0  0  0  0  0  0  0  0  0  0  0  0
   10.2069    1.0001    0.4730 N   0  0  0  0  0  0  0  0  0  0  0  0
   10.4977   -0.2030   -0.5373 C   0  0  2  0  0  0  0  0  0  0  0  0
    9.8137   -1.3480    0.3995 C   0  0  0  0  0  0  0  0  0  0  0  0
    9.6470   -1.1231    1.5798 O   0  0  0  0  0  0  0  0  0  0  0  0
    9.2231   -2.4122   -0.3087 N   0  0  0  0  0  0  0  0  0  0  0  0
    9.4669   -3.8322   -0.2868 C   0  0  0  0  0  0  0  0  0  0  0  0
    7.9920   -4.1863   -0.4419 C   0  0  0  0  0  0  0  0  0  0  0  0
    7.6437   -3.5408   -1.7009 C   0  0  0  0  0  0  0  0  0  0  0  0
    8.6082   -2.1866   -1.7625 C   0  0  1  0  0  0  0  0  0  0  0  0
    7.4465   -1.1851   -1.2041 C   0  0  0  0  0  0  0  0  0  0  0  0
    6.7055   -1.4843   -0.1605 N   0  0  0  0  0  0  0  0  0  0  0  0
    5.5721   -0.7493   -0.1561 C   0  0  0  0  0  0  0  0  0  0  0  0
    4.3492   -1.3003    0.4358 C   0  0  0  0  0  0  0  0  0  0  0  0
    3.8720   -2.5706    0.1377 C   0  0  0  0  0  0  0  0  0  0  0  0
    2.4988   -2.7397    0.0341 C   0  0  0  0  0  0  0  0  0  0  0  0
    1.7035   -1.8235    0.7112 C   0  0  0  0  0  0  0  0  0  0  0  0
    2.3222   -1.0101    1.6560 C   0  0  0  0  0  0  0  0  0  0  0  0
    1.2498   -0.3712    2.2713 C   0  0  0  0  0  0  0  0  0  0  0  0
    0.1399   -0.5164    1.4438 C   0  0  0  0  0  0  0  0  0  0  0  0
    0.3776   -1.5403    0.6860 N   0  0  0  0  0  0  0  0  0  0  0  0
   -0.4870   -1.7191   -0.6603 C   0  0  2  0  0  0  0  0  0  0  0  0
   -0.5036   -0.1004   -1.0378 C   0  0  0  0  0  0  0  0  0  0  0  0
    0.7827    0.4404   -0.9871 C   0  0  0  0  0  0  0  0  0  0  0  0
    0.8477    1.7228   -1.5237 C   0  0  0  0  0  0  0  0  0  0  0  0
    0.1638    1.8834   -2.7245 C   0  0  0  0  0  0  0  0  0  0  0  0
   -0.4590    0.7787   -3.3017 C   0  0  0  0  0  0  0  0  0  0  0  0
   -1.0183   -0.0578   -2.3358 C   0  0  0  0  0  0  0  0  0  0  0  0
   -1.8684   -1.6915    0.0930 O   0  0  0  0  0  0  0  0  0  0  0  0
   -2.1936   -0.5856    0.7782 C   0  0  0  0  0  0  0  0  0  0  0  0
   -3.4746   -0.1038    1.0362 C   0  0  0  0  0  0  0  0  0  0  0  0
   -3.5085    1.2734    1.2472 C   0  0  0  0  0  0  0  0  0  0  0  0
   -4.5283    2.1699    0.7757 C   0  0  0  0  0  0  0  0  0  0  0  0
   -4.9475    3.2902    1.4886 C   0  0  0  0  0  0  0  0  0  0  0  0
   -6.2197    3.5696    1.1133 N   0  0  0  0  0  0  0  0  0  0  0  0
   -6.6011    2.4377    0.4794 C   0  0  0  0  0  0  0  0  0  0  0  0
   -8.0878    2.3983   -0.1786 C   0  0  2  0  0  0  0  0  0  0  0  0
   -8.7656    1.8803    1.2539 C   0  0  0  0  0  0  0  0  0  0  0  0
   -7.7886    0.8180    1.6444 C   0  0  0  0  0  0  0  0  0  0  0  0
   -7.3181    0.1981    0.3544 C   0  0  0  0  0  0  0  0  0  0  0  0
   -7.9675    0.8957   -0.7114 N   0  0  0  0  0  0  0  0  0  0  0  0
   -9.2474    0.5101   -1.2523 C   0  0  0  0  0  0  0  0  0  0  0  0
   -9.4498    0.1514   -2.4110 O   0  0  0  0  0  0  0  0  0  0  0  0
  -10.2369   -0.1304   -0.1204 C   0  0  1  0  0  0  0  0  0  0  0  0
  -11.5527    0.0637   -1.0077 N   0  0  0  0  0  0  0  0  0  0  0  0
  -12.3142    1.1180   -0.3980 C   0  0  0  0  0  0  0  0  0  0  0  0
  -12.5115    1.1309    0.8566 O   0  0  0  0  0  0  0  0  0  0  0  0
  -13.1785    1.8325   -1.2362 O   0  0  0  0  0  0  0  0  0  0  0  0
  -13.8961    2.8993   -0.6155 C   0  0  0  0  0  0  0  0  0  0  0  0
   -9.9145   -1.6834   -0.6183 C   0  0  0  0  0  0  0  0  0  0  0  0
  -10.0310   -2.5099    0.6529 C   0  0  0  0  0  0  0  0  0  0  0  0
  -10.7927   -2.0611   -1.7077 C   0  0  0  0  0  0  0  0  0  0  0  0
   -5.5076    2.0174   -0.1509 N   0  0  0  0  0  0  0  0  0  0  0  0
   -2.6925    1.6772    2.2973 C   0  0  0  0  0  0  0  0  0  0  0  0
   -1.4692    1.0264    2.4056 C   0  0  0  0  0  0  0  0  0  0  0  0
   -1.2083   -0.0589    1.5801 C   0  0  0  0  0  0  0  0  0  0  0  0
    3.6461   -0.6389    1.4348 C   0  0  0  0  0  0  0  0  0  0  0  0
    5.5764   -0.1411   -1.4055 C   0  0  0  0  0  0  0  0  0  0  0  0
    6.7020   -0.4907   -2.0817 N   0  0  0  0  0  0  0  0  0  0  0  0
   12.0172   -0.4921    0.0743 C   0  0  0  0  0  0  0  0  0  0  0  0
   11.9942   -0.2096    1.5242 C   0  0  0  0  0  0  0  0  0  0  0  0
   12.2156   -1.9768   -0.2092 C   0  0  0  0  0  0  0  0  0  0  0  0
  1  2  1  0
  2  3  1  0
  3  4  2  0
  3  5  1  0
  6  5  1  1
  6  7  1  0
  7  8  2  0
  7  9  1  0
  9 10  1  0
 10 11  1  0
 11 12  1  0
 12 13  1  0
 13 14  1  1
 14 15  2  0
 15 16  1  0
 16 17  1  0
 17 18  2  0
 18 19  1  0
 19 20  2  0
 20 21  1  0
 21 22  1  0
 22 23  2  0
 23 24  1  0
 24 25  1  0
 25 26  1  6
 26 27  2  0
 27 28  1  0
 28 29  2  0
 29 30  1  0
 30 31  2  0
 25 32  1  0
 32 33  1  0
 33 34  2  0
 34 35  1  0
 35 36  1  0
 36 37  2  0
 37 38  1  0
 38 39  1  0
 40 39  1  1
 40 41  1  0
 41 42  1  0
 42 43  1  0
 43 44  1  0
 44 45  1  0
 45 46  2  0
 47 45  1  6
 47 48  1  0
 48 49  1  0
 49 50  2  0
 49 51  1  0
 51 52  1  0
 47 53  1  0
 53 54  1  0
 53 55  1  0
 39 56  2  0
 35 57  2  0
 57 58  1  0
 58 59  2  0
 21 60  2  0
 16 61  2  0
 61 62  1  0
  6 63  1  0
 63 64  1  0
 63 65  1  0
 13  9  1  0
 62 14  1  0
 60 17  1  0
 24 20  1  0
 31 26  1  0
 59 33  1  0
 59 23  1  0
 56 36  1  0
 44 40  1  0
M  END
>  <supplier_code>  (1621) 
DB11574

>  <zinc_id>  (1621) 
ZINC000150588351

>  <catalog_short_name>  (1621) 
dbfda

$$$$

     RDKit          3D

 54 60  0  0  0  0  0  0  0  0999 V2000
   -6.8225    1.2620    2.2976 C   0  0  0  0  0  0  0  0  0  0  0  0
   -6.4186    0.8819    1.5955 C   0  0  0  0  0  0  0  0  0  0  0  0
   -4.9572    0.1481    1.7554 C   0  0  2  0  0  0  0  0  0  0  0  0
   -4.2325    1.4893    2.3989 C   0  0  0  0  0  0  0  0  0  0  0  0
   -4.0868    1.1458    0.7789 C   0  0  1  0  0  0  0  0  0  0  0  0
   -2.7042    0.8946    0.7088 N   0  0  0  0  0  0  0  0  0  0  0  0
   -1.9304   -0.1881    0.2740 C   0  0  0  0  0  0  0  0  0  0  0  0
   -2.6433   -1.1355   -0.1799 O   0  0  0  0  0  0  0  0  0  0  0  0
   -0.9410   -0.6666    1.4742 C   0  0  2  0  0  0  0  0  0  0  0  0
    0.0201    0.6305    1.3290 C   0  0  0  0  0  0  0  0  0  0  0  0
    0.6096    0.5347   -0.1794 C   0  0  2  0  0  0  0  0  0  0  0  0
    0.0870   -0.9709   -0.5239 C   0  0  0  0  0  0  0  0  0  0  0  0
   -0.0110   -1.6238    0.6445 N   0  0  0  0  0  0  0  0  0  0  0  0
   -0.2612   -3.0365    0.5891 C   0  0  0  0  0  0  0  0  0  0  0  0
   -0.7818   -3.5763    1.5691 O   0  0  0  0  0  0  0  0  0  0  0  0
    0.9143   -3.7917   -0.2117 C   0  0  2  0  0  0  0  0  0  0  0  0
   -0.0853   -4.3975   -1.3632 C   0  0  0  0  0  0  0  0  0  0  0  0
   -1.3546   -4.7971   -0.7346 C   0  0  0  0  0  0  0  0  0  0  0  0
   -0.1330   -3.4679   -2.5007 C   0  0  0  0  0  0  0  0  0  0  0  0
    0.6045   -5.6669   -1.8575 C   0  0  0  0  0  0  0  0  0  0  0  0
    0.8162   -5.1351    0.6085 N   0  0  0  0  0  0  0  0  0  0  0  0
    1.8029   -5.2026    1.6254 C   0  0  0  0  0  0  0  0  0  0  0  0
    1.5262   -5.6734    2.7516 O   0  0  0  0  0  0  0  0  0  0  0  0
    3.1009   -5.1491    1.1552 O   0  0  0  0  0  0  0  0  0  0  0  0
    3.3742   -3.9453    0.2173 C   0  0  2  0  0  0  0  0  0  0  0  0
    4.9197   -4.5539   -0.2158 C   0  0  0  0  0  0  0  0  0  0  0  0
    4.7556   -3.4975    1.1254 C   0  0  1  0  0  0  0  0  0  0  0  0
    5.0777   -2.1306    0.2872 C   0  0  0  0  0  0  0  0  0  0  0  0
    4.4008   -2.1305   -1.0119 C   0  0  0  0  0  0  0  0  0  0  0  0
    4.2708   -0.7505   -1.5258 C   0  0  0  0  0  0  0  0  0  0  0  0
    3.2127   -0.5286   -2.5634 C   0  0  0  0  0  0  0  0  0  0  0  0
    2.1971    0.5373   -2.1335 C   0  0  0  0  0  0  0  0  0  0  0  0
    2.9670    1.4318   -1.2463 C   0  0  0  0  0  0  0  0  0  0  0  0
    3.6848    2.4846   -1.7116 N   0  0  0  0  0  0  0  0  0  0  0  0
    3.9435    3.4013   -0.7443 C   0  0  0  0  0  0  0  0  0  0  0  0
    4.1967    4.7317   -1.0405 C   0  0  0  0  0  0  0  0  0  0  0  0
    5.0942    5.3981   -0.2148 C   0  0  0  0  0  0  0  0  0  0  0  0
    5.8560    4.7280    0.7360 C   0  0  0  0  0  0  0  0  0  0  0  0
    7.2165    5.0087    0.9046 O   0  0  0  0  0  0  0  0  0  0  0  0
    7.6915    6.2355    0.3995 C   0  0  0  0  0  0  0  0  0  0  0  0
    5.2810    3.5622    1.2326 C   0  0  0  0  0  0  0  0  0  0  0  0
    4.3610    2.8757    0.4753 C   0  0  0  0  0  0  0  0  0  0  0  0
    3.6914    1.7841    0.9334 N   0  0  0  0  0  0  0  0  0  0  0  0
    2.8795    1.1386    0.1091 C   0  0  0  0  0  0  0  0  0  0  0  0
    1.9803    0.1133    0.4209 O   0  0  0  0  0  0  0  0  0  0  0  0
   -4.8043    2.0996   -0.0374 C   0  0  0  0  0  0  0  0  0  0  0  0
   -4.8541    3.4258    0.4148 O   0  0  0  0  0  0  0  0  0  0  0  0
   -5.8039    1.7945   -0.8147 N   0  0  0  0  0  0  0  0  0  0  0  0
   -7.0973    2.8271   -1.2063 S   0  0  0  0  0  0  0  0  0  0  0  0
   -7.2585    3.9917   -0.2936 O   0  0  0  0  0  0  0  0  0  0  0  0
   -6.8492    3.3850   -2.5911 O   0  0  0  0  0  0  0  0  0  0  0  0
   -8.6594    1.9665   -1.3401 C   0  0  0  0  0  0  0  0  0  0  0  0
   -9.2715    1.5792   -0.0099 C   0  0  0  0  0  0  0  0  0  0  0  0
   -8.5721    0.5289   -0.7998 C   0  0  0  0  0  0  0  0  0  0  0  0
  1  2  2  0
  3  2  1  6
  3  4  1  0
  4  5  1  0
  5  6  1  6
  6  7  1  0
  7  8  2  0
  9  7  1  6
  9 10  1  0
 11 10  1  1
 11 12  1  0
 12 13  1  0
 13 14  1  0
 14 15  2  0
 14 16  1  0
 16 17  1  6
 17 18  1  0
 17 19  1  0
 17 20  1  0
 16 21  1  0
 21 22  1  0
 22 23  2  0
 22 24  1  0
 25 24  1  1
 25 26  1  0
 27 26  1  6
 27 28  1  0
 28 29  1  0
 29 30  1  0
 30 31  1  0
 31 32  1  0
 32 33  1  0
 33 34  2  0
 34 35  1  0
 35 36  2  0
 36 37  1  0
 37 38  2  0
 38 39  1  0
 39 40  1  0
 38 41  1  0
 41 42  2  0
 42 43  1  0
 43 44  2  0
 44 45  1  0
  5 46  1  0
 46 47  1  0
 46 48  2  0
 48 49  1  0
 49 50  2  0
 49 51  2  0
 49 52  1  0
 52 53  1  0
 53 54  1  0
  5  3  1  0
 13  9  1  0
 27 25  1  0
 44 33  1  0
 54 52  1  0
 45 11  1  0
 42 35  1  0
M  END
>  <supplier_code>  (1622) 
DB11575

>  <zinc_id>  (1622) 
ZINC000095551509

>  <catalog_short_name>  (1622) 
dbfda

$$$$

     RDKit          3D

 61 68  0  0  0  0  0  0  0  0999 V2000
   10.6992   -4.1325   -0.5924 C   0  0  0  0  0  0  0  0  0  0  0  0
    9.3217   -3.8935   -1.1640 C   0  0  0  0  0  0  0  0  0  0  0  0
    9.1174   -4.8834   -2.2997 C   0  0  0  0  0  0  0  0  0  0  0  0
    8.3050   -4.2200   -0.1054 C   0  0  0  0  0  0  0  0  0  0  0  0
    6.9588   -3.7178   -0.5642 C   0  0  0  0  0  0  0  0  0  0  0  0
    7.0408   -2.2240   -0.5811 C   0  0  0  0  0  0  0  0  0  0  0  0
    6.3460   -1.5122    0.5208 C   0  0  0  0  0  0  0  0  0  0  0  0
    5.3873   -0.5579    0.0229 N   0  0  0  0  0  0  0  0  0  0  0  0
    4.3839   -0.2736    1.0121 C   0  0  0  0  0  0  0  0  0  0  0  0
    3.3343   -1.3686    1.1151 C   0  0  0  0  0  0  0  0  0  0  0  0
    2.8187   -1.5453   -0.2410 N   0  0  0  0  0  0  0  0  0  0  0  0
    1.9473   -0.5075   -0.7066 C   0  0  0  0  0  0  0  0  0  0  0  0
    1.4293   -0.5401   -1.9960 C   0  0  0  0  0  0  0  0  0  0  0  0
    0.1095   -0.1759   -2.2335 C   0  0  0  0  0  0  0  0  0  0  0  0
   -0.6921    0.3202   -1.2122 C   0  0  0  0  0  0  0  0  0  0  0  0
   -2.1157   -0.0402   -1.1687 C   0  0  0  0  0  0  0  0  0  0  0  0
   -2.7515    0.1773   -2.2447 O   0  0  0  0  0  0  0  0  0  0  0  0
   -2.4474   -1.2713   -0.5155 N   0  0  0  0  0  0  0  0  0  0  0  0
   -3.9129   -2.1187   -0.8033 S   0  0  0  0  0  0  0  0  0  0  0  0
   -4.1775   -2.9984    0.3859 O   0  0  0  0  0  0  0  0  0  0  0  0
   -3.8374   -2.9797   -2.0198 O   0  0  0  0  0  0  0  0  0  0  0  0
   -5.2022   -0.9545   -0.8845 C   0  0  0  0  0  0  0  0  0  0  0  0
   -6.0085   -0.7733   -1.9790 C   0  0  0  0  0  0  0  0  0  0  0  0
   -7.1642   -0.0322   -1.7835 C   0  0  0  0  0  0  0  0  0  0  0  0
   -7.3751    0.7267   -0.6484 C   0  0  0  0  0  0  0  0  0  0  0  0
   -8.7220    1.0539   -0.2894 N   0  0  0  0  0  0  0  0  0  0  0  0
   -9.7900    0.0783   -0.4763 C   0  0  0  0  0  0  0  0  0  0  0  0
   -9.2404   -1.3278   -0.4118 C   0  0  0  0  0  0  0  0  0  0  0  0
   -9.4946   -1.9859    0.9149 C   0  0  0  0  0  0  0  0  0  0  0  0
  -10.8658   -2.5954    1.0244 C   0  0  0  0  0  0  0  0  0  0  0  0
  -11.5348   -2.6520   -0.1865 O   0  0  0  0  0  0  0  0  0  0  0  0
  -10.7244   -3.1947   -1.1855 C   0  0  0  0  0  0  0  0  0  0  0  0
   -9.7122   -2.1423   -1.5837 C   0  0  0  0  0  0  0  0  0  0  0  0
   -6.3487    0.7986    0.2841 C   0  0  0  0  0  0  0  0  0  0  0  0
   -6.5317    1.6276    1.4371 N   0  0  0  0  0  0  0  0  0  0  0  0
   -5.5880    1.6655    2.2654 O   0  0  0  0  0  0  0  0  0  0  0  0
   -7.7972    1.8214    1.9584 O   0  0  0  0  0  0  0  0  0  0  0  0
   -5.2368    0.0216    0.1019 C   0  0  0  0  0  0  0  0  0  0  0  0
   -0.0094    0.7462   -0.0794 C   0  0  0  0  0  0  0  0  0  0  0  0
   -0.8108    1.2824    0.9333 O   0  0  0  0  0  0  0  0  0  0  0  0
   -0.7988    2.6180    1.2783 C   0  0  0  0  0  0  0  0  0  0  0  0
   -1.9076    3.0962    1.9650 C   0  0  0  0  0  0  0  0  0  0  0  0
   -2.1182    4.4081    2.1033 N   0  0  0  0  0  0  0  0  0  0  0  0
   -1.3098    5.3063    1.5078 C   0  0  0  0  0  0  0  0  0  0  0  0
   -1.4439    6.6293    1.2536 N   0  0  0  0  0  0  0  0  0  0  0  0
   -0.2602    7.1296    0.8480 C   0  0  0  0  0  0  0  0  0  0  0  0
    0.5647    6.0347    0.6348 C   0  0  0  0  0  0  0  0  0  0  0  0
   -0.0977    4.8687    0.9981 C   0  0  0  0  0  0  0  0  0  0  0  0
    0.1353    3.5184    0.7873 C   0  0  0  0  0  0  0  0  0  0  0  0
    1.3022    0.3590    0.1669 C   0  0  0  0  0  0  0  0  0  0  0  0
    3.8130   -1.9935   -1.2139 C   0  0  0  0  0  0  0  0  0  0  0  0
    4.8589   -0.8916   -1.2717 C   0  0  0  0  0  0  0  0  0  0  0  0
    8.1821   -1.6837   -1.0100 C   0  0  0  0  0  0  0  0  0  0  0  0
    8.6712   -0.4177   -0.4490 C   0  0  0  0  0  0  0  0  0  0  0  0
    9.3174   -0.4446    0.7653 C   0  0  0  0  0  0  0  0  0  0  0  0
    9.3283    0.6848    1.5743 C   0  0  0  0  0  0  0  0  0  0  0  0
    8.5495    1.7788    1.2172 C   0  0  0  0  0  0  0  0  0  0  0  0
    8.2664    3.0813    2.3517 Cl  0  0  0  0  0  0  0  0  0  0  0  0
    8.3233    1.9236   -0.1456 C   0  0  0  0  0  0  0  0  0  0  0  0
    8.3543    0.8078   -0.9721 C   0  0  0  0  0  0  0  0  0  0  0  0
    9.1617   -2.5145   -1.7401 C   0  0  0  0  0  0  0  0  0  0  0  0
  1  2  1  0
  2  3  1  0
  2  4  1  0
  4  5  1  0
  5  6  1  0
  6  7  1  0
  7  8  1  0
  8  9  1  0
  9 10  1  0
 10 11  1  0
 11 12  1  0
 12 13  2  0
 13 14  1  0
 14 15  2  0
 15 16  1  0
 16 17  2  0
 16 18  1  0
 18 19  1  0
 19 20  2  0
 19 21  2  0
 19 22  1  0
 22 23  2  0
 23 24  1  0
 24 25  2  0
 25 26  1  0
 26 27  1  0
 27 28  1  0
 28 29  1  0
 29 30  1  0
 30 31  1  0
 31 32  1  0
 32 33  1  0
 25 34  1  0
 34 35  1  0
 35 36  2  0
 35 37  1  0
 34 38  2  0
 15 39  1  0
 39 40  1  0
 40 41  1  0
 41 42  2  0
 42 43  1  0
 43 44  2  0
 44 45  1  0
 45 46  1  0
 46 47  2  0
 47 48  1  0
 48 49  2  0
 39 50  2  0
 11 51  1  0
 51 52  1  0
  6 53  2  0
 53 54  1  0
 54 55  2  0
 55 56  1  0
 56 57  2  0
 57 58  1  0
 57 59  1  0
 59 60  2  0
 53 61  1  0
 61  2  1  0
 52  8  1  0
 60 54  1  0
 50 12  1  0
 38 22  1  0
 49 41  1  0
 33 28  1  0
 48 44  1  0
M  CHG  2  35   1  37  -1
M  END
>  <supplier_code>  (1623) 
DB11581

>  <zinc_id>  (1623) 
ZINC000150338755

>  <catalog_short_name>  (1623) 
dbfda

$$$$

     RDKit          3D

 34 36  0  0  0  0  0  0  0  0999 V2000
   -7.8812   -2.6604   -0.2565 N   0  0  0  0  0  0  0  0  0  0  0  0
   -7.1866   -1.6407   -0.5394 C   0  0  0  0  0  0  0  0  0  0  0  0
   -5.9093   -1.7201   -0.9909 N   0  0  0  0  0  0  0  0  0  0  0  0
   -5.0407   -0.6924   -0.8818 C   0  0  0  0  0  0  0  0  0  0  0  0
   -5.5043    0.5629   -0.5569 C   0  0  0  0  0  0  0  0  0  0  0  0
   -6.8534    0.6695   -0.2405 C   0  0  0  0  0  0  0  0  0  0  0  0
   -7.3091    1.7574    0.2272 O   0  0  0  0  0  0  0  0  0  0  0  0
   -7.5862   -0.4513   -0.0261 N   0  0  0  0  0  0  0  0  0  0  0  0
   -4.6740    1.6177   -0.0974 N   0  0  0  0  0  0  0  0  0  0  0  0
   -5.1689    2.9389   -0.3316 C   0  0  0  0  0  0  0  0  0  0  0  0
   -4.4383    3.9401   -0.1071 O   0  0  0  0  0  0  0  0  0  0  0  0
   -3.1639    1.5318   -0.6121 C   0  0  1  0  0  0  0  0  0  0  0  0
   -2.6225    2.3283    0.7513 C   0  0  0  0  0  0  0  0  0  0  0  0
   -1.1942    2.2478    0.6815 N   0  0  0  0  0  0  0  0  0  0  0  0
   -0.4518    1.0384    0.5664 C   0  0  0  0  0  0  0  0  0  0  0  0
    0.3801    0.9353   -0.5348 C   0  0  0  0  0  0  0  0  0  0  0  0
    1.6501    0.3749   -0.4601 C   0  0  0  0  0  0  0  0  0  0  0  0
    2.0729   -0.2084    0.7301 C   0  0  0  0  0  0  0  0  0  0  0  0
    3.4834   -0.1738    1.1363 C   0  0  0  0  0  0  0  0  0  0  0  0
    3.9566    0.7486    1.8360 O   0  0  0  0  0  0  0  0  0  0  0  0
    4.3536   -1.1731    0.6356 N   0  0  0  0  0  0  0  0  0  0  0  0
    5.7923   -0.5322    0.3213 C   0  0  1  0  0  0  0  0  0  0  0  0
    6.5842   -1.8399    1.0100 C   0  0  0  0  0  0  0  0  0  0  0  0
    7.8084   -1.1090    1.5520 C   0  0  0  0  0  0  0  0  0  0  0  0
    8.8246   -1.1281    0.4646 C   0  0  0  0  0  0  0  0  0  0  0  0
    9.0143   -2.2271   -0.1117 O   0  0  0  0  0  0  0  0  0  0  0  0
    9.2313    0.0100   -0.2203 O   0  0  0  0  0  0  0  0  0  0  0  0
    5.8387   -1.1995   -1.1776 C   0  0  0  0  0  0  0  0  0  0  0  0
    6.0638   -0.3748   -2.0807 O   0  0  0  0  0  0  0  0  0  0  0  0
    5.5030   -2.4987   -1.2782 O   0  0  0  0  0  0  0  0  0  0  0  0
    1.0640   -0.5223    1.6199 C   0  0  0  0  0  0  0  0  0  0  0  0
   -0.0674    0.2836    1.6673 C   0  0  0  0  0  0  0  0  0  0  0  0
   -2.9439    0.0471    0.1176 C   0  0  0  0  0  0  0  0  0  0  0  0
   -3.6258   -0.8808   -0.7577 N   0  0  0  0  0  0  0  0  0  0  0  0
  1  2  1  0
  2  3  2  0
  3  4  1  0
  4  5  2  0
  5  6  1  0
  6  7  2  0
  6  8  1  0
  5  9  1  0
  9 10  1  0
 10 11  2  0
  9 12  1  0
 12 13  1  1
 13 14  1  0
 14 15  1  0
 15 16  2  0
 16 17  1  0
 17 18  2  0
 18 19  1  0
 19 20  2  0
 19 21  1  0
 22 21  1  1
 22 23  1  0
 23 24  1  0
 24 25  1  0
 25 26  2  0
 25 27  1  0
 22 28  1  0
 28 29  2  0
 28 30  1  0
 18 31  1  0
 31 32  2  0
 12 33  1  0
 33 34  1  0
  8  2  1  0
 32 15  1  0
 34  4  1  0
M  END
>  <supplier_code>  (1624) 
DB11596

>  <zinc_id>  (1624) 
ZINC000009212427

>  <catalog_short_name>  (1624) 
dbfda

$$$$

     RDKit          3D

 55 56  0  0  0  0  0  0  0  0999 V2000
    3.9478   -3.2615   -1.7279 C   0  0  0  0  0  0  0  0  0  0  0  0
    4.4556   -2.8314   -0.2216 C   0  0  2  0  0  0  0  0  0  0  0  0
    5.4812   -3.9457   -0.1883 O   0  0  0  0  0  0  0  0  0  0  0  0
    3.3149   -3.7765    0.4980 C   0  0  0  0  0  0  0  0  0  0  0  0
    2.1013   -3.2998    0.0262 O   0  0  0  0  0  0  0  0  0  0  0  0
    1.5392   -2.3149    0.8857 C   0  0  0  0  0  0  0  0  0  0  0  0
    2.4945   -1.0345    0.5237 C   0  0  2  0  0  0  0  0  0  0  0  0
    1.9438   -0.2155    1.6477 O   0  0  0  0  0  0  0  0  0  0  0  0
    2.3447    1.2085    1.2920 C   0  0  1  0  0  0  0  0  0  0  0  0
    3.4285    1.2035    2.3702 O   0  0  0  0  0  0  0  0  0  0  0  0
    4.0162   -0.0229    2.3673 C   0  0  0  0  0  0  0  0  0  0  0  0
    5.5951    0.1467    2.7498 C   0  0  2  0  0  0  0  0  0  0  0  0
    6.1078   -0.7417    1.4565 C   0  0  0  0  0  0  0  0  0  0  0  0
    5.5466   -1.0997    3.6195 O   0  0  0  0  0  0  0  0  0  0  0  0
    3.5490    0.7818    0.1545 C   0  0  2  0  0  0  0  0  0  0  0  0
    3.9389    2.1945   -0.1521 O   0  0  0  0  0  0  0  0  0  0  0  0
    3.4843    3.0405    0.7746 C   0  0  0  0  0  0  0  0  0  0  0  0
    2.8881    4.4162    0.1217 C   0  0  2  0  0  0  0  0  0  0  0  0
    4.1203    4.5244   -0.9699 C   0  0  0  0  0  0  0  0  0  0  0  0
    3.6325    5.2912    1.1223 O   0  0  0  0  0  0  0  0  0  0  0  0
    2.5801    0.6833   -1.2405 C   0  0  2  0  0  0  0  0  0  0  0  0
    1.7515    1.9140   -1.0424 O   0  0  0  0  0  0  0  0  0  0  0  0
    1.2842    2.0556   -2.3368 C   0  0  0  0  0  0  0  0  0  0  0  0
    2.4947    2.5554   -3.3219 C   0  0  2  0  0  0  0  0  0  0  0  0
    1.4973    2.4829   -4.6403 C   0  0  0  0  0  0  0  0  0  0  0  0
    3.0014    1.1518   -3.6062 O   0  0  0  0  0  0  0  0  0  0  0  0
    1.4515   -0.4866   -0.7156 C   0  0  2  0  0  0  0  0  0  0  0  0
    0.5006    0.3584    0.0836 O   0  0  0  0  0  0  0  0  0  0  0  0
   -0.5046   -0.8144    0.0581 C   0  0  1  0  0  0  0  0  0  0  0  0
   -1.1407   -0.6705    1.3760 O   0  0  0  0  0  0  0  0  0  0  0  0
   -2.1907    0.2560    1.7521 C   0  0  1  0  0  0  0  0  0  0  0  0
   -1.8012    1.5975    0.8560 C   0  0  0  0  0  0  0  0  0  0  0  0
   -2.8093    2.4340    1.3795 O   0  0  0  0  0  0  0  0  0  0  0  0
   -2.7007    2.4925    2.7234 C   0  0  0  0  0  0  0  0  0  0  0  0
   -4.1805    2.6609    3.4225 C   0  0  2  0  0  0  0  0  0  0  0  0
   -5.0249    3.0359    2.0476 C   0  0  0  0  0  0  0  0  0  0  0  0
   -3.9325    4.1420    3.7026 O   0  0  0  0  0  0  0  0  0  0  0  0
   -3.5034   -0.1741    0.7316 C   0  0  2  0  0  0  0  0  0  0  0  0
   -3.8678   -1.3225    1.6242 O   0  0  0  0  0  0  0  0  0  0  0  0
   -5.2518   -1.5742    1.4071 C   0  0  0  0  0  0  0  0  0  0  0  0
   -6.0025   -0.6371    2.5423 C   0  0  2  0  0  0  0  0  0  0  0  0
   -7.4841   -0.8451    1.8293 C   0  0  0  0  0  0  0  0  0  0  0  0
   -5.7238    0.6469    1.7799 O   0  0  0  0  0  0  0  0  0  0  0  0
   -2.7679   -1.1470   -0.4368 C   0  0  1  0  0  0  0  0  0  0  0  0
   -3.8148   -0.5668   -1.3365 O   0  0  0  0  0  0  0  0  0  0  0  0
   -3.9962   -0.9690   -2.5075 C   0  0  0  0  0  0  0  0  0  0  0  0
   -5.4600   -1.6903   -2.7349 C   0  0  2  0  0  0  0  0  0  0  0  0
   -5.0071   -3.0527   -1.9135 C   0  0  0  0  0  0  0  0  0  0  0  0
   -5.0240   -2.3280   -4.0514 O   0  0  0  0  0  0  0  0  0  0  0  0
   -1.6566    0.0621   -0.8752 C   0  0  2  0  0  0  0  0  0  0  0  0
   -1.1283   -0.6016   -2.0949 O   0  0  0  0  0  0  0  0  0  0  0  0
   -1.4496   -1.9346   -2.0443 C   0  0  0  0  0  0  0  0  0  0  0  0
   -0.5406   -2.6551   -3.1971 C   0  0  2  0  0  0  0  0  0  0  0  0
   -1.7060   -3.8238   -3.4139 C   0  0  0  0  0  0  0  0  0  0  0  0
    0.1781   -3.4990   -2.1557 O   0  0  0  0  0  0  0  0  0  0  0  0
  2  1  1  6
  2  3  1  0
  2  4  1  0
  4  5  1  0
  5  6  1  0
  7  6  1  1
  7  8  1  0
  8  9  1  0
  9 10  1  1
 10 11  1  0
 12 11  1  6
 12 13  1  0
 12 14  1  0
  9 15  1  0
 15 16  1  6
 16 17  1  0
 18 17  1  1
 18 19  1  0
 18 20  1  0
 15 21  1  0
 21 22  1  1
 22 23  1  0
 24 23  1  1
 24 25  1  0
 24 26  1  0
 21 27  1  0
 27 28  1  1
 29 28  1  1
 29 30  1  0
 30 31  1  0
 31 32  1  6
 32 33  1  0
 33 34  1  0
 35 34  1  6
 35 36  1  0
 35 37  1  0
 31 38  1  0
 38 39  1  1
 39 40  1  0
 41 40  1  6
 41 42  1  0
 41 43  1  0
 38 44  1  0
 44 45  1  6
 45 46  1  0
 47 46  1  1
 47 48  1  0
 47 49  1  0
 44 50  1  0
 50 51  1  6
 51 52  1  0
 53 52  1  1
 53 54  1  0
 53 55  1  0
 27  7  1  0
 50 29  1  0
M  END
>  <supplier_code>  (1625) 
DB11602

>  <zinc_id>  (1625) 
ZINC000256097213

>  <catalog_short_name>  (1625) 
dbfda

$$$$

     RDKit          3D

 55 56  0  0  0  0  0  0  0  0999 V2000
   -3.3531   -3.2813    3.5601 C   0  0  0  0  0  0  0  0  0  0  0  0
   -3.4758   -1.7899    2.9628 C   0  0  1  0  0  0  0  0  0  0  0  0
   -2.9862   -1.2162    4.2873 O   0  0  0  0  0  0  0  0  0  0  0  0
   -1.9361   -1.9715    2.3879 C   0  0  0  0  0  0  0  0  0  0  0  0
   -2.0191   -2.2223    1.0085 O   0  0  0  0  0  0  0  0  0  0  0  0
   -2.0145   -1.2758    0.2553 C   0  0  0  0  0  0  0  0  0  0  0  0
   -1.7577   -1.0113   -1.3026 C   0  0  2  0  0  0  0  0  0  0  0  0
   -0.8535    0.1911   -1.4097 O   0  0  0  0  0  0  0  0  0  0  0  0
   -1.1156    1.3173   -0.4549 C   0  0  2  0  0  0  0  0  0  0  0  0
    0.1553    1.0044    0.3188 O   0  0  0  0  0  0  0  0  0  0  0  0
    0.4903   -0.4136    0.0133 C   0  0  1  0  0  0  0  0  0  0  0  0
    1.4631   -0.2179   -1.3929 C   0  0  1  0  0  0  0  0  0  0  0  0
    2.1364    1.0518   -1.0190 O   0  0  0  0  0  0  0  0  0  0  0  0
    2.3785    1.5867   -2.3094 C   0  0  0  0  0  0  0  0  0  0  0  0
    2.4603    3.2203   -2.0900 C   0  0  2  0  0  0  0  0  0  0  0  0
    3.6584    3.3255   -3.2230 C   0  0  0  0  0  0  0  0  0  0  0  0
    3.4733    3.1083   -0.9610 O   0  0  0  0  0  0  0  0  0  0  0  0
    2.5406   -1.3970   -0.7794 C   0  0  1  0  0  0  0  0  0  0  0  0
    3.2628   -1.4502   -2.0945 O   0  0  0  0  0  0  0  0  0  0  0  0
    2.9151   -2.6598   -2.6402 C   0  0  0  0  0  0  0  0  0  0  0  0
    4.4245   -3.1817   -3.0618 C   0  0  2  0  0  0  0  0  0  0  0  0
    3.8333   -4.1975   -4.2213 C   0  0  0  0  0  0  0  0  0  0  0  0
    4.3885   -4.2833   -2.0149 O   0  0  0  0  0  0  0  0  0  0  0  0
    3.7156   -0.3394   -0.0866 C   0  0  2  0  0  0  0  0  0  0  0  0
    3.9364   -1.3414    1.0547 O   0  0  0  0  0  0  0  0  0  0  0  0
    5.2911   -1.3969    1.0461 C   0  0  0  0  0  0  0  0  0  0  0  0
    5.7224   -0.1292    2.0119 C   0  0  2  0  0  0  0  0  0  0  0  0
    7.2236   -0.0646    1.3271 C   0  0  0  0  0  0  0  0  0  0  0  0
    6.2104   -1.0762    3.0978 O   0  0  0  0  0  0  0  0  0  0  0  0
    2.6897    0.4642    0.7064 O   0  0  0  0  0  0  0  0  0  0  0  0
    1.7424   -0.5834    1.1832 C   0  0  1  0  0  0  0  0  0  0  0  0
    1.0457    0.4362    2.2917 C   0  0  0  0  0  0  0  0  0  0  0  0
    1.7794    1.5602    2.4108 O   0  0  0  0  0  0  0  0  0  0  0  0
    1.4177    2.8100    2.1767 C   0  0  0  0  0  0  0  0  0  0  0  0
    2.1761    3.5987    3.4171 C   0  0  2  0  0  0  0  0  0  0  0  0
    2.1758    5.0071    2.5579 C   0  0  0  0  0  0  0  0  0  0  0  0
    3.5550    3.2243    2.8941 O   0  0  0  0  0  0  0  0  0  0  0  0
   -2.2574    0.4802    0.4932 C   0  0  1  0  0  0  0  0  0  0  0  0
   -2.5737    1.5071    1.5240 O   0  0  0  0  0  0  0  0  0  0  0  0
   -3.4690    0.8538    2.3834 C   0  0  0  0  0  0  0  0  0  0  0  0
   -2.6782    0.0395    3.5725 C   0  0  2  0  0  0  0  0  0  0  0  0
   -2.4579   -1.3546    2.7044 C   0  0  0  0  0  0  0  0  0  0  0  0
   -3.9566   -0.5427    4.1709 O   0  0  0  0  0  0  0  0  0  0  0  0
   -3.5703    0.8018   -0.5256 C   0  0  2  0  0  0  0  0  0  0  0  0
   -4.4743   -0.3100   -0.0761 O   0  0  0  0  0  0  0  0  0  0  0  0
   -4.5356   -1.4110   -0.6846 C   0  0  0  0  0  0  0  0  0  0  0  0
   -5.4048   -1.6064   -2.0364 C   0  0  2  0  0  0  0  0  0  0  0  0
   -6.4116   -2.6462   -1.2321 C   0  0  0  0  0  0  0  0  0  0  0  0
   -4.5571   -2.7823   -2.5284 O   0  0  0  0  0  0  0  0  0  0  0  0
   -3.1635   -0.1463   -1.8479 C   0  0  1  0  0  0  0  0  0  0  0  0
   -2.4418    0.9481   -2.5898 O   0  0  0  0  0  0  0  0  0  0  0  0
   -3.1318    2.0958   -2.6044 C   0  0  0  0  0  0  0  0  0  0  0  0
   -4.2676    2.0854   -3.7890 C   0  0  1  0  0  0  0  0  0  0  0  0
   -4.1585    3.7298   -3.9567 C   0  0  0  0  0  0  0  0  0  0  0  0
   -3.2403    1.8523   -4.8858 O   0  0  0  0  0  0  0  0  0  0  0  0
  2  1  1  1
  2  3  1  0
  2  4  1  0
  4  5  1  0
  5  6  1  0
  7  6  1  1
  7  8  1  0
  8  9  1  0
  9 10  1  1
 11 10  1  1
 11 12  1  0
 12 13  1  1
 13 14  1  0
 15 14  1  6
 15 16  1  0
 15 17  1  0
 12 18  1  0
 18 19  1  6
 19 20  1  0
 21 20  1  1
 21 22  1  0
 21 23  1  0
 18 24  1  0
 24 25  1  1
 25 26  1  0
 27 26  1  6
 27 28  1  0
 27 29  1  0
 24 30  1  0
 30 31  1  0
 31 32  1  1
 32 33  1  0
 33 34  1  0
 35 34  1  6
 35 36  1  0
 35 37  1  0
  9 38  1  0
 38 39  1  1
 39 40  1  0
 41 40  1  6
 41 42  1  0
 41 43  1  0
 38 44  1  0
 44 45  1  1
 45 46  1  0
 47 46  1  1
 47 48  1  0
 47 49  1  0
 44 50  1  0
 50 51  1  6
 51 52  1  0
 53 52  1  1
 53 54  1  0
 53 55  1  0
 50  7  1  0
 31 11  1  0
M  END
>  <supplier_code>  (1626) 
DB11602

>  <zinc_id>  (1626) 
ZINC000256097218

>  <catalog_short_name>  (1626) 
dbfda

$$$$

     RDKit          3D

 55 56  0  0  0  0  0  0  0  0999 V2000
    5.5837   -1.4575   -2.7072 C   0  0  0  0  0  0  0  0  0  0  0  0
    4.7014   -2.7488   -2.1760 C   0  0  1  0  0  0  0  0  0  0  0  0
    5.9557   -3.4719   -1.7223 O   0  0  0  0  0  0  0  0  0  0  0  0
    4.3834   -2.1415   -0.6784 C   0  0  0  0  0  0  0  0  0  0  0  0
    4.8344   -0.9483   -0.5454 O   0  0  0  0  0  0  0  0  0  0  0  0
    3.8350    0.0264   -0.0264 C   0  0  2  0  0  0  0  0  0  0  0  0
    3.2628   -0.9300    1.2563 C   0  0  1  0  0  0  0  0  0  0  0  0
    4.0518   -0.1429    2.2482 O   0  0  0  0  0  0  0  0  0  0  0  0
    3.7586    1.1647    2.1681 C   0  0  0  0  0  0  0  0  0  0  0  0
    3.5625    1.7379    3.6993 C   0  0  2  0  0  0  0  0  0  0  0  0
    4.7236    2.8890    3.4902 C   0  0  0  0  0  0  0  0  0  0  0  0
    4.5632    0.7811    4.3237 O   0  0  0  0  0  0  0  0  0  0  0  0
    1.8582    0.0284    1.4731 C   0  0  2  0  0  0  0  0  0  0  0  0
    1.5190   -0.6261    2.7766 O   0  0  0  0  0  0  0  0  0  0  0  0
    2.0995   -1.8403    2.8911 C   0  0  0  0  0  0  0  0  0  0  0  0
    1.0083   -3.0252    2.5790 C   0  0  2  0  0  0  0  0  0  0  0  0
    1.2635   -3.7133    4.0553 C   0  0  0  0  0  0  0  0  0  0  0  0
    2.0583   -3.9054    1.9194 O   0  0  0  0  0  0  0  0  0  0  0  0
    0.9143   -1.1634    0.6835 C   0  0  1  0  0  0  0  0  0  0  0  0
    0.0487   -0.4404   -0.2395 O   0  0  0  0  0  0  0  0  0  0  0  0
   -0.8300    0.6776    0.1489 C   0  0  1  0  0  0  0  0  0  0  0  0
   -1.4564    0.5831   -1.4976 C   0  0  1  0  0  0  0  0  0  0  0  0
   -1.2564   -0.8745   -1.7356 O   0  0  0  0  0  0  0  0  0  0  0  0
   -1.7926   -1.7005   -1.0209 C   0  0  0  0  0  0  0  0  0  0  0  0
   -1.2999   -3.2059   -0.8292 C   0  0  2  0  0  0  0  0  0  0  0  0
   -1.7621   -3.6484   -2.3517 C   0  0  0  0  0  0  0  0  0  0  0  0
   -2.6505   -3.6004   -0.2301 O   0  0  0  0  0  0  0  0  0  0  0  0
   -3.1581    0.6376   -1.3006 C   0  0  1  0  0  0  0  0  0  0  0  0
   -3.4537   -0.4893   -2.2334 O   0  0  0  0  0  0  0  0  0  0  0  0
   -3.2143   -0.2753   -3.5036 C   0  0  0  0  0  0  0  0  0  0  0  0
   -4.0921   -1.4864   -4.2213 C   0  0  2  0  0  0  0  0  0  0  0  0
   -5.1217   -1.8067   -2.9682 C   0  0  0  0  0  0  0  0  0  0  0  0
   -3.1752   -2.6283   -3.8209 O   0  0  0  0  0  0  0  0  0  0  0  0
   -3.7273   -0.3773    0.0062 C   0  0  2  0  0  0  0  0  0  0  0  0
   -4.8166    0.6656    0.2675 O   0  0  0  0  0  0  0  0  0  0  0  0
   -5.9938    0.0938    0.3409 C   0  0  0  0  0  0  0  0  0  0  0  0
   -7.1315    1.0724   -0.3341 C   0  0  2  0  0  0  0  0  0  0  0  0
   -6.3059    1.3514   -1.7300 C   0  0  0  0  0  0  0  0  0  0  0  0
   -6.5908    2.3406    0.2998 O   0  0  0  0  0  0  0  0  0  0  0  0
   -2.9552    0.0353    1.3142 O   0  0  0  0  0  0  0  0  0  0  0  0
   -2.3983    0.1508    0.0297 C   0  0  1  0  0  0  0  0  0  0  0  0
   -2.7722    1.8247    0.0854 C   0  0  0  0  0  0  0  0  0  0  0  0
   -2.5078    2.3608    1.1304 O   0  0  0  0  0  0  0  0  0  0  0  0
   -1.9258    2.1364    2.2746 C   0  0  0  0  0  0  0  0  0  0  0  0
   -1.9766    3.7274    2.7258 C   0  0  2  0  0  0  0  0  0  0  0  0
   -0.3791    3.6802    3.1157 C   0  0  0  0  0  0  0  0  0  0  0  0
   -2.4341    3.3270    4.1139 O   0  0  0  0  0  0  0  0  0  0  0  0
    1.9378   -1.4665   -0.3809 O   0  0  0  0  0  0  0  0  0  0  0  0
    2.5744   -0.3784   -1.1375 C   0  0  1  0  0  0  0  0  0  0  0  0
    1.8560    0.9830   -0.6188 C   0  0  0  0  0  0  0  0  0  0  0  0
    2.0829    2.0387   -1.3233 O   0  0  0  0  0  0  0  0  0  0  0  0
    3.2989    2.4957   -1.6429 C   0  0  0  0  0  0  0  0  0  0  0  0
    2.7900    3.9702   -2.1831 C   0  0  2  0  0  0  0  0  0  0  0  0
    2.4496    3.3654   -3.6780 C   0  0  0  0  0  0  0  0  0  0  0  0
    4.2026    4.3479   -2.5799 O   0  0  0  0  0  0  0  0  0  0  0  0
  2  1  1  6
  2  3  1  0
  2  4  1  0
  4  5  1  0
  6  5  1  6
  6  7  1  0
  7  8  1  1
  8  9  1  0
 10  9  1  6
 10 11  1  0
 10 12  1  0
  7 13  1  0
 13 14  1  1
 14 15  1  0
 16 15  1  1
 16 17  1  0
 16 18  1  0
 13 19  1  0
 19 20  1  6
 21 20  1  6
 21 22  1  0
 22 23  1  1
 23 24  1  0
 25 24  1  6
 25 26  1  0
 25 27  1  0
 22 28  1  0
 28 29  1  6
 29 30  1  0
 31 30  1  1
 31 32  1  0
 31 33  1  0
 28 34  1  0
 34 35  1  1
 35 36  1  0
 37 36  1  1
 37 38  1  0
 37 39  1  0
 34 40  1  0
 40 41  1  0
 41 42  1  6
 42 43  1  0
 43 44  1  0
 45 44  1  6
 45 46  1  0
 45 47  1  0
 19 48  1  0
 48 49  1  0
 49 50  1  1
 50 51  1  0
 51 52  1  0
 53 52  1  1
 53 54  1  0
 53 55  1  0
 49  6  1  0
 41 21  1  0
M  END
>  <supplier_code>  (1627) 
DB11602

>  <zinc_id>  (1627) 
ZINC000256097222

>  <catalog_short_name>  (1627) 
dbfda

$$$$

     RDKit          3D

 55 56  0  0  0  0  0  0  0  0999 V2000
    4.2258    3.8957    0.2083 C   0  0  0  0  0  0  0  0  0  0  0  0
    4.7542    2.7049    1.2247 C   0  0  1  0  0  0  0  0  0  0  0  0
    5.7328    3.6426    1.8804 O   0  0  0  0  0  0  0  0  0  0  0  0
    3.5088    3.0324    2.2467 C   0  0  0  0  0  0  0  0  0  0  0  0
    3.3075    1.8472    2.9220 O   0  0  0  0  0  0  0  0  0  0  0  0
    2.0687    1.2885    2.5895 C   0  0  0  0  0  0  0  0  0  0  0  0
    2.3399    1.0301    0.9875 C   0  0  2  0  0  0  0  0  0  0  0  0
    0.9731    0.4650    0.8498 O   0  0  0  0  0  0  0  0  0  0  0  0
    0.7398    0.2408   -0.6237 C   0  0  2  0  0  0  0  0  0  0  0  0
   -0.6196   -0.3671   -0.2534 O   0  0  0  0  0  0  0  0  0  0  0  0
   -1.4795    0.7209   -0.9370 C   0  0  1  0  0  0  0  0  0  0  0  0
   -2.8269   -0.3793   -1.0722 C   0  0  1  0  0  0  0  0  0  0  0  0
   -2.0465   -1.5786   -1.3734 O   0  0  0  0  0  0  0  0  0  0  0  0
   -2.4051   -2.4506   -0.4264 C   0  0  0  0  0  0  0  0  0  0  0  0
   -3.1075   -3.7970   -1.0380 C   0  0  2  0  0  0  0  0  0  0  0  0
   -1.7191   -4.6164   -0.6774 C   0  0  0  0  0  0  0  0  0  0  0  0
   -2.6819   -3.5514   -2.4744 O   0  0  0  0  0  0  0  0  0  0  0  0
   -3.1895   -0.6456    0.6047 C   0  0  1  0  0  0  0  0  0  0  0  0
   -1.9079   -0.5144    1.3593 O   0  0  0  0  0  0  0  0  0  0  0  0
   -1.9603    0.4004    2.4169 C   0  0  0  0  0  0  0  0  0  0  0  0
   -1.9291   -0.3785    3.8515 C   0  0  2  0  0  0  0  0  0  0  0  0
   -2.0225   -1.8933    3.2143 C   0  0  0  0  0  0  0  0  0  0  0  0
   -3.4323   -0.2417    4.0394 O   0  0  0  0  0  0  0  0  0  0  0  0
   -3.9160    0.8206    1.2583 C   0  0  2  0  0  0  0  0  0  0  0  0
   -5.0712    0.8996    0.2940 O   0  0  0  0  0  0  0  0  0  0  0  0
   -6.2802    0.8781    0.5767 C   0  0  0  0  0  0  0  0  0  0  0  0
   -6.8358   -0.1180    1.7470 C   0  0  2  0  0  0  0  0  0  0  0  0
   -6.0263    0.7232    2.9153 C   0  0  0  0  0  0  0  0  0  0  0  0
   -5.7377   -1.1532    1.5943 O   0  0  0  0  0  0  0  0  0  0  0  0
   -2.9939    1.9772    0.7126 O   0  0  0  0  0  0  0  0  0  0  0  0
   -2.8988    0.7588   -0.0173 C   0  0  1  0  0  0  0  0  0  0  0  0
   -3.8379    1.2885   -1.3402 C   0  0  0  0  0  0  0  0  0  0  0  0
   -3.0733    2.3040   -1.5867 O   0  0  0  0  0  0  0  0  0  0  0  0
   -3.4923    2.9193   -2.6488 C   0  0  0  0  0  0  0  0  0  0  0  0
   -2.6013    4.1961   -2.0634 C   0  0  2  0  0  0  0  0  0  0  0  0
   -3.8850    4.7936   -1.2150 C   0  0  0  0  0  0  0  0  0  0  0  0
   -2.9838    4.8907   -3.3472 O   0  0  0  0  0  0  0  0  0  0  0  0
    1.5165   -1.3242   -0.6137 C   0  0  1  0  0  0  0  0  0  0  0  0
    1.6597   -1.3260   -2.0913 O   0  0  0  0  0  0  0  0  0  0  0  0
    1.1239   -2.3844   -2.6822 C   0  0  0  0  0  0  0  0  0  0  0  0
    0.5961   -1.8530   -4.1522 C   0  0  2  0  0  0  0  0  0  0  0  0
    1.5664   -2.9307   -4.9393 C   0  0  0  0  0  0  0  0  0  0  0  0
    1.6350   -0.7543   -4.3065 O   0  0  0  0  0  0  0  0  0  0  0  0
    3.0470   -0.5384   -0.4784 C   0  0  2  0  0  0  0  0  0  0  0  0
    3.9223   -1.7518   -0.5981 O   0  0  0  0  0  0  0  0  0  0  0  0
    4.1933   -1.6731   -1.9495 C   0  0  0  0  0  0  0  0  0  0  0  0
    5.4534   -0.6419   -2.1800 C   0  0  2  0  0  0  0  0  0  0  0  0
    4.4980    0.6908   -2.3695 C   0  0  0  0  0  0  0  0  0  0  0  0
    5.4602   -0.9111   -3.6771 O   0  0  0  0  0  0  0  0  0  0  0  0
    2.8369   -0.6153    1.2314 C   0  0  1  0  0  0  0  0  0  0  0  0
    4.2296   -0.2483    1.5746 O   0  0  0  0  0  0  0  0  0  0  0  0
    5.0972   -1.2228    1.5861 C   0  0  0  0  0  0  0  0  0  0  0  0
    5.5051   -1.4555    3.1672 C   0  0  2  0  0  0  0  0  0  0  0  0
    6.5788   -2.6240    2.7232 C   0  0  0  0  0  0  0  0  0  0  0  0
    4.3912   -2.4690    3.3567 O   0  0  0  0  0  0  0  0  0  0  0  0
  2  1  1  6
  2  3  1  0
  2  4  1  0
  4  5  1  0
  5  6  1  0
  7  6  1  1
  7  8  1  0
  8  9  1  0
  9 10  1  1
 11 10  1  1
 11 12  1  0
 12 13  1  1
 13 14  1  0
 15 14  1  1
 15 16  1  0
 15 17  1  0
 12 18  1  0
 18 19  1  1
 19 20  1  0
 21 20  1  6
 21 22  1  0
 21 23  1  0
 18 24  1  0
 24 25  1  6
 25 26  1  0
 27 26  1  6
 27 28  1  0
 27 29  1  0
 24 30  1  0
 30 31  1  0
 31 32  1  6
 32 33  1  0
 33 34  1  0
 35 34  1  6
 35 36  1  0
 35 37  1  0
  9 38  1  0
 38 39  1  6
 39 40  1  0
 41 40  1  1
 41 42  1  0
 41 43  1  0
 38 44  1  0
 44 45  1  1
 45 46  1  0
 47 46  1  1
 47 48  1  0
 47 49  1  0
 44 50  1  0
 50 51  1  1
 51 52  1  0
 53 52  1  6
 53 54  1  0
 53 55  1  0
 50  7  1  0
 31 11  1  0
M  END
>  <supplier_code>  (1628) 
DB11602

>  <zinc_id>  (1628) 
ZINC000256097227

>  <catalog_short_name>  (1628) 
dbfda

$$$$

     RDKit          3D

 41 45  0  0  0  0  0  0  0  0999 V2000
    7.9707    2.3292   -1.1562 C   0  0  0  0  0  0  0  0  0  0  0  0
    7.6850    2.2589   -0.4378 S   0  0  0  0  0  0  0  0  0  0  0  0
    6.3842    3.0069   -0.2282 O   0  0  0  0  0  0  0  0  0  0  0  0
    8.5621    2.7094    0.7111 O   0  0  0  0  0  0  0  0  0  0  0  0
    7.3324    0.5647   -0.1185 C   0  0  0  0  0  0  0  0  0  0  0  0
    8.2076   -0.2798    0.5135 C   0  0  0  0  0  0  0  0  0  0  0  0
    7.8036   -1.5800    0.7957 C   0  0  0  0  0  0  0  0  0  0  0  0
    6.5039   -1.9933    0.5214 C   0  0  0  0  0  0  0  0  0  0  0  0
    5.5890   -1.1143   -0.0448 C   0  0  0  0  0  0  0  0  0  0  0  0
    4.2654   -1.4198   -0.5053 C   0  0  0  0  0  0  0  0  0  0  0  0
    3.3360   -2.0168    0.7131 C   0  0  2  0  0  0  0  0  0  0  0  0
    2.3579   -0.7719    0.6697 N   0  0  0  0  0  0  0  0  0  0  0  0
    1.8406   -0.4389   -0.5942 C   0  0  0  0  0  0  0  0  0  0  0  0
    2.6314   -0.5365   -1.5814 O   0  0  0  0  0  0  0  0  0  0  0  0
    0.4363   -0.2390   -0.8989 C   0  0  0  0  0  0  0  0  0  0  0  0
   -0.1001   -1.0763   -1.8702 C   0  0  0  0  0  0  0  0  0  0  0  0
    0.8852   -2.2770   -2.6994 Cl  0  0  0  0  0  0  0  0  0  0  0  0
   -1.4568   -0.9625   -2.0731 C   0  0  0  0  0  0  0  0  0  0  0  0
   -2.2594   -0.3932   -1.1182 C   0  0  0  0  0  0  0  0  0  0  0  0
   -1.7257    0.1629    0.0278 C   0  0  0  0  0  0  0  0  0  0  0  0
   -0.3677    0.3605    0.0529 C   0  0  0  0  0  0  0  0  0  0  0  0
    0.2828    1.2800    1.3940 Cl  0  0  0  0  0  0  0  0  0  0  0  0
   -2.5736    0.1664    1.2605 C   0  0  0  0  0  0  0  0  0  0  0  0
   -3.2720   -1.1825    1.2804 C   0  0  0  0  0  0  0  0  0  0  0  0
   -4.1256   -1.3624    0.1149 N   0  0  0  0  0  0  0  0  0  0  0  0
   -5.5356   -1.3519    0.3707 C   0  0  0  0  0  0  0  0  0  0  0  0
   -6.2128   -2.2098   -0.2724 O   0  0  0  0  0  0  0  0  0  0  0  0
   -6.1524   -0.0253    0.4977 C   0  0  0  0  0  0  0  0  0  0  0  0
   -5.5549    1.0944   -0.0677 C   0  0  0  0  0  0  0  0  0  0  0  0
   -6.3526    2.0907   -0.5910 C   0  0  0  0  0  0  0  0  0  0  0  0
   -7.7270    2.0862   -0.4087 C   0  0  0  0  0  0  0  0  0  0  0  0
   -8.7978    2.5362   -1.1716 C   0  0  0  0  0  0  0  0  0  0  0  0
   -9.9150    2.1172   -0.4595 C   0  0  0  0  0  0  0  0  0  0  0  0
   -9.5316    1.4001    0.5591 O   0  0  0  0  0  0  0  0  0  0  0  0
   -8.2285    1.2301    0.5639 C   0  0  0  0  0  0  0  0  0  0  0  0
   -7.4643    0.1263    0.9215 C   0  0  0  0  0  0  0  0  0  0  0  0
   -3.7184   -0.6714   -1.1059 C   0  0  0  0  0  0  0  0  0  0  0  0
    4.2299   -1.3945    1.9087 C   0  0  0  0  0  0  0  0  0  0  0  0
    4.1645   -2.1888    2.8839 O   0  0  0  0  0  0  0  0  0  0  0  0
    4.4338   -0.0601    1.9595 O   0  0  0  0  0  0  0  0  0  0  0  0
    6.1694    0.0261   -0.5978 C   0  0  0  0  0  0  0  0  0  0  0  0
  1  2  1  0
  2  3  2  0
  2  4  2  0
  2  5  1  0
  5  6  2  0
  6  7  1  0
  7  8  2  0
  8  9  1  0
  9 10  1  0
 11 10  1  6
 11 12  1  0
 12 13  1  0
 13 14  2  0
 13 15  1  0
 15 16  2  0
 16 17  1  0
 16 18  1  0
 18 19  2  0
 19 20  1  0
 20 21  2  0
 21 22  1  0
 20 23  1  0
 23 24  1  0
 24 25  1  0
 25 26  1  0
 26 27  2  0
 26 28  1  0
 28 29  2  0
 29 30  1  0
 30 31  2  0
 31 32  1  0
 32 33  2  0
 33 34  1  0
 34 35  1  0
 35 36  2  0
 25 37  1  0
 11 38  1  0
 38 39  2  0
 38 40  1  0
  9 41  2  0
 41  5  1  0
 21 15  1  0
 36 28  1  0
 37 19  1  0
 35 31  1  0
M  END
>  <supplier_code>  (1629) 
DB11611

>  <zinc_id>  (1629) 
ZINC000084668739

>  <catalog_short_name>  (1629) 
dbfda

$$$$

     RDKit          3D

 65 73  0  0  0  0  0  0  0  0999 V2000
    7.4935    5.5131   -1.1514 C   0  0  0  0  0  0  0  0  0  0  0  0
    7.4088    5.3913   -1.9510 O   0  0  0  0  0  0  0  0  0  0  0  0
    6.7321    4.2979   -2.5843 C   0  0  0  0  0  0  0  0  0  0  0  0
    6.7213    3.7463   -1.0542 C   0  0  1  0  0  0  0  0  0  0  0  0
    5.8604    2.3422   -1.0806 C   0  0  0  0  0  0  0  0  0  0  0  0
    6.6691    2.9829    0.2649 C   0  0  1  0  0  0  0  0  0  0  0  0
    5.7778    2.3726    1.4576 C   0  0  0  0  0  0  0  0  0  0  0  0
    5.4838    3.6157    1.9834 N   0  0  0  0  0  0  0  0  0  0  0  0
    4.1537    3.8483    2.0657 C   0  0  0  0  0  0  0  0  0  0  0  0
    3.6404    2.5677    1.9785 C   0  0  0  0  0  0  0  0  0  0  0  0
    2.2852    2.1046    1.6392 C   0  0  0  0  0  0  0  0  0  0  0  0
    1.8137    2.5544    0.4046 C   0  0  0  0  0  0  0  0  0  0  0  0
    0.8009    1.8788   -0.2434 C   0  0  0  0  0  0  0  0  0  0  0  0
    0.7043    0.5224   -0.0038 C   0  0  0  0  0  0  0  0  0  0  0  0
    1.1743   -0.0228    1.1841 C   0  0  0  0  0  0  0  0  0  0  0  0
    2.0284    0.7691    1.9386 C   0  0  0  0  0  0  0  0  0  0  0  0
    1.3603   -1.5170    1.1852 C   0  0  0  0  0  0  0  0  0  0  0  0
    0.1335   -2.0670    0.7644 O   0  0  0  0  0  0  0  0  0  0  0  0
   -0.8148   -1.3560    0.0654 C   0  0  0  0  0  0  0  0  0  0  0  0
   -2.1551   -1.7292    0.1338 C   0  0  0  0  0  0  0  0  0  0  0  0
   -2.9984   -1.1209   -0.7697 C   0  0  0  0  0  0  0  0  0  0  0  0
   -4.3469   -1.3460   -0.5929 C   0  0  0  0  0  0  0  0  0  0  0  0
   -5.1577   -1.4664    0.4930 N   0  0  0  0  0  0  0  0  0  0  0  0
   -6.4052   -1.7577    0.0276 C   0  0  0  0  0  0  0  0  0  0  0  0
   -7.6720   -1.2914    0.9353 C   0  0  2  0  0  0  0  0  0  0  0  0
   -7.4352   -2.5433    1.9797 C   0  0  0  0  0  0  0  0  0  0  0  0
   -7.6895   -3.7368    1.0898 C   0  0  0  0  0  0  0  0  0  0  0  0
   -9.2305   -3.2070    0.9033 C   0  0  2  0  0  0  0  0  0  0  0  0
   -9.4725   -4.1830   -0.4052 C   0  0  0  0  0  0  0  0  0  0  0  0
   -8.6963   -2.0506    0.0069 N   0  0  0  0  0  0  0  0  0  0  0  0
   -9.4699   -1.4312   -0.9736 C   0  0  0  0  0  0  0  0  0  0  0  0
   -9.4861   -2.0093   -2.1087 O   0  0  0  0  0  0  0  0  0  0  0  0
  -11.0175   -1.0724   -0.6585 C   0  0  1  0  0  0  0  0  0  0  0  0
  -10.7054   -0.5880    0.8138 N   0  0  0  0  0  0  0  0  0  0  0  0
  -11.3938    0.5193    1.2901 C   0  0  0  0  0  0  0  0  0  0  0  0
  -12.1023    1.1762    0.4637 O   0  0  0  0  0  0  0  0  0  0  0  0
  -10.9042    1.1352    2.4474 O   0  0  0  0  0  0  0  0  0  0  0  0
  -11.2295    2.5235    2.5901 C   0  0  0  0  0  0  0  0  0  0  0  0
  -10.9017    0.4344   -1.3133 C   0  0  0  0  0  0  0  0  0  0  0  0
  -11.7359    0.4669   -2.5338 C   0  0  0  0  0  0  0  0  0  0  0  0
   -9.5673    0.9103   -1.3347 C   0  0  0  0  0  0  0  0  0  0  0  0
   -6.4096   -1.2890   -1.2173 N   0  0  0  0  0  0  0  0  0  0  0  0
   -5.1967   -0.8919   -1.5957 C   0  0  0  0  0  0  0  0  0  0  0  0
   -4.6394   -0.4481   -2.7790 C   0  0  0  0  0  0  0  0  0  0  0  0
   -3.3367    0.0288   -2.7809 C   0  0  0  0  0  0  0  0  0  0  0  0
   -2.4865   -0.2996   -1.7508 C   0  0  0  0  0  0  0  0  0  0  0  0
   -1.2687    0.3370   -1.5377 C   0  0  0  0  0  0  0  0  0  0  0  0
   -0.4144   -0.2094   -0.6108 C   0  0  0  0  0  0  0  0  0  0  0  0
    4.5842    1.8890    1.2690 N   0  0  0  0  0  0  0  0  0  0  0  0
    7.8009    1.9043    0.0271 N   0  0  0  0  0  0  0  0  0  0  0  0
    7.4651    0.5897    0.1646 C   0  0  0  0  0  0  0  0  0  0  0  0
    6.4547   -0.0803    0.2839 O   0  0  0  0  0  0  0  0  0  0  0  0
    8.8408   -0.2256   -0.1204 C   0  0  2  0  0  0  0  0  0  0  0  0
    8.1642   -1.0888   -1.2655 N   0  0  0  0  0  0  0  0  0  0  0  0
    9.1458   -1.7636   -1.9743 C   0  0  0  0  0  0  0  0  0  0  0  0
   10.1841   -1.1501   -2.3521 O   0  0  0  0  0  0  0  0  0  0  0  0
    8.9763   -3.0496   -2.4676 O   0  0  0  0  0  0  0  0  0  0  0  0
   10.0523   -3.7435   -3.0801 C   0  0  0  0  0  0  0  0  0  0  0  0
    8.5652   -1.3459    1.0263 C   0  0  0  0  0  0  0  0  0  0  0  0
    9.7486   -2.0782    1.1622 C   0  0  0  0  0  0  0  0  0  0  0  0
   10.3666   -2.1622    2.4099 C   0  0  0  0  0  0  0  0  0  0  0  0
    9.4669   -2.2307    3.4668 C   0  0  0  0  0  0  0  0  0  0  0  0
    8.1772   -1.7412    3.2986 C   0  0  0  0  0  0  0  0  0  0  0  0
    8.0210   -0.9200    2.1878 C   0  0  0  0  0  0  0  0  0  0  0  0
    8.0845    2.7919   -1.1222 C   0  0  0  0  0  0  0  0  0  0  0  0
  1  2  1  0
  2  3  1  0
  4  3  1  6
  4  5  1  0
  5  6  1  0
  6  7  1  1
  7  8  2  0
  8  9  1  0
  9 10  2  0
 10 11  1  0
 11 12  2  0
 12 13  1  0
 13 14  2  0
 14 15  1  0
 15 16  2  0
 15 17  1  0
 17 18  1  0
 18 19  1  0
 19 20  2  0
 20 21  1  0
 21 22  2  0
 22 23  1  0
 23 24  2  0
 25 24  1  6
 25 26  1  0
 26 27  1  0
 27 28  1  0
 28 29  1  6
 28 30  1  0
 30 31  1  0
 31 32  2  0
 33 31  1  6
 33 34  1  0
 34 35  1  0
 35 36  2  0
 35 37  1  0
 37 38  1  0
 33 39  1  0
 39 40  1  0
 39 41  1  0
 24 42  1  0
 42 43  1  0
 43 44  2  0
 44 45  1  0
 45 46  2  0
 46 47  1  0
 47 48  2  0
 10 49  1  0
  6 50  1  0
 50 51  1  0
 51 52  2  0
 53 51  1  1
 53 54  1  0
 54 55  1  0
 55 56  2  0
 55 57  1  0
 57 58  1  0
 53 59  1  0
 59 60  2  0
 60 61  1  0
 61 62  2  0
 62 63  1  0
 63 64  2  0
 50 65  1  0
 65  4  1  0
 49  7  1  0
 64 59  1  0
 16 11  1  0
 48 19  1  0
 48 14  1  0
 46 21  1  0
 43 22  1  0
 30 25  1  0
M  END
>  <supplier_code>  (1630) 
DB11613

>  <zinc_id>  (1630) 
ZINC000203686879

>  <catalog_short_name>  (1630) 
dbfda

$$$$

     RDKit          3D

 42 49  0  0  0  0  0  0  0  0999 V2000
    3.0260   -0.9755   -0.9546 C   0  0  0  0  0  0  0  0  0  0  0  0
    3.0737   -0.7611   -0.0732 C   0  0  0  0  0  0  0  0  0  0  0  0
    3.4862   -1.9122    0.8311 C   0  0  0  0  0  0  0  0  0  0  0  0
    1.7181   -0.4782    0.2133 N   0  0  0  0  0  0  0  0  0  0  0  0
    0.6716   -0.6821   -0.7389 C   0  0  0  0  0  0  0  0  0  0  0  0
    0.9556   -0.1335   -1.8536 O   0  0  0  0  0  0  0  0  0  0  0  0
   -0.7182   -0.8107   -0.4047 C   0  0  0  0  0  0  0  0  0  0  0  0
   -1.3104   -1.6938    0.3585 C   0  0  0  0  0  0  0  0  0  0  0  0
   -0.5191   -2.7960    0.7123 O   0  0  0  0  0  0  0  0  0  0  0  0
   -2.0104   -1.0997    1.7056 C   0  0  2  0  0  0  0  0  0  0  0  0
   -2.9641   -2.3266    1.8344 O   0  0  0  0  0  0  0  0  0  0  0  0
   -3.4644   -2.4504    0.5239 C   0  0  0  0  0  0  0  0  0  0  0  0
   -3.8827   -1.2020    0.2415 C   0  0  0  0  0  0  0  0  0  0  0  0
   -4.3901   -0.7404   -0.9584 C   0  0  0  0  0  0  0  0  0  0  0  0
   -5.1823   -1.6896   -1.5933 C   0  0  0  0  0  0  0  0  0  0  0  0
   -5.0148   -3.0347   -1.2445 C   0  0  0  0  0  0  0  0  0  0  0  0
   -4.1937   -3.4016   -0.1781 C   0  0  0  0  0  0  0  0  0  0  0  0
   -4.1706   -4.7027    0.3334 O   0  0  0  0  0  0  0  0  0  0  0  0
   -4.8359    0.6691   -0.6804 C   0  0  0  0  0  0  0  0  0  0  0  0
   -3.4694    1.5810   -0.8295 C   0  0  1  0  0  0  0  0  0  0  0  0
   -3.7387    2.4560    0.4448 N   0  0  0  0  0  0  0  0  0  0  0  0
   -3.9138    3.7801    0.0869 C   0  0  0  0  0  0  0  0  0  0  0  0
   -4.8649    4.0479   -1.0621 C   0  0  0  0  0  0  0  0  0  0  0  0
   -5.8510    5.1989   -0.7537 C   0  0  0  0  0  0  0  0  0  0  0  0
   -6.3310    3.7456   -0.6414 C   0  0  0  0  0  0  0  0  0  0  0  0
   -4.5156    1.7796    1.3473 C   0  0  0  0  0  0  0  0  0  0  0  0
   -3.8314    0.5847    1.9847 C   0  0  0  0  0  0  0  0  0  0  0  0
   -3.1411   -0.1869    0.9363 C   0  0  1  0  0  0  0  0  0  0  0  0
   -2.4330    0.6190   -0.0097 C   0  0  2  0  0  0  0  0  0  0  0  0
   -1.4949    1.5197    0.5191 O   0  0  0  0  0  0  0  0  0  0  0  0
   -1.7603   -0.0483   -1.1781 C   0  0  0  0  0  0  0  0  0  0  0  0
    3.9550    0.4010    0.2233 C   0  0  0  0  0  0  0  0  0  0  0  0
    4.9821    0.5244    1.0868 N   0  0  0  0  0  0  0  0  0  0  0  0
    5.9853    1.2256    0.4989 C   0  0  0  0  0  0  0  0  0  0  0  0
    7.4315    0.9417    0.5626 C   0  0  0  0  0  0  0  0  0  0  0  0
    8.1510    0.7110   -0.6026 C   0  0  0  0  0  0  0  0  0  0  0  0
    8.9477   -0.4150   -0.7453 C   0  0  0  0  0  0  0  0  0  0  0  0
    9.2911   -1.1851    0.3573 C   0  0  0  0  0  0  0  0  0  0  0  0
    8.9752   -0.6274    1.5898 C   0  0  0  0  0  0  0  0  0  0  0  0
    7.8983    0.2485    1.6722 C   0  0  0  0  0  0  0  0  0  0  0  0
    5.3393    1.8890   -0.4927 N   0  0  0  0  0  0  0  0  0  0  0  0
    4.1145    1.4306   -0.5900 O   0  0  0  0  0  0  0  0  0  0  0  0
  1  2  1  0
  2  3  1  0
  2  4  1  0
  4  5  1  0
  5  6  2  0
  5  7  1  0
  7  8  2  0
  8  9  1  0
 10  8  1  6
 10 11  1  0
 11 12  1  0
 12 13  2  0
 13 14  1  0
 14 15  2  0
 15 16  1  0
 16 17  2  0
 17 18  1  0
 14 19  1  0
 20 19  1  1
 20 21  1  0
 21 22  1  0
 22 23  1  0
 23 24  1  0
 24 25  1  0
 21 26  1  0
 26 27  1  0
 28 27  1  1
 28 29  1  0
 29 30  1  1
 29 31  1  0
  2 32  1  0
 32 33  2  0
 33 34  1  0
 34 35  1  0
 35 36  2  0
 36 37  1  0
 37 38  2  0
 38 39  1  0
 39 40  2  0
 34 41  2  0
 41 42  1  0
 31  7  1  0
 42 32  1  0
 28 10  1  0
 40 35  1  0
 17 12  1  0
 29 20  1  0
 28 13  1  0
 25 23  1  0
M  END
>  <supplier_code>  (1631) 
DB11691

>  <zinc_id>  (1631) 
ZINC000100378061

>  <catalog_short_name>  (1631) 
dbfda

$$$$

     RDKit          3D

 32 36  0  0  0  0  0  0  0  0999 V2000
   -5.9752    1.8444   -1.8515 C   0  0  0  0  0  0  0  0  0  0  0  0
   -6.2195    1.1436   -0.5987 N   0  0  0  0  0  0  0  0  0  0  0  0
   -7.5972    0.9593   -0.1922 C   0  0  0  0  0  0  0  0  0  0  0  0
   -5.2028    1.2518    0.3908 C   0  0  0  0  0  0  0  0  0  0  0  0
   -5.4217    1.7765    1.5127 O   0  0  0  0  0  0  0  0  0  0  0  0
   -3.8015    1.0647    0.0218 C   0  0  0  0  0  0  0  0  0  0  0  0
   -2.7978    2.0212    0.0338 C   0  0  0  0  0  0  0  0  0  0  0  0
   -1.6004    1.3247   -0.0591 C   0  0  0  0  0  0  0  0  0  0  0  0
   -0.2755    1.6204    0.1347 C   0  0  0  0  0  0  0  0  0  0  0  0
    0.6217    0.6119    0.2482 N   0  0  0  0  0  0  0  0  0  0  0  0
    0.3535   -0.6221   -0.2418 C   0  0  0  0  0  0  0  0  0  0  0  0
    1.1760   -1.7420    0.1043 N   0  0  0  0  0  0  0  0  0  0  0  0
    2.5940   -1.6063    0.1477 C   0  0  0  0  0  0  0  0  0  0  0  0
    3.2583   -1.2196    1.3029 C   0  0  0  0  0  0  0  0  0  0  0  0
    4.3227   -0.3290    1.2788 C   0  0  0  0  0  0  0  0  0  0  0  0
    4.7983    0.0805    0.0393 C   0  0  0  0  0  0  0  0  0  0  0  0
    5.3053    1.4084   -0.1455 N   0  0  0  0  0  0  0  0  0  0  0  0
    6.0095    1.9790    1.0008 C   0  0  0  0  0  0  0  0  0  0  0  0
    7.2757    1.1453    1.1585 C   0  0  0  0  0  0  0  0  0  0  0  0
    7.5778    0.4174   -0.0680 N   0  0  0  0  0  0  0  0  0  0  0  0
    7.4135    1.2727   -1.2395 C   0  0  0  0  0  0  0  0  0  0  0  0
    5.9481    1.6432   -1.4372 C   0  0  0  0  0  0  0  0  0  0  0  0
    4.3965   -0.7007   -1.0375 C   0  0  0  0  0  0  0  0  0  0  0  0
    3.2435   -1.4085   -1.0238 N   0  0  0  0  0  0  0  0  0  0  0  0
   -0.9037   -0.7997   -0.7126 N   0  0  0  0  0  0  0  0  0  0  0  0
   -1.9262    0.0064   -0.3416 C   0  0  0  0  0  0  0  0  0  0  0  0
   -3.2755   -0.1192   -0.3312 N   0  0  0  0  0  0  0  0  0  0  0  0
   -3.9562   -1.4027   -0.2109 C   0  0  0  0  0  0  0  0  0  0  0  0
   -3.0755   -2.4489    0.4116 C   0  0  0  0  0  0  0  0  0  0  0  0
   -3.4239   -3.7706   -0.2498 C   0  0  0  0  0  0  0  0  0  0  0  0
   -4.5218   -3.4366   -1.2336 C   0  0  0  0  0  0  0  0  0  0  0  0
   -4.3202   -1.9655   -1.5648 C   0  0  0  0  0  0  0  0  0  0  0  0
  1  2  1  0
  2  3  1  0
  2  4  1  0
  4  5  2  0
  4  6  1  0
  6  7  2  0
  7  8  1  0
  8  9  2  0
  9 10  1  0
 10 11  2  0
 11 12  1  0
 12 13  1  0
 13 14  2  0
 14 15  1  0
 15 16  2  0
 16 17  1  0
 17 18  1  0
 18 19  1  0
 19 20  1  0
 20 21  1  0
 21 22  1  0
 16 23  1  0
 23 24  2  0
 11 25  1  0
 25 26  2  0
 26 27  1  0
 27 28  1  0
 28 29  1  0
 29 30  1  0
 30 31  1  0
 31 32  1  0
 27  6  1  0
 32 28  1  0
 26  8  1  0
 24 13  1  0
 22 17  1  0
M  END
>  <supplier_code>  (1632) 
DB11730

>  <zinc_id>  (1632) 
ZINC000072316335

>  <catalog_short_name>  (1632) 
dbfda

$$$$

     RDKit          3D

 24 27  0  0  0  0  0  0  0  0999 V2000
   -5.9542   -0.7862   -0.6207 N   0  0  0  0  0  0  0  0  0  0  0  0
   -5.0807   -0.3027   -0.5657 C   0  0  0  0  0  0  0  0  0  0  0  0
   -4.6116    0.2530   -1.6044 O   0  0  0  0  0  0  0  0  0  0  0  0
   -4.2461   -0.2719    0.6402 C   0  0  0  0  0  0  0  0  0  0  0  0
   -4.8131   -0.4515    1.8826 C   0  0  0  0  0  0  0  0  0  0  0  0
   -4.0687   -0.1984    3.0234 C   0  0  0  0  0  0  0  0  0  0  0  0
   -2.8335    0.4318    2.9175 C   0  0  0  0  0  0  0  0  0  0  0  0
   -2.2321    0.4704    1.6776 C   0  0  0  0  0  0  0  0  0  0  0  0
   -0.9476    0.6768    1.2110 C   0  0  0  0  0  0  0  0  0  0  0  0
   -0.8107    0.1100   -0.0078 N   0  0  0  0  0  0  0  0  0  0  0  0
    0.3720   -0.4418   -0.5981 C   0  0  0  0  0  0  0  0  0  0  0  0
    0.9979    0.1290   -1.6907 C   0  0  0  0  0  0  0  0  0  0  0  0
    2.3380   -0.1410   -1.9444 C   0  0  0  0  0  0  0  0  0  0  0  0
    3.0762   -0.5489   -0.8616 C   0  0  0  0  0  0  0  0  0  0  0  0
    4.5510   -1.1312   -1.2408 C   0  0  2  0  0  0  0  0  0  0  0  0
    5.1146   -0.8310    0.2898 C   0  0  0  0  0  0  0  0  0  0  0  0
    5.9777    0.3541    0.2642 C   0  0  0  0  0  0  0  0  0  0  0  0
    5.0355    1.5499    0.1425 C   0  0  0  0  0  0  0  0  0  0  0  0
    4.4584    1.3615   -1.1901 N   0  0  0  0  0  0  0  0  0  0  0  0
    5.0666    0.3008   -1.9000 C   0  0  0  0  0  0  0  0  0  0  0  0
    2.4701   -1.4420    0.0150 C   0  0  0  0  0  0  0  0  0  0  0  0
    1.0873   -1.4284    0.0700 C   0  0  0  0  0  0  0  0  0  0  0  0
   -2.0478   -0.0160   -0.4765 N   0  0  0  0  0  0  0  0  0  0  0  0
   -2.8992   -0.0353    0.5673 C   0  0  0  0  0  0  0  0  0  0  0  0
  1  2  1  0
  2  3  2  0
  2  4  1  0
  4  5  2  0
  5  6  1  0
  6  7  2  0
  7  8  1  0
  8  9  2  0
  9 10  1  0
 10 11  1  0
 11 12  2  0
 12 13  1  0
 13 14  2  0
 15 14  1  1
 15 16  1  0
 16 17  1  0
 17 18  1  0
 18 19  1  0
 19 20  1  0
 14 21  1  0
 21 22  2  0
 10 23  1  0
 23 24  2  0
 24  4  1  0
 24  8  1  0
 22 11  1  0
 20 15  1  0
M  END
>  <supplier_code>  (1633) 
DB11793

>  <zinc_id>  (1633) 
ZINC000043206370

>  <catalog_short_name>  (1633) 
dbfda

$$$$

     RDKit          3D

 40 43  0  0  0  0  0  0  0  0999 V2000
    5.4199   -4.9724   -0.0980 C   0  0  0  0  0  0  0  0  0  0  0  0
    6.0376   -3.6539    0.3346 C   0  0  0  0  0  0  0  0  0  0  0  0
    5.3053   -2.5517   -0.1621 O   0  0  0  0  0  0  0  0  0  0  0  0
    3.9772   -2.3074    0.1500 C   0  0  0  0  0  0  0  0  0  0  0  0
    3.1137   -3.2611    0.6244 C   0  0  0  0  0  0  0  0  0  0  0  0
    1.7501   -3.0722    0.5025 C   0  0  0  0  0  0  0  0  0  0  0  0
    0.9463   -4.1425    0.5973 N   0  0  0  0  0  0  0  0  0  0  0  0
   -0.3554   -4.0237    0.2750 C   0  0  0  0  0  0  0  0  0  0  0  0
   -0.9196   -2.8195   -0.0974 C   0  0  0  0  0  0  0  0  0  0  0  0
   -2.1996   -2.7517   -0.7629 C   0  0  0  0  0  0  0  0  0  0  0  0
   -2.9370   -2.7975   -1.6587 N   0  0  0  0  0  0  0  0  0  0  0  0
   -0.1588   -1.6863    0.1572 C   0  0  0  0  0  0  0  0  0  0  0  0
   -0.6435   -0.4128   -0.1896 N   0  0  0  0  0  0  0  0  0  0  0  0
   -1.9954   -0.0337   -0.2868 C   0  0  0  0  0  0  0  0  0  0  0  0
   -2.7466    0.0679    0.8786 C   0  0  0  0  0  0  0  0  0  0  0  0
   -3.8115    0.9239    1.0132 C   0  0  0  0  0  0  0  0  0  0  0  0
   -4.1869    1.7237   -0.0585 C   0  0  0  0  0  0  0  0  0  0  0  0
   -5.0160    2.8330    0.0966 O   0  0  0  0  0  0  0  0  0  0  0  0
   -5.9696    2.9478    1.1251 C   0  0  0  0  0  0  0  0  0  0  0  0
   -7.2551    2.3745    0.6578 C   0  0  0  0  0  0  0  0  0  0  0  0
   -8.4891    2.8502    1.0556 C   0  0  0  0  0  0  0  0  0  0  0  0
   -9.6495    2.1255    0.8134 C   0  0  0  0  0  0  0  0  0  0  0  0
   -9.4761    0.7989    0.4617 C   0  0  0  0  0  0  0  0  0  0  0  0
   -8.2767    0.3531   -0.0396 C   0  0  0  0  0  0  0  0  0  0  0  0
   -7.2659    1.2473   -0.0819 N   0  0  0  0  0  0  0  0  0  0  0  0
   -3.4498    1.6598   -1.2164 C   0  0  0  0  0  0  0  0  0  0  0  0
   -4.0766    2.3654   -2.6883 Cl  0  0  0  0  0  0  0  0  0  0  0  0
   -2.3000    0.9125   -1.2598 C   0  0  0  0  0  0  0  0  0  0  0  0
    1.2115   -1.7979    0.3653 C   0  0  0  0  0  0  0  0  0  0  0  0
    2.0977   -0.8265   -0.0854 C   0  0  0  0  0  0  0  0  0  0  0  0
    3.4683   -1.0528   -0.1044 C   0  0  0  0  0  0  0  0  0  0  0  0
    4.3630    0.0494   -0.2940 N   0  0  0  0  0  0  0  0  0  0  0  0
    4.8313    0.7932    0.8338 C   0  0  0  0  0  0  0  0  0  0  0  0
    4.0047    0.9738    1.7757 O   0  0  0  0  0  0  0  0  0  0  0  0
    5.9421    1.7185    0.7619 C   0  0  0  0  0  0  0  0  0  0  0  0
    7.1501    1.4151    0.3477 C   0  0  0  0  0  0  0  0  0  0  0  0
    7.9700    2.2609   -0.5426 C   0  0  0  0  0  0  0  0  0  0  0  0
    8.0050    3.6451   -0.1456 N   0  0  0  0  0  0  0  0  0  0  0  0
    6.6997    4.2292    0.0261 C   0  0  0  0  0  0  0  0  0  0  0  0
    8.8852    3.8945    0.9736 C   0  0  0  0  0  0  0  0  0  0  0  0
  1  2  1  0
  2  3  1  0
  3  4  1  0
  4  5  2  0
  5  6  1  0
  6  7  2  0
  7  8  1  0
  8  9  2  0
  9 10  1  0
 10 11  3  0
  9 12  1  0
 12 13  1  0
 13 14  1  0
 14 15  2  0
 15 16  1  0
 16 17  2  0
 17 18  1  0
 18 19  1  0
 19 20  1  0
 20 21  2  0
 21 22  1  0
 22 23  2  0
 23 24  1  0
 24 25  2  0
 17 26  1  0
 26 27  1  0
 26 28  2  0
 12 29  2  0
 29 30  1  0
 30 31  2  0
 31 32  1  0
 32 33  1  0
 33 34  2  0
 33 35  1  0
 35 36  2  0
 36 37  1  0
 37 38  1  0
 38 39  1  0
 38 40  1  0
 31  4  1  0
 29  6  1  0
 28 14  1  0
 25 20  1  0
M  END
>  <supplier_code>  (1634) 
DB11828

>  <zinc_id>  (1634) 
ZINC000003916214

>  <catalog_short_name>  (1634) 
dbfda

$$$$

     RDKit          3D

 30 32  0  0  0  0  0  0  0  0999 V2000
   -5.9319    1.4483   -0.5360 C   0  0  0  0  0  0  0  0  0  0  0  0
   -5.4961    1.0800   -0.6880 O   0  0  0  0  0  0  0  0  0  0  0  0
   -4.3576    0.2918   -0.5961 C   0  0  0  0  0  0  0  0  0  0  0  0
   -4.1213   -0.3972    0.5591 C   0  0  0  0  0  0  0  0  0  0  0  0
   -2.7989   -0.7209    0.8284 C   0  0  0  0  0  0  0  0  0  0  0  0
   -1.7398   -0.2644    0.0416 C   0  0  0  0  0  0  0  0  0  0  0  0
   -2.0910   -0.1471   -1.3038 C   0  0  0  0  0  0  0  0  0  0  0  0
   -3.3966    0.2331   -1.5982 C   0  0  0  0  0  0  0  0  0  0  0  0
   -3.7996    0.6547   -2.8484 O   0  0  0  0  0  0  0  0  0  0  0  0
   -3.5476   -0.0665   -4.0237 C   0  0  0  0  0  0  0  0  0  0  0  0
   -0.5679   -1.3786    0.2779 C   0  0  1  0  0  0  0  0  0  0  0  0
    0.5875   -0.4761   -0.4953 C   0  0  0  0  0  0  0  0  0  0  0  0
    1.7944   -0.6071    0.6279 C   0  0  1  0  0  0  0  0  0  0  0  0
    2.9305   -0.0994   -0.2657 O   0  0  0  0  0  0  0  0  0  0  0  0
    2.8318   -0.0552   -1.5883 C   0  0  0  0  0  0  0  0  0  0  0  0
    1.7320   -0.0511   -2.1322 O   0  0  0  0  0  0  0  0  0  0  0  0
    4.0585   -0.6467   -2.4765 C   0  0  1  0  0  0  0  0  0  0  0  0
    3.7643    0.3645   -3.6704 N   0  0  0  0  0  0  0  0  0  0  0  0
    5.1735    0.3823   -1.8114 C   0  0  0  0  0  0  0  0  0  0  0  0
    4.4985    1.6487   -1.4736 C   0  0  0  0  0  0  0  0  0  0  0  0
    5.8039   -0.3616   -0.6885 C   0  0  0  0  0  0  0  0  0  0  0  0
    1.4198    0.9951    1.1454 C   0  0  2  0  0  0  0  0  0  0  0  0
    2.2213    0.8511    2.5490 C   0  0  0  0  0  0  0  0  0  0  0  0
    1.5185    0.0248    3.5115 C   0  0  0  0  0  0  0  0  0  0  0  0
    2.4314   -1.0531    4.0753 C   0  0  0  0  0  0  0  0  0  0  0  0
    1.1029    0.8776    4.7046 C   0  0  0  0  0  0  0  0  0  0  0  0
   -0.0550    0.5694    1.6715 C   0  0  0  0  0  0  0  0  0  0  0  0
   -0.2236   -0.7949    1.7116 N   0  0  0  0  0  0  0  0  0  0  0  0
   -1.2220   -1.3096    2.5517 C   0  0  0  0  0  0  0  0  0  0  0  0
   -2.5199   -1.6817    1.9407 C   0  0  0  0  0  0  0  0  0  0  0  0
  1  2  1  0
  2  3  1  0
  3  4  2  0
  4  5  1  0
  5  6  2  0
  6  7  1  0
  7  8  2  0
  8  9  1  0
  9 10  1  0
 11  6  1  6
 11 12  1  0
 12 13  1  0
 13 14  1  6
 14 15  1  0
 15 16  2  0
 17 15  1  1
 17 18  1  0
 17 19  1  0
 19 20  1  0
 19 21  1  0
 13 22  1  0
 22 23  1  1
 23 24  1  0
 24 25  1  0
 24 26  1  0
 22 27  1  0
 27 28  1  0
 28 29  1  0
 29 30  1  0
  8  3  1  0
 28 11  1  0
 30  5  1  0
M  END
>  <supplier_code>  (1635) 
DB11915

>  <zinc_id>  (1635) 
ZINC000043195697

>  <catalog_short_name>  (1635) 
dbfda

$$$$

     RDKit          3D

 32 36  0  0  0  0  0  0  0  0999 V2000
    6.6423    0.3053    2.0900 C   0  0  0  0  0  0  0  0  0  0  0  0
    5.4467    0.1820    2.3424 C   0  0  0  0  0  0  0  0  0  0  0  0
    5.1168   -0.4579    3.3828 O   0  0  0  0  0  0  0  0  0  0  0  0
    4.4768    1.0959    1.9120 O   0  0  0  0  0  0  0  0  0  0  0  0
    3.1119    0.6849    1.8211 C   0  0  0  0  0  0  0  0  0  0  0  0
    3.0871   -0.3465    0.7446 C   0  0  0  0  0  0  0  0  0  0  0  0
    3.8237   -1.3090    0.9000 O   0  0  0  0  0  0  0  0  0  0  0  0
    2.1867   -0.1802   -0.4418 C   0  0  1  0  0  0  0  0  0  0  0  0
    2.8532    0.4748   -1.5092 N   0  0  0  0  0  0  0  0  0  0  0  0
    2.7296   -0.1516   -2.6237 C   0  0  0  0  0  0  0  0  0  0  0  0
    3.1084    0.5006   -3.9183 C   0  0  0  0  0  0  0  0  0  0  0  0
    1.8028   -1.1939   -2.4918 O   0  0  0  0  0  0  0  0  0  0  0  0
    2.1835   -1.7239   -1.0638 C   0  0  2  0  0  0  0  0  0  0  0  0
    0.6001   -2.0497   -0.6202 C   0  0  0  0  0  0  0  0  0  0  0  0
    0.0128   -0.6753   -1.2742 C   0  0  1  0  0  0  0  0  0  0  0  0
   -1.3575   -0.6544   -0.2653 C   0  0  2  0  0  0  0  0  0  0  0  0
   -2.2030   -1.5856   -1.2766 C   0  0  0  0  0  0  0  0  0  0  0  0
   -3.4319   -1.7700   -0.3926 C   0  0  0  0  0  0  0  0  0  0  0  0
   -3.6954   -0.4750    0.3182 C   0  0  0  0  0  0  0  0  0  0  0  0
   -4.8348   -0.3484    1.0106 C   0  0  0  0  0  0  0  0  0  0  0  0
   -5.8267    0.6858    0.6667 C   0  0  0  0  0  0  0  0  0  0  0  0
   -6.8586    0.8420    1.3327 O   0  0  0  0  0  0  0  0  0  0  0  0
   -5.5883    1.2461   -0.6731 C   0  0  0  0  0  0  0  0  0  0  0  0
   -4.3927    1.0995   -1.2606 C   0  0  0  0  0  0  0  0  0  0  0  0
   -3.3117    0.8201   -0.2506 C   0  0  1  0  0  0  0  0  0  0  0  0
   -3.3991    1.9674    0.6574 C   0  0  0  0  0  0  0  0  0  0  0  0
   -1.9174    0.7438   -1.0297 C   0  0  1  0  0  0  0  0  0  0  0  0
   -1.0970    1.8659    0.0180 C   0  0  1  0  0  0  0  0  0  0  0  0
   -1.1782    0.9745    1.2694 O   0  0  0  0  0  0  0  0  0  0  0  0
    0.4353    1.4274   -0.4330 C   0  0  0  0  0  0  0  0  0  0  0  0
    0.8364    0.1403   -0.1193 C   0  0  2  0  0  0  0  0  0  0  0  0
    0.6384   -0.5565    1.1781 C   0  0  0  0  0  0  0  0  0  0  0  0
  1  2  1  0
  2  3  2  0
  2  4  1  0
  4  5  1  0
  5  6  1  0
  6  7  2  0
  8  6  1  1
  8  9  1  0
  9 10  2  0
 10 11  1  0
 10 12  1  0
 13 12  1  6
 13 14  1  0
 15 14  1  1
 15 16  1  0
 16 17  1  6
 17 18  1  0
 18 19  1  0
 19 20  2  0
 20 21  1  0
 21 22  2  0
 21 23  1  0
 23 24  2  0
 24 25  1  0
 25 26  1  1
 27 25  1  1
 27 28  1  0
 28 29  1  1
 28 30  1  0
 30 31  1  0
 31 32  1  1
 13  8  1  0
 31 15  1  0
 31  8  1  0
 27 16  1  0
 25 19  1  0
M  END
>  <supplier_code>  (1636) 
DB11921

>  <zinc_id>  (1636) 
ZINC000004212809

>  <catalog_short_name>  (1636) 
dbfda

$$$$

     RDKit          3D

 30 33  0  0  0  0  0  0  0  0999 V2000
   -2.0480   -3.9429    2.2401 N   0  0  0  0  0  0  0  0  0  0  0  0
   -2.3724   -2.9010    1.3398 C   0  0  0  0  0  0  0  0  0  0  0  0
   -1.5725   -1.8105    1.2726 N   0  0  0  0  0  0  0  0  0  0  0  0
   -1.4709   -1.0855    0.1264 C   0  0  0  0  0  0  0  0  0  0  0  0
   -0.9297    0.2299    0.3312 N   0  0  0  0  0  0  0  0  0  0  0  0
   -1.7505    1.1968    0.8095 C   0  0  0  0  0  0  0  0  0  0  0  0
   -1.3277    2.4910    1.0340 C   0  0  0  0  0  0  0  0  0  0  0  0
   -2.2724    3.5658    1.3674 C   0  0  0  0  0  0  0  0  0  0  0  0
   -3.3410    3.5634    0.6835 O   0  0  0  0  0  0  0  0  0  0  0  0
   -1.7251    4.8349    1.5853 O   0  0  0  0  0  0  0  0  0  0  0  0
    0.0040    2.7528    0.7344 C   0  0  0  0  0  0  0  0  0  0  0  0
    0.4426    3.9133    0.9162 O   0  0  0  0  0  0  0  0  0  0  0  0
    0.5902    1.9477   -0.2338 C   0  0  0  0  0  0  0  0  0  0  0  0
    1.6598    2.3723   -1.0034 C   0  0  0  0  0  0  0  0  0  0  0  0
    2.5747    1.4060   -1.4023 C   0  0  0  0  0  0  0  0  0  0  0  0
    3.8252    1.7425   -1.7965 F   0  0  0  0  0  0  0  0  0  0  0  0
    2.3059    0.0565   -1.2002 C   0  0  0  0  0  0  0  0  0  0  0  0
    3.3393   -0.9352   -1.2396 N   0  0  0  0  0  0  0  0  0  0  0  0
    3.4411   -2.1921   -0.5010 C   0  0  0  0  0  0  0  0  0  0  0  0
    4.5560   -1.5353    0.2990 C   0  0  0  0  0  0  0  0  0  0  0  0
    5.5934   -2.3740    0.6602 O   0  0  0  0  0  0  0  0  0  0  0  0
    4.7743   -0.7862   -1.0101 C   0  0  0  0  0  0  0  0  0  0  0  0
    0.9869   -0.2565   -0.9398 C   0  0  0  0  0  0  0  0  0  0  0  0
    0.4664   -1.8959   -1.1900 Cl  0  0  0  0  0  0  0  0  0  0  0  0
    0.0773    0.6765   -0.4582 C   0  0  0  0  0  0  0  0  0  0  0  0
   -2.6602   -1.0696   -0.6024 C   0  0  0  0  0  0  0  0  0  0  0  0
   -2.9347   -0.0758   -1.4911 F   0  0  0  0  0  0  0  0  0  0  0  0
   -3.4571   -2.2064   -0.6391 C   0  0  0  0  0  0  0  0  0  0  0  0
   -3.0743   -3.2422    0.1930 C   0  0  0  0  0  0  0  0  0  0  0  0
   -3.7005   -4.4402    0.1151 F   0  0  0  0  0  0  0  0  0  0  0  0
  1  2  1  0
  2  3  2  0
  3  4  1  0
  4  5  1  0
  5  6  1  0
  6  7  2  0
  7  8  1  0
  8  9  2  0
  8 10  1  0
  7 11  1  0
 11 12  2  0
 11 13  1  0
 13 14  2  0
 14 15  1  0
 15 16  1  0
 15 17  2  0
 17 18  1  0
 18 19  1  0
 19 20  1  0
 20 21  1  0
 20 22  1  0
 17 23  1  0
 23 24  1  0
 23 25  2  0
  4 26  2  0
 26 27  1  0
 26 28  1  0
 28 29  2  0
 29 30  1  0
 29  2  1  0
 25  5  1  0
 25 13  1  0
 22 18  1  0
M  END
>  <supplier_code>  (1637) 
DB11943

>  <zinc_id>  (1637) 
ZINC000003827556

>  <catalog_short_name>  (1637) 
dbfda

$$$$

     RDKit          3D

 37 41  0  0  0  0  0  0  0  0999 V2000
    9.4043   -1.6294   -0.1218 C   0  0  0  0  0  0  0  0  0  0  0  0
    9.7115   -0.1883    0.1731 C   0  0  0  0  0  0  0  0  0  0  0  0
    8.5465    0.6059   -0.1201 N   0  0  0  0  0  0  0  0  0  0  0  0
    7.9643    0.3225   -1.4076 C   0  0  0  0  0  0  0  0  0  0  0  0
    6.4887    0.6941   -1.4103 C   0  0  0  0  0  0  0  0  0  0  0  0
    6.2718    1.9059   -0.6229 N   0  0  0  0  0  0  0  0  0  0  0  0
    4.8268    2.1276   -0.6339 C   0  0  0  0  0  0  0  0  0  0  0  0
    4.2548    1.0652    0.2363 C   0  0  0  0  0  0  0  0  0  0  0  0
    4.1621   -0.2486   -0.2010 C   0  0  0  0  0  0  0  0  0  0  0  0
    3.1235   -1.0004    0.3314 C   0  0  0  0  0  0  0  0  0  0  0  0
    2.4437   -0.5884    1.4698 C   0  0  0  0  0  0  0  0  0  0  0  0
    1.0691   -0.9584    1.6416 N   0  0  0  0  0  0  0  0  0  0  0  0
    0.1422   -0.4919    0.6616 C   0  0  0  0  0  0  0  0  0  0  0  0
    0.4707    0.3823   -0.2922 N   0  0  0  0  0  0  0  0  0  0  0  0
   -0.3395    0.5178   -1.3653 C   0  0  0  0  0  0  0  0  0  0  0  0
   -1.5973   -0.0682   -1.3964 C   0  0  0  0  0  0  0  0  0  0  0  0
   -2.1521   -0.2846   -2.6224 F   0  0  0  0  0  0  0  0  0  0  0  0
   -1.8966   -1.0197   -0.4306 C   0  0  0  0  0  0  0  0  0  0  0  0
   -3.3199   -1.3345   -0.2515 C   0  0  0  0  0  0  0  0  0  0  0  0
   -4.3246   -0.5355   -0.7834 C   0  0  0  0  0  0  0  0  0  0  0  0
   -5.4730   -0.3177   -0.0305 C   0  0  0  0  0  0  0  0  0  0  0  0
   -5.6681   -0.9498    1.1924 C   0  0  0  0  0  0  0  0  0  0  0  0
   -6.6276   -0.3088    1.8844 N   0  0  0  0  0  0  0  0  0  0  0  0
   -6.9694    0.7776    1.1499 C   0  0  0  0  0  0  0  0  0  0  0  0
   -7.6728    2.0115    1.6176 C   0  0  0  0  0  0  0  0  0  0  0  0
   -6.4702    0.5978   -0.0955 N   0  0  0  0  0  0  0  0  0  0  0  0
   -6.9244    1.2282   -1.3241 C   0  0  0  0  0  0  0  0  0  0  0  0
   -8.2451    1.9337   -1.0398 C   0  0  0  0  0  0  0  0  0  0  0  0
   -7.1664    0.2346   -2.4254 C   0  0  0  0  0  0  0  0  0  0  0  0
   -4.9655   -2.1399    1.3468 C   0  0  0  0  0  0  0  0  0  0  0  0
   -5.2722   -2.9113    2.4239 F   0  0  0  0  0  0  0  0  0  0  0  0
   -3.7271   -2.2283    0.7281 C   0  0  0  0  0  0  0  0  0  0  0  0
   -1.0738   -1.0492    0.6466 N   0  0  0  0  0  0  0  0  0  0  0  0
    2.9901    0.4625    2.1283 N   0  0  0  0  0  0  0  0  0  0  0  0
    3.8865    1.2934    1.5514 C   0  0  0  0  0  0  0  0  0  0  0  0
    6.6035    1.6429    0.7762 C   0  0  0  0  0  0  0  0  0  0  0  0
    7.5254    0.4493    0.8954 C   0  0  0  0  0  0  0  0  0  0  0  0
  1  2  1  0
  2  3  1  0
  3  4  1  0
  4  5  1  0
  5  6  1  0
  6  7  1  0
  7  8  1  0
  8  9  2  0
  9 10  1  0
 10 11  2  0
 11 12  1  0
 12 13  1  0
 13 14  2  0
 14 15  1  0
 15 16  2  0
 16 17  1  0
 16 18  1  0
 18 19  1  0
 19 20  2  0
 20 21  1  0
 21 22  2  0
 22 23  1  0
 23 24  2  0
 24 25  1  0
 24 26  1  0
 26 27  1  0
 27 28  1  0
 27 29  1  0
 22 30  1  0
 30 31  1  0
 30 32  2  0
 18 33  2  0
 11 34  1  0
 34 35  2  0
  6 36  1  0
 36 37  1  0
 37  3  1  0
 35  8  1  0
 33 13  1  0
 32 19  1  0
 26 21  1  0
M  END
>  <supplier_code>  (1638) 
DB12001

>  <zinc_id>  (1638) 
ZINC000072318121

>  <catalog_short_name>  (1638) 
dbfda

$$$$

     RDKit          3D

 60 66  0  0  0  0  0  0  0  0999 V2000
    1.0090   -3.5281    0.5459 C   0  0  0  0  0  0  0  0  0  0  0  0
    0.9595   -2.2476    0.0456 C   0  0  0  0  0  0  0  0  0  0  0  0
   -0.0111   -1.3419    0.9410 C   0  0  2  0  0  0  0  0  0  0  0  0
   -0.9913   -0.7977   -0.3417 C   0  0  2  0  0  0  0  0  0  0  0  0
   -1.3778    0.5108    0.6112 C   0  0  0  0  0  0  0  0  0  0  0  0
   -0.0899    0.9159    0.1597 N   0  0  0  0  0  0  0  0  0  0  0  0
    0.1750    2.0447   -0.4848 C   0  0  0  0  0  0  0  0  0  0  0  0
    0.9936    2.0034   -1.4345 O   0  0  0  0  0  0  0  0  0  0  0  0
   -0.6974    3.3836   -0.3841 C   0  0  2  0  0  0  0  0  0  0  0  0
    0.6662    4.3211   -0.4657 C   0  0  0  0  0  0  0  0  0  0  0  0
    1.7216    3.6095    0.3490 C   0  0  0  0  0  0  0  0  0  0  0  0
    0.9756    4.4628   -1.9008 C   0  0  0  0  0  0  0  0  0  0  0  0
    0.6143    5.5356    0.2564 C   0  0  0  0  0  0  0  0  0  0  0  0
   -0.7922    3.4928    1.1834 N   0  0  0  0  0  0  0  0  0  0  0  0
   -1.5644    4.6312    1.5783 C   0  0  0  0  0  0  0  0  0  0  0  0
   -1.3440    5.1842    2.7003 O   0  0  0  0  0  0  0  0  0  0  0  0
   -2.2485    5.4256    0.7025 O   0  0  0  0  0  0  0  0  0  0  0  0
   -2.6960    4.7272   -0.6113 C   0  0  2  0  0  0  0  0  0  0  0  0
   -4.0034    5.8207   -0.7601 C   0  0  0  0  0  0  0  0  0  0  0  0
   -4.2091    4.3422    0.0841 C   0  0  1  0  0  0  0  0  0  0  0  0
   -4.6684    3.5923   -1.3025 C   0  0  0  0  0  0  0  0  0  0  0  0
   -5.6628    2.5618   -0.9135 C   0  0  0  0  0  0  0  0  0  0  0  0
   -4.9204    1.2982   -0.8392 C   0  0  0  0  0  0  0  0  0  0  0  0
   -4.0047    0.9204   -1.9862 C   0  0  0  0  0  0  0  0  0  0  0  0
   -3.2695   -0.4015   -1.6057 C   0  0  0  0  0  0  0  0  0  0  0  0
   -2.4279   -0.9083   -2.4603 F   0  0  0  0  0  0  0  0  0  0  0  0
   -4.2035   -1.1530   -2.4189 F   0  0  0  0  0  0  0  0  0  0  0  0
   -3.8753   -0.9051   -0.3942 C   0  0  0  0  0  0  0  0  0  0  0  0
   -5.2219   -1.1372   -0.2850 N   0  0  0  0  0  0  0  0  0  0  0  0
   -5.8247   -1.9979    0.5544 C   0  0  0  0  0  0  0  0  0  0  0  0
   -7.1688   -2.1475    0.7256 C   0  0  0  0  0  0  0  0  0  0  0  0
   -7.6413   -3.3182    1.3242 C   0  0  0  0  0  0  0  0  0  0  0  0
   -6.8732   -4.4712    1.1316 C   0  0  0  0  0  0  0  0  0  0  0  0
   -7.4189   -5.7226    0.9632 O   0  0  0  0  0  0  0  0  0  0  0  0
   -7.3976   -6.4482   -0.2357 C   0  0  0  0  0  0  0  0  0  0  0  0
   -5.5043   -4.3652    0.9651 C   0  0  0  0  0  0  0  0  0  0  0  0
   -5.0177   -3.0809    0.8902 C   0  0  0  0  0  0  0  0  0  0  0  0
   -3.7483   -2.7146    1.2015 N   0  0  0  0  0  0  0  0  0  0  0  0
   -3.1803   -1.6261    0.6064 C   0  0  0  0  0  0  0  0  0  0  0  0
   -1.9527   -1.8379    0.2146 O   0  0  0  0  0  0  0  0  0  0  0  0
    0.8846    0.0971    1.0760 C   0  0  2  0  0  0  0  0  0  0  0  0
    2.0024   -0.1772   -0.0301 C   0  0  0  0  0  0  0  0  0  0  0  0
    1.9431   -0.4446   -1.1213 O   0  0  0  0  0  0  0  0  0  0  0  0
    3.1552   -0.4751    0.7583 N   0  0  0  0  0  0  0  0  0  0  0  0
    4.4564   -0.1551    0.2368 C   0  0  2  0  0  0  0  0  0  0  0  0
    5.2379   -1.2007   -0.1385 C   0  0  0  0  0  0  0  0  0  0  0  0
    5.0066   -1.7631   -1.2552 O   0  0  0  0  0  0  0  0  0  0  0  0
    5.6214   -2.1717    0.8488 N   0  0  0  0  0  0  0  0  0  0  0  0
    6.9276   -3.2575    0.4679 S   0  0  0  0  0  0  0  0  0  0  0  0
    6.8357   -3.5520   -1.0081 O   0  0  0  0  0  0  0  0  0  0  0  0
    6.8114   -4.5588    1.1892 O   0  0  0  0  0  0  0  0  0  0  0  0
    8.4081   -2.3696    0.8388 C   0  0  0  0  0  0  0  0  0  0  0  0
    9.7346   -2.9678    0.4753 C   0  0  0  0  0  0  0  0  0  0  0  0
    8.3635   -0.8586    0.6853 C   0  0  0  0  0  0  0  0  0  0  0  0
    8.3365   -1.5020    2.0868 C   0  0  0  0  0  0  0  0  0  0  0  0
    5.0014    0.8906    1.3916 C   0  0  0  0  0  0  0  0  0  0  0  0
    4.6606    1.4203   -0.1513 C   0  0  1  0  0  0  0  0  0  0  0  0
    6.2366    1.4198   -0.6426 C   0  0  0  0  0  0  0  0  0  0  0  0
    6.7720    0.3874   -1.0123 F   0  0  0  0  0  0  0  0  0  0  0  0
    6.4972    2.6055   -1.2015 F   0  0  0  0  0  0  0  0  0  0  0  0
  1  2  1  0
  3  2  1  6
  3  4  1  0
  4  5  1  0
  5  6  1  0
  6  7  1  0
  7  8  2  0
  7  9  1  0
  9 10  1  1
 10 11  1  0
 10 12  1  0
 10 13  1  0
  9 14  1  0
 14 15  1  0
 15 16  2  0
 15 17  1  0
 18 17  1  1
 18 19  1  0
 20 19  1  6
 20 21  1  0
 21 22  1  0
 22 23  1  0
 23 24  1  0
 24 25  1  0
 25 26  1  0
 25 27  1  0
 25 28  1  0
 28 29  2  0
 29 30  1  0
 30 31  2  0
 31 32  1  0
 32 33  2  0
 33 34  1  0
 34 35  1  0
 33 36  1  0
 36 37  2  0
 37 38  1  0
 38 39  2  0
 39 40  1  0
  6 41  1  0
 41 42  1  6
 42 43  2  0
 42 44  1  0
 45 44  1  1
 45 46  1  0
 46 47  2  0
 46 48  1  0
 48 49  1  0
 49 50  2  0
 49 51  2  0
 49 52  1  0
 52 53  1  0
 52 54  1  0
 54 55  1  0
 45 56  1  0
 56 57  1  0
 57 58  1  6
 58 59  1  0
 58 60  1  0
 41  3  1  0
 57 45  1  0
  4 40  1  1
 55 52  1  0
 20 18  1  0
 39 28  1  0
 37 30  1  0
M  END
>  <supplier_code>  (1639) 
DB12026

>  <zinc_id>  (1639) 
ZINC000218037687

>  <catalog_short_name>  (1639) 
dbfda

$$$$

     RDKit          3D

 38 41  0  0  0  0  0  0  0  0999 V2000
   -5.9133   -2.9449    1.3166 C   0  0  0  0  0  0  0  0  0  0  0  0
   -5.1995   -2.0675    0.6225 C   0  0  0  0  0  0  0  0  0  0  0  0
   -5.2055   -2.0585   -0.7677 C   0  0  0  0  0  0  0  0  0  0  0  0
   -4.8264   -0.7507   -1.0485 C   0  0  0  0  0  0  0  0  0  0  0  0
   -4.0525   -0.2822   -0.0225 N   0  0  0  0  0  0  0  0  0  0  0  0
   -3.9382    1.1547    0.0291 C   0  0  0  0  0  0  0  0  0  0  0  0
   -5.0623    1.9764    0.0037 C   0  0  0  0  0  0  0  0  0  0  0  0
   -5.1134    3.1731    0.7087 C   0  0  0  0  0  0  0  0  0  0  0  0
   -6.2613    4.3931    0.1769 Cl  0  0  0  0  0  0  0  0  0  0  0  0
   -4.1230    3.4412    1.6443 C   0  0  0  0  0  0  0  0  0  0  0  0
   -2.9131    2.7669    1.5350 C   0  0  0  0  0  0  0  0  0  0  0  0
   -2.9212    1.6025    0.7725 C   0  0  0  0  0  0  0  0  0  0  0  0
   -1.4311    1.0086    0.5315 C   0  0  1  0  0  0  0  0  0  0  0  0
   -1.8723   -0.3601   -0.0639 O   0  0  0  0  0  0  0  0  0  0  0  0
   -0.9361   -1.2738    0.4648 C   0  0  0  0  0  0  0  0  0  0  0  0
    0.1022   -1.7579   -0.3240 C   0  0  0  0  0  0  0  0  0  0  0  0
    1.2177   -2.3813    0.2201 C   0  0  0  0  0  0  0  0  0  0  0  0
    2.5034   -2.2680   -0.4994 C   0  0  0  0  0  0  0  0  0  0  0  0
    2.8895   -1.0575   -1.0723 C   0  0  0  0  0  0  0  0  0  0  0  0
    4.1095   -0.4618   -0.7607 C   0  0  0  0  0  0  0  0  0  0  0  0
    5.0587   -1.2023   -0.0790 C   0  0  0  0  0  0  0  0  0  0  0  0
    6.3303   -0.6805    0.4334 C   0  0  0  0  0  0  0  0  0  0  0  0
    6.1972    0.9556    0.2518 C   0  0  2  0  0  0  0  0  0  0  0  0
    6.3467    0.8596   -1.3227 N   0  0  0  0  0  0  0  0  0  0  0  0
    7.7850    1.1975    0.4721 C   0  0  0  0  0  0  0  0  0  0  0  0
    8.5530    0.4334   -0.1387 O   0  0  0  0  0  0  0  0  0  0  0  0
    8.0328    2.5606    0.2637 O   0  0  0  0  0  0  0  0  0  0  0  0
    4.8930   -2.5615   -0.1309 C   0  0  0  0  0  0  0  0  0  0  0  0
    3.5872   -3.0431   -0.0949 C   0  0  0  0  0  0  0  0  0  0  0  0
    1.2150   -2.4922    1.5622 N   0  0  0  0  0  0  0  0  0  0  0  0
    0.3618   -1.8797    2.3799 C   0  0  0  0  0  0  0  0  0  0  0  0
    0.7985   -1.2767    3.6100 N   0  0  0  0  0  0  0  0  0  0  0  0
   -0.7695   -1.4056    1.8029 N   0  0  0  0  0  0  0  0  0  0  0  0
   -1.2585    1.7607   -0.9356 C   0  0  0  0  0  0  0  0  0  0  0  0
    0.0168    1.4668   -1.3395 F   0  0  0  0  0  0  0  0  0  0  0  0
   -1.4284    3.0874   -0.5884 F   0  0  0  0  0  0  0  0  0  0  0  0
   -2.1392    1.2836   -1.7921 F   0  0  0  0  0  0  0  0  0  0  0  0
   -4.6333   -0.9161    1.0043 N   0  0  0  0  0  0  0  0  0  0  0  0
  1  2  1  0
  2  3  1  0
  3  4  2  0
  4  5  1  0
  5  6  1  0
  6  7  2  0
  7  8  1  0
  8  9  1  0
  8 10  2  0
 10 11  1  0
 11 12  2  0
 13 12  1  1
 13 14  1  0
 14 15  1  0
 15 16  2  0
 16 17  1  0
 17 18  1  0
 18 19  2  0
 19 20  1  0
 20 21  2  0
 21 22  1  0
 23 22  1  1
 23 24  1  0
 23 25  1  0
 25 26  2  0
 25 27  1  0
 21 28  1  0
 28 29  2  0
 17 30  2  0
 30 31  1  0
 31 32  1  0
 31 33  2  0
 13 34  1  0
 34 35  1  0
 34 36  1  0
 34 37  1  0
  5 38  1  0
 38  2  2  0
 12  6  1  0
 33 15  1  0
 29 18  1  0
M  END
>  <supplier_code>  (1640) 
DB12095

>  <zinc_id>  (1640) 
ZINC000084758235

>  <catalog_short_name>  (1640) 
dbfda

$$$$

     RDKit          3D

 20 21  0  0  0  0  0  0  0  0999 V2000
    5.5879    1.4228    0.4659 O   0  0  0  0  0  0  0  0  0  0  0  0
    4.6617    1.2140    0.0298 C   0  0  0  0  0  0  0  0  0  0  0  0
    3.9974    2.1731   -0.7435 O   0  0  0  0  0  0  0  0  0  0  0  0
    4.2179   -0.1858   -0.0814 C   0  0  0  0  0  0  0  0  0  0  0  0
    2.8668   -0.3328    0.8534 C   0  0  2  0  0  0  0  0  0  0  0  0
    2.2026   -1.3766   -0.2371 C   0  0  0  0  0  0  0  0  0  0  0  0
    0.8638   -1.7560    0.2936 C   0  0  0  0  0  0  0  0  0  0  0  0
    0.0917   -0.3786    0.6985 C   0  0  2  0  0  0  0  0  0  0  0  0
   -1.0656   -0.6158   -0.3239 N   0  0  0  0  0  0  0  0  0  0  0  0
   -1.8562   -1.7645   -0.1229 C   0  0  0  0  0  0  0  0  0  0  0  0
   -1.2166   -2.8300    0.0535 O   0  0  0  0  0  0  0  0  0  0  0  0
   -3.3168   -1.7605    0.0938 C   0  0  0  0  0  0  0  0  0  0  0  0
   -3.8762   -0.3749    0.0662 C   0  0  0  0  0  0  0  0  0  0  0  0
   -4.0174    0.5116    1.0969 C   0  0  0  0  0  0  0  0  0  0  0  0
   -4.0782    1.8076    0.7114 C   0  0  0  0  0  0  0  0  0  0  0  0
   -4.8232    1.9983   -0.4368 C   0  0  0  0  0  0  0  0  0  0  0  0
   -4.5136    0.5210   -1.2500 S   0  0  0  0  0  0  0  0  0  0  0  0
    1.0041    0.5785   -0.3761 B   0  0  0  0  0  0  0  0  0  0  0  0
    1.0247    0.2476   -1.7816 O   0  0  0  0  0  0  0  0  0  0  0  0
    2.2452    0.9011    0.2335 O   0  0  0  0  0  0  0  0  0  0  0  0
  1  2  2  0
  2  3  1  0
  2  4  1  0
  5  4  1  6
  5  6  1  0
  6  7  1  0
  7  8  1  0
  8  9  1  6
  9 10  1  0
 10 11  2  0
 10 12  1  0
 12 13  1  0
 13 14  2  0
 14 15  1  0
 15 16  2  0
 16 17  1  0
  8 18  1  0
 18 19  1  0
 18 20  1  0
 20  5  1  0
 17 13  1  0
M  END
>  <supplier_code>  (1641) 
DB12107

>  <zinc_id>  (1641) 
ZINC000199517773

>  <catalog_short_name>  (1641) 
dbfda

$$$$

     RDKit          3D

 13 14  0  0  0  0  0  0  0  0999 V2000
    3.5063    1.6512    0.3201 C   0  0  0  0  0  0  0  0  0  0  0  0
    2.5732    0.5880   -0.1636 C   0  0  0  0  0  0  0  0  0  0  0  0
    1.4265    0.6882   -0.7338 N   0  0  0  0  0  0  0  0  0  0  0  0
    0.5094   -0.2256   -0.1974 N   0  0  0  0  0  0  0  0  0  0  0  0
   -0.8980   -0.0837    0.0113 C   0  0  0  0  0  0  0  0  0  0  0  0
   -1.8354   -0.2103   -0.9689 C   0  0  0  0  0  0  0  0  0  0  0  0
   -3.1016    0.2883   -0.7019 C   0  0  0  0  0  0  0  0  0  0  0  0
   -3.3673    0.9327    0.4988 C   0  0  0  0  0  0  0  0  0  0  0  0
   -2.5621    0.6441    1.5731 C   0  0  0  0  0  0  0  0  0  0  0  0
   -1.2873    0.1628    1.3112 C   0  0  0  0  0  0  0  0  0  0  0  0
    1.3317   -1.2888    0.2998 C   0  0  0  0  0  0  0  0  0  0  0  0
    0.9513   -2.2993    0.9234 O   0  0  0  0  0  0  0  0  0  0  0  0
    2.7533   -0.8475    0.2003 C   0  0  0  0  0  0  0  0  0  0  0  0
  1  2  1  0
  2  3  2  0
  3  4  1  0
  4  5  1  0
  5  6  2  0
  6  7  1  0
  7  8  2  0
  8  9  1  0
  9 10  2  0
  4 11  1  0
 11 12  2  0
 11 13  1  0
 13  2  1  0
 10  5  1  0
M  END
>  <supplier_code>  (1642) 
DB12243

>  <zinc_id>  (1642) 
ZINC000018203737

>  <catalog_short_name>  (1642) 
dbfda

$$$$

     RDKit          3D

 40 44  0  0  0  0  0  0  0  0999 V2000
    1.2265   -1.2824   -2.3635 C   0  0  0  0  0  0  0  0  0  0  0  0
    0.7675    0.0607   -2.4709 O   0  0  0  0  0  0  0  0  0  0  0  0
    0.8830    0.8469   -1.3206 C   0  0  0  0  0  0  0  0  0  0  0  0
    2.1384    1.2274   -0.8638 C   0  0  0  0  0  0  0  0  0  0  0  0
    2.3870    1.5404    0.4544 C   0  0  0  0  0  0  0  0  0  0  0  0
    3.7356    1.5226    0.9299 N   0  0  0  0  0  0  0  0  0  0  0  0
    4.5796    2.7063    0.7835 C   0  0  0  0  0  0  0  0  0  0  0  0
    5.5769    2.3836   -0.2904 C   0  0  0  0  0  0  0  0  0  0  0  0
    6.3449    1.1328   -0.0758 C   0  0  0  0  0  0  0  0  0  0  0  0
    7.6885    1.3054    0.3825 N   0  0  0  0  0  0  0  0  0  0  0  0
    7.9546    0.7380    1.6762 C   0  0  0  0  0  0  0  0  0  0  0  0
    8.0938   -0.7610    1.6471 C   0  0  0  0  0  0  0  0  0  0  0  0
    8.7393   -1.2488    0.4503 N   0  0  0  0  0  0  0  0  0  0  0  0
    9.5971   -2.3907    0.7421 C   0  0  0  0  0  0  0  0  0  0  0  0
    9.5369   -0.2156   -0.1776 C   0  0  0  0  0  0  0  0  0  0  0  0
    8.6145    0.8858   -0.6369 C   0  0  0  0  0  0  0  0  0  0  0  0
    5.6093   -0.0152    0.4960 C   0  0  0  0  0  0  0  0  0  0  0  0
    4.4177    0.3193    1.3322 C   0  0  0  0  0  0  0  0  0  0  0  0
    1.3274    1.4008    1.3424 C   0  0  0  0  0  0  0  0  0  0  0  0
    0.0446    1.1336    0.9290 C   0  0  0  0  0  0  0  0  0  0  0  0
   -0.1734    0.9110   -0.4240 C   0  0  0  0  0  0  0  0  0  0  0  0
   -1.4115    0.3367   -0.8512 N   0  0  0  0  0  0  0  0  0  0  0  0
   -1.9978   -0.7383   -0.1141 C   0  0  0  0  0  0  0  0  0  0  0  0
   -1.3495   -1.2788    0.9297 N   0  0  0  0  0  0  0  0  0  0  0  0
   -2.0451   -1.9884    1.8440 C   0  0  0  0  0  0  0  0  0  0  0  0
   -3.4292   -1.9050    1.8943 C   0  0  0  0  0  0  0  0  0  0  0  0
   -4.2973   -1.9182    3.4252 Cl  0  0  0  0  0  0  0  0  0  0  0  0
   -4.0598   -1.5378    0.7282 C   0  0  0  0  0  0  0  0  0  0  0  0
   -5.4859   -1.4211    0.7249 N   0  0  0  0  0  0  0  0  0  0  0  0
   -6.0186   -0.1286    0.4167 C   0  0  0  0  0  0  0  0  0  0  0  0
   -5.2617    1.0165    0.6106 C   0  0  0  0  0  0  0  0  0  0  0  0
   -5.8055    2.2667    0.4116 C   0  0  0  0  0  0  0  0  0  0  0  0
   -6.9614    2.3327   -0.3537 C   0  0  0  0  0  0  0  0  0  0  0  0
   -7.4898    1.1869   -0.9356 C   0  0  0  0  0  0  0  0  0  0  0  0
   -7.0168   -0.0588   -0.5469 C   0  0  0  0  0  0  0  0  0  0  0  0
   -8.0354   -1.5013   -0.8711 P   0  0  0  0  0  0  0  0  0  0  0  0
   -7.3236   -2.9501   -0.0552 C   0  0  0  0  0  0  0  0  0  0  0  0
   -9.7245   -1.1732   -0.2762 C   0  0  0  0  0  0  0  0  0  0  0  0
   -8.0766   -1.7187   -2.3726 O   0  0  0  0  0  0  0  0  0  0  0  0
   -3.2995   -1.0219   -0.2578 N   0  0  0  0  0  0  0  0  0  0  0  0
  1  2  1  0
  2  3  1  0
  3  4  2  0
  4  5  1  0
  5  6  1  0
  6  7  1  0
  7  8  1  0
  8  9  1  0
  9 10  1  0
 10 11  1  0
 11 12  1  0
 12 13  1  0
 13 14  1  0
 13 15  1  0
 15 16  1  0
  9 17  1  0
 17 18  1  0
  5 19  2  0
 19 20  1  0
 20 21  2  0
 21 22  1  0
 22 23  1  0
 23 24  2  0
 24 25  1  0
 25 26  2  0
 26 27  1  0
 26 28  1  0
 28 29  1  0
 29 30  1  0
 30 31  2  0
 31 32  1  0
 32 33  2  0
 33 34  1  0
 34 35  2  0
 35 36  1  0
 36 37  1  0
 36 38  1  0
 36 39  2  0
 28 40  2  0
 21  3  1  0
 40 23  1  0
 18  6  1  0
 35 30  1  0
 16 10  1  0
M  END
>  <supplier_code>  (1643) 
DB12267

>  <zinc_id>  (1643) 
ZINC000148723177

>  <catalog_short_name>  (1643) 
dbfda

$$$$

     RDKit          3D

 24 27  0  0  0  0  0  0  0  0999 V2000
    6.5729   -0.1585   -0.3979 C   0  0  0  0  0  0  0  0  0  0  0  0
    5.8255   -1.3663   -0.6835 N   0  0  0  0  0  0  0  0  0  0  0  0
    5.2485   -1.8544    0.5631 C   0  0  0  0  0  0  0  0  0  0  0  0
    3.8294   -1.3854    0.6227 C   0  0  0  0  0  0  0  0  0  0  0  0
    3.5497   -0.1081    1.0883 C   0  0  0  0  0  0  0  0  0  0  0  0
    2.4604    0.5710    0.5742 C   0  0  0  0  0  0  0  0  0  0  0  0
    1.6727    0.0402   -0.4408 C   0  0  0  0  0  0  0  0  0  0  0  0
    0.3231    0.5565   -0.7134 C   0  0  0  0  0  0  0  0  0  0  0  0
   -0.0401    1.8360   -0.5683 N   0  0  0  0  0  0  0  0  0  0  0  0
   -1.3529    1.9461   -0.2899 C   0  0  0  0  0  0  0  0  0  0  0  0
   -2.0775    2.9259    0.3775 C   0  0  0  0  0  0  0  0  0  0  0  0
   -3.2681    2.6260    1.0177 C   0  0  0  0  0  0  0  0  0  0  0  0
   -4.1165    3.6133    1.4155 F   0  0  0  0  0  0  0  0  0  0  0  0
   -3.6975    1.3153    1.1747 C   0  0  0  0  0  0  0  0  0  0  0  0
   -3.0480    0.3652    0.4385 C   0  0  0  0  0  0  0  0  0  0  0  0
   -1.8754    0.6707   -0.2429 C   0  0  0  0  0  0  0  0  0  0  0  0
   -0.8722   -0.1512   -0.7425 C   0  0  0  0  0  0  0  0  0  0  0  0
   -0.8192   -1.6439   -0.8256 C   0  0  0  0  0  0  0  0  0  0  0  0
   -2.1736   -2.2426   -1.1121 C   0  0  0  0  0  0  0  0  0  0  0  0
   -3.0431   -2.2103    0.0626 N   0  0  0  0  0  0  0  0  0  0  0  0
   -3.5768   -0.9953    0.6047 C   0  0  0  0  0  0  0  0  0  0  0  0
   -4.3549   -1.0993    1.5922 O   0  0  0  0  0  0  0  0  0  0  0  0
    1.8734   -1.2856   -0.8054 C   0  0  0  0  0  0  0  0  0  0  0  0
    2.9601   -1.9652   -0.2929 C   0  0  0  0  0  0  0  0  0  0  0  0
  1  2  1  0
  2  3  1  0
  3  4  1  0
  4  5  2  0
  5  6  1  0
  6  7  2  0
  7  8  1  0
  8  9  1  0
  9 10  1  0
 10 11  2  0
 11 12  1  0
 12 13  1  0
 12 14  2  0
 14 15  1  0
 15 16  2  0
 16 17  1  0
 17 18  1  0
 18 19  1  0
 19 20  1  0
 20 21  1  0
 21 22  2  0
  7 23  1  0
 23 24  2  0
 24  4  1  0
 17  8  2  0
 16 10  1  0
 21 15  1  0
M  END
>  <supplier_code>  (1644) 
DB12332

>  <zinc_id>  (1644) 
ZINC000000025958

>  <catalog_short_name>  (1644) 
dbfda

$$$$

     RDKit          3D

 32 34  0  0  0  0  0  0  0  0999 V2000
   -3.4320    4.3718    0.0666 C   0  0  0  0  0  0  0  0  0  0  0  0
   -2.0809    4.1412    0.3770 O   0  0  0  0  0  0  0  0  0  0  0  0
   -1.5142    2.8846    0.3601 C   0  0  0  0  0  0  0  0  0  0  0  0
   -0.5770    2.4546    1.2650 C   0  0  0  0  0  0  0  0  0  0  0  0
   -0.1002    1.1736    1.1887 C   0  0  0  0  0  0  0  0  0  0  0  0
   -0.4740    0.2734    0.2009 C   0  0  0  0  0  0  0  0  0  0  0  0
    0.4470   -0.6708   -0.3575 N   0  0  0  0  0  0  0  0  0  0  0  0
    1.3847   -1.3861    0.4176 C   0  0  0  0  0  0  0  0  0  0  0  0
    1.0409   -1.6603    1.6037 O   0  0  0  0  0  0  0  0  0  0  0  0
    2.7698   -1.6251   -0.0084 C   0  0  0  0  0  0  0  0  0  0  0  0
    3.7530   -1.3131    0.9182 C   0  0  0  0  0  0  0  0  0  0  0  0
    5.0183   -0.8875    0.5338 C   0  0  0  0  0  0  0  0  0  0  0  0
    5.2157   -0.4645   -0.7694 C   0  0  0  0  0  0  0  0  0  0  0  0
    6.1963    0.5463   -1.1268 C   0  0  0  0  0  0  0  0  0  0  0  0
    5.8729    1.5614   -1.8689 N   0  0  0  0  0  0  0  0  0  0  0  0
    7.2876    0.7542   -0.2286 N   0  0  0  0  0  0  0  0  0  0  0  0
    7.4007    2.0248    0.4803 C   0  0  0  0  0  0  0  0  0  0  0  0
    7.8038   -0.4205    0.4696 C   0  0  0  0  0  0  0  0  0  0  0  0
    4.3642   -1.0001   -1.7270 C   0  0  0  0  0  0  0  0  0  0  0  0
    3.0850   -1.3705   -1.3342 C   0  0  0  0  0  0  0  0  0  0  0  0
   -1.4491    0.7084   -0.6891 C   0  0  0  0  0  0  0  0  0  0  0  0
   -2.2426   -0.3428   -1.3411 C   0  0  0  0  0  0  0  0  0  0  0  0
   -2.5667   -0.1821   -2.5566 O   0  0  0  0  0  0  0  0  0  0  0  0
   -2.9920   -1.3025   -0.6272 N   0  0  0  0  0  0  0  0  0  0  0  0
   -4.3482   -1.6326   -0.9052 C   0  0  0  0  0  0  0  0  0  0  0  0
   -5.2619   -0.7215   -1.4199 C   0  0  0  0  0  0  0  0  0  0  0  0
   -6.4958   -0.4922   -0.8232 C   0  0  0  0  0  0  0  0  0  0  0  0
   -6.9441   -1.3805    0.1474 C   0  0  0  0  0  0  0  0  0  0  0  0
   -8.0154   -0.8488    1.4389 Cl  0  0  0  0  0  0  0  0  0  0  0  0
   -6.2028   -2.5520    0.2481 C   0  0  0  0  0  0  0  0  0  0  0  0
   -4.8996   -2.5952   -0.1242 N   0  0  0  0  0  0  0  0  0  0  0  0
   -2.0433    1.9543   -0.5266 C   0  0  0  0  0  0  0  0  0  0  0  0
  1  2  1  0
  2  3  1  0
  3  4  2  0
  4  5  1  0
  5  6  2  0
  6  7  1  0
  7  8  1  0
  8  9  2  0
  8 10  1  0
 10 11  2  0
 11 12  1  0
 12 13  2  0
 13 14  1  0
 14 15  2  0
 14 16  1  0
 16 17  1  0
 16 18  1  0
 13 19  1  0
 19 20  2  0
  6 21  1  0
 21 22  1  0
 22 23  2  0
 22 24  1  0
 24 25  1  0
 25 26  2  0
 26 27  1  0
 27 28  2  0
 28 29  1  0
 28 30  1  0
 30 31  2  0
 21 32  2  0
 32  3  1  0
 20 10  1  0
 31 25  1  0
M  END
>  <supplier_code>  (1645) 
DB12364

>  <zinc_id>  (1645) 
ZINC000030691754

>  <catalog_short_name>  (1645) 
dbfda

$$$$

     RDKit          3D

 35 39  0  0  0  0  0  0  0  0999 V2000
    1.6655   -4.2310    0.4091 C   0  0  0  0  0  0  0  0  0  0  0  0
    0.8027   -3.1245    0.3417 O   0  0  0  0  0  0  0  0  0  0  0  0
    1.2294   -1.8045    0.2998 C   0  0  0  0  0  0  0  0  0  0  0  0
    2.5330   -1.4800    0.6548 C   0  0  0  0  0  0  0  0  0  0  0  0
    3.5379   -2.4469    0.5805 O   0  0  0  0  0  0  0  0  0  0  0  0
    4.5761   -2.2678   -0.3545 C   0  0  0  0  0  0  0  0  0  0  0  0
    5.8826   -1.8920    0.2905 C   0  0  0  0  0  0  0  0  0  0  0  0
    5.9921   -0.4068    0.5626 C   0  0  0  0  0  0  0  0  0  0  0  0
    6.8508    0.2614   -0.4080 N   0  0  0  0  0  0  0  0  0  0  0  0
    8.0142    0.7564    0.3224 C   0  0  0  0  0  0  0  0  0  0  0  0
    7.7955    2.2102    0.7263 C   0  0  0  0  0  0  0  0  0  0  0  0
    6.5320    2.3999    1.2788 O   0  0  0  0  0  0  0  0  0  0  0  0
    5.5090    2.0615    0.3800 C   0  0  0  0  0  0  0  0  0  0  0  0
    6.1297    1.4473   -0.8647 C   0  0  0  0  0  0  0  0  0  0  0  0
    2.7487   -0.2311    1.2246 C   0  0  0  0  0  0  0  0  0  0  0  0
    1.9669    0.7974    0.7134 C   0  0  0  0  0  0  0  0  0  0  0  0
    0.6616    0.5003    0.3454 C   0  0  0  0  0  0  0  0  0  0  0  0
    0.2680   -0.8204    0.2497 C   0  0  0  0  0  0  0  0  0  0  0  0
   -1.1072   -1.0697    0.0097 N   0  0  0  0  0  0  0  0  0  0  0  0
   -1.9106   -0.1508   -0.4379 C   0  0  0  0  0  0  0  0  0  0  0  0
   -3.2249   -0.4858   -0.8946 N   0  0  0  0  0  0  0  0  0  0  0  0
   -4.2935   -0.1755   -0.2597 C   0  0  0  0  0  0  0  0  0  0  0  0
   -4.1612    0.2445    1.0614 O   0  0  0  0  0  0  0  0  0  0  0  0
   -5.6403   -0.3316   -0.8248 C   0  0  0  0  0  0  0  0  0  0  0  0
   -6.3541    0.7780   -1.2617 C   0  0  0  0  0  0  0  0  0  0  0  0
   -7.7041    0.7887   -1.1509 N   0  0  0  0  0  0  0  0  0  0  0  0
   -8.3708   -0.1376   -0.4194 C   0  0  0  0  0  0  0  0  0  0  0  0
   -9.4339    0.2410    0.4627 N   0  0  0  0  0  0  0  0  0  0  0  0
   -7.7285   -1.3212   -0.2654 N   0  0  0  0  0  0  0  0  0  0  0  0
   -6.4119   -1.4566   -0.5583 C   0  0  0  0  0  0  0  0  0  0  0  0
   -1.6810    1.1820    0.0242 N   0  0  0  0  0  0  0  0  0  0  0  0
   -2.3833    2.4364   -0.2213 C   0  0  0  0  0  0  0  0  0  0  0  0
   -1.5867    3.4255    0.5840 C   0  0  0  0  0  0  0  0  0  0  0  0
   -0.3330    2.7628    0.8380 N   0  0  0  0  0  0  0  0  0  0  0  0
   -0.3709    1.5405    0.4185 C   0  0  0  0  0  0  0  0  0  0  0  0
  1  2  1  0
  2  3  1  0
  3  4  2  0
  4  5  1  0
  5  6  1  0
  6  7  1  0
  7  8  1  0
  8  9  1  0
  9 10  1  0
 10 11  1  0
 11 12  1  0
 12 13  1  0
 13 14  1  0
  4 15  1  0
 15 16  2  0
 16 17  1  0
 17 18  2  0
 18 19  1  0
 19 20  2  0
 20 21  1  0
 21 22  2  0
 22 23  1  0
 22 24  1  0
 24 25  2  0
 25 26  1  0
 26 27  2  0
 27 28  1  0
 27 29  1  0
 29 30  2  0
 20 31  1  0
 31 32  1  0
 32 33  1  0
 33 34  1  0
 34 35  2  0
 18  3  1  0
 30 24  1  0
 35 31  1  0
 14  9  1  0
 35 17  1  0
M  END
>  <supplier_code>  (1646) 
DB12483

>  <zinc_id>  (1646) 
ZINC000068247389

>  <catalog_short_name>  (1646) 
dbfda

$$$$

     RDKit          3D

 13 13  0  0  0  0  0  0  0  0999 V2000
    0.7595    2.5948   -0.9281 C   0  0  0  0  0  0  0  0  0  0  0  0
    0.1988    1.6507   -0.1037 C   0  0  0  0  0  0  0  0  0  0  0  0
   -0.7593    1.9710    0.8016 N   0  0  0  0  0  0  0  0  0  0  0  0
   -1.4060    0.8579    1.2035 C   0  0  0  0  0  0  0  0  0  0  0  0
   -1.0237   -0.1476    0.3265 C   0  0  0  0  0  0  0  0  0  0  0  0
   -1.7443   -1.3371   -0.0086 N   0  0  0  0  0  0  0  0  0  0  0  0
   -1.8819   -1.5903   -1.2250 O   0  0  0  0  0  0  0  0  0  0  0  0
   -2.8182   -1.6523    0.8034 O   0  0  0  0  0  0  0  0  0  0  0  0
    0.1348    0.2980   -0.2135 N   0  0  0  0  0  0  0  0  0  0  0  0
    1.0491   -0.4187   -1.0245 C   0  0  0  0  0  0  0  0  0  0  0  0
    2.0107   -1.3112    0.0237 C   0  0  1  0  0  0  0  0  0  0  0  0
    3.4002   -0.7389   -0.7305 C   0  0  0  0  0  0  0  0  0  0  0  0
    2.0805   -0.1763    1.0752 O   0  0  0  0  0  0  0  0  0  0  0  0
  1  2  1  0
  2  3  2  0
  3  4  1  0
  4  5  2  0
  5  6  1  0
  6  7  2  0
  6  8  1  0
  5  9  1  0
  9 10  1  0
 11 10  1  6
 11 12  1  0
 11 13  1  0
  9  2  1  0
M  CHG  2   6   1   8  -1
M  END
>  <supplier_code>  (1647) 
DB12834

>  <zinc_id>  (1647) 
ZINC000000000711

>  <catalog_short_name>  (1647) 
dbfda

$$$$

     RDKit          3D

 13 13  0  0  0  0  0  0  0  0999 V2000
    0.8733    2.5320    1.3575 C   0  0  0  0  0  0  0  0  0  0  0  0
    0.1963    1.7834    0.3252 C   0  0  0  0  0  0  0  0  0  0  0  0
   -0.7590    2.2111   -0.5147 N   0  0  0  0  0  0  0  0  0  0  0  0
   -1.4457    1.1752   -1.0348 C   0  0  0  0  0  0  0  0  0  0  0  0
   -0.8968    0.0275   -0.4756 C   0  0  0  0  0  0  0  0  0  0  0  0
   -1.5804   -1.2295   -0.3906 N   0  0  0  0  0  0  0  0  0  0  0  0
   -2.5576   -1.4478   -1.1257 O   0  0  0  0  0  0  0  0  0  0  0  0
   -1.6540   -1.8058    0.8669 O   0  0  0  0  0  0  0  0  0  0  0  0
    0.0957    0.4362    0.3522 N   0  0  0  0  0  0  0  0  0  0  0  0
    1.0116   -0.4469    1.0698 C   0  0  0  0  0  0  0  0  0  0  0  0
    1.5551   -1.3379   -0.2101 C   0  0  2  0  0  0  0  0  0  0  0  0
    2.9239   -1.7716    0.6030 C   0  0  0  0  0  0  0  0  0  0  0  0
    2.2376   -0.1258   -0.8231 O   0  0  0  0  0  0  0  0  0  0  0  0
  1  2  1  0
  2  3  2  0
  3  4  1  0
  4  5  2  0
  5  6  1  0
  6  7  2  0
  6  8  1  0
  5  9  1  0
  9 10  1  0
 11 10  1  1
 11 12  1  0
 11 13  1  0
  9  2  1  0
M  CHG  2   6   1   8  -1
M  END
>  <supplier_code>  (1648) 
DB12834

>  <zinc_id>  (1648) 
ZINC000001843047

>  <catalog_short_name>  (1648) 
dbfda

$$$$

     RDKit          3D

 17 17  0  0  0  0  0  0  0  0999 V2000
   -4.2004    0.8131    0.5053 C   0  0  0  0  0  0  0  0  0  0  0  0
   -3.8610    0.3715    0.3710 C   0  0  0  0  0  0  0  0  0  0  0  0
   -4.7899   -0.6956   -0.1599 C   0  0  0  0  0  0  0  0  0  0  0  0
   -3.3523    0.0146    1.7154 C   0  0  0  0  0  0  0  0  0  0  0  0
   -2.9806    0.9273   -0.5495 N   0  0  0  0  0  0  0  0  0  0  0  0
   -1.6396    1.2056   -0.1289 C   0  0  0  0  0  0  0  0  0  0  0  0
   -0.7807    0.1886   -1.1112 C   0  0  2  0  0  0  0  0  0  0  0  0
   -1.5168   -1.0339   -0.5586 O   0  0  0  0  0  0  0  0  0  0  0  0
    0.4788    0.1318   -0.0751 C   0  0  0  0  0  0  0  0  0  0  0  0
    0.7124   -1.0639    0.5320 C   0  0  0  0  0  0  0  0  0  0  0  0
    1.9920   -1.3433    0.9921 C   0  0  0  0  0  0  0  0  0  0  0  0
    3.0237   -1.0538    0.1069 C   0  0  0  0  0  0  0  0  0  0  0  0
    4.1128   -1.9126   -0.0671 O   0  0  0  0  0  0  0  0  0  0  0  0
    2.8536    0.0985   -0.6455 C   0  0  0  0  0  0  0  0  0  0  0  0
    4.0626    0.6919   -1.2567 C   0  0  0  0  0  0  0  0  0  0  0  0
    4.2997    1.9969   -0.8800 O   0  0  0  0  0  0  0  0  0  0  0  0
    1.5860    0.6635   -0.7350 C   0  0  0  0  0  0  0  0  0  0  0  0
  1  2  1  0
  2  3  1  0
  2  4  1  0
  2  5  1  0
  5  6  1  0
  7  6  1  1
  7  8  1  0
  7  9  1  0
  9 10  2  0
 10 11  1  0
 11 12  2  0
 12 13  1  0
 12 14  1  0
 14 15  1  0
 15 16  1  0
 14 17  2  0
 17  9  1  0
M  END
>  <supplier_code>  (1649) 
DB13139

>  <zinc_id>  (1649) 
ZINC000000007601

>  <catalog_short_name>  (1649) 
dbfda

$$$$

     RDKit          3D

  9  9  0  0  0  0  0  0  0  0999 V2000
    0.2194    1.6714    0.7968 N   0  0  0  0  0  0  0  0  0  0  0  0
   -0.0010    0.3230    0.2930 C   0  0  1  0  0  0  0  0  0  0  0  0
   -1.4564    0.0407    0.2821 C   0  0  0  0  0  0  0  0  0  0  0  0
   -2.2948    0.7338    0.9336 O   0  0  0  0  0  0  0  0  0  0  0  0
   -1.9585   -0.7539   -0.7470 O   0  0  0  0  0  0  0  0  0  0  0  0
    0.5919    0.2347   -1.0637 C   0  0  0  0  0  0  0  0  0  0  0  0
    1.3639   -1.1574   -0.5492 C   0  0  1  0  0  0  0  0  0  0  0  0
    2.6959   -0.4023   -0.3678 F   0  0  0  0  0  0  0  0  0  0  0  0
    0.8396   -0.6901    0.9697 C   0  0  0  0  0  0  0  0  0  0  0  0
  2  1  1  1
  2  3  1  0
  3  4  2  0
  3  5  1  0
  2  6  1  0
  6  7  1  0
  7  8  1  1
  7  9  1  0
  9  2  1  0
M  END
>  <supplier_code>  (1650) 
DB13146

>  <zinc_id>  (1650) 
ZINC000100070937

>  <catalog_short_name>  (1650) 
dbfda

$$$$

     RDKit          3D

 13 12  0  0  0  0  0  0  0  0999 V2000
    3.2706    0.2693   -1.4069 O   0  0  0  0  0  0  0  0  0  0  0  0
    2.2690   -0.1887   -1.0586 C   0  0  0  0  0  0  0  0  0  0  0  0
    2.3046   -1.4929   -0.7184 O   0  0  0  0  0  0  0  0  0  0  0  0
    1.4535    0.8184   -0.0492 C   0  0  2  0  0  0  0  0  0  0  0  0
    2.4852    0.5621    1.0600 O   0  0  0  0  0  0  0  0  0  0  0  0
    0.3421   -0.4262    0.4875 C   0  0  1  0  0  0  0  0  0  0  0  0
    0.7101   -0.3484    1.9480 O   0  0  0  0  0  0  0  0  0  0  0  0
   -0.9179    0.7273    0.7522 C   0  0  2  0  0  0  0  0  0  0  0  0
   -1.6620   -0.2766    1.5982 O   0  0  0  0  0  0  0  0  0  0  0  0
   -1.6815    0.3217   -0.7659 C   0  0  2  0  0  0  0  0  0  0  0  0
   -2.2768    1.7327   -0.8548 O   0  0  0  0  0  0  0  0  0  0  0  0
   -3.0914   -0.2685   -0.1124 C   0  0  0  0  0  0  0  0  0  0  0  0
   -3.2055   -1.4303   -0.8797 O   0  0  0  0  0  0  0  0  0  0  0  0
  1  2  2  0
  2  3  1  0
  4  2  1  6
  4  5  1  0
  4  6  1  0
  6  7  1  1
  6  8  1  0
  8  9  1  1
  8 10  1  0
 10 11  1  6
 10 12  1  0
 12 13  1  0
M  END
>  <supplier_code>  (1651) 
DB13180

>  <zinc_id>  (1651) 
ZINC000001531008

>  <catalog_short_name>  (1651) 
dbfda

$$$$

     RDKit          3D

  5  4  0  0  0  0  0  0  0  0999 V2000
   -1.3534   -0.6687   -0.8249 O   0  0  0  0  0  0  0  0  0  0  0  0
    0.0168   -0.0110   -0.0217 Si  0  0  0  0  0  4  0  0  0  0  0  0
   -0.3709    0.0538    1.6554 O   0  0  0  0  0  0  0  0  0  0  0  0
    1.4213   -0.9751   -0.2682 O   0  0  0  0  0  0  0  0  0  0  0  0
    0.2862    1.6010   -0.5406 O   0  0  0  0  0  0  0  0  0  0  0  0
  1  2  1  0
  2  3  1  0
  2  4  1  0
  2  5  1  0
M  END
>  <supplier_code>  (1652) 
DB13595

>  <zinc_id>  (1652) 
ZINC000242648948

>  <catalog_short_name>  (1652) 
dbfda

$$$$

     RDKit          3D

 10  9  0  0  0  0  0  0  0  0999 V2000
   -0.6967    3.3112    0.5935 O   0  0  0  0  0  0  0  0  0  0  0  0
   -0.4049    2.1211   -0.0494 C   0  0  0  0  0  0  0  0  0  0  0  0
   -0.7231    0.9078    0.7947 C   0  0  0  0  0  0  0  0  0  0  0  0
    0.0012   -0.1920    0.3031 N   0  0  0  0  0  0  0  0  0  0  0  0
   -0.5825   -1.0342   -0.6564 C   0  0  0  0  0  0  0  0  0  0  0  0
   -1.4450   -2.0810    0.0252 C   0  0  0  0  0  0  0  0  0  0  0  0
   -2.6823   -1.5535    0.3589 O   0  0  0  0  0  0  0  0  0  0  0  0
    1.1644   -0.6024    0.9696 C   0  0  0  0  0  0  0  0  0  0  0  0
    2.3982    0.0464    0.3686 C   0  0  0  0  0  0  0  0  0  0  0  0
    2.9707   -0.9233   -0.4652 O   0  0  0  0  0  0  0  0  0  0  0  0
  1  2  1  0
  2  3  1  0
  3  4  1  0
  4  5  1  0
  5  6  1  0
  6  7  1  0
  4  8  1  0
  8  9  1  0
  9 10  1  0
M  END
>  <supplier_code>  (1653) 
DB13747

>  <zinc_id>  (1653) 
ZINC000000896409

>  <catalog_short_name>  (1653) 
dbfda

$$$$

     RDKit          3D

 22 23  0  0  0  0  0  0  0  0999 V2000
    2.9987   -1.7294    1.7005 C   0  0  0  0  0  0  0  0  0  0  0  0
    3.7519   -0.4500    1.4627 C   0  0  0  0  0  0  0  0  0  0  0  0
    4.3582    0.0741    2.7595 C   0  0  0  0  0  0  0  0  0  0  0  0
    2.9651    0.5828    0.9394 O   0  0  0  0  0  0  0  0  0  0  0  0
    1.7898    0.4349    0.2472 C   0  0  0  0  0  0  0  0  0  0  0  0
    1.2314   -0.7524   -0.1397 C   0  0  0  0  0  0  0  0  0  0  0  0
    0.0111   -0.7911   -0.8064 C   0  0  0  0  0  0  0  0  0  0  0  0
   -0.5787    0.3997   -1.1880 C   0  0  0  0  0  0  0  0  0  0  0  0
   -1.7733    0.4170   -2.0054 C   0  0  0  0  0  0  0  0  0  0  0  0
   -1.7261    0.5556   -3.2459 O   0  0  0  0  0  0  0  0  0  0  0  0
   -3.0478   -0.0215   -1.4240 C   0  0  0  0  0  0  0  0  0  0  0  0
   -3.0664   -1.1456   -0.6386 C   0  0  0  0  0  0  0  0  0  0  0  0
   -4.0712   -1.3635    0.2965 C   0  0  0  0  0  0  0  0  0  0  0  0
   -4.8082   -0.2721    0.7167 C   0  0  0  0  0  0  0  0  0  0  0  0
   -5.4134   -0.0801    2.3355 Cl  0  0  0  0  0  0  0  0  0  0  0  0
   -5.0008    0.7302   -0.2229 C   0  0  0  0  0  0  0  0  0  0  0  0
   -4.0817    0.8833   -1.2528 C   0  0  0  0  0  0  0  0  0  0  0  0
   -0.1927    1.5280   -0.5144 C   0  0  0  0  0  0  0  0  0  0  0  0
    0.9750    1.5598    0.1970 C   0  0  0  0  0  0  0  0  0  0  0  0
    4.8979   -0.6384    0.5190 C   0  0  0  0  0  0  0  0  0  0  0  0
    5.7509    0.2961    0.4874 O   0  0  0  0  0  0  0  0  0  0  0  0
    5.0301   -1.7941   -0.2233 O   0  0  0  0  0  0  0  0  0  0  0  0
  1  2  1  0
  2  3  1  0
  2  4  1  0
  4  5  1  0
  5  6  2  0
  6  7  1  0
  7  8  2  0
  8  9  1  0
  9 10  2  0
  9 11  1  0
 11 12  2  0
 12 13  1  0
 13 14  2  0
 14 15  1  0
 14 16  1  0
 16 17  2  0
  8 18  1  0
 18 19  2  0
  2 20  1  0
 20 21  2  0
 20 22  1  0
 19  5  1  0
 17 11  1  0
M  END
>  <supplier_code>  (1654) 
DB13873

>  <zinc_id>  (1654) 
ZINC000000001984

>  <catalog_short_name>  (1654) 
dbfda

$$$$

     RDKit          3D

 33 35  0  0  0  0  0  0  0  0999 V2000
   -0.9499    5.0314    1.4307 C   0  0  0  0  0  0  0  0  0  0  0  0
   -0.5024    5.5464    0.0861 C   0  0  0  0  0  0  0  0  0  0  0  0
   -1.6654    5.8789   -0.8088 C   0  0  0  0  0  0  0  0  0  0  0  0
    0.2615    6.6842    0.3150 O   0  0  0  0  0  0  0  0  0  0  0  0
    0.3790    4.4949   -0.5674 C   0  0  0  0  0  0  0  0  0  0  0  0
   -0.3971    3.3049   -0.7336 N   0  0  0  0  0  0  0  0  0  0  0  0
   -0.4790    2.2510    0.2350 C   0  0  0  0  0  0  0  0  0  0  0  0
    0.6006    1.4302    0.2597 N   0  0  0  0  0  0  0  0  0  0  0  0
    0.5214    0.1611    0.7285 C   0  0  0  0  0  0  0  0  0  0  0  0
    1.7066   -0.4867    1.1431 N   0  0  0  0  0  0  0  0  0  0  0  0
    2.9521   -0.3882    0.4845 C   0  0  0  0  0  0  0  0  0  0  0  0
    3.2857    0.6463   -0.3723 C   0  0  0  0  0  0  0  0  0  0  0  0
    4.4394    0.5091   -1.1305 C   0  0  0  0  0  0  0  0  0  0  0  0
    5.2916   -0.5116   -0.9992 N   0  0  0  0  0  0  0  0  0  0  0  0
    4.9434   -1.5693   -0.2474 C   0  0  0  0  0  0  0  0  0  0  0  0
    5.8696   -2.6846    0.0573 C   0  0  0  0  0  0  0  0  0  0  0  0
    5.2317   -3.8730   -0.1983 F   0  0  0  0  0  0  0  0  0  0  0  0
    7.0012   -2.6014   -0.7126 F   0  0  0  0  0  0  0  0  0  0  0  0
    6.2321   -2.6616    1.3830 F   0  0  0  0  0  0  0  0  0  0  0  0
    3.7209   -1.5386    0.3890 C   0  0  0  0  0  0  0  0  0  0  0  0
   -0.6982   -0.3970    0.9242 N   0  0  0  0  0  0  0  0  0  0  0  0
   -1.7963    0.3101    0.6013 C   0  0  0  0  0  0  0  0  0  0  0  0
   -3.0794   -0.3470    0.3117 C   0  0  0  0  0  0  0  0  0  0  0  0
   -4.0702    0.4069   -0.3071 C   0  0  0  0  0  0  0  0  0  0  0  0
   -4.8967   -0.1813   -1.2582 C   0  0  0  0  0  0  0  0  0  0  0  0
   -4.9419   -1.5686   -1.2312 C   0  0  0  0  0  0  0  0  0  0  0  0
   -4.2708   -2.2356   -0.2153 C   0  0  0  0  0  0  0  0  0  0  0  0
   -4.7895   -3.5960    0.1214 C   0  0  0  0  0  0  0  0  0  0  0  0
   -4.0294   -4.1537    1.1171 F   0  0  0  0  0  0  0  0  0  0  0  0
   -4.8589   -4.3900   -1.0124 F   0  0  0  0  0  0  0  0  0  0  0  0
   -6.0931   -3.4455    0.5705 F   0  0  0  0  0  0  0  0  0  0  0  0
   -3.2590   -1.6575    0.4735 N   0  0  0  0  0  0  0  0  0  0  0  0
   -1.6595    1.6318    0.4879 N   0  0  0  0  0  0  0  0  0  0  0  0
  1  2  1  0
  2  3  1  0
  2  4  1  0
  2  5  1  0
  5  6  1  0
  6  7  1  0
  7  8  2  0
  8  9  1  0
  9 10  1  0
 10 11  1  0
 11 12  2  0
 12 13  1  0
 13 14  2  0
 14 15  1  0
 15 16  1  0
 16 17  1  0
 16 18  1  0
 16 19  1  0
 15 20  2  0
  9 21  2  0
 21 22  1  0
 22 23  1  0
 23 24  2  0
 24 25  1  0
 25 26  2  0
 26 27  1  0
 27 28  1  0
 28 29  1  0
 28 30  1  0
 28 31  1  0
 27 32  2  0
 22 33  2  0
 33  7  1  0
 20 11  1  0
 32 23  1  0
M  END
>  <supplier_code>  (1655) 
DB13874

>  <zinc_id>  (1655) 
ZINC000222731806

>  <catalog_short_name>  (1655) 
dbfda

$$$$

     RDKit          3D

 58 64  0  0  0  0  0  0  0  0999 V2000
    0.0187   -2.3515    2.3100 C   0  0  0  0  0  0  0  0  0  0  0  0
   -0.0384   -3.2344    1.5674 C   0  0  0  0  0  0  0  0  0  0  0  0
   -0.6338   -4.4589    2.2229 C   0  0  0  0  0  0  0  0  0  0  0  0
    1.2313   -3.6963    0.9236 C   0  0  0  0  0  0  0  0  0  0  0  0
   -1.0633   -2.8335    0.3408 C   0  0  2  0  0  0  0  0  0  0  0  0
   -0.7911   -4.1929   -0.4112 N   0  0  0  0  0  0  0  0  0  0  0  0
   -1.9078   -5.0885   -0.4363 C   0  0  0  0  0  0  0  0  0  0  0  0
   -1.6108   -6.3031   -0.6362 O   0  0  0  0  0  0  0  0  0  0  0  0
   -3.0905   -4.5039   -0.9090 O   0  0  0  0  0  0  0  0  0  0  0  0
   -3.5028   -3.3271   -0.0247 C   0  0  2  0  0  0  0  0  0  0  0  0
   -4.3153   -4.3096    0.9966 C   0  0  0  0  0  0  0  0  0  0  0  0
   -5.4527   -3.4742    1.4191 C   0  0  0  0  0  0  0  0  0  0  0  0
   -5.6503   -2.4237    0.4054 C   0  0  0  0  0  0  0  0  0  0  0  0
   -4.9401   -3.0668   -0.9225 C   0  0  1  0  0  0  0  0  0  0  0  0
   -4.4615   -1.7219   -1.4034 O   0  0  0  0  0  0  0  0  0  0  0  0
   -5.5345   -0.8478   -1.2976 C   0  0  0  0  0  0  0  0  0  0  0  0
   -5.1287    0.5402   -1.0734 C   0  0  0  0  0  0  0  0  0  0  0  0
   -5.1654    1.3058   -0.0492 C   0  0  0  0  0  0  0  0  0  0  0  0
   -4.0314    1.6227    0.9128 C   0  0  0  0  0  0  0  0  0  0  0  0
   -3.8618    0.5262    1.4677 F   0  0  0  0  0  0  0  0  0  0  0  0
   -4.6973    1.9926    2.1422 F   0  0  0  0  0  0  0  0  0  0  0  0
   -3.6199    2.9076    0.5687 C   0  0  0  0  0  0  0  0  0  0  0  0
   -4.2835    4.0476    0.9247 N   0  0  0  0  0  0  0  0  0  0  0  0
   -4.4421    5.1204    0.1741 C   0  0  0  0  0  0  0  0  0  0  0  0
   -5.1448    6.2537    0.5724 C   0  0  0  0  0  0  0  0  0  0  0  0
   -5.6856    7.0583   -0.4250 C   0  0  0  0  0  0  0  0  0  0  0  0
   -5.5953    6.6634   -1.7550 C   0  0  0  0  0  0  0  0  0  0  0  0
   -4.4737    5.8967   -2.0598 C   0  0  0  0  0  0  0  0  0  0  0  0
   -3.8604    5.1420   -1.0560 C   0  0  0  0  0  0  0  0  0  0  0  0
   -2.8967    4.2541   -1.3070 N   0  0  0  0  0  0  0  0  0  0  0  0
   -2.8291    3.1284   -0.5540 C   0  0  0  0  0  0  0  0  0  0  0  0
   -1.9429    2.1209   -0.9856 O   0  0  0  0  0  0  0  0  0  0  0  0
   -1.5706    1.2657    0.2421 C   0  0  2  0  0  0  0  0  0  0  0  0
    0.0147    1.6544    0.1105 C   0  0  0  0  0  0  0  0  0  0  0  0
    0.4527    0.5994   -1.0622 C   0  0  1  0  0  0  0  0  0  0  0  0
    1.9525    0.4267   -0.4732 C   0  0  0  0  0  0  0  0  0  0  0  0
    2.5434    1.5501   -0.3247 O   0  0  0  0  0  0  0  0  0  0  0  0
    2.7740   -0.3770   -1.3461 N   0  0  0  0  0  0  0  0  0  0  0  0
    4.1274   -0.6854   -0.9763 C   0  0  2  0  0  0  0  0  0  0  0  0
    5.1060    0.2521   -0.6220 C   0  0  0  0  0  0  0  0  0  0  0  0
    5.6337    0.9978   -1.5130 O   0  0  0  0  0  0  0  0  0  0  0  0
    5.6107    0.4639    0.7013 N   0  0  0  0  0  0  0  0  0  0  0  0
    6.9791    1.4477    1.0175 S   0  0  0  0  0  0  0  0  0  0  0  0
    6.9858    1.7678    2.4886 O   0  0  0  0  0  0  0  0  0  0  0  0
    6.8343    2.7329    0.2422 O   0  0  0  0  0  0  0  0  0  0  0  0
    8.4727    0.6653    0.4962 C   0  0  0  0  0  0  0  0  0  0  0  0
    8.4588   -0.8546    0.5802 C   0  0  0  0  0  0  0  0  0  0  0  0
    9.7550    1.3890    0.4987 C   0  0  0  0  0  0  0  0  0  0  0  0
    9.0658    1.1444   -0.8581 C   0  0  0  0  0  0  0  0  0  0  0  0
    4.7295   -1.6271   -2.1911 C   0  0  0  0  0  0  0  0  0  0  0  0
    4.3385   -2.2985   -0.7272 C   0  0  1  0  0  0  0  0  0  0  0  0
    5.8847   -2.2153   -0.1044 C   0  0  0  0  0  0  0  0  0  0  0  0
    6.4269   -3.3443   -0.6652 F   0  0  0  0  0  0  0  0  0  0  0  0
    5.5814   -2.5271    1.2168 F   0  0  0  0  0  0  0  0  0  0  0  0
   -0.1331   -0.5883   -0.2179 N   0  0  0  0  0  0  0  0  0  0  0  0
   -1.4442   -0.1058   -0.6597 C   0  0  0  0  0  0  0  0  0  0  0  0
    0.0648   -1.9801   -0.4349 C   0  0  0  0  0  0  0  0  0  0  0  0
    0.7570   -2.5001   -1.2857 O   0  0  0  0  0  0  0  0  0  0  0  0
  1  2  1  0
  2  3  1  0
  2  4  1  0
  5  2  1  1
  5  6  1  0
  6  7  1  0
  7  8  2  0
  7  9  1  0
 10  9  1  6
 10 11  1  0
 11 12  1  0
 12 13  1  0
 14 13  1  1
 14 15  1  0
 15 16  1  0
 16 17  1  0
 17 18  2  0
 18 19  1  0
 19 20  1  0
 19 21  1  0
 19 22  1  0
 22 23  2  0
 23 24  1  0
 24 25  2  0
 25 26  1  0
 26 27  2  0
 27 28  1  0
 28 29  2  0
 29 30  1  0
 30 31  2  0
 31 32  1  0
 33 32  1  6
 33 34  1  0
 34 35  1  0
 35 36  1  1
 36 37  2  0
 36 38  1  0
 39 38  1  6
 39 40  1  0
 40 41  2  0
 40 42  1  0
 42 43  1  0
 43 44  2  0
 43 45  2  0
 43 46  1  0
 46 47  1  0
 46 48  1  0
 48 49  1  0
 39 50  1  0
 50 51  1  0
 51 52  1  1
 52 53  1  0
 52 54  1  0
 35 55  1  0
 55 56  1  0
 55 57  1  0
 57 58  2  0
 57  5  1  0
 14 10  1  0
 31 22  1  0
 56 33  1  0
 29 24  1  0
 51 39  1  0
 49 46  1  0
M  END
>  <supplier_code>  (1656) 
DB13879

>  <zinc_id>  (1656) 
ZINC000164528615

>  <catalog_short_name>  (1656) 
dbfda

$$$$

     RDKit          3D

 10 10  0  0  0  0  0  0  0  0999 V2000
    3.0567   -0.8914    0.8361 C   0  0  0  0  0  0  0  0  0  0  0  0
    2.0595   -0.7978   -0.1797 O   0  0  0  0  0  0  0  0  0  0  0  0
    1.3469    0.3597   -0.4351 C   0  0  0  0  0  0  0  0  0  0  0  0
    1.8766    1.4557   -0.0775 O   0  0  0  0  0  0  0  0  0  0  0  0
   -0.1212    0.3940   -0.5092 C   0  0  0  0  0  0  0  0  0  0  0  0
   -0.8061    1.0824    0.4859 C   0  0  0  0  0  0  0  0  0  0  0  0
   -1.9402    0.5623    1.0972 C   0  0  0  0  0  0  0  0  0  0  0  0
   -2.6611   -0.3891    0.3896 C   0  0  0  0  0  0  0  0  0  0  0  0
   -2.0253   -1.0609   -0.5979 N   0  0  0  0  0  0  0  0  0  0  0  0
   -0.7858   -0.7150   -1.0094 C   0  0  0  0  0  0  0  0  0  0  0  0
  1  2  1  0
  2  3  1  0
  3  4  2  0
  3  5  1  0
  5  6  2  0
  6  7  1  0
  7  8  2  0
  8  9  1  0
  9 10  2  0
 10  5  1  0
M  END
>  <supplier_code>  (1657) 
DB13882

>  <zinc_id>  (1657) 
ZINC000000001706

>  <catalog_short_name>  (1657) 
dbfda

$$$$
