REMARK  Name = 
REMARK  12 active torsions:
REMARK  status: ('A' for Active; 'I' for Inactive)
REMARK    1  A    between atoms: N_4  and  C_5
REMARK    2  A    between atoms: N_4  and  C_10
REMARK    3  A    between atoms: C_5  and  C_6
REMARK    4  A    between atoms: C_6  and  C_8
REMARK    5  A    between atoms: C_13  and  C_14
REMARK    6  A    between atoms: N_16  and  C_17
REMARK    7  A    between atoms: C_17  and  C_18
REMARK    8  A    between atoms: C_18  and  C_20
REMARK    9  A    between atoms: C_24  and  C_25
REMARK   10  A    between atoms: N_27  and  C_28
REMARK   11  A    between atoms: C_28  and  C_29
REMARK   12  A    between atoms: C_29  and  C_31
REMARK                            x       y       z     vdW  Elec       q    Type
REMARK                         _______ _______ _______ _____ _____    ______ ____
ROOT
ATOM      1  C   UNL     1      -0.569   1.351   0.504  0.00  0.00    +0.065 A 
ATOM      2  C   UNL     1       0.738   0.998   0.832  0.00  0.00    +0.049 A 
ATOM      3  I   UNL     1       1.711   2.242   2.229  0.00  0.00    -0.041 I 
ATOM      4  C   UNL     1       1.333  -0.180   0.485  0.00  0.00    +0.067 A 
ATOM      5  C   UNL     1       0.535  -1.123  -0.139  0.00  0.00    +0.040 A 
ATOM      6  I   UNL     1       1.372  -2.858  -0.946  0.00  0.00    -0.042 I 
ATOM      7  C   UNL     1      -0.839  -0.975  -0.147  0.00  0.00    +0.067 A 
ATOM      8  C   UNL     1      -1.333   0.306   0.006  0.00  0.00    +0.049 A 
ATOM      9  I   UNL     1      -3.380   0.582   0.051  0.00  0.00    -0.041 I 
ENDROOT
BRANCH   1  12
ATOM     10  C   UNL     1       0.283   3.808   0.009  0.00  0.00    +0.095 C 
ATOM     11  C   UNL     1       0.153   3.586   0.088  0.00  0.00    +0.230 C 
ATOM     12  N   UNL     1      -0.870   2.742   0.260  0.00  0.00    -0.255 N 
ATOM     13  O   UNL     1       0.957   4.324  -0.179  0.00  0.00    -0.275 OA
BRANCH  12  14
ATOM     14  C   UNL     1      -2.076   3.413   0.694  0.00  0.00    +0.134 C 
BRANCH  14  15
ATOM     15  C   UNL     1      -2.911   3.808  -0.676  0.00  0.00    +0.205 C 
ATOM     16  O   UNL     1      -1.694   4.359  -1.401  0.00  0.00    -0.218 OA
BRANCH  15  17
ATOM     17  C   UNL     1      -3.337   5.293  -0.095  0.00  0.00    +0.217 C 
ATOM     18  O   UNL     1      -2.213   5.887   0.378  0.00  0.00    -0.218 OA
ENDBRANCH  15  17
ENDBRANCH  14  15
ENDBRANCH  12  14
ENDBRANCH   1  12
BRANCH   4  19
ATOM     19  C   UNL     1       2.793  -0.187   0.313  0.00  0.00    +0.266 C 
ATOM     20  N   UNL     1       3.573  -0.854   1.309  0.00  0.00    -0.199 NA
ATOM     21  O   UNL     1       3.386   0.706  -0.367  0.00  0.00    -0.268 OA
BRANCH  20  22
ATOM     22  C   UNL     1       5.005  -0.838   1.140  0.00  0.00    +0.151 C 
BRANCH  22  23
ATOM     23  C   UNL     1       5.132  -1.434  -0.397  0.00  0.00    +0.206 C 
ATOM     24  O   UNL     1       5.141  -2.872   0.098  0.00  0.00    -0.218 OA
BRANCH  23  25
ATOM     25  C   UNL     1       6.780  -1.346  -0.401  0.00  0.00    +0.217 C 
ATOM     26  O   UNL     1       7.212  -1.751   0.815  0.00  0.00    -0.218 OA
ENDBRANCH  23  25
ENDBRANCH  22  23
ENDBRANCH  20  22
ENDBRANCH   4  19
BRANCH   7  27
ATOM     27  C   UNL     1      -1.691  -2.167  -0.155  0.00  0.00    +0.266 C 
ATOM     28  N   UNL     1      -3.072  -1.966  -0.445  0.00  0.00    -0.199 NA
ATOM     29  O   UNL     1      -1.393  -3.223   0.463  0.00  0.00    -0.268 OA
BRANCH  28  30
ATOM     30  C   UNL     1      -4.011  -3.062  -0.601  0.00  0.00    +0.151 C 
BRANCH  30  31
ATOM     31  C   UNL     1      -3.233  -4.362   0.058  0.00  0.00    +0.206 C 
ATOM     32  O   UNL     1      -3.430  -5.175  -1.214  0.00  0.00    -0.218 OA
BRANCH  31  33
ATOM     33  C   UNL     1      -4.593  -5.006   0.728  0.00  0.00    +0.217 C 
ATOM     34  O   UNL     1      -5.457  -4.026   1.036  0.00  0.00    -0.218 OA
ENDBRANCH  31  33
ENDBRANCH  30  31
ENDBRANCH  28  30
ENDBRANCH   7  27
TORSDOF 12
