REMARK  Name = 
REMARK  3 active torsions:
REMARK  status: ('A' for Active; 'I' for Inactive)
REMARK    1  A    between atoms: C_2  and  O_3
REMARK    2  A    between atoms: O_3  and  C_4
REMARK    3  A    between atoms: C_21  and  C_22
REMARK                            x       y       z     vdW  Elec       q    Type
REMARK                         _______ _______ _______ _____ _____    ______ ____
ROOT
ATOM      1  O   UNL     1       0.880   0.373   1.496  0.00  0.00    -0.226 OA
ATOM      2  C   UNL     1       0.685   0.708   0.593  0.00  0.00    +0.405 C 
ATOM      3  N   UNL     1      -0.385   0.088  -0.149  0.00  0.00    -0.240 N 
ATOM      4  C   UNL     1      -1.570  -0.179   0.899  0.00  0.00    +0.123 C 
ATOM      5  C   UNL     1      -2.342  -1.251  -0.081  0.00  0.00    -0.004 A 
ATOM      6  C   UNL     1      -1.642  -2.452   0.053  0.00  0.00    -0.023 A 
ATOM      7  C   UNL     1      -2.318  -3.587  -0.383  0.00  0.00    -0.004 A 
ATOM      8  C   UNL     1      -3.617  -3.483  -0.869  0.00  0.00    -0.000 A 
ATOM      9  C   UNL     1      -4.347  -2.356  -0.508  0.00  0.00    -0.000 A 
ATOM     10  C   UNL     1      -0.155  -2.340  -0.098  0.00  0.00    +0.048 C 
ATOM     11  C   UNL     1      -3.691  -1.392   0.252  0.00  0.00    -0.003 A 
ATOM     12  C   UNL     1       0.078  -1.072  -0.871  0.00  0.00    +0.102 C 
ENDROOT
BRANCH   4  13
ATOM     13  C   UNL     1      -2.468   1.066   0.313  0.00  0.00    -0.000 A 
ATOM     14  C   UNL     1      -1.761   2.249   0.223  0.00  0.00    -0.002 A 
ATOM     15  C   UNL     1      -2.359   3.469   0.373  0.00  0.00    -0.000 A 
ATOM     16  C   UNL     1      -3.732   3.499   0.578  0.00  0.00    -0.000 A 
ATOM     17  C   UNL     1      -4.381   2.346   1.004  0.00  0.00    -0.000 A 
ATOM     18  C   UNL     1      -3.635   1.176   1.069  0.00  0.00    -0.002 A 
ENDBRANCH   4  13
BRANCH   2  19
ATOM     19  O   UNL     1       1.863   0.992  -0.106  0.00  0.00    -0.437 OA
BRANCH  19  20
ATOM     20  C   UNL     1       3.082   1.228   0.844  0.00  0.00    +0.186 C 
ATOM     21  C   UNL     1       4.138   1.244  -0.449  0.00  0.00    +0.044 C 
ATOM     22  C   UNL     1       5.479   1.402   0.219  0.00  0.00    +0.021 C 
ATOM     23  C   UNL     1       5.470   0.459   1.414  0.00  0.00    +0.072 C 
ATOM     24  N   UNL     1       4.659  -0.674   1.022  0.00  0.00    -0.270 NA
ATOM     25  C   UNL     1       4.868  -1.031  -0.384  0.00  0.00    +0.072 C 
ATOM     26  C   UNL     1       3.949  -0.069  -1.138  0.00  0.00    +0.021 C 
ATOM     27  C   UNL     1       3.251  -0.412   1.113  0.00  0.00    +0.116 C 
ENDBRANCH  19  20
ENDBRANCH   2  19
TORSDOF 3
