REMARK  Name = 
REMARK  4 active torsions:
REMARK  status: ('A' for Active; 'I' for Inactive)
REMARK    1  A    between atoms: C_5  and  C_6
REMARK    2  A    between atoms: C_11  and  C_12
REMARK    3  A    between atoms: C_12  and  O_13
REMARK    4  A    between atoms: O_13  and  C_14
REMARK                            x       y       z     vdW  Elec       q    Type
REMARK                         _______ _______ _______ _____ _____    ______ ____
ROOT
ATOM      1  C   UNL     1      -1.104  -0.116  -0.175  0.00  0.00    +0.029 C 
ATOM      2  C   UNL     1      -1.461  -1.770   0.044  0.00  0.00    +0.065 C 
ATOM      3  C   UNL     1      -0.384  -2.263  -1.065  0.00  0.00    +0.093 C 
ATOM      4  N   UNL     1      -1.274  -2.497  -2.202  0.00  0.00    -0.218 NA
ATOM      5  C   UNL     1      -2.081  -1.278  -2.220  0.00  0.00    +0.089 C 
ATOM      6  C   UNL     1      -1.224  -0.152  -1.800  0.00  0.00    +0.023 C 
ENDROOT
BRANCH   1  11
ATOM      7  F   UNL     1      -5.219   3.294   0.011  0.00  0.00    -0.204 F 
ATOM      8  C   UNL     1      -4.477   2.471   0.122  0.00  0.00    +0.140 A 
ATOM      9  C   UNL     1      -4.611   1.333  -0.662  0.00  0.00    +0.029 A 
ATOM     10  C   UNL     1      -3.513   0.500  -0.845  0.00  0.00    -0.002 A 
ATOM     11  C   UNL     1      -2.607   0.338   0.125  0.00  0.00    -0.022 A 
ATOM     12  C   UNL     1      -2.610   1.307   1.129  0.00  0.00    -0.002 A 
ATOM     13  C   UNL     1      -3.487   2.385   1.095  0.00  0.00    +0.029 A 
ENDBRANCH   1  11
BRANCH   2  14
ATOM     14  C   UNL     1      -0.391  -1.974   1.250  0.00  0.00    +0.207 C 
BRANCH  14  15
ATOM     15  O   UNL     1       0.664  -1.156   1.092  0.00  0.00    -0.475 OA
BRANCH  15  16
ATOM     16  C   UNL     1       2.004  -1.263   0.954  0.00  0.00    +0.142 A 
ATOM     17  C   UNL     1       2.765  -0.223   1.486  0.00  0.00    +0.077 A 
ATOM     18  C   UNL     1       3.853   0.317   0.806  0.00  0.00    +0.179 A 
ATOM     19  O   UNL     1       4.768   1.335   1.086  0.00  0.00    -0.435 OA
ATOM     20  C   UNL     1       5.164   1.900  -0.155  0.00  0.00    +0.429 C 
ATOM     21  O   UNL     1       4.811   0.900  -1.105  0.00  0.00    -0.435 OA
ATOM     22  C   UNL     1       4.183  -0.147  -0.461  0.00  0.00    +0.177 A 
ATOM     23  C   UNL     1       3.553  -1.297  -0.922  0.00  0.00    +0.043 A 
ATOM     24  C   UNL     1       2.681  -1.944  -0.052  0.00  0.00    +0.040 A 
ENDBRANCH  15  16
ENDBRANCH  14  15
ENDBRANCH   2  14
TORSDOF 4
