REMARK  Name = 
REMARK  8 active torsions:
REMARK  status: ('A' for Active; 'I' for Inactive)
REMARK    1  A    between atoms: C_2  and  C_3
REMARK    2  A    between atoms: C_5  and  N_6
REMARK    3  A    between atoms: C_5  and  C_46
REMARK    4  A    between atoms: C_7  and  C_9
REMARK    5  A    between atoms: C_16  and  C_17
REMARK    6  A    between atoms: C_38  and  O_39
REMARK    7  A    between atoms: N_48  and  S_49
REMARK    8  A    between atoms: S_49  and  C_52
REMARK                            x       y       z     vdW  Elec       q    Type
REMARK                         _______ _______ _______ _____ _____    ______ ____
ROOT
ATOM      1  C   UNL     1      -0.941  -0.667   1.474  0.00  0.00    +0.157 C 
ATOM      2  N   UNL     1      -0.011  -1.624   0.644  0.00  0.00    -0.268 N 
ATOM      3  C   UNL     1      -0.261  -3.037   0.589  0.00  0.00    +0.246 C 
ATOM      4  C   UNL     1       0.914  -3.792  -0.212  0.00  0.00    +0.174 C 
ATOM      5  N   UNL     1       0.816  -5.135   0.609  0.00  0.00    -0.161 NA
ATOM      6  C   UNL     1       1.803  -5.203   1.625  0.00  0.00    +0.421 C 
ATOM      7  O   UNL     1       3.101  -5.149   1.155  0.00  0.00    -0.437 OA
ATOM      8  C   UNL     1       3.374  -3.945   0.217  0.00  0.00    +0.171 C 
ATOM      9  C   UNL     1       4.756  -3.498   1.125  0.00  0.00    +0.044 C 
ATOM     10  C   UNL     1       5.078  -2.131   0.287  0.00  0.00    +0.004 C 
ATOM     11  C   UNL     1       4.401  -2.131  -1.012  0.00  0.00    +0.000 C 
ATOM     12  C   UNL     1       4.271  -0.750  -1.526  0.00  0.00    +0.000 C 
ATOM     13  C   UNL     1       3.213  -0.529  -2.563  0.00  0.00    +0.006 C 
ATOM     14  C   UNL     1       2.197   0.537  -2.134  0.00  0.00    +0.051 C 
ATOM     15  C   UNL     1       2.967   1.432  -1.246  0.00  0.00    +0.112 A 
ATOM     16  C   UNL     1       2.880   1.139   0.109  0.00  0.00    +0.239 A 
ATOM     17  O   UNL     1       1.980   0.113   0.421  0.00  0.00    -0.461 OA
ATOM     18  C   UNL     1       0.610   0.535  -0.179  0.00  0.00    +0.189 C 
ATOM     19  N   UNL     1       3.691   1.784   0.933  0.00  0.00    -0.209 NA
ATOM     20  C   UNL     1       4.361   2.876   0.475  0.00  0.00    +0.105 A 
ATOM     21  C   UNL     1       3.943   3.401  -0.744  0.00  0.00    +0.099 A 
ATOM     22  C   UNL     1       4.197   4.732  -1.040  0.00  0.00    +0.024 A 
ATOM     23  C   UNL     1       5.094   5.398  -0.215  0.00  0.00    +0.039 A 
ATOM     24  C   UNL     1       5.856   4.728   0.736  0.00  0.00    +0.140 A 
ATOM     25  C   UNL     1       5.281   3.562   1.233  0.00  0.00    +0.058 A 
ATOM     26  N   UNL     1       3.685   2.485  -1.712  0.00  0.00    -0.243 NA
ATOM     27  C   UNL     1       4.920  -4.554  -0.216  0.00  0.00    +0.047 C 
ATOM     28  O   UNL     1       1.526  -5.673   2.752  0.00  0.00    -0.225 OA
ATOM     29  O   UNL     1      -0.782  -3.576   1.569  0.00  0.00    -0.273 OA
ATOM     30  C   UNL     1       0.087  -0.971  -0.524  0.00  0.00    +0.137 C 
ATOM     31  C   UNL     1       0.020   0.630   1.329  0.00  0.00    +0.075 C 
ENDROOT
BRANCH   4  32
ATOM     32  C   UNL     1      -0.085  -4.397  -1.363  0.00  0.00    +0.027 C 
ATOM     33  C   UNL     1       0.605  -5.667  -1.857  0.00  0.00    +0.002 C 
ATOM     34  C   UNL     1      -0.133  -3.468  -2.501  0.00  0.00    +0.002 C 
ATOM     35  C   UNL     1      -1.355  -4.797  -0.735  0.00  0.00    +0.002 C 
ENDBRANCH   4  32
BRANCH   1  37
ATOM     36  N   UNL     1      -2.704   0.895   0.709  0.00  0.00    -0.198 NA
ATOM     37  C   UNL     1      -1.930  -0.188   0.274  0.00  0.00    +0.260 C 
ATOM     38  O   UNL     1      -2.643  -1.135  -0.180  0.00  0.00    -0.272 OA
BRANCH  36  40
ATOM     39  C   UNL     1      -4.957   0.148   1.755  0.00  0.00    +0.051 C 
ATOM     40  C   UNL     1      -4.087   1.146   0.779  0.00  0.00    +0.156 C 
ATOM     41  C   UNL     1      -4.232   1.489   2.399  0.00  0.00    +0.036 C 
BRANCH  40  42
ATOM     42  C   UNL     1      -4.804   2.100  -0.037  0.00  0.00    +0.291 C 
ATOM     43  N   UNL     1      -5.804   1.794  -0.815  0.00  0.00    -0.092 NA
ATOM     44  O   UNL     1      -4.854   3.426   0.415  0.00  0.00    -0.267 OA
BRANCH  43  45
ATOM     45  S   UNL     1      -7.097   2.827  -1.206  0.00  0.00    +0.082 S 
ATOM     46  O   UNL     1      -6.849   3.385  -2.591  0.00  0.00    -0.151 OA
ATOM     47  O   UNL     1      -7.258   3.992  -0.294  0.00  0.00    -0.151 OA
BRANCH  45  48
ATOM     48  C   UNL     1      -8.659   1.966  -1.340  0.00  0.00    +0.153 C 
ATOM     49  C   UNL     1      -8.572   0.529  -0.800  0.00  0.00    +0.028 C 
ATOM     50  C   UNL     1      -9.271   1.579  -0.010  0.00  0.00    +0.028 C 
ENDBRANCH  45  48
ENDBRANCH  43  45
ENDBRANCH  40  42
BRANCH  39  52
ATOM     51  C   UNL     1      -6.822   1.262   2.298  0.00  0.00    -0.005 C 
ATOM     52  C   UNL     1      -6.419   0.882   1.595  0.00  0.00    -0.024 C 
ENDBRANCH  39  52
ENDBRANCH  36  40
ENDBRANCH   1  37
BRANCH  24  53
ATOM     53  O   UNL     1       7.216   5.009   0.905  0.00  0.00    -0.471 OA
ATOM     54  C   UNL     1       7.691   6.236   0.400  0.00  0.00    +0.252 C 
ENDBRANCH  24  53
TORSDOF 8
