REMARK  Name = 
REMARK  7 active torsions:
REMARK  status: ('A' for Active; 'I' for Inactive)
REMARK    1  A    between atoms: S_2  and  O_5
REMARK    2  A    between atoms: O_5  and  C_6
REMARK    3  A    between atoms: C_9  and  C_10
REMARK    4  A    between atoms: C_10  and  C_11
REMARK    5  A    between atoms: C_10  and  C_22
REMARK    6  A    between atoms: C_14  and  O_15
REMARK    7  A    between atoms: O_15  and  S_16
REMARK                            x       y       z     vdW  Elec       q    Type
REMARK                         _______ _______ _______ _____ _____    ______ ____
ROOT
ATOM      1  C   UNL     1       0.099  -0.952  -0.264  0.00  0.00    +0.085 C 
ENDROOT
BRANCH   1   2
ATOM      2  C   UNL     1       0.395  -2.332   0.159  0.00  0.00    +0.067 A 
ATOM      3  N   UNL     1      -0.608  -3.190   0.465  0.00  0.00    -0.248 NA
ATOM      4  C   UNL     1      -0.227  -4.314   1.119  0.00  0.00    +0.098 A 
ATOM      5  C   UNL     1       1.011  -4.864   0.858  0.00  0.00    +0.021 A 
ATOM      6  C   UNL     1       1.827  -4.218  -0.063  0.00  0.00    +0.003 A 
ATOM      7  C   UNL     1       1.554  -2.903  -0.349  0.00  0.00    +0.015 A 
ENDBRANCH   1   2
BRANCH   1   8
ATOM      8  C   UNL     1       1.183   0.005   0.003  0.00  0.00    -0.013 A 
ATOM      9  C   UNL     1       1.910   0.444  -1.097  0.00  0.00    -0.000 A 
ATOM     10  C   UNL     1       2.953   1.343  -0.910  0.00  0.00    +0.039 A 
ATOM     11  C   UNL     1       3.379   1.628   0.381  0.00  0.00    +0.171 A 
ATOM     12  C   UNL     1       2.423   1.479   1.371  0.00  0.00    +0.039 A 
ATOM     13  C   UNL     1       1.210   0.857   1.100  0.00  0.00    -0.000 A 
BRANCH  11  14
ATOM     14  O   UNL     1       4.725   1.866   0.673  0.00  0.00    -0.359 OA
BRANCH  14  15
ATOM     15  S   UNL     1       5.683   2.597  -0.531  0.00  0.00    +0.042 S 
ATOM     16  O   UNL     1       4.707   3.282  -1.726  0.00  0.00    -0.259 OA
ATOM     17  O   UNL     1       6.599   1.628  -1.199  0.00  0.00    -0.336 OA
ATOM     18  O   UNL     1       6.521   3.672   0.086  0.00  0.00    -0.336 OA
ENDBRANCH  14  15
ENDBRANCH  11  14
ENDBRANCH   1   8
BRANCH   1  22
ATOM     19  C   UNL     1      -4.039  -0.356   0.409  0.00  0.00    +0.171 A 
ATOM     20  C   UNL     1      -3.221  -0.997   1.333  0.00  0.00    +0.039 A 
ATOM     21  C   UNL     1      -1.841  -0.939   1.259  0.00  0.00    -0.000 A 
ATOM     22  C   UNL     1      -1.237  -0.479   0.123  0.00  0.00    -0.013 A 
ATOM     23  C   UNL     1      -2.036   0.031  -0.894  0.00  0.00    -0.000 A 
ATOM     24  C   UNL     1      -3.420   0.026  -0.767  0.00  0.00    +0.039 A 
BRANCH  19  25
ATOM     25  O   UNL     1      -5.224   0.243   0.845  0.00  0.00    -0.359 OA
BRANCH  25  27
ATOM     26  O   UNL     1      -4.885   2.416  -0.491  0.00  0.00    -0.336 OA
ATOM     27  S   UNL     1      -5.957   1.395  -0.185  0.00  0.00    +0.042 S 
ATOM     28  O   UNL     1      -6.327   0.625  -1.621  0.00  0.00    -0.259 OA
ATOM     29  O   UNL     1      -7.159   2.004   0.447  0.00  0.00    -0.336 OA
ENDBRANCH  25  27
ENDBRANCH  19  25
ENDBRANCH   1  22
TORSDOF 7
