REMARK  Name = 
REMARK  8 active torsions:
REMARK  status: ('A' for Active; 'I' for Inactive)
REMARK    1  A    between atoms: C_2  and  C_3
REMARK    2  A    between atoms: C_3  and  C_4
REMARK    3  A    between atoms: C_4  and  C_5
REMARK    4  A    between atoms: C_5  and  C_6
REMARK    5  A    between atoms: C_6  and  C_7
REMARK    6  A    between atoms: C_7  and  C_8
REMARK    7  A    between atoms: C_8  and  C_9
REMARK    8  A    between atoms: N_11  and  C_12
REMARK                            x       y       z     vdW  Elec       q    Type
REMARK                         _______ _______ _______ _____ _____    ______ ____
ROOT
ATOM      1  C   UNL     1      -0.150  -0.230   0.485  0.00  0.00    +0.087 C 
ENDROOT
BRANCH   1   2
ATOM      2  C   UNL     1      -1.545  -0.760   0.385  0.00  0.00    +0.246 C 
ATOM      3  N   UNL     1      -2.640  -0.010   0.893  0.00  0.00    -0.179 NA
ATOM      4  O   UNL     1      -1.839  -1.710  -0.399  0.00  0.00    -0.273 OA
BRANCH   3   5
ATOM      5  C   UNL     1      -3.851   0.196   0.158  0.00  0.00    +0.073 A 
ATOM      6  C   UNL     1      -4.333   1.496   0.072  0.00  0.00    +0.017 A 
ATOM      7  C   UNL     1      -5.702   1.684  -0.059  0.00  0.00    +0.001 A 
ATOM      8  C   UNL     1      -6.499   0.585  -0.354  0.00  0.00    +0.000 A 
ATOM      9  C   UNL     1      -5.841  -0.528  -0.858  0.00  0.00    +0.001 A 
ATOM     10  C   UNL     1      -4.548  -0.820  -0.442  0.00  0.00    +0.017 A 
ENDBRANCH   3   5
ENDBRANCH   1   2
BRANCH   1  11
ATOM     11  C   UNL     1       0.882  -1.318   0.388  0.00  0.00    +0.010 C 
BRANCH  11  12
ATOM     12  C   UNL     1       2.238  -0.658   0.557  0.00  0.00    +0.001 C 
BRANCH  12  13
ATOM     13  C   UNL     1       2.847  -0.265  -0.774  0.00  0.00    +0.000 C 
BRANCH  13  14
ATOM     14  C   UNL     1       4.081  -1.140  -0.959  0.00  0.00    +0.007 C 
BRANCH  14  15
ATOM     15  C   UNL     1       4.892  -1.110   0.321  0.00  0.00    +0.051 C 
BRANCH  15  17
ATOM     16  O   UNL     1       6.729   0.372   0.105  0.00  0.00    -0.540 OA
ATOM     17  C   UNL     1       5.518   0.242   0.457  0.00  0.00    +0.087 C 
ATOM     18  N   UNL     1       4.736   1.396   0.748  0.00  0.00    -0.203 NA
ATOM     19  O   UNL     1       5.027   2.578   0.146  0.00  0.00    -0.403 OA
ENDBRANCH  15  17
ENDBRANCH  14  15
ENDBRANCH  13  14
ENDBRANCH  12  13
ENDBRANCH  11  12
ENDBRANCH   1  11
TORSDOF 8
