REMARK  Name = 
REMARK  10 active torsions:
REMARK  status: ('A' for Active; 'I' for Inactive)
REMARK    1  A    between atoms: N_2  and  C_3
REMARK    2  A    between atoms: C_3  and  N_8
REMARK    3  A    between atoms: C_4  and  N_5
REMARK    4  A    between atoms: N_8  and  C_9
REMARK    5  A    between atoms: C_9  and  C_10
REMARK    6  A    between atoms: C_10  and  S_11
REMARK    7  A    between atoms: S_11  and  C_12
REMARK    8  A    between atoms: C_12  and  C_13
REMARK    9  A    between atoms: C_16  and  C_17
REMARK   10  A    between atoms: C_17  and  N_18
REMARK                            x       y       z     vdW  Elec       q    Type
REMARK                         _______ _______ _______ _____ _____    ______ ____
ROOT
ATOM      1  S   UNL     1       0.437  -1.095  -0.025  0.00  0.00    -0.128 S 
ENDROOT
BRANCH   1   2
ATOM      2  C   UNL     1       0.740  -0.470  -1.711  0.00  0.00    +0.122 C 
BRANCH   2   3
ATOM      3  C   UNL     1       2.182  -0.087  -1.810  0.00  0.00    +0.133 A 
ATOM      4  O   UNL     1       2.822   0.607  -0.915  0.00  0.00    -0.460 OA
ATOM      5  C   UNL     1       4.125   0.563  -1.113  0.00  0.00    +0.139 A 
ATOM      6  C   UNL     1       4.347  -0.632  -1.787  0.00  0.00    +0.037 A 
ATOM      7  C   UNL     1       3.121  -0.952  -2.356  0.00  0.00    +0.037 A 
BRANCH   5   8
ATOM      8  C   UNL     1       5.072   1.175  -0.129  0.00  0.00    +0.138 C 
BRANCH   8   9
ATOM      9  N   UNL     1       5.709   0.149   0.668  0.00  0.00    -0.264 NA
ATOM     10  C   UNL     1       7.150   0.385   0.728  0.00  0.00    +0.090 C 
ATOM     11  C   UNL     1       5.237   0.114   2.029  0.00  0.00    +0.090 C 
ENDBRANCH   8   9
ENDBRANCH   5   8
ENDBRANCH   2   3
ENDBRANCH   1   2
BRANCH   1  12
ATOM     12  C   UNL     1      -0.507   0.167   0.881  0.00  0.00    +0.113 C 
BRANCH  12  13
ATOM     13  C   UNL     1      -1.789   0.392   0.114  0.00  0.00    +0.263 C 
BRANCH  13  14
ATOM     14  N   UNL     1      -2.619  -0.770   0.328  0.00  0.00    -0.027 NA
BRANCH  14  15
ATOM     15  C   UNL     1      -3.986  -0.726   0.678  0.00  0.00    +0.424 C 
ATOM     16  C   UNL     1      -4.497   0.019   1.633  0.00  0.00    +0.447 C 
BRANCH  16  17
ATOM     17  N   UNL     1      -5.680   0.809   1.463  0.00  0.00    +0.096 N 
ATOM     18  O   UNL     1      -5.460   2.120   1.076  0.00  0.00    -0.576 OA
ATOM     19  O   UNL     1      -6.689   0.577   2.154  0.00  0.00    +0.042 OA
ENDBRANCH  16  17
BRANCH  15  21
ATOM     20  C   UNL     1      -4.801  -0.745  -1.631  0.00  0.00    +0.306 C 
ATOM     21  N   UNL     1      -4.914  -1.254  -0.277  0.00  0.00    -0.023 NA
ENDBRANCH  15  21
ENDBRANCH  14  15
ENDBRANCH  13  14
ENDBRANCH  12  13
ENDBRANCH   1  12
TORSDOF 10
