REMARK  Name = 
REMARK  33 active torsions:
REMARK  status: ('A' for Active; 'I' for Inactive)
REMARK    1  A    between atoms: C_2  and  C_3
REMARK    2  A    between atoms: C_3  and  C_4
REMARK    3  A    between atoms: C_4  and  N_5
REMARK    4  A    between atoms: N_5  and  C_6
REMARK    5  A    between atoms: C_9  and  C_10
REMARK    6  A    between atoms: C_10  and  O_12
REMARK    7  A    between atoms: O_12  and  C_13
REMARK    8  A    between atoms: C_13  and  C_14
REMARK    9  A    between atoms: C_14  and  O_15
REMARK   10  A    between atoms: O_15  and  C_16
REMARK   11  A    between atoms: C_16  and  C_17
REMARK   12  A    between atoms: C_17  and  O_18
REMARK   13  A    between atoms: O_18  and  C_19
REMARK   14  A    between atoms: C_19  and  C_20
REMARK   15  A    between atoms: C_20  and  O_21
REMARK   16  A    between atoms: O_21  and  C_22
REMARK   17  A    between atoms: C_22  and  C_23
REMARK   18  A    between atoms: C_23  and  O_24
REMARK   19  A    between atoms: O_24  and  C_25
REMARK   20  A    between atoms: C_25  and  C_26
REMARK   21  A    between atoms: C_26  and  O_27
REMARK   22  A    between atoms: O_27  and  C_28
REMARK   23  A    between atoms: C_28  and  C_29
REMARK   24  A    between atoms: C_29  and  O_30
REMARK   25  A    between atoms: O_30  and  C_31
REMARK   26  A    between atoms: C_31  and  C_32
REMARK   27  A    between atoms: C_32  and  O_33
REMARK   28  A    between atoms: O_33  and  C_34
REMARK   29  A    between atoms: C_34  and  C_35
REMARK   30  A    between atoms: C_35  and  O_36
REMARK   31  A    between atoms: O_36  and  C_37
REMARK   32  A    between atoms: C_37  and  C_38
REMARK   33  A    between atoms: C_38  and  O_39
REMARK                            x       y       z     vdW  Elec       q    Type
REMARK                         _______ _______ _______ _____ _____    ______ ____
ROOT
ATOM      1  C   UNL     1       0.519   0.103   0.705  0.00  0.00    +0.174 C 
ENDROOT
BRANCH   1   2
ATOM      2  O   UNL     1       0.210  -1.169   1.155  0.00  0.00    -0.348 OA
BRANCH   2   3
ATOM      3  C   UNL     1       1.177  -2.094   0.744  0.00  0.00    +0.174 C 
BRANCH   3   4
ATOM      4  C   UNL     1       2.503  -1.360   0.734  0.00  0.00    +0.174 C 
BRANCH   4   5
ATOM      5  O   UNL     1       3.560  -2.280   0.654  0.00  0.00    -0.347 OA
BRANCH   5   6
ATOM      6  C   UNL     1       4.213  -2.100  -0.571  0.00  0.00    +0.190 C 
BRANCH   6   7
ATOM      7  C   UNL     1       4.175  -0.616  -0.882  0.00  0.00    +0.241 C 
BRANCH   7   8
ATOM      8  O   UNL     1       5.099   0.021  -0.015  0.00  0.00    -0.443 OA
BRANCH   8   9
ATOM      9  C   UNL     1       5.643   1.273  -0.271  0.00  0.00    +0.341 C 
ATOM     10  O   UNL     1       5.062   1.993  -1.140  0.00  0.00    -0.245 OA
BRANCH   9  14
ATOM     11  C   UNL     1       9.833   0.975  -0.143  0.00  0.00    +0.065 A 
ATOM     12  C   UNL     1       9.149   1.215  -1.328  0.00  0.00    +0.016 A 
ATOM     13  C   UNL     1       7.811   1.592  -1.290  0.00  0.00    +0.008 A 
ATOM     14  C   UNL     1       7.080   1.530  -0.110  0.00  0.00    +0.076 A 
ATOM     15  C   UNL     1       7.691   0.857   0.940  0.00  0.00    +0.008 A 
ATOM     16  C   UNL     1       9.064   0.686   0.971  0.00  0.00    +0.016 A 
BRANCH  11  17
ATOM     17  N   UNL     1      11.189   1.406   0.020  0.00  0.00    -0.238 NA
BRANCH  17  18
ATOM     18  C   UNL     1      11.408   2.698   0.623  0.00  0.00    +0.112 C 
BRANCH  18  19
ATOM     19  C   UNL     1      11.543   3.807  -0.390  0.00  0.00    +0.023 C 
BRANCH  19  21
ATOM     20  C   UNL     1      11.820   6.254   0.103  0.00  0.00    +0.000 C 
ATOM     21  C   UNL     1      12.423   4.881   0.220  0.00  0.00    +0.002 C 
ENDBRANCH  19  21
ENDBRANCH  18  19
ENDBRANCH  17  18
ENDBRANCH  11  17
ENDBRANCH   9  14
ENDBRANCH   8   9
ENDBRANCH   7   8
ENDBRANCH   6   7
ENDBRANCH   5   6
ENDBRANCH   4   5
ENDBRANCH   3   4
ENDBRANCH   2   3
ENDBRANCH   1   2
BRANCH   1  22
ATOM     22  C   UNL     1       0.380   0.259  -0.786  0.00  0.00    +0.174 C 
BRANCH  22  23
ATOM     23  O   UNL     1      -0.521  -0.692  -1.282  0.00  0.00    -0.348 OA
BRANCH  23  24
ATOM     24  C   UNL     1      -1.718  -0.488  -0.577  0.00  0.00    +0.174 C 
BRANCH  24  25
ATOM     25  C   UNL     1      -2.709  -1.602  -0.866  0.00  0.00    +0.174 C 
BRANCH  25  26
ATOM     26  O   UNL     1      -2.127  -2.848  -0.708  0.00  0.00    -0.348 OA
BRANCH  26  27
ATOM     27  C   UNL     1      -3.126  -3.809  -0.671  0.00  0.00    +0.174 C 
BRANCH  27  28
ATOM     28  C   UNL     1      -3.908  -3.796   0.614  0.00  0.00    +0.174 C 
BRANCH  28  29
ATOM     29  O   UNL     1      -4.657  -2.613   0.679  0.00  0.00    -0.348 OA
BRANCH  29  30
ATOM     30  C   UNL     1      -5.936  -2.935   1.131  0.00  0.00    +0.174 C 
BRANCH  30  31
ATOM     31  C   UNL     1      -6.600  -3.804   0.087  0.00  0.00    +0.174 C 
BRANCH  31  32
ATOM     32  O   UNL     1      -7.377  -3.037  -0.781  0.00  0.00    -0.348 OA
BRANCH  32  33
ATOM     33  C   UNL     1      -8.652  -3.568  -0.912  0.00  0.00    +0.174 C 
BRANCH  33  34
ATOM     34  C   UNL     1      -9.531  -3.250   0.264  0.00  0.00    +0.174 C 
BRANCH  34  35
ATOM     35  O   UNL     1      -9.230  -2.008   0.809  0.00  0.00    -0.348 OA
BRANCH  35  36
ATOM     36  C   UNL     1      -9.243  -0.987  -0.134  0.00  0.00    +0.174 C 
BRANCH  36  37
ATOM     37  C   UNL     1      -9.549   0.335   0.536  0.00  0.00    +0.174 C 
BRANCH  37  38
ATOM     38  O   UNL     1     -10.617   0.920  -0.130  0.00  0.00    -0.348 OA
BRANCH  38  39
ATOM     39  C   UNL     1     -11.104   1.965   0.650  0.00  0.00    +0.174 C 
BRANCH  39  40
ATOM     40  C   UNL     1     -10.823   3.306  -0.009  0.00  0.00    +0.174 C 
BRANCH  40  41
ATOM     41  O   UNL     1     -11.579   4.256   0.677  0.00  0.00    -0.348 OA
ATOM     42  C   UNL     1     -12.544   4.722  -0.203  0.00  0.00    +0.174 C 
ENDBRANCH  40  41
ENDBRANCH  39  40
ENDBRANCH  38  39
ENDBRANCH  37  38
ENDBRANCH  36  37
ENDBRANCH  35  36
ENDBRANCH  34  35
ENDBRANCH  33  34
ENDBRANCH  32  33
ENDBRANCH  31  32
ENDBRANCH  30  31
ENDBRANCH  29  30
ENDBRANCH  28  29
ENDBRANCH  27  28
ENDBRANCH  26  27
ENDBRANCH  25  26
ENDBRANCH  24  25
ENDBRANCH  23  24
ENDBRANCH  22  23
ENDBRANCH   1  22
TORSDOF 33
