REMARK  Name = 
REMARK  6 active torsions:
REMARK  status: ('A' for Active; 'I' for Inactive)
REMARK    1  A    between atoms: O_2  and  C_3
REMARK    2  A    between atoms: C_6  and  O_7
REMARK    3  A    between atoms: C_9  and  C_10
REMARK    4  A    between atoms: C_10  and  C_12
REMARK    5  A    between atoms: C_12  and  N_13
REMARK    6  A    between atoms: C_14  and  C_16
REMARK                            x       y       z     vdW  Elec       q    Type
REMARK                         _______ _______ _______ _____ _____    ______ ____
ROOT
ATOM      1  C   UNL     1      -2.207   1.389  -0.393  0.00  0.00    +0.139 A 
ATOM      2  C   UNL     1      -0.956   0.868  -0.132  0.00  0.00    +0.038 A 
ATOM      3  C   UNL     1      -0.825  -0.478   0.202  0.00  0.00    +0.046 A 
ATOM      4  C   UNL     1      -1.897  -1.296  -0.129  0.00  0.00    +0.137 A 
ATOM      5  C   UNL     1      -3.131  -0.827  -0.510  0.00  0.00    +0.040 A 
ATOM      6  C   UNL     1      -3.306   0.547  -0.423  0.00  0.00    +0.040 A 
ENDROOT
BRANCH   3   7
ATOM      7  C   UNL     1       0.579  -1.007  -0.501  0.00  0.00    +0.199 C 
ATOM      8  O   UNL     1       0.416  -2.449   0.050  0.00  0.00    -0.216 OA
BRANCH   7   9
ATOM      9  C   UNL     1       1.460  -0.561   0.865  0.00  0.00    +0.153 C 
BRANCH   9  10
ATOM     10  N   UNL     1       2.813  -0.748   0.420  0.00  0.00    -0.201 NA
ATOM     11  C   UNL     1       3.580   0.416   0.119  0.00  0.00    +0.261 C 
ATOM     12  O   UNL     1       3.524   1.351   0.967  0.00  0.00    -0.272 OA
BRANCH  11  13
ATOM     13  C   UNL     1       4.596   0.404  -0.975  0.00  0.00    +0.196 C 
ATOM     14  N   UNL     1       4.685   1.733  -1.541  0.00  0.00    -0.121 NA
ENDBRANCH  11  13
ENDBRANCH   9  10
ENDBRANCH   7   9
ENDBRANCH   3   7
BRANCH   4  15
ATOM     15  O   UNL     1      -1.688  -2.598   0.345  0.00  0.00    -0.472 OA
ATOM     16  C   UNL     1      -2.150  -2.815   1.679  0.00  0.00    +0.252 C 
ENDBRANCH   4  15
BRANCH   1  18
ATOM     17  C   UNL     1      -3.016   3.319  -0.020  0.00  0.00    +0.252 C 
ATOM     18  O   UNL     1      -2.479   2.750  -0.220  0.00  0.00    -0.471 OA
ENDBRANCH   1  18
TORSDOF 6
