REMARK  Name = 
REMARK  2 active torsions:
REMARK  status: ('A' for Active; 'I' for Inactive)
REMARK    1  A    between atoms: N_6  and  C1*_7
REMARK    2  A    between atoms: C4*_11  and  C5*_12
REMARK                            x       y       z     vdW  Elec       q    Type
REMARK                         _______ _______ _______ _____ _____    ______ ____
ROOT
ATOM      1  O   UNL     1       4.274  -0.002  -0.787  0.00  0.00    -0.263 OA
ATOM      2  C   UNL     1       3.355  -0.222  -0.241  0.00  0.00    +0.312 A 
ATOM      3  C   UNL     1       2.665   0.895   0.134  0.00  0.00    +0.215 A 
ATOM      4  F   UNL     1       3.210   2.108   0.329  0.00  0.00    -0.197 F 
ATOM      5  C   UNL     1       1.321   0.792   0.287  0.00  0.00    +0.117 A 
ATOM      6  N   UNL     1       0.552  -0.283  -0.056  0.00  0.00    -0.253 N 
ATOM      7  C   UNL     1       1.320  -1.398   0.071  0.00  0.00    +0.355 A 
ATOM      8  O   UNL     1       0.682  -2.494   0.199  0.00  0.00    -0.244 OA
ATOM      9  N   UNL     1       2.629  -1.369  -0.295  0.00  0.00    -0.151 NA
ENDROOT
BRANCH   6  10
ATOM     10  C1* UNL     1      -0.668  -0.184   0.970  0.00  0.00    +0.211 C 
ATOM     11  O4* UNL     1      -1.681  -0.857   0.050  0.00  0.00    -0.332 OA
ATOM     12  C4* UNL     1      -2.793  -0.001   0.614  0.00  0.00    +0.180 C 
ATOM     13  C3* UNL     1      -2.206   1.130  -0.540  0.00  0.00    +0.186 C 
ATOM     14  O3* UNL     1      -3.001   2.278   0.047  0.00  0.00    -0.220 OA
ATOM     15  C2* UNL     1      -0.992   1.374   0.502  0.00  0.00    +0.089 C 
BRANCH  12  16
ATOM     16  C5* UNL     1      -3.919  -0.597  -0.423  0.00  0.00    +0.214 C 
ATOM     17  O5* UNL     1      -4.748  -1.171   0.560  0.00  0.00    -0.218 OA
ENDBRANCH  12  16
ENDBRANCH   6  10
TORSDOF 2
