REMARK  Name = 
REMARK  6 active torsions:
REMARK  status: ('A' for Active; 'I' for Inactive)
REMARK    1  A    between atoms: C_6  and  C_7
REMARK    2  A    between atoms: C_7  and  C_8
REMARK    3  A    between atoms: C_14  and  C_15
REMARK    4  A    between atoms: C_15  and  C_16
REMARK    5  A    between atoms: C_16  and  S_17
REMARK    6  A    between atoms: S_17  and  C_20
REMARK                            x       y       z     vdW  Elec       q    Type
REMARK                         _______ _______ _______ _____ _____    ______ ____
ROOT
ATOM      1  C   UNL     1      -3.285  -0.754   0.803  0.00  0.00    -0.000 A 
ATOM      2  C   UNL     1      -1.962  -0.849   0.462  0.00  0.00    +0.015 A 
ATOM      3  C   UNL     1      -1.775  -2.169   0.069  0.00  0.00    +0.081 A 
ATOM      4  C   UNL     1      -0.525  -2.486  -0.446  0.00  0.00    +0.019 A 
ATOM      5  C   UNL     1       0.534  -1.719  -0.048  0.00  0.00    -0.003 A 
ATOM      6  C   UNL     1       0.397  -0.441   0.468  0.00  0.00    -0.020 A 
ATOM      7  N   UNL     1      -2.828  -2.923   0.465  0.00  0.00    -0.244 NA
ATOM      8  C   UNL     1      -0.881  -0.003   0.683  0.00  0.00    -0.003 A 
ATOM      9  C   UNL     1      -3.773  -2.051   0.894  0.00  0.00    +0.095 A 
ENDROOT
BRANCH   1  10
ATOM     10  C   UNL     1      -4.096   0.492   0.841  0.00  0.00    +0.044 C 
BRANCH  10  13
ATOM     11  C   UNL     1      -4.659   1.596  -1.304  0.00  0.00    +0.090 C 
ATOM     12  N   UNL     1      -4.948   1.599  -1.043  0.00  0.00    -0.272 NA
ATOM     13  C   UNL     1      -5.241   0.234  -0.310  0.00  0.00    +0.062 C 
ATOM     14  C   UNL     1      -6.441   0.884   0.607  0.00  0.00    +0.018 C 
ATOM     15  C   UNL     1      -5.782   2.119   1.101  0.00  0.00    +0.019 C 
ATOM     16  C   UNL     1      -4.805   2.475   0.054  0.00  0.00    +0.072 C 
ENDBRANCH  10  13
ENDBRANCH   1  10
BRANCH   6  17
ATOM     17  C   UNL     1       1.612   0.176   1.054  0.00  0.00    +0.052 C 
BRANCH  17  18
ATOM     18  C   UNL     1       2.640  -0.870   1.399  0.00  0.00    +0.161 C 
BRANCH  18  19
ATOM     19  S   UNL     1       3.887  -1.050   0.175  0.00  0.00    +0.009 S 
ATOM     20  O   UNL     1       3.367  -1.324  -1.195  0.00  0.00    -0.169 OA
ATOM     21  O   UNL     1       4.834  -2.130   0.645  0.00  0.00    -0.169 OA
BRANCH  19  22
ATOM     22  C   UNL     1       4.817   0.440   0.067  0.00  0.00    +0.106 A 
ATOM     23  C   UNL     1       6.162   0.403  -0.248  0.00  0.00    +0.018 A 
ATOM     24  C   UNL     1       6.995   1.448   0.122  0.00  0.00    +0.001 A 
ATOM     25  C   UNL     1       6.427   2.509   0.816  0.00  0.00    +0.000 A 
ATOM     26  C   UNL     1       5.074   2.727   0.589  0.00  0.00    +0.001 A 
ATOM     27  C   UNL     1       4.252   1.669   0.286  0.00  0.00    +0.018 A 
ENDBRANCH  19  22
ENDBRANCH  18  19
ENDBRANCH  17  18
ENDBRANCH   6  17
TORSDOF 6
