REMARK  Name = 
REMARK  7 active torsions:
REMARK  status: ('A' for Active; 'I' for Inactive)
REMARK    1  A    between atoms: O_2  and  N_3
REMARK    2  A    between atoms: C_4  and  C_5
REMARK    3  A    between atoms: C_4  and  C_27
REMARK    4  A    between atoms: N_7  and  CA_8
REMARK    5  A    between atoms: CA_12  and  C_13
REMARK    6  A    between atoms: C_16  and  C_17
REMARK    7  A    between atoms: C_17  and  N_18
REMARK                            x       y       z     vdW  Elec       q    Type
REMARK                         _______ _______ _______ _____ _____    ______ ____
ROOT
ATOM      1  CA  UNL     1       0.864  -0.956   2.574  0.00  0.00    +0.201 C 
ATOM      2  C   UNL     1      -0.807  -1.142   2.792  0.00  0.00    +0.157 C 
ATOM      3  N   UNL     1      -0.654  -1.597   1.347  0.00  0.00    -0.242 N 
ATOM      4  CA  UNL     1      -1.459  -1.093   0.320  0.00  0.00    +0.133 C 
ATOM      5  C   UNL     1      -2.676  -0.587   0.489  0.00  0.00    +0.042 C 
ATOM      6  C   UNL     1      -3.008  -0.012   1.802  0.00  0.00    +0.088 C 
ATOM      7  S   UNL     1      -1.453   0.634   2.507  0.00  0.00    -0.114 S 
ATOM      8  C   UNL     1       0.617  -2.228   1.593  0.00  0.00    +0.253 C 
ATOM      9  O   UNL     1       1.516  -2.844   1.009  0.00  0.00    -0.273 OA
ENDROOT
BRANCH   1  11
ATOM     10  C   UNL     1       2.034   0.621   1.028  0.00  0.00    +0.288 C 
ATOM     11  N   UNL     1       0.755   0.058   1.347  0.00  0.00    -0.190 NA
ATOM     12  O   UNL     1       2.932   0.671   1.921  0.00  0.00    -0.267 OA
BRANCH  10  14
ATOM     13  N   UNL     1       2.152   1.725  -1.030  0.00  0.00    -0.077 NA
ATOM     14  C   UNL     1       2.534   0.701  -0.352  0.00  0.00    +0.192 C 
BRANCH  14  15
ATOM     15  C   UNL     1       3.763  -0.049  -0.666  0.00  0.00    +0.115 A 
ATOM     16  N   UNL     1       4.965   0.515  -0.884  0.00  0.00    -0.220 NA
ATOM     17  C   UNL     1       5.958  -0.223  -0.331  0.00  0.00    +0.201 A 
ATOM     18  N   UNL     1       7.246   0.214   0.122  0.00  0.00    -0.100 NA
ATOM     19  S   UNL     1       5.419  -1.788  -0.790  0.00  0.00    -0.048 S 
ATOM     20  C   UNL     1       3.769  -1.384  -1.059  0.00  0.00    +0.059 A 
ENDBRANCH  14  15
BRANCH  13  22
ATOM     21  C   UNL     1       1.458   3.700  -0.372  0.00  0.00    +0.288 C 
ATOM     22  O   UNL     1       1.474   2.785  -0.468  0.00  0.00    -0.373 OA
ENDBRANCH  13  22
ENDBRANCH  10  14
ENDBRANCH   1  11
BRANCH   4  23
ATOM     23  C   UNL     1      -1.100  -1.343  -1.087  0.00  0.00    +0.401 C 
ATOM     24  OXT UNL     1      -1.063  -0.225  -1.914  0.00  0.00    -0.239 OA
ATOM     25  O   UNL     1      -0.497  -2.385  -1.410  0.00  0.00    -0.239 OA
ENDBRANCH   4  23
BRANCH   5  26
ATOM     26  C   UNL     1      -3.348   0.085  -0.638  0.00  0.00    +0.134 C 
BRANCH  26  27
ATOM     27  N   UNL     1      -4.745   0.314  -0.372  0.00  0.00    +0.305 N 
ATOM     28  C   UNL     1      -5.464   0.637  -1.589  0.00  0.00    +0.109 C 
ATOM     29  C   UNL     1      -5.850   2.099  -1.490  0.00  0.00    +0.067 C 
ATOM     30  C   UNL     1      -5.017   2.619  -0.331  0.00  0.00    +0.067 C 
ATOM     31  C   UNL     1      -4.973   1.393   0.553  0.00  0.00    +0.109 C 
ATOM     32  C   UNL     1      -5.339  -0.915   0.149  0.00  0.00    +0.171 C 
ENDBRANCH  26  27
ENDBRANCH   5  26
TORSDOF 7
