REMARK  Name = 
REMARK  2 active torsions:
REMARK  status: ('A' for Active; 'I' for Inactive)
REMARK    1  A    between atoms: C_2  and  C_3
REMARK    2  A    between atoms: C_22  and  C_23
REMARK                            x       y       z     vdW  Elec       q    Type
REMARK                         _______ _______ _______ _____ _____    ______ ____
ROOT
ATOM      1  C   UNL     1      -3.418   0.042   0.183  0.00  0.00    +0.180 C 
ATOM      2  C   UNL     1      -2.054   0.457  -0.247  0.00  0.00    +0.040 C 
ATOM      3  C   UNL     1      -1.351  -0.848   0.404  0.00  0.00    +0.004 C 
ATOM      4  C   UNL     1       0.051  -0.633  -0.494  0.00  0.00    +0.004 C 
ATOM      5  C   UNL     1       0.788   0.078   0.830  0.00  0.00    +0.022 C 
ATOM      6  C   UNL     1       0.073   1.469   0.571  0.00  0.00    -0.044 C 
ATOM      7  C   UNL     1       0.707   2.560   1.003  0.00  0.00    -0.009 C 
ATOM      8  C   UNL     1       2.186   0.591   0.029  0.00  0.00    +0.023 C 
ATOM      9  C   UNL     1       2.430  -0.700  -0.877  0.00  0.00    -0.041 C 
ATOM     10  C   UNL     1       3.635  -0.491  -1.426  0.00  0.00    +0.029 C 
ATOM     11  C   UNL     1       4.602   0.372  -0.723  0.00  0.00    +0.173 C 
ATOM     12  C   UNL     1       4.558   0.178   0.763  0.00  0.00    +0.069 C 
ATOM     13  O   UNL     1       5.206   1.319  -1.257  0.00  0.00    -0.291 OA
ATOM     14  C   UNL     1       2.038  -2.014  -0.299  0.00  0.00    +0.022 C 
ATOM     15  C   UNL     1       3.133   0.004   1.215  0.00  0.00    +0.012 C 
ATOM     16  C   UNL     1       0.572  -2.100  -0.100  0.00  0.00    +0.005 C 
ATOM     17  C   UNL     1      -2.058  -1.772  -0.718  0.00  0.00    +0.004 C 
ATOM     18  C   UNL     1      -1.396   1.533   0.517  0.00  0.00    +0.025 C 
ATOM     19  C   UNL     1      -3.485  -1.396  -0.325  0.00  0.00    +0.043 C 
ATOM     20  O   UNL     1      -4.453   0.750  -0.381  0.00  0.00    -0.212 OA
ENDROOT
BRANCH   1  22
ATOM     21  C   UNL     1      -3.410  -0.031   2.821  0.00  0.00    -0.012 C 
ATOM     22  C   UNL     1      -3.506   0.093   1.641  0.00  0.00    -0.049 C 
ENDBRANCH   1  22
BRANCH   2  23
ATOM     23  C   UNL     1      -1.825   0.442  -1.713  0.00  0.00    +0.004 C 
ATOM     24  C   UNL     1      -3.019   0.095  -2.547  0.00  0.00    +0.000 C 
ENDBRANCH   2  23
TORSDOF 2
