REMARK  Name = 
REMARK  7 active torsions:
REMARK  status: ('A' for Active; 'I' for Inactive)
REMARK    1  A    between atoms: N_7  and  C_8
REMARK    2  A    between atoms: C_11  and  O_12
REMARK    3  A    between atoms: O_12  and  C_13
REMARK    4  A    between atoms: C_13  and  C_14
REMARK    5  A    between atoms: C_17  and  C_18
REMARK    6  A    between atoms: C_17  and  C_24
REMARK    7  A    between atoms: C_18  and  N_19
REMARK                            x       y       z     vdW  Elec       q    Type
REMARK                         _______ _______ _______ _____ _____    ______ ____
ROOT
ATOM      1  C   UNL     1      -1.158   1.904  -0.364  0.00  0.00    +0.191 C 
ATOM      2  O   UNL     1      -2.646   1.734   0.002  0.00  0.00    -0.325 OA
ATOM      3  C   UNL     1      -2.756   0.482   0.417  0.00  0.00    +0.230 C 
ATOM      4  O   UNL     1      -1.583  -0.229   0.356  0.00  0.00    -0.327 OA
ATOM      5  C   UNL     1      -0.692   0.730   0.744  0.00  0.00    +0.178 C 
ENDROOT
BRANCH   3   6
ATOM      6  C   UNL     1      -3.692  -0.235  -0.511  0.00  0.00    +0.041 A 
ATOM      7  C   UNL     1      -3.986  -1.580  -0.324  0.00  0.00    +0.059 A 
ATOM      8 CL   UNL     1      -2.780  -2.501   0.534  0.00  0.00    -0.082 Cl
ATOM      9  C   UNL     1      -5.243  -2.084  -0.643  0.00  0.00    +0.023 A 
ATOM     10  C   UNL     1      -6.265  -1.236  -1.056  0.00  0.00    +0.058 A 
ATOM     11 CL   UNL     1      -7.907  -1.381  -0.433  0.00  0.00    -0.082 Cl
ATOM     12  C   UNL     1      -5.816  -0.065  -1.655  0.00  0.00    +0.011 A 
ATOM     13  C   UNL     1      -4.573   0.464  -1.329  0.00  0.00    +0.002 A 
ENDBRANCH   3   6
BRANCH   1  14
ATOM     14  C   UNL     1      -1.265   0.793  -1.625  0.00  0.00    +0.237 C 
BRANCH  14  15
ATOM     15  O   UNL     1       0.055   0.578  -2.004  0.00  0.00    -0.473 OA
BRANCH  15  19
ATOM     16  C   UNL     1       3.937  -0.068  -1.119  0.00  0.00    +0.048 A 
ATOM     17  C   UNL     1       3.059  -1.121  -0.931  0.00  0.00    +0.018 A 
ATOM     18  C   UNL     1       1.705  -0.899  -0.989  0.00  0.00    +0.038 A 
ATOM     19  C   UNL     1       1.147   0.355  -1.210  0.00  0.00    +0.139 A 
ATOM     20  C   UNL     1       2.032   1.405  -0.993  0.00  0.00    +0.038 A 
ATOM     21  C   UNL     1       3.402   1.193  -0.886  0.00  0.00    +0.018 A 
BRANCH  16  27
ATOM     22  C   UNL     1       8.850   0.044   1.359  0.00  0.00    +0.095 C 
ATOM     23  C   UNL     1       7.562  -0.234   1.152  0.00  0.00    +0.226 C 
ATOM     24  N   UNL     1       7.115  -0.498  -0.183  0.00  0.00    -0.276 N 
ATOM     25  C   UNL     1       7.405   0.474  -1.217  0.00  0.00    +0.115 C 
ATOM     26  C   UNL     1       6.077   0.900  -1.805  0.00  0.00    +0.112 C 
ATOM     27  N   UNL     1       5.150  -0.227  -1.865  0.00  0.00    -0.304 N 
ATOM     28  C   UNL     1       5.740  -1.561  -1.836  0.00  0.00    +0.112 C 
ATOM     29  C   UNL     1       6.413  -1.717  -0.487  0.00  0.00    +0.115 C 
ATOM     30  O   UNL     1       6.679   0.144   1.974  0.00  0.00    -0.275 OA
ENDBRANCH  16  27
ENDBRANCH  15  19
ENDBRANCH  14  15
ENDBRANCH   1  14
BRANCH   3  31
ATOM     31  C   UNL     1      -3.242   0.249   1.830  0.00  0.00    +0.168 C 
BRANCH  31  32
ATOM     32  N   UNL     1      -4.048   1.306   2.359  0.00  0.00    -0.302 N 
ATOM     33  C   UNL     1      -4.548   1.173   3.615  0.00  0.00    +0.179 A 
ATOM     34  N   UNL     1      -5.206   2.286   3.927  0.00  0.00    -0.222 NA
ATOM     35  C   UNL     1      -4.853   3.257   3.077  0.00  0.00    +0.119 A 
ATOM     36  C   UNL     1      -4.072   2.622   2.120  0.00  0.00    +0.098 A 
ENDBRANCH  31  32
ENDBRANCH   3  31
TORSDOF 7
