REMARK  Name = 
REMARK  5 active torsions:
REMARK  status: ('A' for Active; 'I' for Inactive)
REMARK    1  A    between atoms: N_2  and  S_4
REMARK    2  A    between atoms: S_4  and  C_7
REMARK    3  A    between atoms: C_14  and  C_15
REMARK    4  A    between atoms: C_15  and  C_16
REMARK    5  A    between atoms: C_16  and  N_17
REMARK                            x       y       z     vdW  Elec       q    Type
REMARK                         _______ _______ _______ _____ _____    ______ ____
ROOT
ATOM      1  C   UNL     1      -2.442   1.434   0.337  0.00  0.00    +0.122 A 
ATOM      2  C   UNL     1      -1.263   0.810  -0.056  0.00  0.00    +0.020 A 
ATOM      3  C   UNL     1      -1.384  -0.464  -0.599  0.00  0.00    +0.007 A 
ATOM      4  C   UNL     1      -0.295  -1.443  -0.500  0.00  0.00    -0.003 C 
ATOM      5  C   UNL     1      -0.539  -2.890  -0.483  0.00  0.00    +0.006 A 
ATOM      6  C   UNL     1      -1.651  -3.459  -1.092  0.00  0.00    +0.029 A 
ATOM      7  S   UNL     1      -2.631  -2.352  -2.111  0.00  0.00    -0.087 S 
ATOM      8  C   UNL     1      -2.361  -4.458  -0.436  0.00  0.00    +0.006 A 
ATOM      9  C   UNL     1      -1.689  -5.182   0.538  0.00  0.00    +0.001 A 
ATOM     10  C   UNL     1      -0.341  -4.955   0.783  0.00  0.00    +0.000 A 
ATOM     11  C   UNL     1       0.185  -3.747   0.339  0.00  0.00    +0.000 A 
ATOM     12  C   UNL     1       0.936  -1.031  -0.204  0.00  0.00    -0.025 C 
ATOM     13  C   UNL     1      -2.548  -0.750  -1.302  0.00  0.00    +0.030 A 
ATOM     14  C   UNL     1      -3.747  -0.251  -0.827  0.00  0.00    +0.008 A 
ATOM     15  C   UNL     1      -3.660   0.934  -0.106  0.00  0.00    +0.020 A 
ENDROOT
BRANCH   1  16
ATOM     16  S   UNL     1      -2.499   2.756   1.459  0.00  0.00    +0.063 S 
ATOM     17  O   UNL     1      -1.211   2.895   2.198  0.00  0.00    -0.153 OA
ATOM     18  O   UNL     1      -3.613   2.526   2.456  0.00  0.00    -0.153 OA
BRANCH  16  20
ATOM     19  C   UNL     1      -3.260   3.905  -0.716  0.00  0.00    +0.115 C 
ATOM     20  N   UNL     1      -2.883   4.233   0.636  0.00  0.00    -0.153 NA
ATOM     21  C   UNL     1      -1.739   5.115   0.580  0.00  0.00    +0.115 C 
ENDBRANCH  16  20
ENDBRANCH   1  16
BRANCH  12  22
ATOM     22  C   UNL     1       1.196   0.442  -0.233  0.00  0.00    +0.043 C 
BRANCH  22  23
ATOM     23  C   UNL     1       2.340   0.707  -1.197  0.00  0.00    +0.077 C 
BRANCH  23  24
ATOM     24  N   UNL     1       3.589   0.295  -0.572  0.00  0.00    -0.270 NA
ATOM     25  C   UNL     1       4.727   0.724  -1.352  0.00  0.00    +0.090 C 
ATOM     26  C   UNL     1       5.976   0.136  -0.710  0.00  0.00    +0.090 C 
ATOM     27  N   UNL     1       6.103   0.745   0.610  0.00  0.00    -0.269 NA
ATOM     28  C   UNL     1       6.092   2.189   0.391  0.00  0.00    +0.090 C 
ATOM     29  C   UNL     1       4.955   0.327   1.393  0.00  0.00    +0.090 C 
ATOM     30  C   UNL     1       3.657   0.809   0.777  0.00  0.00    +0.090 C 
ENDBRANCH  23  24
ENDBRANCH  22  23
ENDBRANCH  12  22
TORSDOF 5
