REMARK  Name = 
REMARK  11 active torsions:
REMARK  status: ('A' for Active; 'I' for Inactive)
REMARK    1  A    between atoms: C_2  and  N_4
REMARK    2  A    between atoms: N_4  and  C_5
REMARK    3  A    between atoms: C_5  and  C_6
REMARK    4  A    between atoms: C_6  and  C_8
REMARK    5  A    between atoms: C_8  and  O_9
REMARK    6  A    between atoms: O_9  and  C_10
REMARK    7  A    between atoms: C_13  and  C_14
REMARK    8  A    between atoms: C_14  and  C_15
REMARK    9  A    between atoms: C_15  and  O_16
REMARK   10  A    between atoms: O_16  and  C_17
REMARK   11  A    between atoms: C_17  and  C_18
REMARK                            x       y       z     vdW  Elec       q    Type
REMARK                         _______ _______ _______ _____ _____    ______ ____
ROOT
ATOM      1  C   UNL     1       1.010   0.396   0.465  0.00  0.00    +0.139 A 
ATOM      2  C   UNL     1       0.518  -0.897   0.603  0.00  0.00    +0.037 A 
ATOM      3  C   UNL     1      -0.848  -1.146   0.637  0.00  0.00    -0.001 A 
ATOM      4  C   UNL     1      -1.726  -0.222   0.080  0.00  0.00    -0.019 A 
ATOM      5  C   UNL     1      -1.227   1.055  -0.105  0.00  0.00    -0.001 A 
ATOM      6  C   UNL     1       0.089   1.388   0.177  0.00  0.00    +0.037 A 
ENDROOT
BRANCH   1   7
ATOM      7  O   UNL     1       2.312   0.686   0.882  0.00  0.00    -0.473 OA
BRANCH   7   8
ATOM      8  C   UNL     1       2.952  -0.234   1.709  0.00  0.00    +0.240 C 
BRANCH   8   9
ATOM      9  C   UNL     1       4.260  -0.799   0.875  0.00  0.00    +0.213 C 
ATOM     10  O   UNL     1       3.801  -2.242   1.034  0.00  0.00    -0.218 OA
BRANCH   9  11
ATOM     11  C   UNL     1       3.550  -0.681  -0.614  0.00  0.00    +0.125 C 
BRANCH  11  12
ATOM     12  N   UNL     1       4.727  -0.394  -1.424  0.00  0.00    -0.217 NA
BRANCH  12  14
ATOM     13  C   UNL     1       5.671   1.680  -0.688  0.00  0.00    +0.019 C 
ATOM     14  C   UNL     1       5.715   0.364  -0.747  0.00  0.00    +0.073 C 
ATOM     15  C   UNL     1       6.843  -0.402  -0.156  0.00  0.00    +0.019 C 
ENDBRANCH  12  14
ENDBRANCH  11  12
ENDBRANCH   9  11
ENDBRANCH   8   9
ENDBRANCH   7   8
ENDBRANCH   1   7
BRANCH   4  16
ATOM     16  C   UNL     1      -2.815  -0.782  -0.751  0.00  0.00    +0.058 C 
BRANCH  16  17
ATOM     17  C   UNL     1      -4.133  -0.225  -0.618  0.00  0.00    +0.147 C 
BRANCH  17  18
ATOM     18  O   UNL     1      -4.395   0.746   0.296  0.00  0.00    -0.353 OA
BRANCH  18  19
ATOM     19  C   UNL     1      -5.461   1.486  -0.218  0.00  0.00    +0.142 C 
BRANCH  19  20
ATOM     20  C   UNL     1      -6.631   0.570  -0.531  0.00  0.00    +0.030 C 
ATOM     21  C   UNL     1      -7.555   0.400   0.672  0.00  0.00    +0.003 C 
ATOM     22  C   UNL     1      -6.658  -0.746   0.252  0.00  0.00    +0.003 C 
ENDBRANCH  19  20
ENDBRANCH  18  19
ENDBRANCH  17  18
ENDBRANCH  16  17
ENDBRANCH   4  16
TORSDOF 11
