REMARK  Name = 
REMARK  5 active torsions:
REMARK  status: ('A' for Active; 'I' for Inactive)
REMARK    1  A    between atoms: N_10  and  C_11
REMARK    2  A    between atoms: C_11  and  C_12
REMARK    3  A    between atoms: C_12  and  N_13
REMARK    4  A    between atoms: N_16  and  C_17
REMARK    5  A    between atoms: C_21  and  C_22
REMARK                            x       y       z     vdW  Elec       q    Type
REMARK                         _______ _______ _______ _____ _____    ______ ____
ROOT
ATOM      1  N   UNL     1       0.266   1.004  -0.078  0.00  0.00    -0.268 NA
ATOM      2  C   UNL     1       0.672   1.795   1.008  0.00  0.00    +0.094 C 
ATOM      3  C   UNL     1       0.750   1.150   2.346  0.00  0.00    +0.108 C 
ATOM      4  N   UNL     1       1.414  -0.139   2.153  0.00  0.00    -0.305 N 
ATOM      5  C   UNL     1       0.634  -1.030   1.297  0.00  0.00    +0.108 C 
ATOM      6  C   UNL     1       0.136  -0.383   0.062  0.00  0.00    +0.094 C 
ENDROOT
BRANCH   4   7
ATOM      7  C   UNL     1       2.828  -0.175   1.922  0.00  0.00    +0.048 A 
ATOM      8  C   UNL     1       3.399   0.338   0.771  0.00  0.00    +0.018 A 
ATOM      9  C   UNL     1       4.622  -0.125   0.304  0.00  0.00    +0.073 A 
ATOM     10  C   UNL     1       5.006  -1.406   0.685  0.00  0.00    +0.004 A 
ATOM     11  C   UNL     1       4.659  -1.751   1.986  0.00  0.00    +0.001 A 
ATOM     12  C   UNL     1       3.589  -1.116   2.605  0.00  0.00    +0.015 A 
BRANCH   9  13
ATOM     13  C   UNL     1       5.065   0.345  -1.043  0.00  0.00    +0.419 C 
ATOM     14  F   UNL     1       5.489   1.644  -0.888  0.00  0.00    -0.166 F 
ATOM     15  F   UNL     1       6.078  -0.464  -1.539  0.00  0.00    -0.166 F 
ATOM     16  F   UNL     1       4.005   0.243  -1.937  0.00  0.00    -0.166 F 
ENDBRANCH   9  13
ENDBRANCH   4   7
BRANCH   1  17
ATOM     17  C   UNL     1      -0.974   1.540  -0.630  0.00  0.00    +0.097 C 
BRANCH  17  18
ATOM     18  C   UNL     1      -1.747   0.445  -1.313  0.00  0.00    +0.128 C 
BRANCH  18  21
ATOM     19  O   UNL     1      -3.271   2.457   0.289  0.00  0.00    -0.244 OA
ATOM     20  C   UNL     1      -3.790   1.483  -0.334  0.00  0.00    +0.350 A 
ATOM     21  N   UNL     1      -3.123   0.448  -0.867  0.00  0.00    -0.277 N 
ATOM     22  C   UNL     1      -4.037  -0.495  -1.143  0.00  0.00    +0.082 A 
ATOM     23  C   UNL     1      -5.281  -0.016  -0.762  0.00  0.00    +0.102 A 
ATOM     24  C   UNL     1      -6.319  -0.918  -0.594  0.00  0.00    +0.021 A 
ATOM     25  C   UNL     1      -6.130  -2.266  -0.867  0.00  0.00    +0.002 A 
ATOM     26  C   UNL     1      -4.959  -2.675  -1.490  0.00  0.00    +0.002 A 
ATOM     27  C   UNL     1      -3.870  -1.828  -1.421  0.00  0.00    +0.019 A 
ATOM     28  N   UNL     1      -5.111   1.295  -0.523  0.00  0.00    -0.191 NA
ENDBRANCH  18  21
ENDBRANCH  17  18
ENDBRANCH   1  17
TORSDOF 5
