REMARK  Name = 
REMARK  2 active torsions:
REMARK  status: ('A' for Active; 'I' for Inactive)
REMARK    1  A    between atoms: C_5  and  C_6
REMARK    2  A    between atoms: C_8  and  C_9
REMARK                            x       y       z     vdW  Elec       q    Type
REMARK                         _______ _______ _______ _____ _____    ______ ____
ROOT
ATOM      1  C   UNL     1      -3.251  -0.376   0.735  0.00  0.00    +0.056 C 
ATOM      2  C   UNL     1      -1.922  -0.430   0.055  0.00  0.00    +0.098 A 
ATOM      3  C   UNL     1      -1.159   0.713  -0.148  0.00  0.00    +0.207 A 
ATOM      4  O   UNL     1      -1.732   1.948   0.169  0.00  0.00    -0.286 OA
ATOM      5  C   UNL     1       0.205   0.587  -0.353  0.00  0.00    +0.051 A 
ATOM      6  C   UNL     1       0.847  -0.639  -0.224  0.00  0.00    +0.031 A 
ATOM      7  C   UNL     1       0.006  -1.740  -0.343  0.00  0.00    +0.097 A 
ATOM      8  N   UNL     1      -1.325  -1.636  -0.107  0.00  0.00    -0.245 NA
ENDROOT
BRANCH   5   9
ATOM      9  C   UNL     1       1.080   1.799  -0.427  0.00  0.00    +0.212 C 
ATOM     10  O   UNL     1       1.933   1.696   0.685  0.00  0.00    -0.215 OA
ENDBRANCH   5   9
BRANCH   6  11
ATOM     11  C   UNL     1       2.179  -0.761   0.448  0.00  0.00    +0.210 C 
ATOM     12  O   UNL     1       3.139  -1.163  -0.490  0.00  0.00    -0.215 OA
ENDBRANCH   6  11
TORSDOF 2
