REMARK  Name = 
REMARK  7 active torsions:
REMARK  status: ('A' for Active; 'I' for Inactive)
REMARK    1  A    between atoms: C_2  and  C_4
REMARK    2  A    between atoms: C_4  and  C_5
REMARK    3  A    between atoms: C_5  and  N_6
REMARK    4  A    between atoms: C_5  and  B_21
REMARK    5  A    between atoms: C_7  and  C_9
REMARK    6  A    between atoms: C_9  and  N_10
REMARK    7  A    between atoms: C_11  and  C_13
REMARK                            x       y       z     vdW  Elec       q    Type
REMARK                         _______ _______ _______ _____ _____    ______ ____
ROOT
ATOM      1  C   UNL     1       0.338  -0.359  -1.181  0.00  0.00    +0.000 C 
ENDROOT
BRANCH   1   2
ATOM      2  N   UNL     1      -1.037  -0.036  -0.932  0.00  0.00    +0.000 NA
ATOM      3  C   UNL     1      -1.720  -0.726   0.123  0.00  0.00    +0.000 C 
ATOM      4  O   UNL     1      -1.357  -1.927   0.302  0.00  0.00    +0.000 OA
BRANCH   3   5
ATOM      5  C   UNL     1      -3.147  -0.437   0.312  0.00  0.00    +0.000 A 
ATOM      6  C   UNL     1      -4.057  -1.104  -0.497  0.00  0.00    +0.000 A 
ATOM      7 CL   UNL     1      -3.518  -2.455  -1.460  0.00  0.00    +0.000 Cl
ATOM      8  C   UNL     1      -5.367  -0.653  -0.527  0.00  0.00    +0.000 A 
ATOM      9  C   UNL     1      -5.743   0.461   0.187  0.00  0.00    +0.000 A 
ATOM     10  C   UNL     1      -4.758   1.285   0.708  0.00  0.00    +0.000 A 
ATOM     11 CL   UNL     1      -5.082   2.976   1.056  0.00  0.00    +0.000 Cl
ATOM     12  C   UNL     1      -3.454   0.864   0.679  0.00  0.00    +0.000 A 
ENDBRANCH   3   5
ENDBRANCH   1   2
BRANCH   1  14
ATOM     13  N   UNL     1       2.532  -0.535   0.154  0.00  0.00    +0.000 NA
ATOM     14  C   UNL     1       1.157  -0.139   0.029  0.00  0.00    +0.000 C 
ATOM     15  O   UNL     1       0.518   0.120   1.099  0.00  0.00    +0.000 OA
BRANCH  13  16
ATOM     16  C   UNL     1       3.185   0.297   1.310  0.00  0.00    +0.000 C 
BRANCH  16  17
ATOM     17  B   UNL     1       3.570   1.582   0.255  0.00  0.00    +0.000 B 
ATOM     18  O   UNL     1       4.870   2.188   0.366  0.00  0.00    +0.000 OA
ATOM     19  O   UNL     1       2.396   2.470   0.347  0.00  0.00    +0.000 OA
ENDBRANCH  16  17
BRANCH  16  20
ATOM     20  C   UNL     1       4.639  -0.426   1.218  0.00  0.00    +0.000 C 
BRANCH  20  22
ATOM     21  C   UNL     1       6.340  -0.492  -0.551  0.00  0.00    +0.000 C 
ATOM     22  C   UNL     1       4.971  -0.722  -0.184  0.00  0.00    +0.000 C 
ATOM     23  C   UNL     1       4.723  -2.231  -0.347  0.00  0.00    +0.000 C 
ENDBRANCH  20  22
ENDBRANCH  16  20
ENDBRANCH  13  16
ENDBRANCH   1  14
TORSDOF 7
