REMARK  Name = 
REMARK  8 active torsions:
REMARK  status: ('A' for Active; 'I' for Inactive)
REMARK    1  A    between atoms: C_2  and  C_3
REMARK    2  A    between atoms: C_2  and  N_11
REMARK    3  A    between atoms: C_3  and  C_4
REMARK    4  A    between atoms: C_4  and  C_5
REMARK    5  A    between atoms: N_11  and  C_12
REMARK    6  A    between atoms: C_12  and  C_13
REMARK    7  A    between atoms: C_13  and  C_15
REMARK    8  A    between atoms: C_20  and  C_21
REMARK                            x       y       z     vdW  Elec       q    Type
REMARK                         _______ _______ _______ _____ _____    ______ ____
ROOT
ATOM      1  C   UNL     1      -0.543   1.116  -0.938  0.00  0.00    +0.126 C 
ENDROOT
BRANCH   1   2
ATOM      2  C   UNL     1      -0.626   0.089   0.380  0.00  0.00    +0.192 C 
ATOM      3  O   UNL     1      -0.423   1.255   1.365  0.00  0.00    -0.217 OA
BRANCH   2   4
ATOM      4  C   UNL     1      -2.258   0.256   0.468  0.00  0.00    +0.009 A 
ATOM      5  C   UNL     1      -2.903  -0.447  -0.548  0.00  0.00    +0.006 A 
ATOM      6  C   UNL     1      -4.233  -0.778  -0.318  0.00  0.00    +0.095 A 
ATOM      7  C   UNL     1      -4.716  -0.802   0.984  0.00  0.00    +0.200 A 
ATOM      8  O   UNL     1      -6.076  -0.911   1.252  0.00  0.00    -0.286 OA
ATOM      9  C   UNL     1      -3.776  -0.874   1.983  0.00  0.00    +0.042 A 
ATOM     10  C   UNL     1      -2.584  -0.197   1.745  0.00  0.00    +0.001 A 
BRANCH   6  11
ATOM     11  C   UNL     1      -5.264  -0.627  -1.355  0.00  0.00    +0.287 C 
ATOM     12  O   UNL     1      -5.752   0.526  -1.564  0.00  0.00    -0.267 OA
ATOM     13  N   UNL     1      -6.016  -1.821  -1.599  0.00  0.00    -0.084 NA
ENDBRANCH   6  11
ENDBRANCH   2   4
ENDBRANCH   1   2
BRANCH   1  14
ATOM     14  N   UNL     1       0.895   1.018  -1.193  0.00  0.00    -0.216 NA
BRANCH  14  16
ATOM     15  C   UNL     1       2.669   2.549  -1.136  0.00  0.00    +0.019 C 
ATOM     16  C   UNL     1       1.552   1.939  -0.075  0.00  0.00    +0.073 C 
BRANCH  16  17
ATOM     17  C   UNL     1       2.592   0.770   0.466  0.00  0.00    +0.022 C 
BRANCH  17  18
ATOM     18  C   UNL     1       2.953  -0.096  -0.676  0.00  0.00    +0.028 C 
BRANCH  18  19
ATOM     19  C   UNL     1       4.412  -0.355  -0.588  0.00  0.00    -0.022 A 
ATOM     20  C   UNL     1       5.245   0.694  -0.212  0.00  0.00    -0.004 A 
ATOM     21  C   UNL     1       6.513   0.661  -0.783  0.00  0.00    -0.000 A 
ATOM     22  C   UNL     1       7.054  -0.598  -0.921  0.00  0.00    -0.000 A 
ATOM     23  C   UNL     1       6.315  -1.758  -0.721  0.00  0.00    -0.000 A 
ATOM     24  C   UNL     1       4.969  -1.608  -0.606  0.00  0.00    -0.004 A 
ENDBRANCH  18  19
ENDBRANCH  17  18
ENDBRANCH  16  17
ENDBRANCH  14  16
ENDBRANCH   1  14
TORSDOF 8
