REMARK  Name = 
REMARK  9 active torsions:
REMARK  status: ('A' for Active; 'I' for Inactive)
REMARK    1  A    between atoms: C_2  and  C_4
REMARK    2  A    between atoms: C_4  and  O_6
REMARK    3  A    between atoms: O_6  and  C_7
REMARK    4  A    between atoms: C_7  and  O_9
REMARK    5  A    between atoms: O_9  and  C_10
REMARK    6  A    between atoms: N_12  and  C_13
REMARK    7  A    between atoms: C_13  and  C_14
REMARK    8  A    between atoms: C_14  and  C_15
REMARK    9  A    between atoms: C_15  and  C_16
REMARK                            x       y       z     vdW  Elec       q    Type
REMARK                         _______ _______ _______ _____ _____    ______ ____
ROOT
ATOM      1  C   UNL     1       0.600  -0.339   0.867  0.00  0.00    +0.424 C 
ATOM      2  N   UNL     1      -0.585  -0.091   1.609  0.00  0.00    -0.169 NA
ATOM      3  O   UNL     1       0.605  -0.048  -0.334  0.00  0.00    -0.224 OA
ENDROOT
BRANCH   1   4
ATOM      4  O   UNL     1       1.579  -1.032   1.482  0.00  0.00    -0.398 OA
BRANCH   4   5
ATOM      5  C   UNL     1       2.773  -1.533   0.630  0.00  0.00    +0.346 C 
ATOM      6  C   UNL     1       1.800  -2.068  -0.608  0.00  0.00    +0.100 C 
BRANCH   5   7
ATOM      7  O   UNL     1       2.965  -0.145  -0.043  0.00  0.00    -0.414 OA
BRANCH   7   8
ATOM      8  C   UNL     1       4.288   0.238   0.021  0.00  0.00    +0.319 C 
ATOM      9  O   UNL     1       5.146  -0.379   0.716  0.00  0.00    -0.250 OA
BRANCH   8  11
ATOM     10  C   UNL     1       6.260   1.235  -0.928  0.00  0.00    +0.012 C 
ATOM     11  C   UNL     1       4.863   1.240  -0.929  0.00  0.00    +0.099 C 
ATOM     12  C   UNL     1       4.463   2.610  -0.391  0.00  0.00    +0.012 C 
ENDBRANCH   8  11
ENDBRANCH   7   8
ENDBRANCH   5   7
ENDBRANCH   4   5
ENDBRANCH   1   4
BRANCH   2  13
ATOM     13  C   UNL     1      -1.807   0.258   1.198  0.00  0.00    +0.119 C 
BRANCH  13  14
ATOM     14  C   UNL     1      -2.598  -0.179   0.086  0.00  0.00    +0.031 C 
ATOM     15  C   UNL     1      -4.046  -0.273   0.561  0.00  0.00    +0.002 C 
ATOM     16  C   UNL     1      -4.848  -1.270  -0.215  0.00  0.00    +0.000 C 
ATOM     17  C   UNL     1      -4.328  -2.678  -0.126  0.00  0.00    +0.000 C 
ATOM     18  C   UNL     1      -2.833  -2.665   0.079  0.00  0.00    +0.000 C 
ATOM     19  C   UNL     1      -2.259  -1.460  -0.607  0.00  0.00    +0.002 C 
BRANCH  14  20
ATOM     20  C   UNL     1      -2.594   0.930  -0.964  0.00  0.00    +0.116 C 
BRANCH  20  21
ATOM     21  C   UNL     1      -2.898   2.235  -0.345  0.00  0.00    +0.365 C 
ATOM     22  O   UNL     1      -2.674   2.546   0.994  0.00  0.00    -0.246 OA
ATOM     23  O   UNL     1      -3.873   2.869  -0.855  0.00  0.00    -0.246 OA
ENDBRANCH  20  21
ENDBRANCH  14  20
ENDBRANCH  13  14
ENDBRANCH   2  13
TORSDOF 9
