REMARK  Name = 
REMARK  3 active torsions:
REMARK  status: ('A' for Active; 'I' for Inactive)
REMARK    1  A    between atoms: N_2  and  C_3
REMARK    2  A    between atoms: C_3  and  C_5
REMARK    3  A    between atoms: C_5  and  C_6
REMARK                            x       y       z     vdW  Elec       q    Type
REMARK                         _______ _______ _______ _____ _____    ______ ____
ROOT
ATOM      1  C   UNL     1      -0.252  -0.392   0.702  0.00  0.00    +0.001 C 
ATOM      2  C   UNL     1      -1.387  -1.212   1.237  0.00  0.00    +0.000 C 
ATOM      3  C   UNL     1      -2.590  -1.009   0.361  0.00  0.00    +0.000 C 
ATOM      4  C   UNL     1      -3.061   0.417   0.417  0.00  0.00    +0.000 C 
ATOM      5  C   UNL     1      -1.886   1.328   0.199  0.00  0.00    +0.000 C 
ATOM      6  C   UNL     1      -0.738   0.528  -0.388  0.00  0.00    +0.000 C 
ENDROOT
BRANCH   1   7
ATOM      7  C   UNL     1       0.914  -1.242   0.283  0.00  0.00    +0.017 C 
BRANCH   7   8
ATOM      8  C   UNL     1       1.678  -0.209  -0.742  0.00  0.00    +0.073 C 
ATOM      9  C   UNL     1       3.099  -1.021  -0.594  0.00  0.00    +0.019 C 
BRANCH   8  11
ATOM     10  C   UNL     1       2.178   2.036  -0.142  0.00  0.00    +0.107 C 
ATOM     11  N   UNL     1       2.046   0.776   0.430  0.00  0.00    -0.218 NA
ENDBRANCH   8  11
ENDBRANCH   7   8
ENDBRANCH   1   7
TORSDOF 3
