REMARK  Name = 
REMARK  8 active torsions:
REMARK  status: ('A' for Active; 'I' for Inactive)
REMARK    1  A    between atoms: C_2  and  C_3
REMARK    2  A    between atoms: C_3  and  C_4
REMARK    3  A    between atoms: C_4  and  O_5
REMARK    4  A    between atoms: O_5  and  C_6
REMARK    5  A    between atoms: C_9  and  C_10
REMARK    6  A    between atoms: C_10  and  C_12
REMARK    7  A    between atoms: C_12  and  C_13
REMARK    8  A    between atoms: C_13  and  N_14
REMARK                            x       y       z     vdW  Elec       q    Type
REMARK                         _______ _______ _______ _____ _____    ______ ____
ROOT
ATOM      1  C   UNL     1      -3.121   1.477  -0.070  0.00  0.00    +0.139 A 
ATOM      2  C   UNL     1      -2.300   1.649   1.035  0.00  0.00    +0.037 A 
ATOM      3  C   UNL     1      -0.920   1.604   0.873  0.00  0.00    +0.006 A 
ATOM      4  C   UNL     1      -0.372   1.481  -0.397  0.00  0.00    +0.035 A 
ATOM      5  C   UNL     1      -1.175   1.894  -1.443  0.00  0.00    +0.006 A 
ATOM      6  C   UNL     1      -2.552   1.815  -1.291  0.00  0.00    +0.037 A 
ENDROOT
BRANCH   4   7
ATOM      7  C   UNL     1       1.010   1.033  -0.603  0.00  0.00    +0.174 C 
ATOM      8  O   UNL     1       1.752   1.834  -1.242  0.00  0.00    -0.291 OA
BRANCH   7   9
ATOM      9  C   UNL     1       1.627   0.133   0.417  0.00  0.00    +0.086 C 
BRANCH   9  10
ATOM     10  C   UNL     1       2.594  -0.851  -0.225  0.00  0.00    +0.080 C 
BRANCH  10  11
ATOM     11  N   UNL     1       3.937  -0.291  -0.293  0.00  0.00    -0.272 NA
ATOM     12  C   UNL     1       4.705  -0.597   0.912  0.00  0.00    +0.072 C 
ATOM     13  C   UNL     1       4.585  -2.105   1.103  0.00  0.00    +0.017 C 
ATOM     14  C   UNL     1       5.545  -2.718   0.090  0.00  0.00    +0.003 C 
ATOM     15  C   UNL     1       5.814  -1.720  -1.003  0.00  0.00    +0.017 C 
ATOM     16  C   UNL     1       4.603  -0.926  -1.401  0.00  0.00    +0.072 C 
ENDBRANCH  10  11
ENDBRANCH   9  10
ENDBRANCH   7   9
ENDBRANCH   4   7
BRANCH   1  17
ATOM     17  O   UNL     1      -4.334   0.786   0.001  0.00  0.00    -0.475 OA
BRANCH  17  18
ATOM     18  C   UNL     1      -4.680  -0.181  -0.986  0.00  0.00    +0.205 C 
BRANCH  18  19
ATOM     19  C   UNL     1      -4.522  -1.594  -0.476  0.00  0.00    +0.047 C 
BRANCH  19  21
ATOM     20  C   UNL     1      -6.602  -0.794   0.679  0.00  0.00    +0.000 C 
ATOM     21  C   UNL     1      -5.592  -1.929   0.554  0.00  0.00    +0.004 C 
ENDBRANCH  19  21
ENDBRANCH  18  19
ENDBRANCH  17  18
ENDBRANCH   1  17
TORSDOF 8
