REMARK  Name = 
REMARK  1 active torsions:
REMARK  status: ('A' for Active; 'I' for Inactive)
REMARK    1  A    between atoms: C_12  and  C_13
REMARK                            x       y       z     vdW  Elec       q    Type
REMARK                         _______ _______ _______ _____ _____    ______ ____
ROOT
ATOM      1  C   UNL     1       5.066  -1.332   0.059  0.00  0.00    +0.306 C 
ATOM      2  N   UNL     1       3.746  -1.952  -0.019  0.00  0.00    -0.024 NA
ATOM      3  C   UNL     1       2.618  -1.113  -0.293  0.00  0.00    +0.419 C 
ATOM      4  C   UNL     1       1.500  -1.695  -1.082  0.00  0.00    +0.450 C 
ATOM      5  N   UNL     1       0.220  -1.515  -0.439  0.00  0.00    -0.172 N 
ATOM      6  O   UNL     1      -0.424  -2.708  -0.157  0.00  0.00    -0.623 OA
ATOM      7  C   UNL     1      -0.344  -0.462   0.074  0.00  0.00    +0.235 C 
ATOM      8  C   UNL     1       0.338   0.785   0.452  0.00  0.00    +0.108 A 
ATOM      9  C   UNL     1       1.697   1.073   0.439  0.00  0.00    +0.199 A 
ATOM     10  C   UNL     1       2.157   2.377   0.378  0.00  0.00    +0.048 A 
ATOM     11  C   UNL     1       1.194   3.374   0.467  0.00  0.00    +0.015 A 
ATOM     12  C   UNL     1      -0.139   3.083   0.595  0.00  0.00    +0.058 A 
ATOM     13 CL   UNL     1      -1.286   4.354   0.919  0.00  0.00    -0.082 Cl
ATOM     14  C   UNL     1      -0.585   1.773   0.654  0.00  0.00    +0.021 A 
ATOM     15  N   UNL     1       2.709   0.115   0.128  0.00  0.00    -0.034 NA
ENDROOT
BRANCH   7  16
ATOM     16  C   UNL     1      -1.766  -0.580   0.355  0.00  0.00    +0.064 A 
ATOM     17  C   UNL     1      -2.619   0.136  -0.474  0.00  0.00    +0.006 A 
ATOM     18  C   UNL     1      -3.926  -0.229  -0.661  0.00  0.00    +0.000 A 
ATOM     19  C   UNL     1      -4.374  -1.456  -0.193  0.00  0.00    +0.000 A 
ATOM     20  C   UNL     1      -3.557  -2.195   0.636  0.00  0.00    +0.000 A 
ATOM     21  C   UNL     1      -2.222  -1.833   0.730  0.00  0.00    +0.006 A 
ENDBRANCH   7  16
TORSDOF 1
