REMARK  Name = 
REMARK  13 active torsions:
REMARK  status: ('A' for Active; 'I' for Inactive)
REMARK    1  A    between atoms: C_2  and  N_5
REMARK    2  A    between atoms: C_6  and  C_8
REMARK    3  A    between atoms: N_17  and  C_18
REMARK    4  A    between atoms: C_18  and  C_19
REMARK    5  A    between atoms: C_19  and  C_21
REMARK    6  A    between atoms: C_21  and  C_22
REMARK    7  A    between atoms: C_21  and  N_29
REMARK    8  A    between atoms: C_22  and  C_23
REMARK    9  A    between atoms: C_30  and  C_32
REMARK   10  A    between atoms: C_32  and  C_33
REMARK   11  A    between atoms: C_32  and  N_37
REMARK   12  A    between atoms: C_33  and  C_34
REMARK   13  A    between atoms: C_38  and  C_40
REMARK                            x       y       z     vdW  Elec       q    Type
REMARK                         _______ _______ _______ _____ _____    ______ ____
ROOT
ATOM      1  C   UNL     1      -0.521  -0.258  -1.104  0.00  0.00    +0.131 C 
ENDROOT
BRANCH   1   2
ATOM      2  N   UNL     1       0.215   1.055  -0.657  0.00  0.00    -0.203 NA
ATOM      3  C   UNL     1       1.294   1.321  -1.575  0.00  0.00    +0.262 C 
ATOM      4  O   UNL     1       1.640   0.494  -2.451  0.00  0.00    -0.271 OA
BRANCH   3   5
ATOM      5  C   UNL     1       2.508   2.189  -0.929  0.00  0.00    +0.182 C 
BRANCH   5   6
ATOM      6  N   UNL     1       3.357   0.892  -0.597  0.00  0.00    -0.192 NA
ATOM      7  C   UNL     1       4.585   1.163   0.091  0.00  0.00    +0.283 C 
ATOM      8  O   UNL     1       5.261   2.106  -0.419  0.00  0.00    -0.267 OA
BRANCH   7   9
ATOM      9  C   UNL     1       5.339  -0.038   0.478  0.00  0.00    +0.136 A 
ATOM     10  N   UNL     1       6.295  -0.033   1.416  0.00  0.00    -0.241 NA
ATOM     11  C   UNL     1       7.379  -0.835   1.282  0.00  0.00    +0.081 A 
ATOM     12  C   UNL     1       7.540  -1.711   0.226  0.00  0.00    +0.018 A 
ATOM     13  C   UNL     1       8.797  -1.915  -0.334  0.00  0.00    +0.001 A 
ATOM     14  C   UNL     1       9.900  -1.265   0.208  0.00  0.00    +0.000 A 
ATOM     15  C   UNL     1       9.766  -0.827   1.500  0.00  0.00    +0.002 A 
ATOM     16  C   UNL     1       6.387  -1.989  -0.497  0.00  0.00    +0.003 A 
ATOM     17  C   UNL     1       8.511  -0.628   2.061  0.00  0.00    +0.019 A 
ATOM     18  C   UNL     1       5.263  -1.202  -0.277  0.00  0.00    +0.024 A 
ENDBRANCH   7   9
ENDBRANCH   5   6
BRANCH   5  19
ATOM     19  C   UNL     1       3.304   2.394  -2.366  0.00  0.00    +0.120 C 
BRANCH  19  20
ATOM     20  C   UNL     1       2.529   3.441  -3.076  0.00  0.00    +0.263 C 
ATOM     21  O   UNL     1       2.529   3.517  -4.320  0.00  0.00    -0.272 OA
ATOM     22  N   UNL     1       2.409   4.686  -2.378  0.00  0.00    -0.088 NA
ENDBRANCH  19  20
ENDBRANCH   5  19
ENDBRANCH   3   5
ENDBRANCH   1   2
BRANCH   1  23
ATOM     23  C   UNL     1      -1.657  -0.289   0.195  0.00  0.00    +0.188 C 
ATOM     24  O   UNL     1      -1.714  -1.803   0.083  0.00  0.00    -0.220 OA
BRANCH  23  25
ATOM     25  C   UNL     1      -2.986  -0.118  -0.768  0.00  0.00    +0.107 C 
BRANCH  25  27
ATOM     26  C   UNL     1      -5.367  -0.451  -0.404  0.00  0.00    +0.137 C 
ATOM     27  N   UNL     1      -4.002  -0.026   0.284  0.00  0.00    -0.264 NA
ATOM     28  C   UNL     1      -3.853  -1.282   1.029  0.00  0.00    +0.072 C 
ATOM     29  C   UNL     1      -4.646  -1.073   2.426  0.00  0.00    +0.016 C 
ATOM     30  C   UNL     1      -6.215  -1.438   1.837  0.00  0.00    +0.003 C 
ATOM     31  C   UNL     1      -5.809  -2.473   0.649  0.00  0.00    +0.000 C 
ATOM     32  C   UNL     1      -5.535  -3.792   1.298  0.00  0.00    +0.000 C 
ATOM     33  C   UNL     1      -4.198  -3.557   1.973  0.00  0.00    +0.000 C 
ATOM     34  C   UNL     1      -4.374  -2.563   3.011  0.00  0.00    +0.001 C 
ATOM     35  C   UNL     1      -6.232  -0.083   0.950  0.00  0.00    +0.025 C 
BRANCH  26  37
ATOM     36  N   UNL     1      -6.942   1.045  -1.746  0.00  0.00    -0.208 NA
ATOM     37  C   UNL     1      -5.688   1.003  -1.058  0.00  0.00    +0.256 C 
ATOM     38  O   UNL     1      -5.371   1.990  -0.388  0.00  0.00    -0.272 OA
BRANCH  36  40
ATOM     39  C   UNL     1      -7.982   2.432  -2.005  0.00  0.00    +0.022 C 
ATOM     40  C   UNL     1      -7.909   2.134  -1.656  0.00  0.00    +0.079 C 
ATOM     41  C   UNL     1      -9.242   1.461  -1.340  0.00  0.00    +0.022 C 
ATOM     42  C   UNL     1      -7.565   2.890  -0.378  0.00  0.00    +0.022 C 
ENDBRANCH  36  40
ENDBRANCH  26  37
ENDBRANCH  25  27
ENDBRANCH  23  25
ENDBRANCH   1  23
BRANCH   1  43
ATOM     43  C   UNL     1       0.563  -1.197  -0.317  0.00  0.00    +0.051 C 
BRANCH  43  44
ATOM     44  C   UNL     1       0.468  -0.974   1.117  0.00  0.00    -0.020 A 
ATOM     45  C   UNL     1       0.706  -2.083   1.929  0.00  0.00    -0.004 A 
ATOM     46  C   UNL     1       0.271  -2.028   3.250  0.00  0.00    -0.000 A 
ATOM     47  C   UNL     1       0.216  -0.808   3.913  0.00  0.00    -0.000 A 
ATOM     48  C   UNL     1       0.206   0.322   3.109  0.00  0.00    -0.000 A 
ATOM     49  C   UNL     1       0.568   0.205   1.796  0.00  0.00    -0.004 A 
ENDBRANCH  43  44
ENDBRANCH   1  43
TORSDOF 13
