REMARK  Name = 
REMARK  4 active torsions:
REMARK  status: ('A' for Active; 'I' for Inactive)
REMARK    1  A    between atoms: C_23  and  O_24
REMARK    2  A    between atoms: C_26  and  C_27
REMARK    3  A    between atoms: C_27  and  C_28
REMARK    4  A    between atoms: C_28  and  C_30
REMARK                            x       y       z     vdW  Elec       q    Type
REMARK                         _______ _______ _______ _____ _____    ______ ____
ROOT
ATOM      1  C   UNL     1      -1.734   5.487  -0.696  0.00  0.00    -0.007 C 
ATOM      2  C   UNL     1      -2.126   5.245   0.105  0.00  0.00    -0.015 C 
ATOM      3  C   UNL     1      -1.572   4.247   1.265  0.00  0.00    +0.134 C 
ATOM      4  O   UNL     1      -1.476   3.141   0.257  0.00  0.00    -0.354 OA
ATOM      5  C   UNL     1      -2.882   3.095  -0.281  0.00  0.00    +0.120 C 
ATOM      6  C   UNL     1      -3.419   2.263   1.040  0.00  0.00    +0.035 C 
ATOM      7  C   UNL     1      -4.786   1.830   0.577  0.00  0.00    +0.059 C 
ATOM      8  C   UNL     1      -4.999   0.370   0.517  0.00  0.00    +0.190 C 
ATOM      9  O   UNL     1      -6.282   0.041   0.752  0.00  0.00    -0.332 OA
ATOM     10  C   UNL     1      -6.376  -1.437   0.452  0.00  0.00    +0.174 C 
ATOM     11  C   UNL     1      -5.932  -1.300  -1.169  0.00  0.00    +0.150 C 
ATOM     12  O   UNL     1      -5.053  -2.474  -1.013  0.00  0.00    -0.351 OA
ATOM     13  C   UNL     1      -4.215  -2.586   0.258  0.00  0.00    +0.174 C 
ATOM     14  C   UNL     1      -3.430  -0.905   0.014  0.00  0.00    +0.176 C 
ATOM     15  C   UNL     1      -1.908  -1.460   0.242  0.00  0.00    +0.172 C 
ATOM     16  C   UNL     1      -3.055  -2.485  -0.577  0.00  0.00    +0.145 C 
ATOM     17  C   UNL     1      -2.228  -2.208  -1.863  0.00  0.00    +0.035 C 
ATOM     18  C   UNL     1      -1.179  -2.783  -1.001  0.00  0.00    +0.033 C 
ATOM     19  C   UNL     1      -1.554  -3.564   0.393  0.00  0.00    +0.123 C 
ATOM     20  C   UNL     1      -0.036  -3.312   0.981  0.00  0.00    +0.094 C 
ATOM     21  C   UNL     1       0.862  -3.047  -0.134  0.00  0.00    +0.153 C 
ATOM     22  C   UNL     1       1.231  -1.671  -0.628  0.00  0.00    +0.070 C 
ATOM     23  C   UNL     1       2.831  -1.658  -0.698  0.00  0.00    +0.064 C 
ATOM     24  C   UNL     1       3.057  -0.114  -0.062  0.00  0.00    +0.121 C 
ATOM     25  C   UNL     1       3.365   0.559  -1.520  0.00  0.00    +0.063 C 
ATOM     26  C   UNL     1       2.536   1.984  -1.460  0.00  0.00    +0.136 C 
ATOM     27  C   UNL     1       3.835   2.890  -1.168  0.00  0.00    -0.018 C 
ATOM     28  C   UNL     1       4.891   2.413  -0.651  0.00  0.00    -0.007 C 
ATOM     29  C   UNL     1       3.374   4.279  -0.478  0.00  0.00    +0.023 C 
ATOM     30  C   UNL     1       3.400   3.736   1.076  0.00  0.00    +0.005 C 
ATOM     31  C   UNL     1       1.796   4.206  -0.786  0.00  0.00    +0.034 C 
ATOM     32  C   UNL     1       1.022   2.876  -0.292  0.00  0.00    +0.116 C 
ATOM     33  C   UNL     1       0.817   3.438   1.252  0.00  0.00    +0.032 C 
ATOM     34  O   UNL     1       2.217   1.992   0.033  0.00  0.00    -0.355 OA
ATOM     35  O   UNL     1       4.480  -0.599   0.028  0.00  0.00    -0.356 OA
ATOM     36  C   UNL     1       4.270  -1.278   1.344  0.00  0.00    +0.145 C 
ATOM     37  C   UNL     1       2.944  -2.252   0.868  0.00  0.00    +0.145 C 
ATOM     38  O   UNL     1       0.966  -3.938  -0.981  0.00  0.00    -0.296 OA
ATOM     39  O   UNL     1      -4.058  -1.298  -0.533  0.00  0.00    -0.351 OA
ATOM     40  O   UNL     1      -2.093  -2.463   1.340  0.00  0.00    -0.353 OA
ATOM     41  C   UNL     1      -4.751  -1.388   0.925  0.00  0.00    +0.174 C 
ATOM     42  O   UNL     1      -3.882  -0.206   1.239  0.00  0.00    -0.332 OA
ATOM     43  C   UNL     1      -5.029   0.059  -0.929  0.00  0.00    +0.088 C 
ATOM     44  C   UNL     1       0.000   4.699   1.019  0.00  0.00    +0.036 C 
ATOM     45  C   UNL     1      -3.408   4.536   0.311  0.00  0.00    +0.054 C 
ENDROOT
BRANCH  37  46
ATOM     46  O   UNL     1       3.680  -3.437   0.324  0.00  0.00    -0.351 OA
ATOM     47  C   UNL     1       3.483  -4.342   1.413  0.00  0.00    +0.174 C 
ENDBRANCH  37  46
BRANCH  36  48
ATOM     48  C   UNL     1       5.437  -2.419   1.206  0.00  0.00    +0.066 C 
BRANCH  48  49
ATOM     49  C   UNL     1       5.871  -2.424  -0.371  0.00  0.00    +0.173 C 
ATOM     50  O   UNL     1       6.396  -3.852  -0.315  0.00  0.00    -0.221 OA
BRANCH  49  51
ATOM     51  C   UNL     1       7.393  -1.867  -0.085  0.00  0.00    +0.142 C 
ATOM     52  N   UNL     1       7.308  -0.620   0.575  0.00  0.00    -0.129 NA
ENDBRANCH  49  51
ENDBRANCH  48  49
ENDBRANCH  36  48
TORSDOF 4
