REMARK  Name = 
REMARK  6 active torsions:
REMARK  status: ('A' for Active; 'I' for Inactive)
REMARK    1  A    between atoms: N_2  and  C_4
REMARK    2  A    between atoms: C_4  and  C_5
REMARK    3  A    between atoms: C_5  and  C_6
REMARK    4  A    between atoms: C_6  and  C_7
REMARK    5  A    between atoms: C_7  and  C_8
REMARK    6  A    between atoms: C_19  and  C_20
REMARK                            x       y       z     vdW  Elec       q    Type
REMARK                         _______ _______ _______ _____ _____    ______ ____
ROOT
ATOM      1  C   UNL     1      -0.227   0.042   0.198  0.00  0.00    +0.130 C 
ATOM      2  C   UNL     1       1.217  -0.113   0.558  0.00  0.00    +0.004 A 
ATOM      3  C   UNL     1       1.803  -0.564  -0.619  0.00  0.00    +0.006 A 
ATOM      4  C   UNL     1       3.142  -0.896  -0.547  0.00  0.00    +0.008 A 
ATOM      5  C   UNL     1       4.006  -0.323   0.375  0.00  0.00    +0.068 A 
ATOM      6  C   UNL     1       3.431   0.403   1.387  0.00  0.00    +0.010 A 
ATOM      7  C   UNL     1       0.817  -0.388  -1.730  0.00  0.00    +0.169 C 
ATOM      8  C   UNL     1       2.048   0.472   1.505  0.00  0.00    -0.001 A 
ATOM      9  O   UNL     1      -0.109   0.480  -1.130  0.00  0.00    -0.346 OA
ENDROOT
BRANCH   1  10
ATOM     10  C   UNL     1      -0.949  -1.245   0.218  0.00  0.00    +0.006 A 
ATOM     11  C   UNL     1      -1.498  -1.727   1.396  0.00  0.00    +0.001 A 
ATOM     12  C   UNL     1      -2.564  -2.614   1.384  0.00  0.00    +0.029 A 
ATOM     13  C   UNL     1      -3.102  -3.007   0.166  0.00  0.00    +0.140 A 
ATOM     14  F   UNL     1      -4.359  -3.535   0.118  0.00  0.00    -0.204 F 
ATOM     15  C   UNL     1      -2.347  -2.825  -0.975  0.00  0.00    +0.029 A 
ATOM     16  C   UNL     1      -1.424  -1.808  -0.960  0.00  0.00    +0.001 A 
ENDBRANCH   1  10
BRANCH   5  17
ATOM     17  C   UNL     1       5.415  -0.188   0.140  0.00  0.00    +0.100 C 
ATOM     18  N   UNL     1       6.495  -0.243  -0.297  0.00  0.00    -0.191 NA
ENDBRANCH   5  17
BRANCH   1  19
ATOM     19  C   UNL     1      -0.907   1.110   1.005  0.00  0.00    +0.037 C 
BRANCH  19  20
ATOM     20  C   UNL     1      -2.079   1.615   0.180  0.00  0.00    +0.020 C 
BRANCH  20  21
ATOM     21  C   UNL     1      -2.750   2.775   0.881  0.00  0.00    +0.072 C 
BRANCH  21  23
ATOM     22  C   UNL     1      -1.705   4.850   1.042  0.00  0.00    +0.090 C 
ATOM     23  N   UNL     1      -2.530   4.029   0.168  0.00  0.00    -0.270 NA
ATOM     24  C   UNL     1      -1.824   3.700  -1.064  0.00  0.00    +0.090 C 
ENDBRANCH  21  23
ENDBRANCH  20  21
ENDBRANCH  19  20
ENDBRANCH   1  19
TORSDOF 6
