REMARK  Name = 
REMARK  3 active torsions:
REMARK  status: ('A' for Active; 'I' for Inactive)
REMARK    1  A    between atoms: N_2  and  C_3
REMARK    2  A    between atoms: C_3  and  C_5
REMARK    3  A    between atoms: C_5  and  C_7
REMARK                            x       y       z     vdW  Elec       q    Type
REMARK                         _______ _______ _______ _____ _____    ______ ____
ROOT
ATOM      1  C   UNL     1      -0.757  -0.020  -1.524  0.00  0.00    +0.190 C 
ATOM      2  O   UNL     1      -0.866  -1.535  -1.469  0.00  0.00    -0.217 OA
ENDROOT
BRANCH   1   3
ATOM      3  C   UNL     1       0.394  -0.019  -0.426  0.00  0.00    +0.009 A 
ATOM      4  C   UNL     1       1.578  -0.042  -1.176  0.00  0.00    -0.002 A 
ATOM      5  C   UNL     1       2.798   0.092  -0.513  0.00  0.00    -0.000 A 
ATOM      6  C   UNL     1       2.745  -0.040   0.870  0.00  0.00    -0.000 A 
ATOM      7  C   UNL     1       1.593   0.401   1.507  0.00  0.00    -0.000 A 
ATOM      8  C   UNL     1       0.496   0.540   0.723  0.00  0.00    -0.002 A 
ENDBRANCH   1   3
BRANCH   1   9
ATOM      9  C   UNL     1      -2.140   0.148  -0.506  0.00  0.00    +0.107 C 
ATOM     10  C   UNL     1      -1.663   1.563   0.147  0.00  0.00    +0.022 C 
BRANCH   9  12
ATOM     11  C   UNL     1      -2.536  -0.338   1.697  0.00  0.00    +0.108 C 
ATOM     12  N   UNL     1      -1.642  -0.750   0.670  0.00  0.00    -0.215 NA
ENDBRANCH   9  12
ENDBRANCH   1   9
TORSDOF 3
