REMARK  Name = 
REMARK  10 active torsions:
REMARK  status: ('A' for Active; 'I' for Inactive)
REMARK    1  A    between atoms: O_2  and  C_3
REMARK    2  A    between atoms: C_5  and  N_6
REMARK    3  A    between atoms: N_6  and  C_7
REMARK    4  A    between atoms: C_8  and  C_9
REMARK    5  A    between atoms: C_15  and  O_16
REMARK    6  A    between atoms: O_16  and  C_17
REMARK    7  A    between atoms: C_17  and  C_18
REMARK    8  A    between atoms: C_18  and  C_19
REMARK    9  A    between atoms: C_19  and  N_20
REMARK   10  A    between atoms: C_27  and  O_28
REMARK                            x       y       z     vdW  Elec       q    Type
REMARK                         _______ _______ _______ _____ _____    ______ ____
ROOT
ATOM      1  C   UNL     1      -2.219  -0.040  -1.588  0.00  0.00    +0.083 A 
ATOM      2  C   UNL     1      -0.839   0.054  -1.725  0.00  0.00    +0.037 A 
ATOM      3  C   UNL     1      -0.237  -0.675  -2.743  0.00  0.00    +0.086 A 
ATOM      4  C   UNL     1       1.116  -0.971  -2.692  0.00  0.00    +0.059 A 
ATOM      5  C   UNL     1       1.840  -0.500  -1.603  0.00  0.00    +0.174 A 
ATOM      6  C   UNL     1       1.307   0.519  -0.824  0.00  0.00    +0.173 A 
ATOM      7  N   UNL     1      -0.953  -0.752  -3.890  0.00  0.00    -0.243 NA
ATOM      8  C   UNL     1      -2.250  -0.367  -3.958  0.00  0.00    +0.110 A 
ATOM      9  C   UNL     1      -0.068   0.713  -0.775  0.00  0.00    +0.043 A 
ATOM     10  C   UNL     1      -2.925  -0.056  -2.785  0.00  0.00    +0.103 A 
ENDROOT
BRANCH  10  11
ATOM     11  C   UNL     1      -4.351   0.182  -2.764  0.00  0.00    +0.103 C 
ATOM     12  N   UNL     1      -5.510   0.246  -2.680  0.00  0.00    -0.191 NA
ENDBRANCH  10  11
BRANCH   6  13
ATOM     13  O   UNL     1       2.190   1.376  -0.191  0.00  0.00    -0.468 OA
ATOM     14  C   UNL     1       2.900   2.349  -0.946  0.00  0.00    +0.253 C 
ENDBRANCH   6  13
BRANCH   1  15
ATOM     15  N   UNL     1      -2.770   0.580  -0.445  0.00  0.00    -0.211 NA
BRANCH  15  22
ATOM     16  C   UNL     1      -5.435   0.830   2.015  0.00  0.00    +0.151 A 
ATOM     17  C   UNL     1      -5.848  -0.486   2.174  0.00  0.00    +0.092 A 
ATOM     18 CL   UNL     1      -7.407  -0.778   2.939  0.00  0.00    -0.079 Cl
ATOM     19  C   UNL     1      -5.230  -1.448   1.386  0.00  0.00    +0.027 A 
ATOM     20  C   UNL     1      -4.136  -1.139   0.598  0.00  0.00    +0.074 A 
ATOM     21 CL   UNL     1      -2.982  -2.388   0.149  0.00  0.00    -0.081 Cl
ATOM     22  C   UNL     1      -3.956   0.176   0.207  0.00  0.00    +0.084 A 
ATOM     23  C   UNL     1      -4.617   1.149   0.948  0.00  0.00    +0.055 A 
BRANCH  16  25
ATOM     24  C   UNL     1      -4.849   2.835   3.214  0.00  0.00    +0.253 C 
ATOM     25  O   UNL     1      -5.736   1.740   3.031  0.00  0.00    -0.471 OA
ENDBRANCH  16  25
ENDBRANCH  15  22
ENDBRANCH   1  15
BRANCH   5  26
ATOM     26  O   UNL     1       2.970  -1.169  -1.121  0.00  0.00    -0.472 OA
BRANCH  26  27
ATOM     27  C   UNL     1       2.824  -2.061  -0.019  0.00  0.00    +0.207 C 
BRANCH  27  28
ATOM     28  C   UNL     1       3.571  -1.595   1.200  0.00  0.00    +0.065 C 
BRANCH  28  29
ATOM     29  C   UNL     1       4.928  -1.052   0.826  0.00  0.00    +0.076 C 
BRANCH  29  30
ATOM     30  N   UNL     1       5.934  -1.356   1.839  0.00  0.00    -0.270 NA
ATOM     31  C   UNL     1       5.935  -0.325   2.845  0.00  0.00    +0.090 C 
ATOM     32  C   UNL     1       6.174   1.025   2.190  0.00  0.00    +0.090 C 
ATOM     33  N   UNL     1       7.561   1.060   1.776  0.00  0.00    -0.269 NA
ATOM     34  C   UNL     1       7.691   1.630   0.436  0.00  0.00    +0.090 C 
ATOM     35  C   UNL     1       8.143  -0.274   1.794  0.00  0.00    +0.090 C 
ATOM     36  C   UNL     1       7.234  -1.309   1.181  0.00  0.00    +0.090 C 
ENDBRANCH  29  30
ENDBRANCH  28  29
ENDBRANCH  27  28
ENDBRANCH  26  27
ENDBRANCH   5  26
TORSDOF 10
