REMARK  Name = 
REMARK  3 active torsions:
REMARK  status: ('A' for Active; 'I' for Inactive)
REMARK    1  A    between atoms: C_2  and  C_4
REMARK    2  A    between atoms: N_7  and  C1*_8
REMARK    3  A    between atoms: C4*_10  and  C5*_11
REMARK                            x       y       z     vdW  Elec       q    Type
REMARK                         _______ _______ _______ _____ _____    ______ ____
ROOT
ATOM      1  C1* UNL     1      -0.833  -0.711   0.855  0.00  0.00    +0.256 C 
ATOM      2  C2* UNL     1      -0.616   1.030   0.938  0.00  0.00    +0.235 C 
ATOM      3  O2* UNL     1      -1.572   1.080   2.119  0.00  0.00    -0.215 OA
ATOM      4  C3* UNL     1      -1.805   1.412  -0.243  0.00  0.00    +0.216 C 
ATOM      5  O3* UNL     1      -2.491   2.495   0.579  0.00  0.00    -0.218 OA
ATOM      6  C4* UNL     1      -2.806   0.141   0.405  0.00  0.00    +0.183 C 
ATOM      7  O4* UNL     1      -1.772  -0.698  -0.361  0.00  0.00    -0.330 OA
ENDROOT
BRANCH   1  10
ATOM      8  C   UNL     1       2.591  -0.756  -0.366  0.00  0.00    +0.240 A 
ATOM      9  N   UNL     1       1.640  -1.015   0.533  0.00  0.00    -0.141 NA
ATOM     10  N   UNL     1       0.475  -0.914  -0.083  0.00  0.00    -0.202 N 
ATOM     11  C   UNL     1       0.680  -0.154  -1.140  0.00  0.00    +0.199 A 
ATOM     12  N   UNL     1       1.946  -0.464  -1.523  0.00  0.00    -0.199 NA
BRANCH   8  14
ATOM     13  N   UNL     1       4.261   0.848   0.660  0.00  0.00    -0.081 NA
ATOM     14  C   UNL     1       3.962  -0.392   0.020  0.00  0.00    +0.322 C 
ATOM     15  O   UNL     1       4.811  -1.330  -0.062  0.00  0.00    -0.263 OA
ENDBRANCH   8  14
ENDBRANCH   1  10
BRANCH   6  16
ATOM     16  C5* UNL     1      -3.777   0.229  -0.959  0.00  0.00    +0.214 C 
ATOM     17  O5* UNL     1      -4.694  -0.801  -0.784  0.00  0.00    -0.218 OA
ENDBRANCH   6  16
TORSDOF 3
