REMARK  Name = 
REMARK  5 active torsions:
REMARK  status: ('A' for Active; 'I' for Inactive)
REMARK    1  A    between atoms: N_5  and  C_6
REMARK    2  A    between atoms: C_6  and  C_8
REMARK    3  A    between atoms: C_8  and  C_10
REMARK    4  A    between atoms: C_8  and  C_16
REMARK    5  A    between atoms: C_10  and  N_11
REMARK                            x       y       z     vdW  Elec       q    Type
REMARK                         _______ _______ _______ _____ _____    ______ ____
ROOT
ATOM      1  C   UNL     1      -0.205   0.108  -0.090  0.00  0.00    +0.183 C 
ATOM      2  O   UNL     1      -0.174   0.831  -1.224  0.00  0.00    -0.218 OA
ENDROOT
BRANCH   1   3
ATOM      3  C   UNL     1      -1.507  -0.587   0.074  0.00  0.00    +0.036 A 
ATOM      4  C   UNL     1      -2.414  -0.665  -0.975  0.00  0.00    +0.141 A 
ATOM      5  F   UNL     1      -2.370   0.236  -1.976  0.00  0.00    -0.204 F 
ATOM      6  C   UNL     1      -3.301  -1.727  -0.937  0.00  0.00    +0.059 A 
ATOM      7  C   UNL     1      -3.553  -2.321   0.294  0.00  0.00    +0.142 A 
ATOM      8  F   UNL     1      -4.516  -3.262   0.414  0.00  0.00    -0.204 F 
ATOM      9  C   UNL     1      -2.993  -1.816   1.462  0.00  0.00    +0.030 A 
ATOM     10  C   UNL     1      -1.949  -0.917   1.350  0.00  0.00    +0.003 A 
ENDBRANCH   1   3
BRANCH   1  11
ATOM     11  C   UNL     1       0.864  -1.159  -0.273  0.00  0.00    +0.092 C 
ATOM     12  C   UNL     1       0.049  -1.709  -1.622  0.00  0.00    +0.020 C 
BRANCH  11  17
ATOM     13  C   UNL     1       5.431  -0.454   0.188  0.00  0.00    -0.009 C 
ATOM     14  C   UNL     1       4.691  -0.484  -0.533  0.00  0.00    -0.041 C 
ATOM     15  C   UNL     1       3.959   0.785  -0.861  0.00  0.00    +0.039 C 
ATOM     16  C   UNL     1       2.564   0.563  -0.284  0.00  0.00    +0.077 C 
ATOM     17  N   UNL     1       1.882  -0.322  -1.181  0.00  0.00    -0.271 NA
ATOM     18  C   UNL     1       2.748  -1.386  -1.651  0.00  0.00    +0.077 C 
ATOM     19  C   UNL     1       3.845  -1.717  -0.661  0.00  0.00    +0.039 C 
ENDBRANCH  11  17
ENDBRANCH   1  11
BRANCH   1  20
ATOM     20  C   UNL     1       0.298   0.712   1.163  0.00  0.00    +0.165 C 
BRANCH  20  21
ATOM     21  N   UNL     1      -0.284   1.986   1.454  0.00  0.00    -0.227 N 
ATOM     22  N   UNL     1      -1.558   2.345   1.357  0.00  0.00    -0.145 NA
ATOM     23  C   UNL     1      -1.590   3.697   1.324  0.00  0.00    +0.221 A 
ATOM     24  N   UNL     1      -0.318   4.162   1.373  0.00  0.00    -0.201 NA
ATOM     25  C   UNL     1       0.399   3.100   1.816  0.00  0.00    +0.197 A 
ENDBRANCH  20  21
ENDBRANCH   1  20
TORSDOF 5
