REMARK  Name = 
REMARK  2 active torsions:
REMARK  status: ('A' for Active; 'I' for Inactive)
REMARK    1  A    between atoms: S_2  and  C_5
REMARK    2  A    between atoms: C_10  and  C_11
REMARK                            x       y       z     vdW  Elec       q    Type
REMARK                         _______ _______ _______ _____ _____    ______ ____
ROOT
ATOM      1  C   UNL     1       2.895  -0.243  -0.068  0.00  0.00    +0.138 A 
ATOM      2  C   UNL     1       1.866  -0.359  -0.992  0.00  0.00    +0.042 A 
ATOM      3  C   UNL     1       0.629  -0.887  -0.640  0.00  0.00    +0.102 A 
ATOM      4  C   UNL     1       0.412  -1.317   0.660  0.00  0.00    +0.101 A 
ATOM      5  N   UNL     1      -0.884  -1.075   0.956  0.00  0.00    -0.225 NA
ATOM      6  C   UNL     1      -1.541  -0.889  -0.194  0.00  0.00    +0.162 A 
ATOM      7  C   UNL     1       1.496  -1.433   1.490  0.00  0.00    +0.022 A 
ATOM      8  N   UNL     1      -0.617  -0.710  -1.141  0.00  0.00    -0.225 NA
ATOM      9  C   UNL     1       2.753  -0.990   1.095  0.00  0.00    +0.023 A 
ENDROOT
BRANCH   6  10
ATOM     10  C   UNL     1      -2.934  -0.442  -0.286  0.00  0.00    +0.036 A 
ATOM     11  C   UNL     1      -3.447   0.089  -1.465  0.00  0.00    +0.003 A 
ATOM     12  C   UNL     1      -4.449   1.049  -1.422  0.00  0.00    +0.000 A 
ATOM     13  C   UNL     1      -4.930   1.468  -0.188  0.00  0.00    +0.000 A 
ATOM     14  C   UNL     1      -4.774   0.586   0.856  0.00  0.00    +0.000 A 
ATOM     15  C   UNL     1      -3.770  -0.372   0.810  0.00  0.00    +0.003 A 
ENDBRANCH   6  10
BRANCH   1  17
ATOM     16  O   UNL     1       3.316   2.400  -0.380  0.00  0.00    -0.140 OA
ATOM     17  S   UNL     1       4.039   1.090  -0.176  0.00  0.00    +0.141 S 
ATOM     18  O   UNL     1       5.137   0.838  -1.431  0.00  0.00    -0.043 OA
ATOM     19  O   UNL     1       4.803   1.199   1.113  0.00  0.00    -0.140 OA
ENDBRANCH   1  17
TORSDOF 2
