REMARK  Name = 
REMARK  7 active torsions:
REMARK  status: ('A' for Active; 'I' for Inactive)
REMARK    1  A    between atoms: C_5  and  C_6
REMARK    2  A    between atoms: C_6  and  C_7
REMARK    3  A    between atoms: C_7  and  C_8
REMARK    4  A    between atoms: C_8  and  C_9
REMARK    5  A    between atoms: C_8  and  S_15
REMARK    6  A    between atoms: C_9  and  N_10
REMARK    7  A    between atoms: S_15  and  C_16
REMARK                            x       y       z     vdW  Elec       q    Type
REMARK                         _______ _______ _______ _____ _____    ______ ____
ROOT
ATOM      1  C   UNL     1      -1.107   0.854  -0.067  0.00  0.00    +0.075 C 
ENDROOT
BRANCH   1   2
ATOM      2  C   UNL     1       0.041   0.171   0.798  0.00  0.00    +0.018 C 
BRANCH   2   3
ATOM      3  C   UNL     1       1.083   1.174   1.157  0.00  0.00    +0.027 C 
BRANCH   3   8
ATOM      4 CL   UNL     1       6.275  -1.571   0.146  0.00  0.00    -0.082 Cl
ATOM      5  C   UNL     1       4.765  -0.978   0.637  0.00  0.00    +0.058 A 
ATOM      6  C   UNL     1       3.598  -1.411   0.050  0.00  0.00    +0.011 A 
ATOM      7  C   UNL     1       2.515  -0.548   0.009  0.00  0.00    -0.003 A 
ATOM      8  C   UNL     1       2.410   0.562   0.829  0.00  0.00    -0.022 A 
ATOM      9  C   UNL     1       3.541   0.901   1.547  0.00  0.00    -0.003 A 
ATOM     10  C   UNL     1       4.706   0.158   1.421  0.00  0.00    +0.011 A 
ENDBRANCH   3   8
ENDBRANCH   2   3
ENDBRANCH   1   2
BRANCH   1  11
ATOM     11  C   UNL     1      -0.150   1.824  -0.896  0.00  0.00    +0.119 C 
BRANCH  11  12
ATOM     12  N   UNL     1      -0.716   3.138  -0.598  0.00  0.00    -0.307 N 
ATOM     13  C   UNL     1      -1.247   3.991  -1.498  0.00  0.00    +0.179 A 
ATOM     14  N   UNL     1      -2.010   4.912  -0.899  0.00  0.00    -0.222 NA
ATOM     15  C   UNL     1      -1.802   4.810   0.434  0.00  0.00    +0.119 A 
ATOM     16  C   UNL     1      -1.134   3.611   0.598  0.00  0.00    +0.098 A 
ENDBRANCH  11  12
ENDBRANCH   1  11
BRANCH   1  17
ATOM     17  S   UNL     1      -1.102  -0.521  -1.401  0.00  0.00    -0.111 S 
BRANCH  17  18
ATOM     18  C   UNL     1      -1.925  -1.883  -0.607  0.00  0.00    +0.046 A 
ATOM     19  C   UNL     1      -3.232  -1.694  -0.207  0.00  0.00    +0.064 A 
ATOM     20 CL   UNL     1      -3.813  -0.071   0.155  0.00  0.00    -0.082 Cl
ATOM     21  C   UNL     1      -4.051  -2.806  -0.052  0.00  0.00    +0.012 A 
ATOM     22  C   UNL     1      -3.548  -4.076  -0.282  0.00  0.00    +0.002 A 
ATOM     23  C   UNL     1      -2.167  -4.212  -0.353  0.00  0.00    +0.012 A 
ATOM     24  C   UNL     1      -1.333  -3.101  -0.360  0.00  0.00    +0.064 A 
ATOM     25 CL   UNL     1       0.400  -3.232  -0.559  0.00  0.00    -0.082 Cl
ENDBRANCH  17  18
ENDBRANCH   1  17
TORSDOF 7
