REMARK  Name = 
REMARK  4 active torsions:
REMARK  status: ('A' for Active; 'I' for Inactive)
REMARK    1  A    between atoms: N_11  and  C_12
REMARK    2  A    between atoms: C_14  and  C_15
REMARK    3  A    between atoms: C_15  and  O_16
REMARK    4  A    between atoms: O_16  and  P_17
REMARK                            x       y       z     vdW  Elec       q    Type
REMARK                         _______ _______ _______ _____ _____    ______ ____
ROOT
ATOM      1  C   UNL     1       0.254   0.526  -1.110  0.00  0.00    +0.241 C 
ATOM      2  C   UNL     1       0.091  -0.254  -2.633  0.00  0.00    +0.234 C 
ATOM      3  O   UNL     1      -0.350  -1.601  -2.144  0.00  0.00    -0.216 OA
ATOM      4  C   UNL     1      -1.492   0.320  -2.753  0.00  0.00    +0.216 C 
ATOM      5  O   UNL     1      -0.952   1.701  -3.016  0.00  0.00    -0.218 OA
ATOM      6  C   UNL     1      -1.679   0.710  -1.097  0.00  0.00    +0.180 C 
ATOM      7  O   UNL     1      -0.807  -0.399  -0.544  0.00  0.00    -0.331 OA
ENDROOT
BRANCH   1  13
ATOM      8  N   UNL     1       4.373   2.062   1.739  0.00  0.00    -0.105 NA
ATOM      9  C   UNL     1       3.818   0.950   1.638  0.00  0.00    +0.194 A 
ATOM     10  C   UNL     1       3.256   0.612   0.405  0.00  0.00    +0.152 A 
ATOM     11  N   UNL     1       3.500   0.854  -0.871  0.00  0.00    -0.219 NA
ATOM     12  C   UNL     1       2.602   0.135  -1.595  0.00  0.00    +0.182 A 
ATOM     13  N   UNL     1       1.569  -0.295  -0.811  0.00  0.00    -0.269 N 
ATOM     14  C   UNL     1       2.018  -0.027   0.439  0.00  0.00    +0.171 A 
ATOM     15  N   UNL     1       1.684  -0.735   1.528  0.00  0.00    -0.182 NA
ATOM     16  C   UNL     1       2.640  -0.945   2.478  0.00  0.00    +0.313 A 
ATOM     17  F   UNL     1       2.953  -2.199   2.940  0.00  0.00    -0.161 F 
ATOM     18  N   UNL     1       3.547   0.058   2.631  0.00  0.00    -0.181 NA
ENDBRANCH   1  13
BRANCH   6  19
ATOM     19  C   UNL     1      -3.082  -0.134  -1.163  0.00  0.00    +0.186 C 
BRANCH  19  20
ATOM     20  O   UNL     1      -3.448  -0.607  -0.027  0.00  0.00    -0.268 OA
BRANCH  20  21
ATOM     21  P   UNL     1      -4.849  -0.227   0.722  0.00  0.00    +0.533 P 
ATOM     22  O   UNL     1      -5.086  -1.632   1.661  0.00  0.00    -0.115 OA
ATOM     23  O   UNL     1      -4.495   1.124   1.683  0.00  0.00    -0.115 OA
ATOM     24  O   UNL     1      -6.066   0.003  -0.100  0.00  0.00    -0.222 OA
ENDBRANCH  20  21
ENDBRANCH  19  20
ENDBRANCH   6  19
TORSDOF 4
