REMARK  Name = 
REMARK  10 active torsions:
REMARK  status: ('A' for Active; 'I' for Inactive)
REMARK    1  A    between atoms: C_2  and  C_3
REMARK    2  A    between atoms: C_3  and  O_4
REMARK    3  A    between atoms: O_4  and  C_5
REMARK    4  A    between atoms: C_8  and  C_9
REMARK    5  A    between atoms: C_9  and  O_11
REMARK    6  A    between atoms: O_11  and  C_12
REMARK    7  A    between atoms: C_12  and  C_13
REMARK    8  A    between atoms: C_13  and  N_14
REMARK    9  A    between atoms: N_14  and  C_15
REMARK   10  A    between atoms: N_14  and  C_17
REMARK                            x       y       z     vdW  Elec       q    Type
REMARK                         _______ _______ _______ _____ _____    ______ ____
ROOT
ATOM      1  C   UNL     1       3.278  -1.172   0.201  0.00  0.00    +0.155 A 
ATOM      2  C   UNL     1       2.450  -1.907   1.024  0.00  0.00    +0.123 A 
ATOM      3  N   UNL     1       2.972  -3.144   1.510  0.00  0.00    -0.125 NA
ATOM      4  C   UNL     1       1.117  -1.569   1.118  0.00  0.00    +0.028 A 
ATOM      5  C   UNL     1       0.571  -0.634   0.279  0.00  0.00    +0.077 A 
ATOM      6  C   UNL     1       1.325  -0.191  -0.797  0.00  0.00    +0.010 A 
ATOM      7  C   UNL     1       2.696  -0.286  -0.697  0.00  0.00    +0.039 A 
ENDROOT
BRANCH   5   8
ATOM      8  C   UNL     1      -0.814  -0.202   0.339  0.00  0.00    +0.341 C 
ATOM      9  O   UNL     1      -1.765  -0.993   0.115  0.00  0.00    -0.245 OA
BRANCH   8  10
ATOM     10  O   UNL     1      -1.064   1.149   0.510  0.00  0.00    -0.444 OA
BRANCH  10  11
ATOM     11  C   UNL     1      -2.376   1.677   0.398  0.00  0.00    +0.226 C 
BRANCH  11  12
ATOM     12  C   UNL     1      -3.184   0.969  -0.656  0.00  0.00    +0.120 C 
BRANCH  12  13
ATOM     13  N   UNL     1      -4.443   0.523  -0.119  0.00  0.00    -0.270 NA
BRANCH  13  14
ATOM     14  C   UNL     1      -5.081   1.489   0.738  0.00  0.00    +0.072 C 
ATOM     15  C   UNL     1      -4.798   2.916   0.340  0.00  0.00    +0.019 C 
ENDBRANCH  13  14
BRANCH  13  16
ATOM     16  C   UNL     1      -5.313   0.018  -1.150  0.00  0.00    +0.072 C 
ATOM     17  C   UNL     1      -5.655  -1.414  -0.786  0.00  0.00    +0.019 C 
ENDBRANCH  13  16
ENDBRANCH  12  13
ENDBRANCH  11  12
ENDBRANCH  10  11
ENDBRANCH   8  10
ENDBRANCH   5   8
BRANCH   1  18
ATOM     18  O   UNL     1       4.625  -1.089   0.526  0.00  0.00    -0.474 OA
BRANCH  18  19
ATOM     19  C   UNL     1       5.360   0.038   0.122  0.00  0.00    +0.205 C 
BRANCH  19  21
ATOM     20  C   UNL     1       5.470   2.504   0.070  0.00  0.00    +0.004 C 
ATOM     21  C   UNL     1       4.628   1.317   0.493  0.00  0.00    +0.047 C 
ENDBRANCH  19  21
ENDBRANCH  18  19
ENDBRANCH   1  18
TORSDOF 10
