REMARK  Name = 
REMARK  11 active torsions:
REMARK  status: ('A' for Active; 'I' for Inactive)
REMARK    1  A    between atoms: N_2  and  C_5
REMARK    2  A    between atoms: C_5  and  C_6
REMARK    3  A    between atoms: C_6  and  O_7
REMARK    4  A    between atoms: O_7  and  C_8
REMARK    5  A    between atoms: C_8  and  C_10
REMARK    6  A    between atoms: C_10  and  C_11
REMARK    7  A    between atoms: C_11  and  C_12
REMARK    8  A    between atoms: C_12  and  O_14
REMARK    9  A    between atoms: O_14  and  C_15
REMARK   10  A    between atoms: C_15  and  C_16
REMARK   11  A    between atoms: C_16  and  N_17
REMARK                            x       y       z     vdW  Elec       q    Type
REMARK                         _______ _______ _______ _____ _____    ______ ____
ROOT
ATOM      1  C   UNL     1      -0.610   1.722   0.313  0.00  0.00    +0.121 C 
ENDROOT
BRANCH   1   2
ATOM      2  C   UNL     1      -2.081   1.545   0.249  0.00  0.00    +0.318 C 
ATOM      3  O   UNL     1      -2.673   1.371   1.356  0.00  0.00    -0.250 OA
BRANCH   2   4
ATOM      4  O   UNL     1      -2.686   1.159  -0.950  0.00  0.00    -0.442 OA
BRANCH   4   5
ATOM      5  C   UNL     1      -4.111   1.228  -0.963  0.00  0.00    +0.269 C 
BRANCH   5   6
ATOM      6  C   UNL     1      -4.641   0.580   0.289  0.00  0.00    +0.157 C 
BRANCH   6   8
ATOM      7  C   UNL     1      -3.960  -1.340  -0.886  0.00  0.00    +0.171 C 
ATOM      8  N   UNL     1      -4.992  -0.800  -0.033  0.00  0.00    +0.313 N 
ATOM      9  C   UNL     1      -5.135  -1.613   1.149  0.00  0.00    +0.171 C 
ATOM     10  C   UNL     1      -6.226  -0.801  -0.814  0.00  0.00    +0.171 C 
ENDBRANCH   6   8
ENDBRANCH   5   6
ENDBRANCH   4   5
ENDBRANCH   2   4
ENDBRANCH   1   2
BRANCH   1  11
ATOM     11  C   UNL     1       0.018   0.479  -0.278  0.00  0.00    +0.121 C 
BRANCH  11  12
ATOM     12  C   UNL     1       1.493   0.454  -0.029  0.00  0.00    +0.318 C 
ATOM     13  O   UNL     1       2.275   1.243  -0.641  0.00  0.00    -0.250 OA
BRANCH  12  14
ATOM     14  O   UNL     1       2.109  -0.535   0.727  0.00  0.00    -0.442 OA
BRANCH  14  15
ATOM     15  C   UNL     1       3.290  -1.187   0.279  0.00  0.00    +0.269 C 
BRANCH  15  16
ATOM     16  C   UNL     1       4.536  -0.609   0.890  0.00  0.00    +0.157 C 
BRANCH  16  17
ATOM     17  N   UNL     1       5.580  -0.687  -0.126  0.00  0.00    +0.313 N 
ATOM     18  C   UNL     1       5.031  -1.073  -1.423  0.00  0.00    +0.171 C 
ATOM     19  C   UNL     1       6.535  -1.731   0.238  0.00  0.00    +0.171 C 
ATOM     20  C   UNL     1       6.248   0.597  -0.231  0.00  0.00    +0.171 C 
ENDBRANCH  16  17
ENDBRANCH  15  16
ENDBRANCH  14  15
ENDBRANCH  12  14
ENDBRANCH  11  12
ENDBRANCH   1  11
TORSDOF 11
