REMARK  Name = 
REMARK  4 active torsions:
REMARK  status: ('A' for Active; 'I' for Inactive)
REMARK    1  A    between atoms: N_2  and  C_4
REMARK    2  A    between atoms: C_4  and  C_5
REMARK    3  A    between atoms: C_5  and  C_6
REMARK    4  A    between atoms: C_6  and  N_7
REMARK                            x       y       z     vdW  Elec       q    Type
REMARK                         _______ _______ _______ _____ _____    ______ ____
ROOT
ATOM      1  N   UNL     1      -0.007   0.028  -0.002  0.00  0.00    -0.287 N 
ATOM      2  C   UNL     1      -0.660  -1.242   0.081  0.00  0.00    +0.048 A 
ATOM      3  C   UNL     1      -1.978  -1.509   0.421  0.00  0.00    -0.008 A 
ATOM      4  C   UNL     1      -2.449  -2.784   0.163  0.00  0.00    -0.003 A 
ATOM      5  C   UNL     1      -1.808  -3.650  -0.715  0.00  0.00    -0.000 A 
ATOM      6  C   UNL     1      -0.511  -3.379  -1.063  0.00  0.00    +0.001 A 
ATOM      7  C   UNL     1      -3.136  -0.593   0.639  0.00  0.00    +0.032 C 
ATOM      8  C   UNL     1      -2.749   0.650   1.397  0.00  0.00    +0.032 C 
ATOM      9  C   UNL     1      -1.927   1.553   0.559  0.00  0.00    -0.008 A 
ATOM     10  C   UNL     1      -2.485   2.809   0.363  0.00  0.00    -0.003 A 
ATOM     11  C   UNL     1      -1.843   3.629  -0.557  0.00  0.00    -0.000 A 
ATOM     12  C   UNL     1      -0.455   3.555  -0.536  0.00  0.00    +0.001 A 
ATOM     13  C   UNL     1       0.174   2.370  -0.177  0.00  0.00    +0.015 A 
ATOM     14  C   UNL     1       0.069  -2.203  -0.612  0.00  0.00    +0.015 A 
ATOM     15  C   UNL     1      -0.626   1.302   0.150  0.00  0.00    +0.048 A 
ENDROOT
BRANCH   1  16
ATOM     16  C   UNL     1       1.175   0.064  -0.845  0.00  0.00    +0.097 C 
BRANCH  16  17
ATOM     17  C   UNL     1       2.328   0.786  -0.195  0.00  0.00    +0.039 C 
BRANCH  17  18
ATOM     18  C   UNL     1       3.075  -0.155   0.742  0.00  0.00    +0.074 C 
BRANCH  18  20
ATOM     19  C   UNL     1       5.123   0.674  -0.222  0.00  0.00    +0.090 C 
ATOM     20  N   UNL     1       4.392  -0.491   0.226  0.00  0.00    -0.270 NA
ATOM     21  C   UNL     1       4.296  -1.414  -0.902  0.00  0.00    +0.090 C 
ENDBRANCH  18  20
ENDBRANCH  17  18
ENDBRANCH  16  17
ENDBRANCH   1  16
TORSDOF 4
