REMARK  Name = 
REMARK  11 active torsions:
REMARK  status: ('A' for Active; 'I' for Inactive)
REMARK    1  A    between atoms: O_2  and  C_3
REMARK    2  A    between atoms: C_3  and  C_4
REMARK    3  A    between atoms: N_6  and  C_7
REMARK    4  A    between atoms: C_10  and  C_11
REMARK    5  A    between atoms: N_13  and  C_14
REMARK    6  A    between atoms: C_14  and  C_15
REMARK    7  A    between atoms: C_15  and  C_17
REMARK    8  A    between atoms: C_21  and  C_22
REMARK    9  A    between atoms: N_24  and  C_26
REMARK   10  A    between atoms: C_26  and  C_27
REMARK   11  A    between atoms: C_27  and  C_29
REMARK                            x       y       z     vdW  Elec       q    Type
REMARK                         _______ _______ _______ _____ _____    ______ ____
ROOT
ATOM      1  C   UNL     1       0.517   1.771  -0.158  0.00  0.00    +0.084 A 
ATOM      2  C   UNL     1      -0.790   1.335  -0.244  0.00  0.00    +0.051 A 
ATOM      3  I   UNL     1      -2.333   2.715  -0.054  0.00  0.00    -0.041 I 
ATOM      4  C   UNL     1      -1.126  -0.009  -0.370  0.00  0.00    +0.066 A 
ATOM      5  C   UNL     1      -0.040  -0.844  -0.605  0.00  0.00    +0.040 A 
ATOM      6  I   UNL     1      -0.453  -2.672  -1.505  0.00  0.00    -0.042 I 
ATOM      7  C   UNL     1       1.279  -0.457  -0.430  0.00  0.00    +0.067 A 
ATOM      8  C   UNL     1       1.540   0.851  -0.056  0.00  0.00    +0.051 A 
ATOM      9  I   UNL     1       3.306   1.405   0.915  0.00  0.00    -0.041 I 
ENDROOT
BRANCH   4  10
ATOM     10  C   UNL     1      -2.244  -0.556   0.321  0.00  0.00    +0.250 C 
ATOM     11  N   UNL     1      -3.527  -0.915  -0.227  0.00  0.00    -0.272 N 
ATOM     12  C   UNL     1      -3.551  -2.375  -0.239  0.00  0.00    +0.115 C 
ATOM     13  O   UNL     1      -2.191  -0.737   1.574  0.00  0.00    -0.270 OA
BRANCH  11  14
ATOM     14  C   UNL     1      -4.493  -0.006   0.200  0.00  0.00    +0.129 C 
BRANCH  14  15
ATOM     15  C   UNL     1      -6.021  -0.642   0.102  0.00  0.00    +0.204 C 
ATOM     16  O   UNL     1      -5.646  -1.887   0.923  0.00  0.00    -0.218 OA
BRANCH  15  17
ATOM     17  C   UNL     1      -5.713  -1.407  -1.350  0.00  0.00    +0.217 C 
ATOM     18  O   UNL     1      -6.677  -2.427  -1.271  0.00  0.00    -0.218 OA
ENDBRANCH  15  17
ENDBRANCH  14  15
ENDBRANCH  11  14
ENDBRANCH   4  10
BRANCH   7  19
ATOM     19  C   UNL     1       2.361  -1.450  -0.366  0.00  0.00    +0.266 C 
ATOM     20  N   UNL     1       2.898  -1.908   0.875  0.00  0.00    -0.199 NA
ATOM     21  O   UNL     1       3.114  -1.461  -1.383  0.00  0.00    -0.268 OA
BRANCH  20  22
ATOM     22  C   UNL     1       4.317  -2.229   0.971  0.00  0.00    +0.151 C 
BRANCH  22  23
ATOM     23  C   UNL     1       4.214  -3.895   0.997  0.00  0.00    +0.206 C 
ATOM     24  O   UNL     1       4.266  -3.978  -0.536  0.00  0.00    -0.218 OA
BRANCH  23  25
ATOM     25  C   UNL     1       5.867  -4.068   1.131  0.00  0.00    +0.217 C 
ATOM     26  O   UNL     1       6.407  -3.222   0.198  0.00  0.00    -0.218 OA
ENDBRANCH  23  25
ENDBRANCH  22  23
ENDBRANCH  20  22
ENDBRANCH   7  19
BRANCH   1  28
ATOM     27  C   UNL     1       0.332   4.208   0.273  0.00  0.00    +0.276 C 
ATOM     28  N   UNL     1       0.886   3.114  -0.465  0.00  0.00    -0.176 NA
ATOM     29  O   UNL     1       0.293   4.027   1.528  0.00  0.00    -0.270 OA
BRANCH  27  30
ATOM     30  C   UNL     1      -0.035   5.499  -0.341  0.00  0.00    +0.229 C 
BRANCH  30  32
ATOM     31  C   UNL     1       2.227   5.800  -0.582  0.00  0.00    +0.175 C 
ATOM     32  O   UNL     1       1.018   6.422  -0.229  0.00  0.00    -0.342 OA
ENDBRANCH  30  32
ENDBRANCH  27  30
ENDBRANCH   1  28
TORSDOF 11
