REMARK  Name = 
REMARK  12 active torsions:
REMARK  status: ('A' for Active; 'I' for Inactive)
REMARK    1  A    between atoms: C_2  and  C_3
REMARK    2  A    between atoms: C_3  and  C_4
REMARK    3  A    between atoms: C_4  and  C_5
REMARK    4  A    between atoms: C_5  and  O_7
REMARK    5  A    between atoms: O_7  and  C_8
REMARK    6  A    between atoms: C_8  and  C_9
REMARK    7  A    between atoms: C_9  and  C_11
REMARK    8  A    between atoms: C_22  and  O_23
REMARK    9  A    between atoms: O_23  and  C_24
REMARK   10  A    between atoms: C_26  and  N_27
REMARK   11  A    between atoms: C_28  and  C_30
REMARK   12  A    between atoms: C_43  and  O_44
REMARK                            x       y       z     vdW  Elec       q    Type
REMARK                         _______ _______ _______ _____ _____    ______ ____
ROOT
ATOM      1  C   UNL     1       1.244  -1.736   0.174  0.00  0.00    +0.188 C 
ATOM      2  C   UNL     1       0.804  -0.967   1.301  0.00  0.00    +0.072 C 
ATOM      3  C   UNL     1      -0.761  -0.467   1.085  0.00  0.00    +0.146 C 
ATOM      4  C   UNL     1      -0.283   0.754   0.142  0.00  0.00    +0.043 A 
ATOM      5  C   UNL     1       0.669   0.473  -0.788  0.00  0.00    +0.021 A 
ATOM      6  C   UNL     1       1.489   1.496  -1.208  0.00  0.00    +0.195 A 
ATOM      7  C   UNL     1       1.030   2.801  -1.085  0.00  0.00    +0.084 A 
ATOM      8  C   UNL     1       2.003   3.907  -1.091  0.00  0.00    +0.199 C 
ATOM      9  O   UNL     1       3.235   3.600  -1.030  0.00  0.00    -0.286 OA
ATOM     10  C   UNL     1       1.537   5.196  -0.543  0.00  0.00    +0.045 A 
ATOM     11  C   UNL     1       0.171   5.460  -0.477  0.00  0.00    +0.076 A 
ATOM     12  C   UNL     1      -0.236   6.665   0.094  0.00  0.00    +0.142 A 
ATOM     13  C   UNL     1       0.606   7.417   0.908  0.00  0.00    +0.037 A 
ATOM     14  C   UNL     1       1.925   6.997   1.039  0.00  0.00    +0.003 A 
ATOM     15  C   UNL     1      -0.758   4.312  -0.478  0.00  0.00    +0.202 C 
ATOM     16  O   UNL     1      -1.888   4.393   0.099  0.00  0.00    -0.286 OA
ATOM     17  C   UNL     1       2.398   5.968   0.237  0.00  0.00    +0.003 A 
ATOM     18  C   UNL     1      -0.211   2.953  -0.476  0.00  0.00    +0.084 A 
ATOM     19  O   UNL     1       2.804   1.170  -1.542  0.00  0.00    -0.287 OA
ATOM     20  C   UNL     1      -0.668   1.994   0.428  0.00  0.00    +0.197 A 
ATOM     21  O   UNL     1      -1.359   2.358   1.554  0.00  0.00    -0.287 OA
ATOM     22  C   UNL     1       0.837  -0.939  -1.091  0.00  0.00    +0.067 C 
ATOM     23  O   UNL     1       0.579  -2.982   0.139  0.00  0.00    -0.218 OA
ENDROOT
BRANCH   1  24
ATOM     24  C   UNL     1       2.637  -2.105  -0.027  0.00  0.00    +0.222 C 
ATOM     25  O   UNL     1       2.798  -2.505  -1.199  0.00  0.00    -0.290 OA
BRANCH  24  26
ATOM     26  C   UNL     1       3.597  -2.785   0.913  0.00  0.00    +0.275 C 
BRANCH  26  27
ATOM     27  O   UNL     1       4.486  -3.667   0.209  0.00  0.00    -0.440 OA
BRANCH  27  28
ATOM     28  C   UNL     1       5.815  -3.837   0.386  0.00  0.00    +0.317 C 
ATOM     29  O   UNL     1       6.270  -3.474   1.500  0.00  0.00    -0.250 OA
BRANCH  28  30
ATOM     30  C   UNL     1       6.759  -4.100  -0.742  0.00  0.00    +0.110 C 
BRANCH  30  31
ATOM     31  C   UNL     1       7.990  -3.212  -0.730  0.00  0.00    +0.012 C 
BRANCH  31  33
ATOM     32  C   UNL     1       8.903  -4.252   0.798  0.00  0.00    +0.000 C 
ATOM     33  C   UNL     1       8.817  -3.598   0.490  0.00  0.00    +0.001 C 
ENDBRANCH  31  33
ENDBRANCH  30  31
ENDBRANCH  28  30
ENDBRANCH  27  28
ENDBRANCH  26  27
ENDBRANCH  24  26
ENDBRANCH   1  24
BRANCH  12  34
ATOM     34  O   UNL     1      -1.593   6.807   0.406  0.00  0.00    -0.471 OA
ATOM     35  C   UNL     1      -2.541   7.437  -0.404  0.00  0.00    +0.252 C 
ENDBRANCH  12  34
BRANCH   3  36
ATOM     36  O   UNL     1      -1.053  -1.314  -0.123  0.00  0.00    -0.328 OA
BRANCH  36  37
ATOM     37  C   UNL     1      -2.341  -2.078   0.161  0.00  0.00    +0.237 C 
ATOM     38  O   UNL     1      -2.655  -1.477   1.530  0.00  0.00    -0.330 OA
ATOM     39  C   UNL     1      -3.417  -0.235   1.186  0.00  0.00    +0.150 C 
ATOM     40  C   UNL     1      -3.659   0.096   2.771  0.00  0.00    +0.035 C 
ATOM     41  C   UNL     1      -4.976  -0.943   1.037  0.00  0.00    +0.199 C 
ATOM     42  O   UNL     1      -4.699  -2.232   1.751  0.00  0.00    -0.219 OA
ATOM     43  C   UNL     1      -4.735  -1.463  -0.586  0.00  0.00    +0.133 C 
ATOM     44  C   UNL     1      -3.193  -0.976  -0.740  0.00  0.00    +0.086 C 
BRANCH  43  45
ATOM     45  N   UNL     1      -4.452  -2.974  -0.291  0.00  0.00    -0.197 NA
ATOM     46  C   UNL     1      -4.819  -3.913  -1.277  0.00  0.00    +0.337 C 
ATOM     47  O   UNL     1      -4.180  -3.667  -2.328  0.00  0.00    -0.264 OA
BRANCH  46  48
ATOM     48  C   UNL     1      -5.903  -4.838  -1.092  0.00  0.00    +0.471 C 
ATOM     49  F   UNL     1      -6.173  -4.977   0.268  0.00  0.00    -0.162 F 
ATOM     50  F   UNL     1      -7.108  -4.424  -1.689  0.00  0.00    -0.162 F 
ATOM     51  F   UNL     1      -5.739  -6.119  -1.506  0.00  0.00    -0.162 F 
ENDBRANCH  46  48
ENDBRANCH  43  45
ENDBRANCH  36  37
ENDBRANCH   3  36
TORSDOF 12
