REMARK  Name = 
REMARK  4 active torsions:
REMARK  status: ('A' for Active; 'I' for Inactive)
REMARK    1  A    between atoms: C_8  and  C_9
REMARK    2  A    between atoms: C_9  and  C_10
REMARK    3  A    between atoms: C_10  and  N_11
REMARK    4  A    between atoms: C_14  and  C_15
REMARK                            x       y       z     vdW  Elec       q    Type
REMARK                         _______ _______ _______ _____ _____    ______ ____
ROOT
ATOM      1  N   UNL     1      -0.018   0.779  -0.395  0.00  0.00    -0.272 NA
ATOM      2  C   UNL     1       0.738   0.765   0.855  0.00  0.00    +0.072 C 
ATOM      3  C   UNL     1       1.450  -0.577   0.894  0.00  0.00    +0.023 C 
ATOM      4  C   UNL     1       2.299  -0.781  -0.329  0.00  0.00    +0.046 C 
ATOM      5  C   UNL     1       1.561  -0.496  -1.616  0.00  0.00    +0.023 C 
ATOM      6  C   UNL     1       0.964   0.900  -1.473  0.00  0.00    +0.072 C 
ENDROOT
BRANCH   4   7
ATOM      7  C   UNL     1       3.426   0.200  -0.273  0.00  0.00    +0.100 A 
ATOM      8  C   UNL     1       4.713  -0.080   0.158  0.00  0.00    +0.054 A 
ATOM      9  C   UNL     1       5.461   1.032  -0.210  0.00  0.00    +0.179 A 
ATOM     10  C   UNL     1       6.652   1.240   0.443  0.00  0.00    +0.070 A 
ATOM     11  C   UNL     1       7.205   0.233   1.222  0.00  0.00    +0.143 A 
ATOM     12  C   UNL     1       6.438  -0.797   1.700  0.00  0.00    +0.030 A 
ATOM     13  F   UNL     1       8.549   0.216   1.378  0.00  0.00    -0.204 F 
ATOM     14  O   UNL     1       4.660   1.913  -0.769  0.00  0.00    -0.354 OA
ATOM     15  C   UNL     1       5.191  -0.964   1.109  0.00  0.00    +0.007 A 
ATOM     16  N   UNL     1       3.434   1.488  -0.694  0.00  0.00    -0.081 NA
ENDBRANCH   4   7
BRANCH   1  17
ATOM     17  C   UNL     1      -0.656  -0.501  -0.596  0.00  0.00    +0.077 C 
BRANCH  17  18
ATOM     18  C   UNL     1      -1.255  -1.078   0.654  0.00  0.00    +0.050 C 
BRANCH  18  21
ATOM     19  C   UNL     1      -2.631  -3.013  -0.893  0.00  0.00    +0.052 C 
ATOM     20  C   UNL     1      -3.272  -1.900  -0.556  0.00  0.00    +0.061 A 
ATOM     21  C   UNL     1      -2.739  -1.096   0.446  0.00  0.00    +0.049 A 
ATOM     22  C   UNL     1      -3.430   0.068   0.766  0.00  0.00    +0.259 A 
ATOM     23  O   UNL     1      -2.926   0.889   1.588  0.00  0.00    -0.267 OA
ATOM     24  N   UNL     1      -4.562   0.374   0.127  0.00  0.00    -0.282 N 
ATOM     25  C   UNL     1      -5.412   1.399   0.721  0.00  0.00    +0.110 C 
ATOM     26  C   UNL     1      -6.735   0.731   0.958  0.00  0.00    +0.028 C 
ATOM     27  C   UNL     1      -6.912  -0.465   0.153  0.00  0.00    +0.043 C 
ATOM     28  C   UNL     1      -6.442  -0.149  -1.431  0.00  0.00    +0.208 C 
ATOM     29  O   UNL     1      -6.483   1.396  -1.269  0.00  0.00    -0.215 OA
ATOM     30  C   UNL     1      -4.838  -0.216  -1.033  0.00  0.00    +0.153 A 
ATOM     31  N   UNL     1      -4.431  -1.510  -1.143  0.00  0.00    -0.234 NA
ENDBRANCH  18  21
ENDBRANCH  17  18
ENDBRANCH   1  17
TORSDOF 4
