REMARK  Name = 
REMARK  26 active torsions:
REMARK  status: ('A' for Active; 'I' for Inactive)
REMARK    1  A    between atoms: O_2  and  C_3
REMARK    2  A    between atoms: C_6  and  C_7
REMARK    3  A    between atoms: C_7  and  C_8
REMARK    4  A    between atoms: C_11  and  O_12
REMARK    5  A    between atoms: C_14  and  O_15
REMARK    6  A    between atoms: N_21  and  C_23
REMARK    7  A    between atoms: C_23  and  C_24
REMARK    8  A    between atoms: C_24  and  C_25
REMARK    9  A    between atoms: C_25  and  O_27
REMARK   10  A    between atoms: O_27  and  C_28
REMARK   11  A    between atoms: C_28  and  C_29
REMARK   12  A    between atoms: C_29  and  C_30
REMARK   13  A    between atoms: C_30  and  C_31
REMARK   14  A    between atoms: C_31  and  C_32
REMARK   15  A    between atoms: C_32  and  O_33
REMARK   16  A    between atoms: O_33  and  C_34
REMARK   17  A    between atoms: C_34  and  C_36
REMARK   18  A    between atoms: C_36  and  C_37
REMARK   19  A    between atoms: C_37  and  N_38
REMARK   20  A    between atoms: C_44  and  O_45
REMARK   21  A    between atoms: C_47  and  O_48
REMARK   22  A    between atoms: C_52  and  C_53
REMARK   23  A    between atoms: C_53  and  C_54
REMARK   24  A    between atoms: C_57  and  O_58
REMARK   25  A    between atoms: C_60  and  O_61
REMARK   26  A    between atoms: C_65  and  O_66
REMARK                            x       y       z     vdW  Elec       q    Type
REMARK                         _______ _______ _______ _____ _____    ______ ____
ROOT
ATOM      1  C   UNL     1       0.422  -0.097  -0.257  0.00  0.00    +0.008 C 
ENDROOT
BRANCH   1   2
ATOM      2  C   UNL     1       0.858   0.304   1.130  0.00  0.00    +0.048 C 
BRANCH   2   3
ATOM      3  C   UNL     1       1.251   1.776   1.066  0.00  0.00    +0.208 C 
BRANCH   3   4
ATOM      4  O   UNL     1       1.795   1.981  -0.236  0.00  0.00    -0.448 OA
BRANCH   4   5
ATOM      5  C   UNL     1       3.171   2.036  -0.469  0.00  0.00    +0.323 C 
ATOM      6  O   UNL     1       3.832   2.620   0.435  0.00  0.00    -0.250 OA
BRANCH   5   7
ATOM      7  C   UNL     1       3.788   1.103  -1.462  0.00  0.00    +0.170 C 
BRANCH   7   8
ATOM      8  C   UNL     1       5.210   0.824  -1.147  0.00  0.00    +0.121 C 
BRANCH   8   9
ATOM      9  N   UNL     1       5.466  -0.366  -0.376  0.00  0.00    +0.301 N 
ATOM     10  C   UNL     1       7.009  -0.582  -0.763  0.00  0.00    +0.086 C 
ATOM     11  C   UNL     1       7.032  -2.093  -0.128  0.00  0.00    +0.027 A 
ATOM     12  C   UNL     1       6.511  -2.253   1.096  0.00  0.00    -0.012 A 
ATOM     13  C   UNL     1       6.596  -3.536   1.628  0.00  0.00    +0.036 A 
ATOM     14  C   UNL     1       7.378  -4.501   1.009  0.00  0.00    +0.172 A 
ATOM     15  C   UNL     1       8.071  -4.198  -0.157  0.00  0.00    +0.172 A 
ATOM     16  C   UNL     1       6.035  -1.118   1.906  0.00  0.00    +0.087 C 
ATOM     17  C   UNL     1       7.962  -2.925  -0.704  0.00  0.00    +0.041 A 
ATOM     18  C   UNL     1       5.340  -0.172   0.988  0.00  0.00    +0.114 C 
ATOM     19  C   UNL     1       4.797  -1.523  -0.909  0.00  0.00    +0.171 C 
BRANCH  14  20
ATOM     20  O   UNL     1       7.181  -5.855   1.300  0.00  0.00    -0.468 OA
ATOM     21  C   UNL     1       8.125  -6.818   0.901  0.00  0.00    +0.253 C 
ENDBRANCH  14  20
BRANCH  15  22
ATOM     22  O   UNL     1       9.175  -4.973  -0.491  0.00  0.00    -0.468 OA
ATOM     23  C   UNL     1      10.419  -4.312  -0.694  0.00  0.00    +0.253 C 
ENDBRANCH  15  22
BRANCH  10  24
ATOM     24  C   UNL     1       7.608   0.122   0.640  0.00  0.00    +0.086 C 
BRANCH  24  25
ATOM     25  C   UNL     1       8.550   1.105   0.014  0.00  0.00    -0.013 A 
ATOM     26  C   UNL     1       9.789   1.256   0.592  0.00  0.00    +0.036 A 
ATOM     27  C   UNL     1      10.493   2.429   0.432  0.00  0.00    +0.172 A 
ATOM     28  C   UNL     1      10.103   3.348  -0.526  0.00  0.00    +0.172 A 
ATOM     29  C   UNL     1       8.851   3.247  -1.109  0.00  0.00    +0.040 A 
ATOM     30  C   UNL     1       8.138   2.112  -0.821  0.00  0.00    -0.001 A 
BRANCH  28  31
ATOM     31  O   UNL     1      10.707   4.597  -0.574  0.00  0.00    -0.468 OA
ATOM     32  C   UNL     1      11.166   5.210   0.600  0.00  0.00    +0.253 C 
ENDBRANCH  28  31
BRANCH  27  33
ATOM     33  O   UNL     1      11.563   2.776   1.239  0.00  0.00    -0.468 OA
ATOM     34  C   UNL     1      12.301   1.793   1.912  0.00  0.00    +0.253 C 
ENDBRANCH  27  33
ENDBRANCH  24  25
ENDBRANCH  10  24
ENDBRANCH   8   9
ENDBRANCH   7   8
ENDBRANCH   5   7
ENDBRANCH   4   5
ENDBRANCH   3   4
ENDBRANCH   2   3
ENDBRANCH   1   2
BRANCH   1  35
ATOM     35  C   UNL     1      -0.424  -1.338  -0.124  0.00  0.00    +0.048 C 
BRANCH  35  36
ATOM     36  C   UNL     1      -1.901  -1.054  -0.290  0.00  0.00    +0.208 C 
BRANCH  36  37
ATOM     37  O   UNL     1      -2.126   0.298  -0.605  0.00  0.00    -0.448 OA
BRANCH  37  38
ATOM     38  C   UNL     1      -2.740   1.195   0.275  0.00  0.00    +0.323 C 
ATOM     39  O   UNL     1      -2.690   0.922   1.492  0.00  0.00    -0.250 OA
BRANCH  38  40
ATOM     40  C   UNL     1      -3.276   2.494  -0.231  0.00  0.00    +0.170 C 
BRANCH  40  41
ATOM     41  C   UNL     1      -4.625   2.828   0.342  0.00  0.00    +0.121 C 
BRANCH  41  43
ATOM     42  C   UNL     1      -6.912   2.336   0.456  0.00  0.00    +0.086 C 
ATOM     43  N   UNL     1      -5.624   2.143  -0.481  0.00  0.00    +0.301 N 
ATOM     44  C   UNL     1      -5.841   2.910  -1.638  0.00  0.00    +0.171 C 
ATOM     45  C   UNL     1      -5.310   0.797  -0.539  0.00  0.00    +0.114 C 
ATOM     46  C   UNL     1      -6.051   0.175  -1.707  0.00  0.00    +0.087 C 
ATOM     47  C   UNL     1      -7.415   0.772  -1.528  0.00  0.00    -0.012 A 
ATOM     48  C   UNL     1      -8.367   0.096  -2.290  0.00  0.00    +0.036 A 
ATOM     49  C   UNL     1      -9.714   0.374  -2.118  0.00  0.00    +0.172 A 
ATOM     50  C   UNL     1      -9.996   1.533  -1.410  0.00  0.00    +0.172 A 
ATOM     51  C   UNL     1      -9.098   1.874  -0.429  0.00  0.00    +0.041 A 
ATOM     52  C   UNL     1      -7.849   1.245  -0.340  0.00  0.00    +0.027 A 
BRANCH  50  53
ATOM     53  O   UNL     1     -11.197   2.183  -1.636  0.00  0.00    -0.468 OA
ATOM     54  C   UNL     1     -11.864   2.092  -2.874  0.00  0.00    +0.253 C 
ENDBRANCH  50  53
BRANCH  49  55
ATOM     55  O   UNL     1     -10.733  -0.450  -2.586  0.00  0.00    -0.468 OA
ATOM     56  C   UNL     1     -11.354  -1.276  -1.604  0.00  0.00    +0.253 C 
ENDBRANCH  49  55
BRANCH  42  57
ATOM     57  C   UNL     1      -6.326   1.225   1.565  0.00  0.00    +0.086 C 
BRANCH  57  61
ATOM     58  C   UNL     1      -9.202  -1.764   1.864  0.00  0.00    +0.172 A 
ATOM     59  C   UNL     1      -7.865  -2.125   1.760  0.00  0.00    +0.172 A 
ATOM     60  C   UNL     1      -6.944  -1.087   1.847  0.00  0.00    +0.036 A 
ATOM     61  C   UNL     1      -7.362   0.243   1.802  0.00  0.00    -0.013 A 
ATOM     62  C   UNL     1      -8.550   0.452   2.493  0.00  0.00    -0.001 A 
ATOM     63  C   UNL     1      -9.477  -0.584   2.545  0.00  0.00    +0.040 A 
BRANCH  58  65
ATOM     64  C   UNL     1     -10.839  -2.497   0.183  0.00  0.00    +0.253 C 
ATOM     65  O   UNL     1     -10.167  -2.625   1.399  0.00  0.00    -0.468 OA
ENDBRANCH  58  65
BRANCH  59  66
ATOM     66  O   UNL     1      -7.524  -3.355   1.188  0.00  0.00    -0.468 OA
ATOM     67  C   UNL     1      -7.329  -3.352  -0.225  0.00  0.00    +0.253 C 
ENDBRANCH  59  66
ENDBRANCH  57  61
ENDBRANCH  42  57
ENDBRANCH  41  43
ENDBRANCH  40  41
ENDBRANCH  38  40
ENDBRANCH  37  38
ENDBRANCH  36  37
ENDBRANCH  35  36
ENDBRANCH   1  35
TORSDOF 26
