REMARK  Name = 
REMARK  2 active torsions:
REMARK  status: ('A' for Active; 'I' for Inactive)
REMARK    1  A    between atoms: C_8  and  N_9
REMARK    2  A    between atoms: C_10  and  C_12
REMARK                            x       y       z     vdW  Elec       q    Type
REMARK                         _______ _______ _______ _____ _____    ______ ____
ROOT
ATOM      1  N   UNL     1       0.545   1.013  -0.633  0.00  0.00    -0.179 NA
ATOM      2  C   UNL     1      -0.664   0.684  -0.032  0.00  0.00    +0.260 C 
ATOM      3  O   UNL     1      -0.764   0.793   1.177  0.00  0.00    -0.272 OA
ENDROOT
BRANCH   1   6
ATOM      4  C   UNL     1       1.873   1.720   1.723  0.00  0.00    +0.032 C 
ATOM      5  C   UNL     1       2.196   0.674   1.153  0.00  0.00    -0.007 A 
ATOM      6  C   UNL     1       1.749   0.464  -0.145  0.00  0.00    +0.065 A 
ATOM      7  C   UNL     1       2.499  -0.236  -1.087  0.00  0.00    -0.007 A 
ATOM      8  C   UNL     1       2.323  -0.017  -2.558  0.00  0.00    +0.032 C 
ATOM      9  C   UNL     1       3.527  -1.054  -0.646  0.00  0.00    -0.003 A 
ATOM     10  C   UNL     1       3.755  -1.139   0.706  0.00  0.00    -0.001 A 
ATOM     11  C   UNL     1       3.165  -0.230   1.574  0.00  0.00    -0.003 A 
ENDBRANCH   1   6
BRANCH   2  12
ATOM     12  C   UNL     1      -1.718  -0.217  -0.850  0.00  0.00    +0.137 C 
ATOM     13  N   UNL     1      -2.925   0.631  -0.338  0.00  0.00    -0.265 NA
ATOM     14  C   UNL     1      -2.700   1.970  -0.424  0.00  0.00    +0.090 C 
ATOM     15  C   UNL     1      -3.873  -0.043   0.326  0.00  0.00    +0.073 C 
ATOM     16  C   UNL     1      -4.195  -1.413  -0.236  0.00  0.00    +0.017 C 
ATOM     17  C   UNL     1      -2.944  -2.267  -0.067  0.00  0.00    +0.003 C 
ATOM     18  C   UNL     1      -1.850  -1.333   0.356  0.00  0.00    +0.025 C 
ENDBRANCH   2  12
TORSDOF 2
