REMARK  Name = 
REMARK  4 active torsions:
REMARK  status: ('A' for Active; 'I' for Inactive)
REMARK    1  A    between atoms: N_2  and  C_3
REMARK    2  A    between atoms: N_2  and  C_6
REMARK    3  A    between atoms: C_3  and  C_4
REMARK    4  A    between atoms: C_6  and  C_7
REMARK                            x       y       z     vdW  Elec       q    Type
REMARK                         _______ _______ _______ _____ _____    ______ ____
ROOT
ATOM      1  C   UNL     1      -0.708  -1.514   1.163  0.00  0.00    +0.090 C 
ATOM      2  N   UNL     1       0.120  -0.968   0.160  0.00  0.00    -0.269 NA
ENDROOT
BRANCH   2   3
ATOM      3  C   UNL     1       1.365  -0.420   0.571  0.00  0.00    +0.090 C 
BRANCH   3   4
ATOM      4  C   UNL     1       1.912   0.383  -0.591  0.00  0.00    +0.112 C 
ATOM      5 CL   UNL     1       2.028   2.093  -0.171  0.00  0.00    -0.112 Cl
ENDBRANCH   3   4
ENDBRANCH   2   3
BRANCH   2   6
ATOM      6  C   UNL     1      -0.505  -0.366  -0.958  0.00  0.00    +0.090 C 
BRANCH   6   7
ATOM      7  C   UNL     1      -1.972  -0.101  -0.814  0.00  0.00    +0.112 C 
ATOM      8 CL   UNL     1      -2.239   0.893   0.640  0.00  0.00    -0.112 Cl
ENDBRANCH   6   7
ENDBRANCH   2   6
TORSDOF 4
