REMARK  Name = 
REMARK  7 active torsions:
REMARK  status: ('A' for Active; 'I' for Inactive)
REMARK    1  A    between atoms: C_2  and  C_4
REMARK    2  A    between atoms: C_2  and  C_15
REMARK    3  A    between atoms: C_4  and  S_5
REMARK    4  A    between atoms: S_5  and  C_8
REMARK    5  A    between atoms: N_17  and  C_18
REMARK    6  A    between atoms: C_21  and  C_22
REMARK    7  A    between atoms: C_24  and  C_25
REMARK                            x       y       z     vdW  Elec       q    Type
REMARK                         _______ _______ _______ _____ _____    ______ ____
ROOT
ATOM      1  C   UNL     1      -0.013  -0.688  -0.079  0.00  0.00    +0.275 C 
ATOM      2  N   UNL     1       0.881  -1.064   0.975  0.00  0.00    -0.177 NA
ATOM      3  O   UNL     1       0.189   0.424  -0.607  0.00  0.00    -0.270 OA
ENDROOT
BRANCH   2   4
ATOM      4  C   UNL     1       2.287  -0.908   0.745  0.00  0.00    +0.073 A 
ATOM      5  C   UNL     1       2.846   0.339   0.649  0.00  0.00    +0.021 A 
ATOM      6  C   UNL     1       4.104   0.442   0.086  0.00  0.00    +0.082 A 
ATOM      7  C   UNL     1       4.812  -0.695  -0.219  0.00  0.00    +0.072 A 
ATOM      8  C   UNL     1       4.187  -1.920  -0.316  0.00  0.00    +0.012 A 
ATOM      9  C   UNL     1       2.933  -2.034   0.254  0.00  0.00    +0.017 A 
BRANCH   6  10
ATOM     10  C   UNL     1       4.733   1.794   0.122  0.00  0.00    +0.419 C 
ATOM     11  F   UNL     1       5.267   2.032   1.367  0.00  0.00    -0.166 F 
ATOM     12  F   UNL     1       3.731   2.739  -0.075  0.00  0.00    -0.166 F 
ATOM     13  F   UNL     1       5.657   1.908  -0.889  0.00  0.00    -0.166 F 
ENDBRANCH   6  10
BRANCH   7  14
ATOM     14  C   UNL     1       6.242  -0.603  -0.393  0.00  0.00    +0.100 C 
ATOM     15  N   UNL     1       7.381  -0.574  -0.536  0.00  0.00    -0.191 NA
ENDBRANCH   7  14
ENDBRANCH   2   4
BRANCH   1  17
ATOM     16  C   UNL     1      -1.714  -1.770   1.113  0.00  0.00    +0.044 C 
ATOM     17  C   UNL     1      -1.272  -1.474  -0.229  0.00  0.00    +0.218 C 
ATOM     18  O   UNL     1      -0.924  -2.632  -0.942  0.00  0.00    -0.214 OA
BRANCH  17  19
ATOM     19  C   UNL     1      -2.312  -0.748  -1.032  0.00  0.00    +0.195 C 
BRANCH  19  20
ATOM     20  S   UNL     1      -3.930  -1.391  -0.746  0.00  0.00    +0.012 S 
ATOM     21  O   UNL     1      -3.953  -2.494   0.264  0.00  0.00    -0.169 OA
ATOM     22  O   UNL     1      -4.519  -1.958  -2.018  0.00  0.00    -0.169 OA
BRANCH  20  23
ATOM     23  C   UNL     1      -4.966  -0.108  -0.135  0.00  0.00    +0.106 A 
ATOM     24  C   UNL     1      -4.614   0.453   1.086  0.00  0.00    +0.021 A 
ATOM     25  C   UNL     1      -4.921   1.777   1.378  0.00  0.00    +0.031 A 
ATOM     26  C   UNL     1      -5.387   2.623   0.378  0.00  0.00    +0.140 A 
ATOM     27  F   UNL     1      -4.925   3.901   0.249  0.00  0.00    -0.204 F 
ATOM     28  C   UNL     1      -6.016   1.989  -0.687  0.00  0.00    +0.031 A 
ATOM     29  C   UNL     1      -5.783   0.642  -0.939  0.00  0.00    +0.021 A 
ENDBRANCH  20  23
ENDBRANCH  19  20
ENDBRANCH  17  19
ENDBRANCH   1  17
TORSDOF 7
