REMARK  Name = 
REMARK  3 active torsions:
REMARK  status: ('A' for Active; 'I' for Inactive)
REMARK    1  A    between atoms: N_2  and  C_3
REMARK    2  A    between atoms: C_3  and  C_4
REMARK    3  A    between atoms: C_4  and  C_6
REMARK                            x       y       z     vdW  Elec       q    Type
REMARK                         _______ _______ _______ _____ _____    ______ ____
ROOT
ATOM      1  C   UNL     1       0.157  -0.325  -0.068  0.00  0.00    +0.013 A 
ATOM      2  C   UNL     1      -0.546   0.869  -0.211  0.00  0.00    +0.044 A 
ATOM      3  C   UNL     1      -1.900   0.797  -0.513  0.00  0.00    +0.234 A 
ATOM      4  O   UNL     1      -2.649   1.977  -0.532  0.00  0.00    -0.283 OA
ATOM      5  C   UNL     1      -2.615  -0.370  -0.327  0.00  0.00    +0.234 A 
ATOM      6  O   UNL     1      -3.977  -0.338  -0.080  0.00  0.00    -0.283 OA
ATOM      7  C   UNL     1      -1.897  -1.544  -0.161  0.00  0.00    +0.045 A 
ATOM      8  C   UNL     1      -0.577  -1.440   0.253  0.00  0.00    +0.002 A 
ENDROOT
BRANCH   1   9
ATOM      9  C   UNL     1       1.408  -0.077   0.989  0.00  0.00    +0.192 C 
ATOM     10  O   UNL     1       2.011  -1.474   0.676  0.00  0.00    -0.217 OA
BRANCH   9  11
ATOM     11  C   UNL     1       2.341   0.636  -0.222  0.00  0.00    +0.126 C 
BRANCH  11  13
ATOM     12  C   UNL     1       4.657   0.376  -0.299  0.00  0.00    +0.108 C 
ATOM     13  N   UNL     1       3.586   0.913   0.495  0.00  0.00    -0.213 NA
ENDBRANCH  11  13
ENDBRANCH   9  11
ENDBRANCH   1   9
TORSDOF 3
