REMARK  Name = 
REMARK  2 active torsions:
REMARK  status: ('A' for Active; 'I' for Inactive)
REMARK    1  A    between atoms: N_2  and  C_3
REMARK    2  A    between atoms: C_3  and  C_4
REMARK                            x       y       z     vdW  Elec       q    Type
REMARK                         _______ _______ _______ _____ _____    ______ ____
ROOT
ATOM      1  C   UNL     1       3.203  -1.298  -1.474  0.00  0.00    +0.170 C 
ATOM      2  N   UNL     1       2.406  -0.569  -0.663  0.00  0.00    +0.299 N 
ATOM      3  C   UNL     1       1.216  -0.267  -1.649  0.00  0.00    +0.092 C 
ATOM      4  C   UNL     1       0.051  -1.125  -0.872  0.00  0.00    +0.178 C 
ATOM      5  C   UNL     1      -0.202  -0.578   0.404  0.00  0.00    +0.102 C 
ATOM      6  C   UNL     1      -1.356  -1.530   1.087  0.00  0.00    +0.229 C 
ATOM      7  O   UNL     1      -1.970  -0.344   1.892  0.00  0.00    -0.468 OA
ATOM      8  C   UNL     1      -2.112   0.645   0.925  0.00  0.00    +0.173 A 
ATOM      9  C   UNL     1      -2.751   1.875   0.806  0.00  0.00    +0.229 A 
ATOM     10  C   UNL     1      -2.469   2.682  -0.298  0.00  0.00    +0.045 A 
ATOM     11  C   UNL     1      -1.361   2.427  -1.112  0.00  0.00    -0.001 A 
ATOM     12  C   UNL     1      -0.568   1.323  -0.846  0.00  0.00    -0.017 A 
ATOM     13  O   UNL     1      -4.045   1.880   1.339  0.00  0.00    -0.283 OA
ATOM     14  C   UNL     1      -2.453  -1.379  -0.108  0.00  0.00    +0.191 C 
ATOM     15  O   UNL     1      -3.533  -1.724   0.372  0.00  0.00    -0.292 OA
ATOM     16  C   UNL     1      -2.071  -2.046  -1.383  0.00  0.00    +0.071 C 
ATOM     17  C   UNL     1      -0.886   0.676   0.341  0.00  0.00    +0.017 A 
ATOM     18  C   UNL     1       0.961  -0.638   1.320  0.00  0.00    +0.072 C 
ATOM     19  C   UNL     1      -1.052  -1.044  -1.925  0.00  0.00    +0.044 C 
ATOM     20  O   UNL     1       0.431  -2.456  -1.004  0.00  0.00    -0.219 OA
ATOM     21  C   UNL     1       0.892   1.216  -1.008  0.00  0.00    +0.084 C 
ATOM     22  C   UNL     1       2.034  -1.271   0.449  0.00  0.00    +0.109 C 
ENDROOT
BRANCH   2  23
ATOM     23  C   UNL     1       3.116   0.677  -0.500  0.00  0.00    +0.108 C 
BRANCH  23  24
ATOM     24  C   UNL     1       4.139   0.514   0.543  0.00  0.00    +0.055 C 
ATOM     25  C   UNL     1       3.928   0.565   1.989  0.00  0.00    +0.006 C 
ATOM     26  C   UNL     1       4.450   1.789   1.374  0.00  0.00    +0.006 C 
ENDBRANCH  23  24
ENDBRANCH   2  23
TORSDOF 2
