REMARK  Name = 
REMARK  3 active torsions:
REMARK  status: ('A' for Active; 'I' for Inactive)
REMARK    1  A    between atoms: C_2  and  C_4
REMARK    2  A    between atoms: C_2  and  C_13
REMARK    3  A    between atoms: C_4  and  C_5
REMARK                            x       y       z     vdW  Elec       q    Type
REMARK                         _______ _______ _______ _____ _____    ______ ____
ROOT
ATOM      1  C   UNL     1      -0.350  -0.241  -0.282  0.00  0.00    -0.017 A 
ATOM      2  C   UNL     1      -1.401  -1.119  -0.523  0.00  0.00    +0.041 A 
ATOM      3  C   UNL     1      -2.697  -0.758  -0.176  0.00  0.00    +0.234 A 
ATOM      4  O   UNL     1      -3.708  -1.718  -0.112  0.00  0.00    -0.283 OA
ATOM      5  C   UNL     1      -2.998   0.501   0.324  0.00  0.00    +0.234 A 
ATOM      6  O   UNL     1      -4.318   0.893   0.556  0.00  0.00    -0.283 OA
ATOM      7  C   UNL     1      -1.951   1.311   0.686  0.00  0.00    +0.045 A 
ATOM      8  C   UNL     1      -0.673   0.925   0.390  0.00  0.00    -0.001 A 
ENDROOT
BRANCH   1   9
ATOM      9  C   UNL     1       1.057  -0.567  -0.585  0.00  0.00    +0.055 C 
BRANCH   9  11
ATOM     10  C   UNL     1       1.649  -0.201   1.760  0.00  0.00    +0.031 C 
ATOM     11  C   UNL     1       1.976   0.203   0.351  0.00  0.00    +0.174 C 
ATOM     12  N   UNL     1       1.859   1.641   0.151  0.00  0.00    -0.123 NA
BRANCH  11  13
ATOM     13  C   UNL     1       3.396  -0.146   0.073  0.00  0.00    +0.380 C 
ATOM     14  O   UNL     1       3.858  -1.462   0.185  0.00  0.00    -0.244 OA
ATOM     15  O   UNL     1       4.301   0.737   0.191  0.00  0.00    -0.244 OA
ENDBRANCH  11  13
ENDBRANCH   9  11
ENDBRANCH   1   9
TORSDOF 3
