REMARK  Name = 
REMARK  4 active torsions:
REMARK  status: ('A' for Active; 'I' for Inactive)
REMARK    1  A    between atoms: O_2  and  C_3
REMARK    2  A    between atoms: C_3  and  C_5
REMARK    3  A    between atoms: C_5  and  C_6
REMARK    4  A    between atoms: C_5  and  C_12
REMARK                            x       y       z     vdW  Elec       q    Type
REMARK                         _______ _______ _______ _____ _____    ______ ____
ROOT
ATOM      1  C   UNL     1      -0.246   0.174  -0.541  0.00  0.00    +0.137 C 
ENDROOT
BRANCH   1   2
ATOM      2  C   UNL     1      -1.305   0.087   0.798  0.00  0.00    +0.087 C 
ATOM      3  N   UNL     1      -2.557  -0.065  -0.126  0.00  0.00    -0.219 NA
ATOM      4  C   UNL     1      -3.459  -0.986   0.565  0.00  0.00    +0.089 C 
ATOM      5  C   UNL     1      -3.089  -2.418   0.177  0.00  0.00    +0.019 C 
ATOM      6  C   UNL     1      -1.601  -2.272  -0.154  0.00  0.00    +0.003 C 
ATOM      7  C   UNL     1      -1.092  -1.506   1.003  0.00  0.00    +0.018 C 
ENDBRANCH   1   2
BRANCH   1   8
ATOM      8  C   UNL     1       1.096  -0.016   0.317  0.00  0.00    -0.011 A 
ATOM      9  C   UNL     1       1.472  -1.339   0.533  0.00  0.00    -0.004 A 
ATOM     10  C   UNL     1       2.667  -1.883   0.172  0.00  0.00    -0.000 A 
ATOM     11  C   UNL     1       3.736  -1.022   0.154  0.00  0.00    -0.000 A 
ATOM     12  C   UNL     1       3.480   0.311  -0.054  0.00  0.00    -0.000 A 
ATOM     13  C   UNL     1       2.181   0.743  -0.117  0.00  0.00    -0.004 A 
ENDBRANCH   1   8
BRANCH   1  14
ATOM     14  C   UNL     1      -0.197   1.765  -0.495  0.00  0.00    +0.322 C 
ATOM     15  O   UNL     1      -0.728   2.330  -1.492  0.00  0.00    -0.250 OA
BRANCH  14  17
ATOM     16  C   UNL     1      -0.224   3.636   0.660  0.00  0.00    +0.256 C 
ATOM     17  O   UNL     1      -0.133   2.461   0.664  0.00  0.00    -0.444 OA
ENDBRANCH  14  17
ENDBRANCH   1  14
TORSDOF 4
