REMARK  Name = 
REMARK  18 active torsions:
REMARK  status: ('A' for Active; 'I' for Inactive)
REMARK    1  A    between atoms: O_2  and  C_3
REMARK    2  A    between atoms: N_5  and  C_6
REMARK    3  A    between atoms: C_6  and  C_7
REMARK    4  A    between atoms: C_6  and  C_48
REMARK    5  A    between atoms: N_9  and  C_10
REMARK    6  A    between atoms: C_10  and  C_11
REMARK    7  A    between atoms: C_10  and  C_18
REMARK    8  A    between atoms: C_11  and  C_12
REMARK    9  A    between atoms: C_18  and  C_20
REMARK   10  A    between atoms: C_20  and  N_21
REMARK   11  A    between atoms: N_21  and  C_22
REMARK   12  A    between atoms: N_21  and  N_35
REMARK   13  A    between atoms: C_22  and  C_23
REMARK   14  A    between atoms: C_26  and  C_27
REMARK   15  A    between atoms: C_36  and  C_38
REMARK   16  A    between atoms: C_38  and  N_39
REMARK   17  A    between atoms: C_38  and  C_44
REMARK   18  A    between atoms: C_40  and  O_42
REMARK                            x       y       z     vdW  Elec       q    Type
REMARK                         _______ _______ _______ _____ _____    ______ ____
ROOT
ATOM      1  N   UNL     1      -1.714   0.702   0.758  0.00  0.00    -0.177 NA
ENDROOT
BRANCH   1   2
ATOM      2  N   UNL     1      -1.832   2.031   0.361  0.00  0.00    -0.126 NA
ATOM      3  C   UNL     1      -3.079   2.748   0.279  0.00  0.00    +0.276 C 
ATOM      4  O   UNL     1      -4.030   1.894   0.237  0.00  0.00    -0.270 OA
BRANCH   3   5
ATOM      5  C   UNL     1      -3.207   3.476  -1.197  0.00  0.00    +0.177 C 
BRANCH   5   6
ATOM      6  C   UNL     1      -2.304   4.822  -0.820  0.00  0.00    +0.027 C 
ATOM      7  C   UNL     1      -1.420   4.587   0.271  0.00  0.00    +0.002 C 
ATOM      8  C   UNL     1      -3.087   6.021  -1.010  0.00  0.00    +0.002 C 
ATOM      9  C   UNL     1      -1.400   4.781  -2.066  0.00  0.00    +0.002 C 
ENDBRANCH   5   6
BRANCH   5  10
ATOM     10  N   UNL     1      -4.619   4.152  -0.880  0.00  0.00    -0.161 NA
ATOM     11  C   UNL     1      -4.895   4.593   0.382  0.00  0.00    +0.422 C 
ATOM     12  O   UNL     1      -4.163   4.406   1.355  0.00  0.00    -0.225 OA
BRANCH  11  13
ATOM     13  O   UNL     1      -6.035   5.360   0.580  0.00  0.00    -0.429 OA
ATOM     14  C   UNL     1      -6.420   5.711   1.898  0.00  0.00    +0.257 C 
ENDBRANCH  11  13
ENDBRANCH   5  10
ENDBRANCH   3   5
ENDBRANCH   1   2
BRANCH   1  15
ATOM     15  C   UNL     1      -0.471   0.442   1.474  0.00  0.00    +0.129 C 
BRANCH  15  16
ATOM     16  C   UNL     1       0.297  -0.726   0.581  0.00  0.00    +0.190 C 
ATOM     17  O   UNL     1       0.494  -1.591   1.824  0.00  0.00    -0.220 OA
BRANCH  16  18
ATOM     18  C   UNL     1       1.848   0.042   0.792  0.00  0.00    +0.131 C 
BRANCH  18  20
ATOM     19  C   UNL     1       3.858  -1.107  -0.023  0.00  0.00    +0.261 C 
ATOM     20  N   UNL     1       2.616  -1.327   0.676  0.00  0.00    -0.203 NA
ATOM     21  O   UNL     1       3.509  -1.194  -1.231  0.00  0.00    -0.271 OA
BRANCH  19  22
ATOM     22  C   UNL     1       5.036  -2.158   0.400  0.00  0.00    +0.176 C 
BRANCH  22  23
ATOM     23  C   UNL     1       5.710  -1.042   1.439  0.00  0.00    +0.027 C 
ATOM     24  C   UNL     1       5.925   0.195   0.659  0.00  0.00    +0.002 C 
ATOM     25  C   UNL     1       4.628  -0.808   2.461  0.00  0.00    +0.002 C 
ATOM     26  C   UNL     1       6.913  -1.692   2.014  0.00  0.00    +0.002 C 
ENDBRANCH  22  23
BRANCH  22  28
ATOM     27  C   UNL     1       7.292  -2.236  -0.726  0.00  0.00    +0.422 C 
ATOM     28  N   UNL     1       5.978  -1.716  -0.817  0.00  0.00    -0.161 NA
ATOM     29  O   UNL     1       7.428  -3.449  -0.454  0.00  0.00    -0.225 OA
BRANCH  27  31
ATOM     30  C   UNL     1       9.463  -2.151  -1.692  0.00  0.00    +0.257 C 
ATOM     31  O   UNL     1       8.272  -1.667  -1.544  0.00  0.00    -0.429 OA
ENDBRANCH  27  31
ENDBRANCH  22  28
ENDBRANCH  19  22
ENDBRANCH  18  20
BRANCH  18  32
ATOM     32  C   UNL     1       1.947   0.424  -0.804  0.00  0.00    +0.051 C 
BRANCH  32  33
ATOM     33  C   UNL     1       2.668   1.741  -0.788  0.00  0.00    -0.020 A 
ATOM     34  C   UNL     1       3.273   2.274  -1.921  0.00  0.00    -0.004 A 
ATOM     35  C   UNL     1       4.621   2.620  -1.850  0.00  0.00    -0.000 A 
ATOM     36  C   UNL     1       5.204   2.934  -0.627  0.00  0.00    -0.000 A 
ATOM     37  C   UNL     1       4.301   3.088   0.420  0.00  0.00    -0.000 A 
ATOM     38  C   UNL     1       3.143   2.317   0.386  0.00  0.00    -0.004 A 
ENDBRANCH  32  33
ENDBRANCH  18  32
ENDBRANCH  16  18
ENDBRANCH  15  16
ENDBRANCH   1  15
BRANCH   1  39
ATOM     39  C   UNL     1      -1.877  -0.166  -0.378  0.00  0.00    +0.120 C 
BRANCH  39  40
ATOM     40  C   UNL     1      -3.077  -1.021  -0.320  0.00  0.00    -0.004 A 
ATOM     41  C   UNL     1      -3.465  -1.637   0.863  0.00  0.00    -0.003 A 
ATOM     42  C   UNL     1      -4.563  -2.486   0.781  0.00  0.00    +0.001 A 
ATOM     43  C   UNL     1      -4.733  -3.235  -0.376  0.00  0.00    +0.018 A 
ATOM     44  C   UNL     1      -4.243  -2.707  -1.565  0.00  0.00    +0.001 A 
ATOM     45  C   UNL     1      -3.634  -1.458  -1.516  0.00  0.00    -0.003 A 
BRANCH  43  46
ATOM     46  C   UNL     1      -5.009  -4.678  -0.344  0.00  0.00    +0.081 A 
ATOM     47  N   UNL     1      -5.940  -5.089   0.528  0.00  0.00    -0.244 NA
ATOM     48  C   UNL     1      -6.013  -6.389   0.828  0.00  0.00    +0.099 A 
ATOM     49  C   UNL     1      -5.151  -7.284   0.244  0.00  0.00    +0.021 A 
ATOM     50  C   UNL     1      -4.102  -6.850  -0.526  0.00  0.00    +0.003 A 
ATOM     51  C   UNL     1      -3.942  -5.496  -0.697  0.00  0.00    +0.019 A 
ENDBRANCH  43  46
ENDBRANCH  39  40
ENDBRANCH   1  39
TORSDOF 18
