REMARK  Name = 
REMARK  0 active torsions:
REMARK  status: ('A' for Active; 'I' for Inactive)
REMARK                            x       y       z     vdW  Elec       q    Type
REMARK                         _______ _______ _______ _____ _____    ______ ____
ROOT
ATOM      1  S   UNL     1      -1.684   2.196   0.328  0.00  0.00    -0.028 S 
ATOM      2  C   UNL     1      -1.156   0.720  -0.160  0.00  0.00    +0.139 A 
ATOM      3  C   UNL     1       0.214   0.481  -0.153  0.00  0.00    +0.143 A 
ATOM      4  C   UNL     1       0.661  -0.806   0.118  0.00  0.00    +0.185 A 
ATOM      5  N   UNL     1       2.014  -0.731   0.143  0.00  0.00    -0.203 NA
ATOM      6  C   UNL     1       2.368   0.573   0.149  0.00  0.00    +0.200 A 
ATOM      7  N   UNL     1      -0.223  -1.798  -0.142  0.00  0.00    -0.203 NA
ATOM      8  C   UNL     1      -1.510  -1.560   0.206  0.00  0.00    +0.201 A 
ATOM      9  N   UNL     1       1.301   1.276  -0.306  0.00  0.00    -0.219 NA
ATOM     10  N   UNL     1      -1.985  -0.352  -0.182  0.00  0.00    -0.215 NA
ENDROOT
TORSDOF 0
