REMARK  Name = 
REMARK  7 active torsions:
REMARK  status: ('A' for Active; 'I' for Inactive)
REMARK    1  A    between atoms: O_2  and  C_3
REMARK    2  A    between atoms: C_8  and  O_9
REMARK    3  A    between atoms: O_9  and  C_10
REMARK    4  A    between atoms: C_10  and  C_11
REMARK    5  A    between atoms: C_11  and  C_13
REMARK    6  A    between atoms: C_13  and  O_14
REMARK    7  A    between atoms: O_14  and  C_15
REMARK                            x       y       z     vdW  Elec       q    Type
REMARK                         _______ _______ _______ _____ _____    ______ ____
ROOT
ATOM      1  O   UNL     1      -0.982  -0.985   0.130  0.00  0.00    -0.470 OA
ENDROOT
BRANCH   1   3
ATOM      2  C   UNL     1      -2.651   0.288  -0.882  0.00  0.00    +0.172 A 
ATOM      3  C   UNL     1      -1.648   0.242   0.047  0.00  0.00    +0.172 A 
ATOM      4  C   UNL     1      -1.805   1.062   1.159  0.00  0.00    +0.040 A 
ATOM      5  C   UNL     1      -2.652   2.161   1.072  0.00  0.00    +0.003 A 
ATOM      6  C   UNL     1      -3.335   2.437  -0.091  0.00  0.00    +0.003 A 
ATOM      7  C   UNL     1      -3.400   1.448  -1.034  0.00  0.00    +0.040 A 
BRANCH   2   9
ATOM      8  C   UNL     1      -3.479  -1.975  -1.409  0.00  0.00    +0.253 C 
ATOM      9  O   UNL     1      -2.917  -0.727  -1.798  0.00  0.00    -0.468 OA
ENDBRANCH   2   9
ENDBRANCH   1   3
BRANCH   1  10
ATOM     10  C   UNL     1       0.341  -1.083  -0.355  0.00  0.00    +0.242 C 
BRANCH  10  11
ATOM     11  C   UNL     1       1.244  -1.448   0.998  0.00  0.00    +0.239 C 
ATOM     12  O   UNL     1       2.208  -2.307   0.169  0.00  0.00    -0.215 OA
BRANCH  11  13
ATOM     13  C   UNL     1       2.143  -0.063   0.819  0.00  0.00    +0.247 C 
BRANCH  13  14
ATOM     14  O   UNL     1       3.492  -0.452   0.817  0.00  0.00    -0.430 OA
BRANCH  14  15
ATOM     15  C   UNL     1       4.259   0.138  -0.192  0.00  0.00    +0.441 C 
ATOM     16  O   UNL     1       3.704   0.422  -1.293  0.00  0.00    -0.223 OA
ATOM     17  N   UNL     1       5.478   0.842   0.053  0.00  0.00    -0.048 NA
ENDBRANCH  14  15
ENDBRANCH  13  14
ENDBRANCH  11  13
ENDBRANCH  10  11
ENDBRANCH   1  10
TORSDOF 7
