REMARK  Name = 
REMARK  8 active torsions:
REMARK  status: ('A' for Active; 'I' for Inactive)
REMARK    1  A    between atoms: O_2  and  C_3
REMARK    2  A    between atoms: C_6  and  C_7
REMARK    3  A    between atoms: C_7  and  C_8
REMARK    4  A    between atoms: C_8  and  N_10
REMARK    5  A    between atoms: N_10  and  C_11
REMARK    6  A    between atoms: C_11  and  C_12
REMARK    7  A    between atoms: C_12  and  C_14
REMARK    8  A    between atoms: C_19  and  N_20
REMARK                            x       y       z     vdW  Elec       q    Type
REMARK                         _______ _______ _______ _____ _____    ______ ____
ROOT
ATOM      1  C   UNL     1      -0.606  -2.474   0.191  0.00  0.00    +0.126 C 
ENDROOT
BRANCH   1   2
ATOM      2  C   UNL     1      -1.724  -2.050  -0.958  0.00  0.00    +0.192 C 
ATOM      3  O   UNL     1      -2.597  -3.256  -0.610  0.00  0.00    -0.217 OA
BRANCH   2   4
ATOM      4  C   UNL     1      -2.518  -1.094   0.097  0.00  0.00    +0.011 A 
ATOM      5  C   UNL     1      -3.699  -0.643  -0.481  0.00  0.00    +0.018 A 
ATOM      6  C   UNL     1      -4.269   0.512  -0.002  0.00  0.00    +0.112 A 
ATOM      7  C   UNL     1      -3.453   1.529   0.475  0.00  0.00    +0.211 A 
ATOM      8  O   UNL     1      -3.905   2.821   0.623  0.00  0.00    -0.285 OA
ATOM      9  C   UNL     1      -2.167   1.190   0.875  0.00  0.00    +0.043 A 
ATOM     10  C   UNL     1      -1.706  -0.053   0.536  0.00  0.00    +0.002 A 
BRANCH   6  11
ATOM     11  N   UNL     1      -5.684   0.649   0.173  0.00  0.00    -0.168 NA
ATOM     12  C   UNL     1      -6.303   1.608  -0.679  0.00  0.00    +0.325 C 
ATOM     13  O   UNL     1      -6.104   1.470  -1.903  0.00  0.00    -0.263 OA
ENDBRANCH   6  11
ENDBRANCH   2   4
ENDBRANCH   1   2
BRANCH   1  14
ATOM     14  N   UNL     1       0.432  -1.509   0.115  0.00  0.00    -0.216 NA
BRANCH  14  15
ATOM     15  C   UNL     1       1.430  -1.935  -1.028  0.00  0.00    +0.077 C 
ATOM     16  C   UNL     1       1.296  -3.545  -0.690  0.00  0.00    +0.019 C 
BRANCH  15  17
ATOM     17  C   UNL     1       2.719  -1.804  -0.023  0.00  0.00    +0.044 C 
BRANCH  17  21
ATOM     18  C   UNL     1       5.189   1.567  -0.443  0.00  0.00    +0.139 A 
ATOM     19  C   UNL     1       5.021   0.916   0.769  0.00  0.00    +0.037 A 
ATOM     20  C   UNL     1       4.311  -0.250   0.727  0.00  0.00    -0.001 A 
ATOM     21  C   UNL     1       3.395  -0.550  -0.281  0.00  0.00    -0.021 A 
ATOM     22  C   UNL     1       3.594   0.105  -1.458  0.00  0.00    -0.001 A 
ATOM     23  C   UNL     1       4.577   1.082  -1.592  0.00  0.00    +0.037 A 
BRANCH  18  25
ATOM     24  C   UNL     1       6.492   3.278   0.006  0.00  0.00    +0.252 C 
ATOM     25  O   UNL     1       6.279   2.438  -0.524  0.00  0.00    -0.471 OA
ENDBRANCH  18  25
ENDBRANCH  17  21
ENDBRANCH  15  17
ENDBRANCH  14  15
ENDBRANCH   1  14
TORSDOF 8
