REMARK  Name = 
REMARK  8 active torsions:
REMARK  status: ('A' for Active; 'I' for Inactive)
REMARK    1  A    between atoms: C_2  and  C_3
REMARK    2  A    between atoms: C_3  and  C_4
REMARK    3  A    between atoms: C_12  and  C_13
REMARK    4  A    between atoms: C_15  and  S_16
REMARK    5  A    between atoms: S_16  and  N_19
REMARK    6  A    between atoms: N_22  and  C_23
REMARK    7  A    between atoms: C_29  and  O_30
REMARK    8  A    between atoms: O_30  and  C_31
REMARK                            x       y       z     vdW  Elec       q    Type
REMARK                         _______ _______ _______ _____ _____    ______ ____
ROOT
ATOM      1  C   UNL     1       0.160  -0.900   0.367  0.00  0.00    +0.073 A 
ATOM      2  C   UNL     1       0.421  -1.553   1.566  0.00  0.00    +0.142 A 
ATOM      3  C   UNL     1      -0.671  -1.686   2.414  0.00  0.00    +0.038 A 
ATOM      4  C   UNL     1      -1.966  -1.490   1.948  0.00  0.00    +0.023 A 
ATOM      5  C   UNL     1      -2.213  -1.236   0.604  0.00  0.00    +0.122 A 
ATOM      6  C   UNL     1      -1.134  -0.705  -0.093  0.00  0.00    +0.026 A 
ENDROOT
BRANCH   1  12
ATOM      7  C   UNL     1       3.499   2.577  -0.426  0.00  0.00    +0.140 A 
ATOM      8  N   UNL     1       2.911   1.363  -0.459  0.00  0.00    -0.209 N 
ATOM      9  C   UNL     1       3.838   0.522  -0.971  0.00  0.00    +0.155 A 
ATOM     10  C   UNL     1       3.521  -0.815  -1.017  0.00  0.00    +0.300 A 
ATOM     11  N   UNL     1       2.220  -1.172  -0.918  0.00  0.00    -0.186 NA
ATOM     12  C   UNL     1       1.327  -0.342  -0.330  0.00  0.00    +0.188 A 
ATOM     13  O   UNL     1       4.457  -1.667  -1.053  0.00  0.00    -0.263 OA
ATOM     14  C   UNL     1       4.908   1.245  -1.471  0.00  0.00    +0.083 A 
ATOM     15  C   UNL     1       6.239   0.613  -1.719  0.00  0.00    +0.054 C 
ATOM     16  N   UNL     1       1.708   0.934  -0.085  0.00  0.00    -0.144 NA
ATOM     17  N   UNL     1       4.645   2.530  -1.138  0.00  0.00    -0.233 NA
BRANCH   7  18
ATOM     18  C   UNL     1       3.048   3.779   0.336  0.00  0.00    +0.066 C 
BRANCH  18  20
ATOM     19  C   UNL     1       5.285   3.562   1.387  0.00  0.00    +0.000 C 
ATOM     20  C   UNL     1       4.283   4.542   0.797  0.00  0.00    +0.008 C 
ENDBRANCH  18  20
ENDBRANCH   7  18
ENDBRANCH   1  12
BRANCH   5  21
ATOM     21  S   UNL     1      -3.572  -1.980  -0.231  0.00  0.00    +0.063 S 
ATOM     22  O   UNL     1      -4.559  -2.397   0.826  0.00  0.00    -0.153 OA
ATOM     23  O   UNL     1      -3.133  -3.244  -0.935  0.00  0.00    -0.153 OA
BRANCH  21  24
ATOM     24  N   UNL     1      -4.258  -0.944  -1.403  0.00  0.00    -0.153 NA
ATOM     25  C   UNL     1      -3.507   0.255  -1.641  0.00  0.00    +0.113 C 
ATOM     26  C   UNL     1      -3.913   1.412  -0.773  0.00  0.00    +0.092 C 
ATOM     27  N   UNL     1      -5.363   1.574  -0.713  0.00  0.00    -0.270 NA
ATOM     28  C   UNL     1      -5.873   0.326  -0.147  0.00  0.00    +0.092 C 
ATOM     29  C   UNL     1      -5.668  -0.730  -1.220  0.00  0.00    +0.113 C 
BRANCH  27  30
ATOM     30  C   UNL     1      -5.646   2.608   0.273  0.00  0.00    +0.072 C 
ATOM     31  C   UNL     1      -6.243   3.826  -0.378  0.00  0.00    +0.019 C 
ENDBRANCH  27  30
ENDBRANCH  21  24
ENDBRANCH   5  21
BRANCH   2  32
ATOM     32  O   UNL     1       1.514  -2.423   1.627  0.00  0.00    -0.475 OA
BRANCH  32  33
ATOM     33  C   UNL     1       1.349  -3.837   1.640  0.00  0.00    +0.206 C 
ATOM     34  C   UNL     1       2.386  -4.546   0.819  0.00  0.00    +0.051 C 
ENDBRANCH  32  33
ENDBRANCH   2  32
TORSDOF 8
