REMARK  Name = 
REMARK  6 active torsions:
REMARK  status: ('A' for Active; 'I' for Inactive)
REMARK    1  A    between atoms: C_7  and  O_8
REMARK    2  A    between atoms: O_8  and  C_9
REMARK    3  A    between atoms: C_9  and  C_10
REMARK    4  A    between atoms: C_10  and  C_11
REMARK    5  A    between atoms: C_11  and  C_12
REMARK    6  A    between atoms: C_12  and  C_15
REMARK                            x       y       z     vdW  Elec       q    Type
REMARK                         _______ _______ _______ _____ _____    ______ ____
ROOT
ATOM      1  O   UNL     1      -1.048  -0.914   0.339  0.00  0.00    -0.476 OA
ENDROOT
BRANCH   1   5
ATOM      2  C   UNL     1      -4.203   2.614  -0.751  0.00  0.00    +0.031 C 
ATOM      3  C   UNL     1      -3.896   1.217  -0.329  0.00  0.00    -0.019 A 
ATOM      4  C   UNL     1      -2.691   0.604  -0.555  0.00  0.00    +0.032 A 
ATOM      5  C   UNL     1      -2.359  -0.644  -0.037  0.00  0.00    +0.134 A 
ATOM      6  C   UNL     1      -3.347  -1.258   0.728  0.00  0.00    +0.012 A 
ATOM      7  C   UNL     1      -2.979  -2.342   1.692  0.00  0.00    +0.034 C 
ATOM      8  C   UNL     1      -4.559  -0.628   0.991  0.00  0.00    -0.002 A 
ATOM      9  C   UNL     1      -4.846   0.593   0.439  0.00  0.00    -0.004 A 
ENDBRANCH   1   5
BRANCH   1  10
ATOM     10  C   UNL     1       0.048  -0.908  -0.542  0.00  0.00    +0.205 C 
BRANCH  10  11
ATOM     11  C   UNL     1       1.190  -0.228   0.202  0.00  0.00    +0.048 C 
BRANCH  11  12
ATOM     12  C   UNL     1       2.386   0.007  -0.670  0.00  0.00    +0.015 C 
BRANCH  12  13
ATOM     13  C   UNL     1       3.631   0.037   0.210  0.00  0.00    +0.094 C 
ATOM     14  C   UNL     1       3.952  -1.411   0.534  0.00  0.00    +0.011 C 
ATOM     15  C   UNL     1       3.377   0.746   1.516  0.00  0.00    +0.011 C 
BRANCH  13  16
ATOM     16  C   UNL     1       4.783   0.666  -0.501  0.00  0.00    +0.364 C 
ATOM     17  O   UNL     1       5.397   0.014  -1.560  0.00  0.00    -0.246 OA
ATOM     18  O   UNL     1       5.163   1.835  -0.245  0.00  0.00    -0.246 OA
ENDBRANCH  13  16
ENDBRANCH  12  13
ENDBRANCH  11  12
ENDBRANCH  10  11
ENDBRANCH   1  10
TORSDOF 6
