REMARK  Name = 
REMARK  6 active torsions:
REMARK  status: ('A' for Active; 'I' for Inactive)
REMARK    1  A    between atoms: N_5  and  C_6
REMARK    2  A    between atoms: C_6  and  C_7
REMARK    3  A    between atoms: C_7  and  C_8
REMARK    4  A    between atoms: C_7  and  O_10
REMARK    5  A    between atoms: O_10  and  C_11
REMARK    6  A    between atoms: C_11  and  P_12
REMARK                            x       y       z     vdW  Elec       q    Type
REMARK                         _______ _______ _______ _____ _____    ______ ____
ROOT
ATOM      1  C   UNL     1      -0.860  -0.539  -1.608  0.00  0.00    +0.143 C 
ENDROOT
BRANCH   1   7
ATOM      2  N   UNL     1      -4.375   1.258   2.049  0.00  0.00    -0.107 NA
ATOM      3  C   UNL     1      -3.247   0.887   1.443  0.00  0.00    +0.176 A 
ATOM      4  N   UNL     1      -2.850  -0.400   1.404  0.00  0.00    -0.174 NA
ATOM      5  C   UNL     1      -2.160  -0.912   0.361  0.00  0.00    +0.351 A 
ATOM      6  O   UNL     1      -1.730  -2.094   0.418  0.00  0.00    -0.244 OA
ATOM      7  N   UNL     1      -1.583  -0.029  -0.468  0.00  0.00    -0.276 N 
ATOM      8  C   UNL     1      -1.609   1.307  -0.241  0.00  0.00    +0.083 A 
ATOM      9  C   UNL     1      -2.648   1.773   0.554  0.00  0.00    +0.057 A 
ENDBRANCH   1   7
BRANCH   1  10
ATOM     10  C   UNL     1       0.512  -1.136  -0.843  0.00  0.00    +0.171 C 
BRANCH  10  11
ATOM     11  C   UNL     1       1.353  -1.141  -2.299  0.00  0.00    +0.213 C 
ATOM     12  O   UNL     1       0.771  -2.233  -2.914  0.00  0.00    -0.218 OA
ENDBRANCH  10  11
BRANCH  10  13
ATOM     13  O   UNL     1       0.999   0.292  -0.498  0.00  0.00    -0.344 OA
BRANCH  13  14
ATOM     14  C   UNL     1       2.337   0.292  -0.786  0.00  0.00    +0.200 C 
BRANCH  14  15
ATOM     15  P   UNL     1       3.478   0.555   0.536  0.00  0.00    +0.147 P 
ATOM     16  O   UNL     1       4.279   2.032   0.256  0.00  0.00    -0.355 OA
ATOM     17  O   UNL     1       2.804   0.635   2.068  0.00  0.00    -0.355 OA
ATOM     18  O   UNL     1       4.528  -0.547   0.571  0.00  0.00    -0.458 OA
ENDBRANCH  14  15
ENDBRANCH  13  14
ENDBRANCH  10  13
ENDBRANCH   1  10
TORSDOF 6
