REMARK  Name = 
REMARK  1 active torsions:
REMARK  status: ('A' for Active; 'I' for Inactive)
REMARK    1  A    between atoms: N_9  and  C_10
REMARK                            x       y       z     vdW  Elec       q    Type
REMARK                         _______ _______ _______ _____ _____    ______ ____
ROOT
ATOM      1  N   UNL     1      -3.548  -1.105   1.768  0.00  0.00    -0.128 NA
ATOM      2  C   UNL     1      -3.174  -0.017   1.043  0.00  0.00    +0.087 A 
ATOM      3  C   UNL     1      -1.897   0.060   0.536  0.00  0.00    +0.019 A 
ATOM      4  C   UNL     1      -0.605  -0.279   1.190  0.00  0.00    +0.122 C 
ATOM      5  N   UNL     1       0.395  -0.203   0.127  0.00  0.00    -0.265 N 
ATOM      6  C   UNL     1      -0.232   0.514  -0.943  0.00  0.00    +0.249 C 
ATOM      7  O   UNL     1       0.163   0.635  -2.142  0.00  0.00    -0.270 OA
ATOM      8  C   UNL     1      -1.592   0.861  -0.555  0.00  0.00    +0.053 A 
ATOM      9  C   UNL     1      -2.634   1.502  -1.186  0.00  0.00    +0.004 A 
ATOM     10  C   UNL     1      -3.856   1.647  -0.566  0.00  0.00    +0.002 A 
ATOM     11  C   UNL     1      -4.123   0.842   0.506  0.00  0.00    +0.018 A 
ENDROOT
BRANCH   5  12
ATOM     12  C   UNL     1       1.154  -1.552  -0.212  0.00  0.00    +0.155 C 
ATOM     13  C   UNL     1       2.275  -0.789  -1.093  0.00  0.00    +0.266 C 
ATOM     14  O   UNL     1       2.321  -1.369  -2.223  0.00  0.00    -0.271 OA
ATOM     15  N   UNL     1       3.476  -0.402  -0.532  0.00  0.00    -0.143 NA
ATOM     16  C   UNL     1       3.404   0.271   0.722  0.00  0.00    +0.248 C 
ATOM     17  O   UNL     1       4.190   1.124   1.128  0.00  0.00    -0.273 OA
ATOM     18  C   UNL     1       2.295  -0.172   1.596  0.00  0.00    +0.089 C 
ATOM     19  C   UNL     1       1.990  -1.568   1.210  0.00  0.00    +0.039 C 
ENDBRANCH   5  12
TORSDOF 1
