REMARK  Name = 
REMARK  3 active torsions:
REMARK  status: ('A' for Active; 'I' for Inactive)
REMARK    1  A    between atoms: C_2  and  C_3
REMARK    2  A    between atoms: C_3  and  C_4
REMARK    3  A    between atoms: C_3  and  N_7
REMARK                            x       y       z     vdW  Elec       q    Type
REMARK                         _______ _______ _______ _____ _____    ______ ____
ROOT
ATOM      1  C   UNL     1       0.673   0.636   0.463  0.00  0.00    +0.155 C 
ENDROOT
BRANCH   1   2
ATOM      2  N   UNL     1      -0.378  -0.364  -0.156  0.00  0.00    -0.273 N 
ATOM      3  C   UNL     1      -1.626   0.151  -0.614  0.00  0.00    +0.226 C 
ATOM      4  O   UNL     1      -1.850   1.298  -1.106  0.00  0.00    -0.275 OA
ATOM      5  C   UNL     1      -2.688  -0.708   0.002  0.00  0.00    +0.087 C 
ATOM      6  C   UNL     1      -1.956  -1.181   1.255  0.00  0.00    +0.031 C 
ATOM      7  C   UNL     1      -0.621  -1.572   0.632  0.00  0.00    +0.094 C 
ENDBRANCH   1   2
BRANCH   1   8
ATOM      8  C   UNL     1       1.892  -0.409   0.347  0.00  0.00    +0.279 C 
ATOM      9  O   UNL     1       1.946  -1.156  -0.628  0.00  0.00    -0.270 OA
ATOM     10  N   UNL     1       2.495  -0.694   1.590  0.00  0.00    -0.086 NA
ENDBRANCH   1   8
BRANCH   1  12
ATOM     11  C   UNL     1       1.116   2.702  -0.779  0.00  0.00    +0.002 C 
ATOM     12  C   UNL     1       0.997   1.298  -1.006  0.00  0.00    +0.029 C 
ENDBRANCH   1  12
TORSDOF 3
