REMARK  Name = 
REMARK  3 active torsions:
REMARK  status: ('A' for Active; 'I' for Inactive)
REMARK    1  A    between atoms: C_17  and  O_18
REMARK    2  A    between atoms: O_18  and  C_19
REMARK    3  A    between atoms: C_32  and  C_33
REMARK                            x       y       z     vdW  Elec       q    Type
REMARK                         _______ _______ _______ _____ _____    ______ ____
ROOT
ATOM      1  C   UNL     1      -7.664   5.079   1.061  0.00  0.00    +0.007 C 
ATOM      2  C   UNL     1      -6.666   3.814   0.809  0.00  0.00    +0.053 C 
ATOM      3  C   UNL     1      -7.008   3.851  -0.853  0.00  0.00    +0.159 C 
ATOM      4  O   UNL     1      -5.755   3.100  -1.203  0.00  0.00    -0.223 OA
ATOM      5  C   UNL     1      -7.943   2.451  -0.970  0.00  0.00    +0.071 C 
ATOM      6  C   UNL     1      -9.293   3.146  -0.456  0.00  0.00    +0.006 C 
ATOM      7  C   UNL     1      -7.607   1.752   0.534  0.00  0.00    +0.171 C 
ATOM      8  C   UNL     1      -8.851   0.687   0.364  0.00  0.00    +0.047 C 
ATOM      9  O   UNL     1      -6.475   0.925  -0.090  0.00  0.00    -0.452 OA
ATOM     10  C   UNL     1      -6.897  -0.108  -0.960  0.00  0.00    +0.319 C 
ATOM     11  O   UNL     1      -6.361  -0.306  -2.115  0.00  0.00    -0.250 OA
ATOM     12  C   UNL     1      -7.370  -1.099  -0.040  0.00  0.00    +0.142 C 
ATOM     13  C   UNL     1      -7.574  -2.540  -0.809  0.00  0.00    +0.166 C 
ATOM     14  O   UNL     1      -6.305  -2.481  -1.646  0.00  0.00    -0.222 OA
ATOM     15  C   UNL     1      -6.942  -3.374   0.468  0.00  0.00    +0.066 C 
ATOM     16  C   UNL     1      -5.365  -3.589   0.073  0.00  0.00    +0.157 C 
ATOM     17  O   UNL     1      -4.925  -2.691   1.222  0.00  0.00    -0.223 OA
ATOM     18  C   UNL     1      -5.127  -4.930   0.992  0.00  0.00    +0.066 C 
ATOM     19  C   UNL     1      -4.772  -6.112  -0.103  0.00  0.00    +0.155 C 
ATOM     20  O   UNL     1      -4.043  -5.189  -1.057  0.00  0.00    -0.223 OA
ATOM     21  C   UNL     1      -3.352  -6.607   0.563  0.00  0.00    +0.036 C 
ATOM     22  C   UNL     1      -2.254  -6.067   0.495  0.00  0.00    +0.038 C 
ATOM     23  C   UNL     1      -1.028  -5.619  -0.413  0.00  0.00    +0.183 C 
ATOM     24  O   UNL     1      -1.514  -4.181  -0.450  0.00  0.00    -0.220 OA
ATOM     25  C   UNL     1      -0.038  -5.217   0.951  0.00  0.00    +0.189 C 
ATOM     26  O   UNL     1      -0.345  -6.477   1.720  0.00  0.00    -0.220 OA
ATOM     27  C   UNL     1       1.275  -5.884   0.251  0.00  0.00    +0.100 C 
ATOM     28  C   UNL     1       2.047  -4.818  -0.391  0.00  0.00    +0.156 C 
ATOM     29  O   UNL     1       1.921  -4.798  -1.557  0.00  0.00    -0.296 OA
ATOM     30  C   UNL     1       3.445  -4.573   0.100  0.00  0.00    +0.098 C 
ATOM     31  C   UNL     1       3.290  -3.252   1.060  0.00  0.00    +0.172 C 
ATOM     32  O   UNL     1       4.212  -3.759   2.144  0.00  0.00    -0.222 OA
ATOM     33  C   UNL     1       4.574  -2.327   0.421  0.00  0.00    +0.164 C 
ATOM     34  C   UNL     1       3.810  -2.163  -1.087  0.00  0.00    +0.168 C 
ATOM     35  O   UNL     1       2.729  -1.287  -0.499  0.00  0.00    -0.222 OA
ATOM     36  C   UNL     1       4.717  -0.872  -1.527  0.00  0.00    +0.068 C 
ATOM     37  C   UNL     1       4.851  -0.030  -0.119  0.00  0.00    +0.142 C 
ATOM     38  C   UNL     1       4.232   1.322  -0.775  0.00  0.00    +0.003 C 
ATOM     39  C   UNL     1       3.377   1.715   0.138  0.00  0.00    -0.002 C 
ATOM     40  C   UNL     1       3.168   3.137   0.482  0.00  0.00    -0.000 C 
ATOM     41  C   UNL     1       2.961   3.885  -0.569  0.00  0.00    -0.000 C 
ATOM     42  C   UNL     1       2.785   5.339  -0.382  0.00  0.00    -0.000 C 
ATOM     43  C   UNL     1       2.156   5.718   0.700  0.00  0.00    -0.000 C 
ATOM     44  C   UNL     1       1.123   6.760   0.496  0.00  0.00    -0.005 C 
ATOM     45  C   UNL     1       0.155   6.284  -0.296  0.00  0.00    -0.026 C 
ATOM     46  C   UNL     1      -1.131   6.119   0.429  0.00  0.00    +0.031 C 
ATOM     47  C   UNL     1      -2.182   6.757  -0.469  0.00  0.00    +0.031 C 
ATOM     48  C   UNL     1      -3.057   5.627  -0.944  0.00  0.00    -0.026 C 
ATOM     49  C   UNL     1      -3.484   4.862  -0.008  0.00  0.00    -0.005 C 
ATOM     50  C   UNL     1      -4.813   5.534   0.198  0.00  0.00    -0.005 C 
ATOM     51  C   UNL     1      -5.395   4.709   0.701  0.00  0.00    -0.024 C 
ENDROOT
BRANCH  33  52
ATOM     52  C   UNL     1       5.579  -3.491   0.082  0.00  0.00    +0.369 C 
ATOM     53  O   UNL     1       6.773  -3.300   0.795  0.00  0.00    -0.245 OA
ATOM     54  O   UNL     1       5.664  -3.956  -1.050  0.00  0.00    -0.245 OA
ENDBRANCH  33  52
BRANCH  37  55
ATOM     55  O   UNL     1       6.287   0.379  -0.414  0.00  0.00    -0.327 OA
BRANCH  55  56
ATOM     56  C   UNL     1       6.353   1.304   0.786  0.00  0.00    +0.268 C 
ATOM     57  C   UNL     1       7.910   0.892   1.381  0.00  0.00    +0.228 C 
ATOM     58  O   UNL     1       7.665  -0.598   1.232  0.00  0.00    -0.216 OA
ATOM     59  C   UNL     1       9.013   0.888   0.111  0.00  0.00    +0.160 C 
ATOM     60  N   UNL     1       8.242   0.172  -1.021  0.00  0.00    -0.127 NA
ATOM     61  C   UNL     1       8.788   2.443  -0.529  0.00  0.00    +0.199 C 
ATOM     62  O   UNL     1      10.067   2.937   0.079  0.00  0.00    -0.219 OA
ATOM     63  C   UNL     1       7.877   3.042   0.785  0.00  0.00    +0.150 C 
ATOM     64  C   UNL     1       7.780   4.526   0.090  0.00  0.00    +0.035 C 
ATOM     65  O   UNL     1       6.711   2.538  -0.020  0.00  0.00    -0.328 OA
ENDBRANCH  55  56
ENDBRANCH  37  55
TORSDOF 3
