REMARK  Name = 
REMARK  1 active torsions:
REMARK  status: ('A' for Active; 'I' for Inactive)
REMARK    1  A    between atoms: C_5  and  C_6
REMARK                            x       y       z     vdW  Elec       q    Type
REMARK                         _______ _______ _______ _____ _____    ______ ____
ROOT
ATOM      1  C   UNL     1       0.551   1.096   1.188  0.00  0.00    +0.062 C 
ATOM      2  C   UNL     1      -0.487   0.307   0.195  0.00  0.00    -0.017 A 
ATOM      3  C   UNL     1      -1.733   0.854  -0.056  0.00  0.00    -0.010 A 
ATOM      4  C   UNL     1      -2.687   0.008  -0.608  0.00  0.00    +0.096 A 
ATOM      5  C   UNL     1      -2.529  -1.360  -0.425  0.00  0.00    +0.244 A 
ATOM      6  C   UNL     1      -1.527  -1.871   0.390  0.00  0.00    +0.235 A 
ATOM      7  O   UNL     1      -1.823  -2.958   1.216  0.00  0.00    -0.283 OA
ATOM      8  O   UNL     1      -3.420  -2.237  -1.007  0.00  0.00    -0.282 OA
ATOM      9 CL   UNL     1      -3.877   0.654  -1.732  0.00  0.00    -0.079 Cl
ATOM     10  C   UNL     1      -2.356   2.167   0.173  0.00  0.00    +0.046 C 
ATOM     11  C   UNL     1      -1.464   3.329  -0.147  0.00  0.00    +0.093 C 
ATOM     12  N   UNL     1      -0.300   3.307   0.701  0.00  0.00    -0.217 NA
ATOM     13  C   UNL     1      -0.467  -1.011   0.644  0.00  0.00    +0.041 A 
ATOM     14  C   UNL     1       0.660   2.388   0.136  0.00  0.00    +0.097 C 
ENDROOT
BRANCH   1  19
ATOM     15  O   UNL     1       4.512  -2.300  -0.992  0.00  0.00    -0.287 OA
ATOM     16  C   UNL     1       3.790  -1.224  -0.472  0.00  0.00    +0.196 A 
ATOM     17  C   UNL     1       3.091  -0.341  -1.286  0.00  0.00    +0.042 A 
ATOM     18  C   UNL     1       1.933   0.258  -0.796  0.00  0.00    -0.001 A 
ATOM     19  C   UNL     1       1.863   0.372   0.543  0.00  0.00    -0.017 A 
ATOM     20  C   UNL     1       2.598  -0.366   1.433  0.00  0.00    -0.001 A 
ATOM     21  C   UNL     1       3.671  -1.073   0.902  0.00  0.00    +0.042 A 
ENDBRANCH   1  19
TORSDOF 1
