REMARK  Name = 
REMARK  4 active torsions:
REMARK  status: ('A' for Active; 'I' for Inactive)
REMARK    1  A    between atoms: C_2  and  N_3
REMARK    2  A    between atoms: C_2  and  C_8
REMARK    3  A    between atoms: N_3  and  C_4
REMARK    4  A    between atoms: C_8  and  C_10
REMARK                            x       y       z     vdW  Elec       q    Type
REMARK                         _______ _______ _______ _____ _____    ______ ____
ROOT
ATOM      1  C   UNL     1       0.009  -0.187  -0.700  0.00  0.00    +0.189 C 
ATOM      2  O   UNL     1       0.250  -1.158  -1.403  0.00  0.00    -0.290 OA
ENDROOT
BRANCH   1   3
ATOM      3  C   UNL     1      -1.286   0.352  -0.348  0.00  0.00    +0.037 A 
ATOM      4  C   UNL     1      -1.989  -0.225   0.701  0.00  0.00    +0.014 A 
ATOM      5  C   UNL     1      -3.338  -0.468   0.680  0.00  0.00    +0.058 A 
ATOM      6 CL   UNL     1      -4.136  -0.940   2.154  0.00  0.00    -0.082 Cl
ATOM      7  C   UNL     1      -4.086   0.009  -0.364  0.00  0.00    +0.011 A 
ATOM      8  C   UNL     1      -3.470   0.769  -1.325  0.00  0.00    +0.001 A 
ATOM      9  C   UNL     1      -2.107   0.913  -1.322  0.00  0.00    +0.003 A 
ENDBRANCH   1   3
BRANCH   1  11
ATOM     10  C   UNL     1       1.982   0.686  -1.745  0.00  0.00    +0.027 C 
ATOM     11  C   UNL     1       1.286   0.716  -0.222  0.00  0.00    +0.134 C 
BRANCH  11  12
ATOM     12  N   UNL     1       2.108  -0.581   0.236  0.00  0.00    -0.214 NA
BRANCH  12  13
ATOM     13  C   UNL     1       3.351  -0.077   0.755  0.00  0.00    +0.060 C 
ATOM     14  C   UNL     1       3.304  -0.092   2.279  0.00  0.00    +0.017 C 
ATOM     15  C   UNL     1       3.669   1.321   0.303  0.00  0.00    +0.017 C 
ATOM     16  C   UNL     1       4.454  -1.038   0.323  0.00  0.00    +0.017 C 
ENDBRANCH  12  13
ENDBRANCH  11  12
ENDBRANCH   1  11
TORSDOF 4
