REMARK  Name = 
REMARK  8 active torsions:
REMARK  status: ('A' for Active; 'I' for Inactive)
REMARK    1  A    between atoms: C_2  and  C_4
REMARK    2  A    between atoms: C_4  and  C_6
REMARK    3  A    between atoms: C_6  and  O_8
REMARK    4  A    between atoms: O_8  and  C_9
REMARK    5  A    between atoms: C_9  and  C_10
REMARK    6  A    between atoms: C_10  and  O_11
REMARK    7  A    between atoms: O_11  and  C_12
REMARK    8  A    between atoms: C_12  and  N_13
REMARK                            x       y       z     vdW  Elec       q    Type
REMARK                         _______ _______ _______ _____ _____    ______ ____
ROOT
ATOM      1  C   UNL     1      -0.209  -0.040  -0.015  0.00  0.00    +0.258 C 
ENDROOT
BRANCH   1   2
ATOM      2  N   UNL     1      -1.473  -0.597  -0.465  0.00  0.00    -0.268 N 
ATOM      3  C   UNL     1      -2.607   0.144  -0.480  0.00  0.00    +0.172 A 
ATOM      4  N   UNL     1      -2.881   1.463  -0.560  0.00  0.00    -0.192 NA
ATOM      5  C   UNL     1      -4.025   2.012  -0.096  0.00  0.00    +0.261 A 
ATOM      6  N   UNL     1      -5.036   1.198   0.244  0.00  0.00    -0.171 NA
ATOM      7  C   UNL     1      -4.915  -0.121   0.087  0.00  0.00    +0.302 A 
ATOM      8  O   UNL     1      -5.823  -0.868   0.554  0.00  0.00    -0.263 OA
ATOM      9  N   UNL     1      -3.943   3.351   0.408  0.00  0.00    -0.086 NA
ATOM     10  C   UNL     1      -3.683  -0.693  -0.211  0.00  0.00    +0.175 A 
ATOM     11  N   UNL     1      -3.178  -1.947  -0.129  0.00  0.00    -0.217 NA
ATOM     12  C   UNL     1      -1.842  -1.865  -0.208  0.00  0.00    +0.182 A 
ENDBRANCH   1   2
BRANCH   1  13
ATOM     13  O   UNL     1       0.469   0.611  -1.036  0.00  0.00    -0.328 OA
BRANCH  13  14
ATOM     14  C   UNL     1       1.469  -0.255  -1.466  0.00  0.00    +0.192 C 
BRANCH  14  15
ATOM     15  C   UNL     1       1.681  -1.400  -0.507  0.00  0.00    +0.240 C 
BRANCH  15  16
ATOM     16  O   UNL     1       3.084  -1.459  -0.281  0.00  0.00    -0.445 OA
BRANCH  16  17
ATOM     17  C   UNL     1       3.616  -0.837   0.780  0.00  0.00    +0.335 C 
ATOM     18  O   UNL     1       3.047   0.050   1.455  0.00  0.00    -0.248 OA
BRANCH  17  19
ATOM     19  C   UNL     1       5.209  -0.467   0.779  0.00  0.00    +0.190 C 
ATOM     20  N   UNL     1       5.603  -1.587  -0.297  0.00  0.00    -0.121 NA
BRANCH  19  22
ATOM     21  C   UNL     1       5.840   0.734  -0.798  0.00  0.00    +0.002 C 
ATOM     22  C   UNL     1       5.012   0.681  -0.419  0.00  0.00    +0.029 C 
ATOM     23  C   UNL     1       4.585   1.893   0.365  0.00  0.00    +0.002 C 
ENDBRANCH  19  22
ENDBRANCH  17  19
ENDBRANCH  16  17
ENDBRANCH  15  16
ENDBRANCH  14  15
ENDBRANCH  13  14
ENDBRANCH   1  13
TORSDOF 8
