REMARK  Name = 
REMARK  23 active torsions:
REMARK  status: ('A' for Active; 'I' for Inactive)
REMARK    1  A    between atoms: C_2  and  C_3
REMARK    2  A    between atoms: C_3  and  C_4
REMARK    3  A    between atoms: C_4  and  C_5
REMARK    4  A    between atoms: C_5  and  C_6
REMARK    5  A    between atoms: C_6  and  C_7
REMARK    6  A    between atoms: C_7  and  C_8
REMARK    7  A    between atoms: C_8  and  C_9
REMARK    8  A    between atoms: C_9  and  C_10
REMARK    9  A    between atoms: C_10  and  C_11
REMARK   10  A    between atoms: C_11  and  C_12
REMARK   11  A    between atoms: C_12  and  C_13
REMARK   12  A    between atoms: C_12  and  O_25
REMARK   13  A    between atoms: C_13  and  C_14
REMARK   14  A    between atoms: C_18  and  C_19
REMARK   15  A    between atoms: C_19  and  C_20
REMARK   16  A    between atoms: C_20  and  C_21
REMARK   17  A    between atoms: C_21  and  C_22
REMARK   18  A    between atoms: C_22  and  C_23
REMARK   19  A    between atoms: O_25  and  C_26
REMARK   20  A    between atoms: C_26  and  C_28
REMARK   21  A    between atoms: C_28  and  C_29
REMARK   22  A    between atoms: C_28  and  N_33
REMARK   23  A    between atoms: C_29  and  C_30
REMARK                            x       y       z     vdW  Elec       q    Type
REMARK                         _______ _______ _______ _____ _____    ______ ____
ROOT
ATOM      1  C   UNL     1       0.922  -1.153  -0.700  0.00  0.00    +0.173 C 
ENDROOT
BRANCH   1   2
ATOM      2  C   UNL     1      -0.276  -0.050  -0.946  0.00  0.00    +0.044 C 
BRANCH   2   3
ATOM      3  C   UNL     1      -1.238  -0.148   0.189  0.00  0.00    +0.004 C 
BRANCH   3   4
ATOM      4  C   UNL     1      -2.588  -0.408  -0.482  0.00  0.00    +0.000 C 
BRANCH   4   5
ATOM      5  C   UNL     1      -2.811   0.856  -1.312  0.00  0.00    +0.000 C 
BRANCH   5   6
ATOM      6  C   UNL     1      -2.599   1.986  -0.309  0.00  0.00    +0.000 C 
BRANCH   6   7
ATOM      7  C   UNL     1      -3.904   2.110   0.464  0.00  0.00    +0.000 C 
BRANCH   7   8
ATOM      8  C   UNL     1      -4.215   3.537   0.813  0.00  0.00    +0.000 C 
BRANCH   8   9
ATOM      9  C   UNL     1      -5.717   3.661   0.994  0.00  0.00    +0.000 C 
BRANCH   9  10
ATOM     10  C   UNL     1      -6.155   5.009   0.479  0.00  0.00    +0.000 C 
BRANCH  10  12
ATOM     11  C   UNL     1      -7.611   3.925  -1.217  0.00  0.00    +0.000 C 
ATOM     12  C   UNL     1      -6.443   4.855  -1.008  0.00  0.00    +0.000 C 
ENDBRANCH  10  12
ENDBRANCH   9  10
ENDBRANCH   8   9
ENDBRANCH   7   8
ENDBRANCH   6   7
ENDBRANCH   5   6
ENDBRANCH   4   5
ENDBRANCH   3   4
ENDBRANCH   2   3
ENDBRANCH   1   2
BRANCH   1  13
ATOM     13  O   UNL     1      -0.052  -2.207  -0.153  0.00  0.00    -0.451 OA
BRANCH  13  14
ATOM     14  C   UNL     1       0.365  -3.024   0.817  0.00  0.00    +0.337 C 
ATOM     15  O   UNL     1       1.415  -2.833   1.481  0.00  0.00    -0.248 OA
BRANCH  14  16
ATOM     16  C   UNL     1      -0.263  -4.502   0.959  0.00  0.00    +0.194 C 
BRANCH  16  17
ATOM     17  N   UNL     1      -1.698  -4.069   0.479  0.00  0.00    -0.188 NA
ATOM     18  C   UNL     1      -2.032  -3.929  -0.834  0.00  0.00    +0.321 C 
ATOM     19  O   UNL     1      -1.243  -4.271  -1.730  0.00  0.00    -0.263 OA
ENDBRANCH  16  17
BRANCH  16  20
ATOM     20  C   UNL     1       0.294  -4.991  -0.515  0.00  0.00    +0.033 C 
BRANCH  20  21
ATOM     21  C   UNL     1       0.930  -6.319  -0.213  0.00  0.00    +0.002 C 
ATOM     22  C   UNL     1      -0.140  -7.348   0.056  0.00  0.00    +0.000 C 
ATOM     23  C   UNL     1       1.827  -6.147   0.991  0.00  0.00    +0.000 C 
ENDBRANCH  20  21
ENDBRANCH  16  20
ENDBRANCH  14  16
ENDBRANCH  13  14
ENDBRANCH   1  13
BRANCH   1  24
ATOM     24  C   UNL     1       1.286  -0.561   0.790  0.00  0.00    +0.088 C 
BRANCH  24  25
ATOM     25  C   UNL     1       1.431   1.049   0.496  0.00  0.00    +0.183 C 
ATOM     26  C   UNL     1       2.991   1.116   1.175  0.00  0.00    +0.139 C 
ATOM     27  C   UNL     1       3.366   0.333  -0.162  0.00  0.00    +0.320 C 
ATOM     28  O   UNL     1       4.395  -0.266  -0.491  0.00  0.00    -0.250 OA
ATOM     29  O   UNL     1       2.237   0.881  -0.795  0.00  0.00    -0.451 OA
BRANCH  26  30
ATOM     30  C   UNL     1       3.318   2.554   0.488  0.00  0.00    +0.015 C 
BRANCH  30  31
ATOM     31  C   UNL     1       2.964   3.632   1.434  0.00  0.00    +0.001 C 
BRANCH  31  32
ATOM     32  C   UNL     1       3.750   4.852   0.957  0.00  0.00    +0.000 C 
BRANCH  32  33
ATOM     33  C   UNL     1       5.221   4.450   0.945  0.00  0.00    +0.000 C 
BRANCH  33  34
ATOM     34  C   UNL     1       5.787   4.372  -0.441  0.00  0.00    +0.000 C 
ATOM     35  C   UNL     1       6.486   3.048  -0.720  0.00  0.00    +0.000 C 
ENDBRANCH  33  34
ENDBRANCH  32  33
ENDBRANCH  31  32
ENDBRANCH  30  31
ENDBRANCH  26  30
ENDBRANCH  24  25
ENDBRANCH   1  24
TORSDOF 23
