REMARK  Name = 
REMARK  3 active torsions:
REMARK  status: ('A' for Active; 'I' for Inactive)
REMARK    1  A    between atoms: N_5  and  C_6
REMARK    2  A    between atoms: C_6  and  C_7
REMARK    3  A    between atoms: C_6  and  C_13
REMARK                            x       y       z     vdW  Elec       q    Type
REMARK                         _______ _______ _______ _____ _____    ______ ____
ROOT
ATOM      1  C   UNL     1      -0.014   0.024   0.849  0.00  0.00    +0.103 C 
ENDROOT
BRANCH   1   6
ATOM      2  C   UNL     1      -3.729  -3.279  -0.401  0.00  0.00    +0.090 C 
ATOM      3  N   UNL     1      -3.081  -2.470  -0.408  0.00  0.00    -0.269 NA
ATOM      4  C   UNL     1      -1.740  -2.877  -0.732  0.00  0.00    +0.090 C 
ATOM      5  C   UNL     1      -0.673  -1.995  -0.188  0.00  0.00    +0.090 C 
ATOM      6  N   UNL     1      -1.049  -0.611  -0.210  0.00  0.00    -0.264 NA
ATOM      7  C   UNL     1      -2.279  -0.378   0.549  0.00  0.00    +0.090 C 
ATOM      8  C   UNL     1      -3.037  -1.661   0.800  0.00  0.00    +0.090 C 
ENDBRANCH   1   6
BRANCH   1   9
ATOM      9  C   UNL     1       1.262  -0.141  -0.193  0.00  0.00    -0.004 A 
ATOM     10  C   UNL     1       2.134   0.943  -0.107  0.00  0.00    -0.002 A 
ATOM     11  C   UNL     1       3.505   0.820  -0.107  0.00  0.00    +0.011 A 
ATOM     12  C   UNL     1       4.064  -0.452  -0.170  0.00  0.00    +0.058 A 
ATOM     13 CL   UNL     1       5.810  -0.677  -0.211  0.00  0.00    -0.082 Cl
ATOM     14  C   UNL     1       3.259  -1.473   0.261  0.00  0.00    +0.011 A 
ATOM     15  C   UNL     1       1.907  -1.342   0.101  0.00  0.00    -0.002 A 
ENDBRANCH   1   9
BRANCH   1  16
ATOM     16  C   UNL     1      -0.361   1.560   0.366  0.00  0.00    -0.004 A 
ATOM     17  C   UNL     1      -0.341   1.779  -0.967  0.00  0.00    -0.003 A 
ATOM     18  C   UNL     1      -0.708   3.049  -1.397  0.00  0.00    -0.000 A 
ATOM     19  C   UNL     1      -1.629   3.731  -0.624  0.00  0.00    -0.000 A 
ATOM     20  C   UNL     1      -1.958   3.297   0.652  0.00  0.00    -0.000 A 
ATOM     21  C   UNL     1      -1.342   2.153   1.126  0.00  0.00    -0.003 A 
ENDBRANCH   1  16
TORSDOF 3
