REMARK  Name = 
REMARK  6 active torsions:
REMARK  status: ('A' for Active; 'I' for Inactive)
REMARK    1  A    between atoms: C_4  and  C_5
REMARK    2  A    between atoms: C_5  and  C_11
REMARK    3  A    between atoms: C_6  and  C_7
REMARK    4  A    between atoms: C_7  and  C_8
REMARK    5  A    between atoms: N_13  and  C_14
REMARK    6  A    between atoms: C_18  and  C_19
REMARK                            x       y       z     vdW  Elec       q    Type
REMARK                         _______ _______ _______ _____ _____    ______ ____
ROOT
ATOM      1  C   UNK A   0      -0.782  -0.071   0.006  0.00  0.00    +0.266 C 
ATOM      2  N   UNK A   2       0.445   0.170   0.641  0.00  0.00    -0.191 NA
ATOM      3  O   UNK A   0      -0.835   0.025  -1.257  0.00  0.00    -0.268 OA
ENDROOT
BRANCH   2   4
ATOM      4  C   UNK A   2       1.131   1.438  -0.058  0.00  0.00    +0.200 C 
ATOM      5  C   UNK A   2       2.662   1.296   0.659  0.00  0.00    +0.157 C 
ATOM      6  N   UNK A   2       2.733   0.040  -0.200  0.00  0.00    -0.242 N 
ATOM      7  C   UNK A   2       4.007  -0.590  -0.090  0.00  0.00    +0.132 C 
ATOM      8  C   UNK A   2       4.466  -0.733   1.143  0.00  0.00    +0.007 C 
ATOM      9  C   UNK A   2       3.543  -0.886   2.311  0.00  0.00    +0.087 C 
ATOM     10  S   UNK A   2       2.287   0.440   2.322  0.00  0.00    -0.114 S 
ATOM     11  C   UNK A   2       1.807   0.497  -1.200  0.00  0.00    +0.253 C 
ATOM     12  O   UNK A   2       1.810   0.718  -2.443  0.00  0.00    -0.273 OA
BRANCH   7  13
ATOM     13  C   UNK A   2       4.800  -1.000  -1.257  0.00  0.00    +0.401 C 
ATOM     14  O   UNK A   2       5.976  -0.294  -1.531  0.00  0.00    -0.239 OA
ATOM     15  O   UNK A   2       4.124  -1.390  -2.250  0.00  0.00    -0.239 OA
ENDBRANCH   7  13
ENDBRANCH   2   4
BRANCH   1  16
ATOM     16  C   UNK A   0      -2.086  -0.237   0.660  0.00  0.00    +0.070 C 
ATOM     17  C   UNK A   0      -2.754  -1.310   0.220  0.00  0.00    -0.008 C 
BRANCH  16  22
ATOM     18  N   UNK A   0      -2.724   4.521   0.948  0.00  0.00    -0.100 NA
ATOM     19  C   UNK A   0      -3.126   3.164   1.144  0.00  0.00    +0.201 A 
ATOM     20  S   UNK A   0      -4.460   2.487   1.983  0.00  0.00    -0.048 S 
ATOM     21  C   UNK A   0      -4.140   0.835   1.635  0.00  0.00    +0.057 A 
ATOM     22  C   UNK A   0      -2.882   0.946   1.049  0.00  0.00    +0.094 A 
ATOM     23  N   UNK A   0      -2.774   2.103   0.378  0.00  0.00    -0.221 NA
ENDBRANCH  16  22
BRANCH  17  24
ATOM     24  C   UNK A   0      -2.340  -2.024  -1.031  0.00  0.00    +0.140 C 
BRANCH  24  25
ATOM     25  C   UNK A   0      -3.269  -3.126  -1.295  0.00  0.00    +0.369 C 
ATOM     26  O   UNK A   0      -3.472  -4.051  -0.295  0.00  0.00    -0.245 OA
ATOM     27  O   UNK A   0      -4.148  -2.966  -2.193  0.00  0.00    -0.245 OA
ENDBRANCH  24  25
ENDBRANCH  17  24
ENDBRANCH   1  16
TORSDOF 6
