REMARK  Name = 
REMARK  4 active torsions:
REMARK  status: ('A' for Active; 'I' for Inactive)
REMARK    1  A    between atoms: C_2  and  C_4
REMARK    2  A    between atoms: C_4  and  C_5
REMARK    3  A    between atoms: C_8  and  C_9
REMARK    4  A    between atoms: C_9  and  C_11
REMARK                            x       y       z     vdW  Elec       q    Type
REMARK                         _______ _______ _______ _____ _____    ______ ____
ROOT
ATOM      1  C   UNL     1      -1.535   0.127   0.135  0.00  0.00    -0.022 A 
ATOM      2  C   UNL     1      -0.670   1.210   0.118  0.00  0.00    -0.005 A 
ATOM      3  C   UNL     1       0.682   1.029  -0.147  0.00  0.00    -0.004 A 
ATOM      4  C   UNL     1       1.274  -0.217   0.034  0.00  0.00    -0.012 A 
ATOM      5  C   UNL     1       0.414  -1.295  -0.095  0.00  0.00    -0.004 A 
ATOM      6  C   UNL     1      -0.955  -1.108  -0.119  0.00  0.00    -0.005 A 
ENDROOT
BRANCH   4   7
ATOM      7  C   UNL     1       2.593  -0.413  -0.905  0.00  0.00    +0.126 C 
ATOM      8  C   UNL     1       3.037  -1.789  -0.088  0.00  0.00    +0.017 C 
BRANCH   7   9
ATOM      9  C   UNL     1       3.496   0.521   0.079  0.00  0.00    +0.368 C 
ATOM     10  O   UNL     1       3.086   1.854  -0.013  0.00  0.00    -0.245 OA
ATOM     11  O   UNL     1       4.729   0.316  -0.134  0.00  0.00    -0.245 OA
ENDBRANCH   7   9
ENDBRANCH   4   7
BRANCH   1  12
ATOM     12  C   UNL     1      -2.733   0.231   1.022  0.00  0.00    +0.026 C 
BRANCH  12  14
ATOM     13  C   UNL     1      -4.683   0.786   0.202  0.00  0.00    +0.000 C 
ATOM     14  C   UNL     1      -4.013  -0.104   0.282  0.00  0.00    +0.004 C 
ATOM     15  C   UNL     1      -4.721  -1.149   1.135  0.00  0.00    +0.000 C 
ENDBRANCH  12  14
ENDBRANCH   1  12
TORSDOF 4
