REMARK  Name = 
REMARK  4 active torsions:
REMARK  status: ('A' for Active; 'I' for Inactive)
REMARK    1  A    between atoms: C_2  and  O_4
REMARK    2  A    between atoms: O_4  and  C_5
REMARK    3  A    between atoms: C_5  and  C_6
REMARK    4  A    between atoms: C_6  and  C_8
REMARK                            x       y       z     vdW  Elec       q    Type
REMARK                         _______ _______ _______ _____ _____    ______ ____
ROOT
ATOM      1  C   UNL     1      -2.131  -0.280  -0.408  0.00  0.00    +0.174 C 
ATOM      2  C   UNL     1      -0.919  -0.029   0.263  0.00  0.00    +0.034 C 
ATOM      3  C   UNL     1       0.166   0.031  -0.933  0.00  0.00    +0.008 C 
ATOM      4  C   UNL     1       1.194   0.883   0.109  0.00  0.00    +0.034 C 
ATOM      5  C   UNL     1       2.092  -0.432   0.317  0.00  0.00    +0.168 C 
ATOM      6  C   UNL     1       1.047  -1.619   0.709  0.00  0.00    +0.182 C 
ATOM      7  O   UNL     1       1.555  -1.793   2.131  0.00  0.00    -0.220 OA
ATOM      8  F   UNL     1       2.365  -0.929  -0.970  0.00  0.00    -0.237 F 
ATOM      9  C   UNL     1       3.293  -0.250   0.966  0.00  0.00    +0.064 C 
ATOM     10  C   UNL     1       3.584   1.232   0.968  0.00  0.00    -0.035 C 
ATOM     11  C   UNL     1       4.774   1.530   1.507  0.00  0.00    +0.034 C 
ATOM     12  C   UNL     1       5.832   0.513   1.638  0.00  0.00    +0.195 C 
ATOM     13  C   UNL     1       5.722  -0.540   0.615  0.00  0.00    +0.038 C 
ATOM     14  O   UNL     1       6.991   0.806   2.064  0.00  0.00    -0.287 OA
ATOM     15  C   UNL     1       3.176   2.132  -0.158  0.00  0.00    +0.023 C 
ATOM     16  C   UNL     1       3.656  -0.694   2.339  0.00  0.00    +0.011 C 
ATOM     17  C   UNL     1       4.480  -0.747   0.171  0.00  0.00    -0.017 C 
ATOM     18  C   UNL     1       2.134   1.485  -1.063  0.00  0.00    +0.007 C 
ATOM     19  C   UNL     1      -0.632   1.295  -1.527  0.00  0.00    +0.033 C 
ATOM     20  C   UNL     1      -1.073   1.414   0.775  0.00  0.00    +0.003 C 
ATOM     21  C   UNL     1      -0.220  -0.717   1.270  0.00  0.00    +0.038 C 
ATOM     22  C   UNL     1      -2.010   0.457  -1.875  0.00  0.00    +0.149 C 
ATOM     23  O   UNL     1      -1.273  -0.727  -2.469  0.00  0.00    -0.334 OA
ATOM     24  C   UNL     1      -2.079  -1.775  -2.076  0.00  0.00    +0.187 C 
ATOM     25  C   UNL     1      -3.154  -2.090  -3.066  0.00  0.00    +0.056 C 
ATOM     26  C   UNL     1      -2.963  -3.502  -3.543  0.00  0.00    +0.005 C 
ATOM     27  C   UNL     1      -2.176  -4.171  -2.423  0.00  0.00    +0.005 C 
ATOM     28  C   UNL     1      -1.233  -3.028  -2.065  0.00  0.00    +0.056 C 
ATOM     29  O   UNL     1      -2.519  -1.531  -0.794  0.00  0.00    -0.330 OA
ENDROOT
BRANCH   1  30
ATOM     30  C   UNL     1      -3.329   0.446   0.138  0.00  0.00    +0.221 C 
ATOM     31  O   UNL     1      -4.169   0.974  -0.591  0.00  0.00    -0.290 OA
BRANCH  30  32
ATOM     32  C   UNL     1      -3.678   0.524   1.572  0.00  0.00    +0.275 C 
BRANCH  32  33
ATOM     33  O   UNL     1      -3.754   1.837   2.072  0.00  0.00    -0.440 OA
BRANCH  33  35
ATOM     34  C   UNL     1      -4.285   4.167   1.244  0.00  0.00    +0.121 C 
ATOM     35  C   UNL     1      -4.650   2.793   1.645  0.00  0.00    +0.318 C 
ATOM     36  O   UNL     1      -5.816   2.334   1.448  0.00  0.00    -0.250 OA
ENDBRANCH  33  35
ENDBRANCH  32  33
ENDBRANCH  30  32
ENDBRANCH   1  30
TORSDOF 4
