REMARK  Name = 
REMARK  6 active torsions:
REMARK  status: ('A' for Active; 'I' for Inactive)
REMARK    1  A    between atoms: C_6  and  C_7
REMARK    2  A    between atoms: C_7  and  O_8
REMARK    3  A    between atoms: O_8  and  C_9
REMARK    4  A    between atoms: C_9  and  C_10
REMARK    5  A    between atoms: C_9  and  C_16
REMARK    6  A    between atoms: C_10  and  N_11
REMARK                            x       y       z     vdW  Elec       q    Type
REMARK                         _______ _______ _______ _____ _____    ______ ____
ROOT
ATOM      1  C   UNL     1      -0.786  -0.443   0.726  0.00  0.00    +0.161 C 
ENDROOT
BRANCH   1   2
ATOM      2  C   UNL     1      -1.069   1.074   0.209  0.00  0.00    +0.017 A 
ATOM      3  C   UNL     1      -1.494   1.222  -1.076  0.00  0.00    +0.057 A 
ATOM      4 CL   UNL     1      -1.000   0.139  -2.330  0.00  0.00    -0.082 Cl
ATOM      5  C   UNL     1      -2.155   2.402  -1.397  0.00  0.00    +0.023 A 
ATOM      6  C   UNL     1      -2.985   2.986  -0.449  0.00  0.00    +0.058 A 
ATOM      7 CL   UNL     1      -3.567   4.639  -0.627  0.00  0.00    -0.082 Cl
ATOM      8  C   UNL     1      -3.063   2.363   0.790  0.00  0.00    +0.011 A 
ATOM      9  C   UNL     1      -2.005   1.537   1.142  0.00  0.00    -0.000 A 
ENDBRANCH   1   2
BRANCH   1  10
ATOM     10  O   UNL     1       0.655  -0.124   1.107  0.00  0.00    -0.345 OA
BRANCH  10  11
ATOM     11  C   UNL     1       1.215   0.526   0.039  0.00  0.00    +0.170 C 
BRANCH  11  14
ATOM     12 CL   UNL     1       2.770   0.417   2.847  0.00  0.00    -0.075 Cl
ATOM     13  C   UNL     1       3.441   0.400   1.247  0.00  0.00    +0.085 A 
ATOM     14  C   UNL     1       2.692   0.288   0.081  0.00  0.00    +0.024 A 
ATOM     15  C   UNL     1       3.454  -0.127  -0.971  0.00  0.00    +0.006 A 
ATOM     16  C   UNL     1       4.672   0.501  -1.040  0.00  0.00    +0.036 A 
ATOM     17  S   UNL     1       5.006   0.730   0.629  0.00  0.00    -0.075 S 
ENDBRANCH  11  14
ENDBRANCH  10  11
ENDBRANCH   1  10
BRANCH   1  18
ATOM     18  C   UNL     1      -0.329  -1.071  -0.737  0.00  0.00    +0.142 C 
BRANCH  18  19
ATOM     19  N   UNL     1      -0.772  -2.446  -0.476  0.00  0.00    -0.305 N 
ATOM     20  C   UNL     1       0.027  -3.497  -0.215  0.00  0.00    +0.179 A 
ATOM     21  N   UNL     1      -0.697  -4.497   0.346  0.00  0.00    -0.222 NA
ATOM     22  C   UNL     1      -2.010  -4.194   0.200  0.00  0.00    +0.119 A 
ATOM     23  C   UNL     1      -2.000  -2.825  -0.043  0.00  0.00    +0.098 A 
ENDBRANCH  18  19
ENDBRANCH   1  18
TORSDOF 6
