REMARK  Name = 
REMARK  10 active torsions:
REMARK  status: ('A' for Active; 'I' for Inactive)
REMARK    1  A    between atoms: C_2  and  O_3
REMARK    2  A    between atoms: O_3  and  C_4
REMARK    3  A    between atoms: C_6  and  C_7
REMARK    4  A    between atoms: C_7  and  C_8
REMARK    5  A    between atoms: N_10  and  C_11
REMARK    6  A    between atoms: C_11  and  C_12
REMARK    7  A    between atoms: C_11  and  C_16
REMARK    8  A    between atoms: C_12  and  C_13
REMARK    9  A    between atoms: C_21  and  N_22
REMARK   10  A    between atoms: C_30  and  C_31
REMARK                            x       y       z     vdW  Elec       q    Type
REMARK                         _______ _______ _______ _____ _____    ______ ____
ROOT
ATOM      1  C   UNL     1      -2.006  -1.882  -0.955  0.00  0.00    +0.119 C 
ENDROOT
BRANCH   1   2
ATOM      2  C   UNL     1      -2.774  -0.510  -1.377  0.00  0.00    +0.011 A 
ATOM      3  C   UNL     1      -3.609   0.075  -0.528  0.00  0.00    +0.045 A 
ATOM      4  C   UNL     1      -4.424   1.072  -1.059  0.00  0.00    +0.014 A 
ATOM      5  C   UNL     1      -4.554   1.231  -2.434  0.00  0.00    +0.001 A 
ATOM      6  C   UNL     1      -3.545   0.731  -3.249  0.00  0.00    -0.000 A 
ATOM      7  C   UNL     1      -2.914  -0.405  -2.757  0.00  0.00    -0.001 A 
BRANCH   3   8
ATOM      8  N   UNL     1      -3.227   0.126   0.857  0.00  0.00    -0.308 N 
ATOM      9  C   UNL     1      -4.405  -0.008   1.735  0.00  0.00    +0.091 C 
ATOM     10  C   UNL     1      -4.354   0.904   2.911  0.00  0.00    +0.021 C 
ATOM     11  C   UNL     1      -4.532   2.347   2.455  0.00  0.00    +0.004 C 
ATOM     12  C   UNL     1      -3.674   2.499   1.205  0.00  0.00    +0.021 C 
ATOM     13  C   UNL     1      -2.618   1.429   1.185  0.00  0.00    +0.091 C 
ENDBRANCH   3   8
ENDBRANCH   1   2
BRANCH   1  15
ATOM     14  C   UNL     1       0.075  -0.610  -0.420  0.00  0.00    +0.246 C 
ATOM     15  N   UNL     1      -1.123  -1.153   0.161  0.00  0.00    -0.202 NA
ATOM     16  O   UNL     1      -0.165   0.252  -1.320  0.00  0.00    -0.273 OA
BRANCH  14  17
ATOM     17  C   UNL     1       1.428  -1.094  -0.215  0.00  0.00    +0.113 C 
BRANCH  17  22
ATOM     18  C   UNL     1       4.278   1.189  -0.096  0.00  0.00    +0.145 A 
ATOM     19  C   UNL     1       5.130   0.293   0.545  0.00  0.00    +0.114 A 
ATOM     20  C   UNL     1       4.518  -0.484   1.524  0.00  0.00    +0.009 A 
ATOM     21  C   UNL     1       3.134  -0.636   1.516  0.00  0.00    -0.003 A 
ATOM     22  C   UNL     1       2.343  -0.145   0.480  0.00  0.00    -0.010 A 
ATOM     23  C   UNL     1       2.905   0.959  -0.157  0.00  0.00    +0.033 A 
BRANCH  19  24
ATOM     24  C   UNL     1       6.382  -0.114  -0.099  0.00  0.00    +0.391 C 
ATOM     25  O   UNL     1       7.032  -1.241   0.416  0.00  0.00    -0.240 OA
ATOM     26  O   UNL     1       6.692   0.185  -1.270  0.00  0.00    -0.240 OA
ENDBRANCH  19  24
BRANCH  18  27
ATOM     27  O   UNL     1       4.894   2.272  -0.685  0.00  0.00    -0.475 OA
BRANCH  27  29
ATOM     28  C   UNL     1       4.601   3.854   1.101  0.00  0.00    +0.051 C 
ATOM     29  C   UNL     1       4.564   3.611  -0.339  0.00  0.00    +0.206 C 
ENDBRANCH  27  29
ENDBRANCH  18  27
ENDBRANCH  17  22
ENDBRANCH  14  17
ENDBRANCH   1  15
BRANCH   1  30
ATOM     30  C   UNL     1      -3.145  -2.393   0.147  0.00  0.00    +0.026 C 
BRANCH  30  31
ATOM     31  C   UNL     1      -2.799  -3.835   0.398  0.00  0.00    +0.002 C 
ATOM     32  C   UNL     1      -2.571  -4.605  -0.888  0.00  0.00    +0.000 C 
ATOM     33  C   UNL     1      -1.538  -3.913   1.211  0.00  0.00    +0.000 C 
ENDBRANCH  30  31
ENDBRANCH   1  30
TORSDOF 10
