REMARK  Name = 
REMARK  4 active torsions:
REMARK  status: ('A' for Active; 'I' for Inactive)
REMARK    1  A    between atoms: O_2  and  C_3
REMARK    2  A    between atoms: C_3  and  C_5
REMARK    3  A    between atoms: C_6  and  C_7
REMARK    4  A    between atoms: C_7  and  O_9
REMARK                            x       y       z     vdW  Elec       q    Type
REMARK                         _______ _______ _______ _____ _____    ______ ____
ROOT
ATOM      1  C   UNL     1       0.506  -0.847  -0.273  0.00  0.00    +0.089 C 
ATOM      2  C   UNL     1      -0.590  -0.327  -0.759  0.00  0.00    +0.089 C 
ENDROOT
BRANCH   1   3
ATOM      3  C   UNL     1       1.830  -0.278  -0.354  0.00  0.00    +0.342 C 
ATOM      4  O   UNL     1       2.673  -0.793  -1.139  0.00  0.00    -0.245 OA
BRANCH   3   6
ATOM      5  C   UNL     1       3.632   0.503   1.134  0.00  0.00    +0.256 C 
ATOM      6  O   UNL     1       2.338   0.654   0.553  0.00  0.00    -0.441 OA
ENDBRANCH   3   6
ENDBRANCH   1   3
BRANCH   2   7
ATOM      7  C   UNL     1      -1.847  -0.231  -0.011  0.00  0.00    +0.342 C 
ATOM      8  O   UNL     1      -1.949  -0.546   1.202  0.00  0.00    -0.245 OA
BRANCH   7   9
ATOM      9  O   UNL     1      -2.916   0.464  -0.541  0.00  0.00    -0.441 OA
ATOM     10  C   UNL     1      -3.677   1.401   0.188  0.00  0.00    +0.256 C 
ENDBRANCH   7   9
ENDBRANCH   2   7
TORSDOF 4
