REMARK  Name = 
REMARK  5 active torsions:
REMARK  status: ('A' for Active; 'I' for Inactive)
REMARK    1  A    between atoms: C_2  and  C_3
REMARK    2  A    between atoms: C_3  and  C_4
REMARK    3  A    between atoms: C_4  and  C_5
REMARK    4  A    between atoms: C_5  and  C_7
REMARK    5  A    between atoms: C_5  and  C_10
REMARK                            x       y       z     vdW  Elec       q    Type
REMARK                         _______ _______ _______ _____ _____    ______ ____
ROOT
ATOM      1  C   UNL     1      -0.257  -0.109  -0.024  0.00  0.00    +0.231 C 
ATOM      2  N   UNL     1       0.661  -0.052   1.087  0.00  0.00    -0.117 NA
ENDROOT
BRANCH   1   3
ATOM      3  C   UNL     1      -1.102  -1.343   0.142  0.00  0.00    +0.345 C 
ATOM      4  F   UNL     1      -2.444  -1.032  -0.043  0.00  0.00    -0.196 F 
ATOM      5  F   UNL     1      -0.995  -1.895   1.400  0.00  0.00    -0.196 F 
ENDBRANCH   1   3
BRANCH   1   6
ATOM      6  C   UNL     1      -1.155   1.086   0.019  0.00  0.00    +0.385 C 
ATOM      7  O   UNL     1      -1.730   1.407   1.232  0.00  0.00    -0.244 OA
ATOM      8  O   UNL     1      -1.857   1.306  -1.013  0.00  0.00    -0.244 OA
ENDBRANCH   1   6
BRANCH   1   9
ATOM      9  C   UNL     1       0.471  -0.062  -1.341  0.00  0.00    +0.036 C 
BRANCH   9  10
ATOM     10  C   UNL     1       1.948  -0.285  -1.222  0.00  0.00    +0.023 C 
BRANCH  10  12
ATOM     11  N   UNL     1       3.802   0.188   0.207  0.00  0.00    -0.131 NA
ATOM     12  C   UNL     1       2.656   0.791  -0.445  0.00  0.00    +0.109 C 
ENDBRANCH  10  12
ENDBRANCH   9  10
ENDBRANCH   1   9
TORSDOF 5
