REMARK  Name = 
REMARK  0 active torsions:
REMARK  status: ('A' for Active; 'I' for Inactive)
REMARK                            x       y       z     vdW  Elec       q    Type
REMARK                         _______ _______ _______ _____ _____    ______ ____
ROOT
ATOM      1  O   UNL     1       2.397  -0.979  -0.244  0.00  0.00    -0.286 OA
ATOM      2  C   UNL     1       1.184  -0.322  -0.438  0.00  0.00    +0.199 A 
ATOM      3  C   UNL     1       0.024  -1.035  -0.164  0.00  0.00    +0.084 A 
ATOM      4  C   UNL     1      -1.207  -0.392  -0.202  0.00  0.00    +0.199 A 
ATOM      5  O   UNL     1      -2.314  -0.978  -0.823  0.00  0.00    -0.286 OA
ATOM      6  C   UNL     1      -1.208   0.997  -0.156  0.00  0.00    +0.042 A 
ATOM      7  C   UNL     1      -0.013   1.642   0.144  0.00  0.00    +0.007 A 
ATOM      8  C   UNL     1       1.137   1.067  -0.392  0.00  0.00    +0.042 A 
ENDROOT
TORSDOF 0
