REMARK  Name = 
REMARK  5 active torsions:
REMARK  status: ('A' for Active; 'I' for Inactive)
REMARK    1  A    between atoms: O_2  and  C_3
REMARK    2  A    between atoms: C_22  and  C_24
REMARK    3  A    between atoms: C_24  and  C_26
REMARK    4  A    between atoms: C_29  and  O_30
REMARK    5  A    between atoms: O_30  and  C_31
REMARK                            x       y       z     vdW  Elec       q    Type
REMARK                         _______ _______ _______ _____ _____    ______ ____
ROOT
ATOM      1  C   UNL     1      -4.917  -1.518  -2.142  0.00  0.00    +0.142 A 
ATOM      2  C   UNL     1      -4.132  -0.896  -1.196  0.00  0.00    +0.076 A 
ATOM      3  C   UNL     1      -2.681  -0.990  -1.253  0.00  0.00    +0.202 C 
ATOM      4  C   UNL     1      -1.860  -0.319  -0.267  0.00  0.00    +0.084 A 
ATOM      5  C   UNL     1      -2.439   0.108   0.914  0.00  0.00    +0.084 A 
ATOM      6  C   UNL     1      -3.899   0.020   1.047  0.00  0.00    +0.199 C 
ATOM      7  O   UNL     1      -4.363   0.201   2.210  0.00  0.00    -0.286 OA
ATOM      8  C   UNL     1      -1.698   0.929   1.722  0.00  0.00    +0.195 A 
ATOM      9  O   UNL     1      -2.382   1.663   2.700  0.00  0.00    -0.287 OA
ATOM     10  C   UNL     1      -0.355   1.053   1.508  0.00  0.00    +0.021 A 
ATOM     11  C   UNL     1       0.310   2.263   2.091  0.00  0.00    +0.067 C 
ATOM     12  C   UNL     1       1.643   2.280   1.348  0.00  0.00    +0.186 C 
ATOM     13  C   UNL     1       2.430   1.079   1.542  0.00  0.00    +0.072 C 
ATOM     14  C   UNL     1       1.627  -0.278   1.048  0.00  0.00    +0.146 C 
ATOM     15  O   UNL     1       1.484   2.711   0.026  0.00  0.00    -0.218 OA
ATOM     16  C   UNL     1       0.326   0.499   0.423  0.00  0.00    +0.043 A 
ATOM     17  C   UNL     1      -0.473  -0.365  -0.319  0.00  0.00    +0.197 A 
ATOM     18  O   UNL     1       0.149  -1.095  -1.297  0.00  0.00    -0.287 OA
ATOM     19  O   UNL     1      -2.103  -1.737  -2.067  0.00  0.00    -0.286 OA
ATOM     20  C   UNL     1      -4.739  -0.487  -0.038  0.00  0.00    +0.045 A 
ATOM     21  C   UNL     1      -6.095  -0.653   0.129  0.00  0.00    +0.003 A 
ATOM     22  C   UNL     1      -6.872  -0.948  -0.975  0.00  0.00    +0.003 A 
ATOM     23  C   UNL     1      -6.281  -1.478  -2.089  0.00  0.00    +0.037 A 
ENDROOT
BRANCH   1  25
ATOM     24  C   UNL     1      -4.173  -2.325  -3.366  0.00  0.00    +0.252 C 
ATOM     25  O   UNL     1      -4.252  -2.175  -3.170  0.00  0.00    -0.471 OA
ENDBRANCH   1  25
BRANCH  12  26
ATOM     26  C   UNL     1       2.451   3.346   2.025  0.00  0.00    +0.211 C 
ATOM     27  O   UNL     1       3.476   3.740   1.487  0.00  0.00    -0.291 OA
BRANCH  26  28
ATOM     28  C   UNL     1       1.926   4.194   3.121  0.00  0.00    +0.248 C 
ATOM     29  O   UNL     1       1.298   5.351   2.638  0.00  0.00    -0.212 OA
ENDBRANCH  26  28
ENDBRANCH  12  26
BRANCH  14  30
ATOM     30  O   UNL     1       2.419  -0.303  -0.271  0.00  0.00    -0.328 OA
BRANCH  30  31
ATOM     31  C   UNL     1       3.483  -1.192   0.419  0.00  0.00    +0.237 C 
ATOM     32  O   UNL     1       4.653  -0.321  -0.081  0.00  0.00    -0.330 OA
ATOM     33  C   UNL     1       4.709  -0.708  -1.539  0.00  0.00    +0.150 C 
ATOM     34  C   UNL     1       5.796   0.475  -1.872  0.00  0.00    +0.035 C 
ATOM     35  C   UNL     1       5.978  -1.827  -1.224  0.00  0.00    +0.196 C 
ATOM     36  O   UNL     1       5.891  -2.388  -2.612  0.00  0.00    -0.219 OA
ATOM     37  C   UNL     1       4.936  -3.052  -0.619  0.00  0.00    +0.130 C 
ATOM     38  N   UNL     1       5.200  -2.596   0.864  0.00  0.00    -0.130 NA
ATOM     39  C   UNL     1       3.529  -2.259  -0.865  0.00  0.00    +0.083 C 
ENDBRANCH  30  31
ENDBRANCH  14  30
TORSDOF 5
