REMARK  Name = 
REMARK  2 active torsions:
REMARK  status: ('A' for Active; 'I' for Inactive)
REMARK    1  A    between atoms: S_2  and  C_5
REMARK    2  A    between atoms: C_5  and  C_6
REMARK                            x       y       z     vdW  Elec       q    Type
REMARK                         _______ _______ _______ _____ _____    ______ ____
ROOT
ATOM      1  O   UNL     1      -1.720  -0.720  -1.047  0.00  0.00    -0.371 OA
ATOM      2  S   UNL     1      -0.850  -0.105   0.025  0.00  0.00    -0.106 S 
ATOM      3  O   UNL     1      -0.339   1.437  -0.418  0.00  0.00    -0.291 OA
ATOM      4  O   UNL     1      -1.707  -0.046   1.270  0.00  0.00    -0.371 OA
ENDROOT
BRANCH   2   5
ATOM      5  C   UNL     1       0.565  -1.063   0.402  0.00  0.00    +0.138 C 
BRANCH   5   6
ATOM      6  C   UNL     1       1.820  -0.616  -0.293  0.00  0.00    +0.092 C 
ATOM      7  S   UNL     1       2.230   1.113   0.061  0.00  0.00    -0.080 S 
ENDBRANCH   5   6
ENDBRANCH   2   5
TORSDOF 2
