REMARK  Name = 
REMARK  7 active torsions:
REMARK  status: ('A' for Active; 'I' for Inactive)
REMARK    1  A    between atoms: C_2  and  N_3
REMARK    2  A    between atoms: N_3  and  C_4
REMARK    3  A    between atoms: N_3  and  C_6
REMARK    4  A    between atoms: C_6  and  C_7
REMARK    5  A    between atoms: C_7  and  O_8
REMARK    6  A    between atoms: O_8  and  C_9
REMARK    7  A    between atoms: C_9  and  C_11
REMARK                            x       y       z     vdW  Elec       q    Type
REMARK                         _______ _______ _______ _____ _____    ______ ____
ROOT
ATOM      1  C   UNL     1      -0.504  -0.628  -0.726  0.00  0.00    +0.342 C 
ATOM      2  O   UNL     1       0.114  -1.648  -1.155  0.00  0.00    -0.245 OA
ENDROOT
BRANCH   1   3
ATOM      3  C   UNL     1      -1.909  -0.700  -0.301  0.00  0.00    +0.086 A 
ATOM      4  C   UNL     1      -2.840   0.220  -0.768  0.00  0.00    +0.065 A 
ATOM      5 CL   UNL     1      -2.437   1.054  -2.253  0.00  0.00    -0.082 Cl
ATOM      6  C   UNL     1      -3.900   0.643   0.023  0.00  0.00    +0.030 A 
ATOM      7  C   UNL     1      -3.944   0.255   1.355  0.00  0.00    +0.090 A 
ATOM      8  N   UNL     1      -4.572   1.072   2.342  0.00  0.00    -0.128 NA
ATOM      9  C   UNL     1      -3.302  -0.931   1.667  0.00  0.00    +0.018 A 
ATOM     10  C   UNL     1      -2.272  -1.361   0.864  0.00  0.00    +0.009 A 
ENDBRANCH   1   3
BRANCH   1  11
ATOM     11  O   UNL     1       0.116   0.593  -0.944  0.00  0.00    -0.444 OA
BRANCH  11  12
ATOM     12  C   UNL     1       1.494   0.775  -1.125  0.00  0.00    +0.226 C 
BRANCH  12  13
ATOM     13  C   UNL     1       2.330  -0.400  -0.723  0.00  0.00    +0.120 C 
BRANCH  13  14
ATOM     14  N   UNL     1       3.532   0.090  -0.103  0.00  0.00    -0.270 NA
BRANCH  14  15
ATOM     15  C   UNL     1       4.657  -0.796  -0.216  0.00  0.00    +0.072 C 
ATOM     16  C   UNL     1       5.632  -0.239  -1.245  0.00  0.00    +0.019 C 
ENDBRANCH  14  15
BRANCH  14  18
ATOM     17  C   UNL     1       4.529   0.664   2.069  0.00  0.00    +0.019 C 
ATOM     18  C   UNL     1       3.275   0.542   1.240  0.00  0.00    +0.072 C 
ENDBRANCH  14  18
ENDBRANCH  13  14
ENDBRANCH  12  13
ENDBRANCH  11  12
ENDBRANCH   1  11
TORSDOF 7
