REMARK  Name = 
REMARK  2 active torsions:
REMARK  status: ('A' for Active; 'I' for Inactive)
REMARK    1  A    between atoms: N_2  and  C_3
REMARK    2  A    between atoms: C_6  and  C_7
REMARK                            x       y       z     vdW  Elec       q    Type
REMARK                         _______ _______ _______ _____ _____    ______ ____
ROOT
ATOM      1  C   UNL     1      -2.361   1.678  -0.749  0.00  0.00    +0.095 C 
ATOM      2  C   UNL     1      -2.396   0.103  -0.313  0.00  0.00    -0.010 A 
ATOM      3  C   UNL     1      -1.190  -0.515  -0.183  0.00  0.00    -0.021 A 
ATOM      4  C   UNL     1      -1.337  -1.902  -0.103  0.00  0.00    -0.004 A 
ATOM      5  C   UNL     1      -2.559  -2.532   0.060  0.00  0.00    -0.000 A 
ATOM      6  C   UNL     1      -3.594  -1.703   0.481  0.00  0.00    -0.000 A 
ATOM      7  C   UNL     1      -0.149  -0.263  -1.430  0.00  0.00    +0.044 C 
ATOM      8  C   UNL     1      -0.116   1.399  -1.322  0.00  0.00    +0.010 C 
ATOM      9  C   UNL     1      -3.594  -0.346   0.163  0.00  0.00    -0.003 A 
ATOM     10  C   UNL     1      -0.814   1.833  -0.117  0.00  0.00    +0.023 C 
ENDROOT
BRANCH   7  11
ATOM     11  C   UNL     1       1.154  -0.361  -0.450  0.00  0.00    -0.018 A 
ATOM     12  C   UNL     1       2.308   0.105  -1.077  0.00  0.00    +0.008 A 
ATOM     13  C   UNL     1       3.468   0.026  -0.314  0.00  0.00    +0.068 A 
ATOM     14 CL   UNL     1       4.628   1.335  -0.504  0.00  0.00    -0.081 Cl
ATOM     15  C   UNL     1       3.506  -0.794   0.807  0.00  0.00    +0.068 A 
ATOM     16 CL   UNL     1       4.836  -0.554   1.894  0.00  0.00    -0.081 Cl
ATOM     17  C   UNL     1       2.414  -1.601   1.062  0.00  0.00    +0.012 A 
ATOM     18  C   UNL     1       1.276  -1.502   0.270  0.00  0.00    -0.003 A 
ENDBRANCH   7  11
BRANCH   1  20
ATOM     19  C   UNL     1      -2.466   3.430   0.657  0.00  0.00    +0.108 C 
ATOM     20  N   UNL     1      -3.017   2.163   0.635  0.00  0.00    -0.214 NA
ENDBRANCH   1  20
TORSDOF 2
