REMARK  Name = 
REMARK  10 active torsions:
REMARK  status: ('A' for Active; 'I' for Inactive)
REMARK    1  A    between atoms: C_2  and  O_3
REMARK    2  A    between atoms: O_3  and  C_4
REMARK    3  A    between atoms: C_4  and  C_6
REMARK    4  A    between atoms: C_7  and  C_8
REMARK    5  A    between atoms: C_8  and  O_9
REMARK    6  A    between atoms: O_9  and  C_10
REMARK    7  A    between atoms: C_10  and  C_11
REMARK    8  A    between atoms: C_16  and  C_17
REMARK    9  A    between atoms: C_17  and  O_19
REMARK   10  A    between atoms: C_21  and  C_22
REMARK                            x       y       z     vdW  Elec       q    Type
REMARK                         _______ _______ _______ _____ _____    ______ ____
ROOT
ATOM      1  C   UNL     1       0.279  -0.563  -0.050  0.00  0.00    +0.075 C 
ATOM      2  C   UNL     1      -0.842  -0.367   1.142  0.00  0.00    +0.082 C 
ATOM      3  C   UNL     1      -0.717   1.262   1.040  0.00  0.00    +0.073 C 
ATOM      4  C   UNL     1       0.350   1.586   1.773  0.00  0.00    +0.051 C 
ATOM      5  C   UNL     1       0.368   2.951   2.351  0.00  0.00    +0.049 C 
ATOM      6  N   UNL     1       1.545   0.888   1.392  0.00  0.00    -0.219 NA
ATOM      7  C   UNL     1       1.448  -0.019   0.285  0.00  0.00    +0.080 C 
ENDROOT
BRANCH   2   8
ATOM      8  C   UNL     1      -2.117  -0.457   0.117  0.00  0.00    -0.003 A 
ATOM      9  C   UNL     1      -2.954  -1.516   0.378  0.00  0.00    +0.054 A 
ATOM     10 CL   UNL     1      -3.080  -2.233   1.954  0.00  0.00    -0.083 Cl
ATOM     11  C   UNL     1      -3.588  -2.096  -0.712  0.00  0.00    +0.011 A 
ATOM     12  C   UNL     1      -3.680  -1.345  -1.877  0.00  0.00    +0.001 A 
ATOM     13  C   UNL     1      -3.052  -0.108  -1.970  0.00  0.00    -0.000 A 
ATOM     14  C   UNL     1      -1.991   0.105  -1.095  0.00  0.00    -0.003 A 
ENDBRANCH   2   8
BRANCH   1  15
ATOM     15  C   UNL     1       0.245  -1.887  -0.639  0.00  0.00    +0.339 C 
ATOM     16  O   UNL     1       0.274  -2.836   0.201  0.00  0.00    -0.245 OA
BRANCH  15  17
ATOM     17  O   UNL     1       0.992  -2.063  -1.781  0.00  0.00    -0.446 OA
BRANCH  17  19
ATOM     18  C   UNL     1       2.281  -4.015  -1.166  0.00  0.00    +0.051 C 
ATOM     19  C   UNL     1       1.493  -3.292  -2.238  0.00  0.00    +0.209 C 
ENDBRANCH  17  19
ENDBRANCH  15  17
ENDBRANCH   1  15
BRANCH   3  20
ATOM     20  C   UNL     1      -1.843   2.062   0.782  0.00  0.00    +0.339 C 
ATOM     21  O   UNL     1      -2.886   2.201   1.475  0.00  0.00    -0.245 OA
BRANCH  20  22
ATOM     22  O   UNL     1      -1.719   3.010  -0.243  0.00  0.00    -0.442 OA
ATOM     23  C   UNL     1      -2.146   4.334  -0.172  0.00  0.00    +0.256 C 
ENDBRANCH  20  22
ENDBRANCH   3  20
BRANCH   7  24
ATOM     24  C   UNL     1       2.579  -0.219  -0.668  0.00  0.00    +0.185 C 
BRANCH  24  25
ATOM     25  O   UNL     1       3.310   0.980  -0.772  0.00  0.00    -0.346 OA
BRANCH  25  26
ATOM     26  C   UNL     1       4.670   0.713  -0.882  0.00  0.00    +0.163 C 
BRANCH  26  27
ATOM     27  C   UNL     1       5.524   1.580  -0.010  0.00  0.00    +0.141 C 
ATOM     28  N   UNL     1       5.256   1.340   1.387  0.00  0.00    -0.129 NA
ENDBRANCH  26  27
ENDBRANCH  25  26
ENDBRANCH  24  25
ENDBRANCH   7  24
TORSDOF 10
