REMARK  Name = 
REMARK  3 active torsions:
REMARK  status: ('A' for Active; 'I' for Inactive)
REMARK    1  A    between atoms: N_6  and  C_7
REMARK    2  A    between atoms: C_7  and  C_8
REMARK    3  A    between atoms: C_8  and  C_10
REMARK                            x       y       z     vdW  Elec       q    Type
REMARK                         _______ _______ _______ _____ _____    ______ ____
ROOT
ATOM      1  C   UNL     1      -2.959  -1.830   1.295  0.00  0.00    +0.137 C 
ATOM      2  N   UNL     1      -2.076  -0.853   0.756  0.00  0.00    -0.263 N 
ATOM      3  C   UNL     1      -2.452   0.440   0.619  0.00  0.00    +0.335 A 
ATOM      4  O   UNL     1      -3.556   0.797   1.086  0.00  0.00    -0.246 OA
ATOM      5  N   UNL     1      -1.920   1.244  -0.324  0.00  0.00    -0.245 N 
ATOM      6  C   UNL     1      -2.085   2.670  -0.214  0.00  0.00    +0.138 C 
ATOM      7  C   UNL     1      -0.843   0.787  -1.009  0.00  0.00    +0.283 A 
ATOM      8  O   UNL     1      -0.266   1.497  -1.855  0.00  0.00    -0.265 OA
ATOM      9  C   UNL     1      -0.246  -0.418  -0.660  0.00  0.00    +0.153 A 
ATOM     10  N   UNL     1       1.000  -0.924  -0.794  0.00  0.00    -0.301 N 
ATOM     11  C   UNL     1       0.906  -2.206  -0.445  0.00  0.00    +0.180 A 
ATOM     12  N   UNL     1      -0.347  -2.476  -0.004  0.00  0.00    -0.206 NA
ATOM     13  C   UNL     1      -1.027  -1.308   0.054  0.00  0.00    +0.170 A 
ENDROOT
BRANCH  10  14
ATOM     14  C   UNL     1       2.170  -0.089  -1.047  0.00  0.00    +0.143 C 
BRANCH  14  15
ATOM     15  C   UNL     1       2.938  -0.170   0.446  0.00  0.00    +0.207 C 
ATOM     16  O   UNL     1       4.311  -0.369  -0.238  0.00  0.00    -0.218 OA
BRANCH  15  17
ATOM     17  C   UNL     1       3.150   1.498   0.476  0.00  0.00    +0.217 C 
ATOM     18  O   UNL     1       3.300   1.710   1.857  0.00  0.00    -0.218 OA
ENDBRANCH  15  17
ENDBRANCH  14  15
ENDBRANCH  10  14
TORSDOF 3
