REMARK  Name = 
REMARK  5 active torsions:
REMARK  status: ('A' for Active; 'I' for Inactive)
REMARK    1  A    between atoms: N_2  and  N_3
REMARK    2  A    between atoms: N_3  and  C_4
REMARK    3  A    between atoms: C_4  and  C_5
REMARK    4  A    between atoms: N_9  and  C_10
REMARK    5  A    between atoms: C_10  and  C_11
REMARK                            x       y       z     vdW  Elec       q    Type
REMARK                         _______ _______ _______ _____ _____    ______ ____
ROOT
ATOM      1  N   UNL     1       0.865  -0.203   0.284  0.00  0.00    -0.127 N 
ATOM      2  C   UNL     1      -0.507  -0.416  -0.071  0.00  0.00    +0.345 C 
ATOM      3  N   UNL     1      -1.415  -1.028   0.846  0.00  0.00    -0.186 NA
ATOM      4  O   UNL     1      -0.857   0.003  -1.205  0.00  0.00    -0.249 OA
ENDROOT
BRANCH   1   6
ATOM      5  O   UNL     1       1.131   2.010  -0.051  0.00  0.00    -0.126 OA
ATOM      6  N   UNL     1       1.194   1.076   0.776  0.00  0.00    +0.053 NA
ENDBRANCH   1   6
BRANCH   3   7
ATOM      7  C   UNL     1      -2.737  -1.352   0.380  0.00  0.00    +0.134 C 
BRANCH   7   8
ATOM      8  C   UNL     1      -3.760  -0.290   0.719  0.00  0.00    +0.118 C 
ATOM      9 CL   UNL     1      -3.052   1.338   0.609  0.00  0.00    -0.112 Cl
ENDBRANCH   7   8
ENDBRANCH   3   7
BRANCH   1  10
ATOM     10  C   UNL     1       1.826  -0.778  -0.654  0.00  0.00    +0.141 C 
BRANCH  10  11
ATOM     11  C   UNL     1       3.196  -0.924  -0.052  0.00  0.00    +0.119 C 
ATOM     12 CL   UNL     1       4.117   0.563  -0.319  0.00  0.00    -0.112 Cl
ENDBRANCH  10  11
ENDBRANCH   1  10
TORSDOF 5
