REMARK  Name = 
REMARK  20 active torsions:
REMARK  status: ('A' for Active; 'I' for Inactive)
REMARK    1  A    between atoms: C_2  and  C_3
REMARK    2  A    between atoms: C_2  and  O_12
REMARK    3  A    between atoms: C_3  and  C_4
REMARK    4  A    between atoms: C_4  and  C_5
REMARK    5  A    between atoms: C_5  and  C_6
REMARK    6  A    between atoms: O_12  and  C_13
REMARK    7  A    between atoms: C_13  and  C_14
REMARK    8  A    between atoms: C_14  and  C_15
REMARK    9  A    between atoms: C_14  and  O_28
REMARK   10  A    between atoms: C_15  and  O_16
REMARK   11  A    between atoms: O_16  and  C_17
REMARK   12  A    between atoms: C_17  and  C_19
REMARK   13  A    between atoms: C_19  and  C_20
REMARK   14  A    between atoms: C_20  and  C_21
REMARK   15  A    between atoms: C_21  and  C_22
REMARK   16  A    between atoms: O_28  and  C_29
REMARK   17  A    between atoms: C_29  and  C_31
REMARK   18  A    between atoms: C_31  and  C_32
REMARK   19  A    between atoms: C_32  and  C_33
REMARK   20  A    between atoms: C_33  and  C_34
REMARK                            x       y       z     vdW  Elec       q    Type
REMARK                         _______ _______ _______ _____ _____    ______ ____
ROOT
ATOM      1  C   UNL     1      -0.704   0.160   0.177  0.00  0.00    +0.256 C 
ENDROOT
BRANCH   1   2
ATOM      2  C   UNL     1      -0.400  -0.849   1.250  0.00  0.00    +0.256 C 
BRANCH   2   3
ATOM      3  O   UNL     1      -0.772  -2.164   0.894  0.00  0.00    -0.444 OA
BRANCH   3   5
ATOM      4  O   UNL     1      -2.875  -1.660   0.254  0.00  0.00    -0.250 OA
ATOM      5  C   UNL     1      -1.912  -2.446   0.135  0.00  0.00    +0.317 C 
BRANCH   5   6
ATOM      6  C   UNL     1      -2.028  -3.825  -0.411  0.00  0.00    +0.110 C 
BRANCH   6   7
ATOM      7  C   UNL     1      -1.432  -4.760   0.618  0.00  0.00    +0.016 C 
BRANCH   7   8
ATOM      8  C   UNL     1      -1.857  -6.188   0.417  0.00  0.00    +0.027 C 
BRANCH   8   9
ATOM      9  C   UNL     1      -3.319  -6.283   0.162  0.00  0.00    -0.022 A 
ATOM     10  C   UNL     1      -3.756  -7.140  -0.837  0.00  0.00    -0.004 A 
ATOM     11  C   UNL     1      -5.102  -7.469  -0.845  0.00  0.00    -0.000 A 
ATOM     12  C   UNL     1      -5.990  -6.561  -0.298  0.00  0.00    -0.000 A 
ATOM     13  C   UNL     1      -5.585  -5.716   0.704  0.00  0.00    -0.000 A 
ATOM     14  C   UNL     1      -4.238  -5.720   1.018  0.00  0.00    -0.004 A 
ENDBRANCH   8   9
ENDBRANCH   7   8
ENDBRANCH   6   7
ENDBRANCH   5   6
ENDBRANCH   3   5
ENDBRANCH   2   3
ENDBRANCH   1   2
BRANCH   1  15
ATOM     15  O   UNL     1      -1.071   1.392   0.791  0.00  0.00    -0.444 OA
BRANCH  15  16
ATOM     16  C   UNL     1      -0.630   2.613   0.279  0.00  0.00    +0.317 C 
ATOM     17  O   UNL     1      -0.523   2.678  -0.982  0.00  0.00    -0.250 OA
BRANCH  16  18
ATOM     18  C   UNL     1      -0.409   3.791   1.162  0.00  0.00    +0.110 C 
BRANCH  18  19
ATOM     19  C   UNL     1      -1.740   4.480   1.438  0.00  0.00    +0.016 C 
BRANCH  19  20
ATOM     20  C   UNL     1      -1.881   5.629   0.448  0.00  0.00    +0.027 C 
BRANCH  20  21
ATOM     21  C   UNL     1      -3.307   5.896   0.121  0.00  0.00    -0.022 A 
ATOM     22  C   UNL     1      -3.632   6.362  -1.145  0.00  0.00    -0.004 A 
ATOM     23  C   UNL     1      -4.646   7.286  -1.351  0.00  0.00    -0.000 A 
ATOM     24  C   UNL     1      -5.456   7.664  -0.297  0.00  0.00    -0.000 A 
ATOM     25  C   UNL     1      -5.326   6.950   0.883  0.00  0.00    -0.000 A 
ATOM     26  C   UNL     1      -4.271   6.080   1.105  0.00  0.00    -0.004 A 
ENDBRANCH  20  21
ENDBRANCH  19  20
ENDBRANCH  18  19
ENDBRANCH  16  18
ENDBRANCH  15  16
ENDBRANCH   1  15
BRANCH   1  27
ATOM     27  C   UNL     1       0.418   0.348  -0.803  0.00  0.00    +0.256 C 
BRANCH  27  28
ATOM     28  O   UNL     1       1.524  -0.511  -0.536  0.00  0.00    -0.444 OA
BRANCH  28  29
ATOM     29  C   UNL     1       2.825  -0.054  -0.679  0.00  0.00    +0.317 C 
ATOM     30  O   UNL     1       3.046   1.123  -0.280  0.00  0.00    -0.250 OA
BRANCH  29  31
ATOM     31  C   UNL     1       3.895  -0.840  -1.358  0.00  0.00    +0.110 C 
BRANCH  31  32
ATOM     32  C   UNL     1       5.236  -0.265  -0.970  0.00  0.00    +0.016 C 
BRANCH  32  33
ATOM     33  C   UNL     1       5.853  -1.087   0.140  0.00  0.00    +0.027 C 
BRANCH  33  34
ATOM     34  C   UNL     1       7.102  -0.428   0.605  0.00  0.00    -0.022 A 
ATOM     35  C   UNL     1       8.249  -1.174   0.705  0.00  0.00    -0.004 A 
ATOM     36  C   UNL     1       9.496  -0.586   0.552  0.00  0.00    -0.000 A 
ATOM     37  C   UNL     1       9.577   0.784   0.658  0.00  0.00    -0.000 A 
ATOM     38  C   UNL     1       8.439   1.540   0.734  0.00  0.00    -0.000 A 
ATOM     39  C   UNL     1       7.204   0.949   0.504  0.00  0.00    -0.004 A 
ENDBRANCH  33  34
ENDBRANCH  32  33
ENDBRANCH  31  32
ENDBRANCH  29  31
ENDBRANCH  28  29
ENDBRANCH  27  28
ENDBRANCH   1  27
TORSDOF 20
