REMARK  Name = 
REMARK  3 active torsions:
REMARK  status: ('A' for Active; 'I' for Inactive)
REMARK    1  A    between atoms: C_7  and  C_8
REMARK    2  A    between atoms: N_13  and  C_14
REMARK    3  A    between atoms: C_14  and  C_15
REMARK                            x       y       z     vdW  Elec       q    Type
REMARK                         _______ _______ _______ _____ _____    ______ ____
ROOT
ATOM      1  C   UNL     1      -1.162  -0.293   0.348  0.00  0.00    +0.080 C 
ATOM      2  C   UNL     1      -0.294   0.691  -0.293  0.00  0.00    +0.032 A 
ATOM      3  C   UNL     1       1.090   0.692  -0.201  0.00  0.00    +0.053 A 
ATOM      4  C   UNL     1       1.742   1.729  -0.844  0.00  0.00    +0.016 A 
ATOM      5  C   UNL     1       1.044   2.878  -1.198  0.00  0.00    +0.013 A 
ATOM      6  C   UNL     1      -0.337   2.962  -1.075  0.00  0.00    +0.058 A 
ATOM      7 CL   UNL     1      -1.013   4.541  -0.690  0.00  0.00    -0.082 Cl
ATOM      8  N   UNL     1       1.944  -0.125   0.597  0.00  0.00    -0.276 N 
ATOM      9  C   UNL     1       1.495  -0.938   1.689  0.00  0.00    +0.090 C 
ATOM     10  S   UNL     1       2.695  -1.619   2.577  0.00  0.00    -0.037 S 
ATOM     11  C   UNL     1       0.162  -1.040   2.316  0.00  0.00    +0.174 C 
ATOM     12  C   UNL     1      -1.006   1.781  -0.776  0.00  0.00    +0.014 A 
ATOM     13  N   UNL     1      -0.919  -1.067   1.342  0.00  0.00    -0.264 NA
ENDROOT
BRANCH   1  16
ATOM     14  F   UNL     1      -3.523   0.557   1.616  0.00  0.00    -0.204 F 
ATOM     15  C   UNL     1      -3.597  -0.129   0.439  0.00  0.00    +0.142 A 
ATOM     16  C   UNL     1      -2.466  -0.395  -0.322  0.00  0.00    +0.045 A 
ATOM     17  C   UNL     1      -2.670  -1.266  -1.386  0.00  0.00    +0.004 A 
ATOM     18  C   UNL     1      -3.764  -2.121  -1.425  0.00  0.00    +0.000 A 
ATOM     19  C   UNL     1      -4.807  -1.956  -0.538  0.00  0.00    +0.002 A 
ATOM     20  C   UNL     1      -4.803  -0.773   0.189  0.00  0.00    +0.030 A 
ENDBRANCH   1  16
BRANCH   8  21
ATOM     21  C   UNL     1       3.353   0.128   0.455  0.00  0.00    +0.200 C 
BRANCH  21  22
ATOM     22  C   UNL     1       4.052  -0.846  -0.448  0.00  0.00    +0.416 C 
ATOM     23  F   UNL     1       3.459  -2.096  -0.457  0.00  0.00    -0.168 F 
ATOM     24  F   UNL     1       5.395  -0.935  -0.168  0.00  0.00    -0.168 F 
ATOM     25  F   UNL     1       3.931  -0.358  -1.746  0.00  0.00    -0.168 F 
ENDBRANCH  21  22
ENDBRANCH   8  21
TORSDOF 3
