REMARK  Name = 
REMARK  5 active torsions:
REMARK  status: ('A' for Active; 'I' for Inactive)
REMARK    1  A    between atoms: N_2  and  C_4
REMARK    2  A    between atoms: C_4  and  C_5
REMARK    3  A    between atoms: C_5  and  C_6
REMARK    4  A    between atoms: C_6  and  C_7
REMARK    5  A    between atoms: C_6  and  C_14
REMARK                            x       y       z     vdW  Elec       q    Type
REMARK                         _______ _______ _______ _____ _____    ______ ____
ROOT
ATOM      1  C   UNL     1      -0.717  -0.235   0.069  0.00  0.00    +0.064 C 
ENDROOT
BRANCH   1   2
ATOM      2  C   UNL     1       0.829  -0.548  -0.228  0.00  0.00    -0.017 A 
ATOM      3  C   UNL     1       1.221  -1.366   0.824  0.00  0.00    -0.003 A 
ATOM      4  C   UNL     1       2.527  -1.376   1.157  0.00  0.00    +0.006 A 
ATOM      5  C   UNL     1       3.410  -0.737   0.264  0.00  0.00    +0.035 A 
ATOM      6 BR   UNL     1       5.283  -0.854   0.666  0.00  0.00    -0.049 Br
ATOM      7  C   UNL     1       2.943  -0.270  -0.961  0.00  0.00    +0.006 A 
ATOM      8  C   UNL     1       1.586   0.011  -1.124  0.00  0.00    -0.003 A 
ENDBRANCH   1   2
BRANCH   1   9
ATOM      9  C   UNL     1      -0.764   1.316  -0.413  0.00  0.00    +0.063 A 
ATOM     10  N   UNL     1       0.307   2.038  -0.266  0.00  0.00    -0.248 NA
ATOM     11  C   UNL     1       0.214   3.384  -0.046  0.00  0.00    +0.098 A 
ATOM     12  C   UNL     1      -0.835   3.855   0.707  0.00  0.00    +0.021 A 
ATOM     13  C   UNL     1      -1.974   3.105   0.795  0.00  0.00    +0.003 A 
ATOM     14  C   UNL     1      -1.868   1.794   0.304  0.00  0.00    +0.015 A 
ENDBRANCH   1   9
BRANCH   1  15
ATOM     15  C   UNL     1      -1.197  -0.768  -1.415  0.00  0.00    +0.028 C 
BRANCH  15  16
ATOM     16  C   UNL     1      -2.297  -1.601  -1.091  0.00  0.00    +0.073 C 
BRANCH  16  18
ATOM     17  C   UNL     1      -2.404  -2.227   1.113  0.00  0.00    +0.090 C 
ATOM     18  N   UNL     1      -2.486  -2.438  -0.035  0.00  0.00    -0.270 NA
ATOM     19  C   UNL     1      -3.779  -3.086  -0.322  0.00  0.00    +0.090 C 
ENDBRANCH  16  18
ENDBRANCH  15  16
ENDBRANCH   1  15
TORSDOF 5
