REMARK  Name = 
REMARK  8 active torsions:
REMARK  status: ('A' for Active; 'I' for Inactive)
REMARK    1  A    between atoms: C_2  and  C_3
REMARK    2  A    between atoms: C_2  and  N_10
REMARK    3  A    between atoms: C_3  and  C_4
REMARK    4  A    between atoms: C_11  and  C_13
REMARK    5  A    between atoms: C_13  and  C_15
REMARK    6  A    between atoms: C_15  and  C_16
REMARK    7  A    between atoms: C_16  and  C_17
REMARK    8  A    between atoms: C_17  and  C_18
REMARK                            x       y       z     vdW  Elec       q    Type
REMARK                         _______ _______ _______ _____ _____    ______ ____
ROOT
ATOM      1  N   UNL     1       0.129  -0.142  -0.552  0.00  0.00    -0.206 NA
ATOM      2  C   UNL     1       1.051  -0.169   0.485  0.00  0.00    +0.259 C 
ATOM      3  O   UNL     1       0.830  -0.277   1.706  0.00  0.00    -0.272 OA
ENDROOT
BRANCH   2   4
ATOM      4  C   UNL     1       2.505  -0.872   0.201  0.00  0.00    +0.169 C 
ATOM      5  N   UNL     1       1.854  -2.121  -0.575  0.00  0.00    -0.123 NA
BRANCH   4   6
ATOM      6  C   UNL     1       2.710  -0.031  -1.236  0.00  0.00    +0.028 C 
BRANCH   6   7
ATOM      7  C   UNL     1       4.005   0.722  -1.037  0.00  0.00    +0.004 C 
BRANCH   7   8
ATOM      8  C   UNL     1       4.818   0.171   0.116  0.00  0.00    +0.021 C 
BRANCH   8   9
ATOM      9  C   UNL     1       6.040  -0.584  -0.340  0.00  0.00    +0.109 C 
ATOM     10  N   UNL     1       7.166   0.331  -0.488  0.00  0.00    -0.131 NA
ENDBRANCH   8   9
ENDBRANCH   7   8
ENDBRANCH   6   7
ENDBRANCH   4   6
ENDBRANCH   2   4
BRANCH   1  12
ATOM     11  C   UNL     1      -0.984   1.669   0.443  0.00  0.00    +0.024 C 
ATOM     12  C   UNL     1      -1.312   0.067   0.111  0.00  0.00    +0.100 C 
BRANCH  12  13
ATOM     13  C   UNL     1      -1.996   0.465  -1.359  0.00  0.00    +0.048 C 
BRANCH  13  14
ATOM     14  C   UNL     1      -3.428   0.447  -0.909  0.00  0.00    -0.020 A 
ATOM     15  C   UNL     1      -3.899   1.351   0.037  0.00  0.00    -0.004 A 
ATOM     16  C   UNL     1      -5.026   1.086   0.807  0.00  0.00    -0.000 A 
ATOM     17  C   UNL     1      -5.258  -0.262   1.063  0.00  0.00    -0.000 A 
ATOM     18  C   UNL     1      -5.136  -1.067  -0.065  0.00  0.00    -0.000 A 
ATOM     19  C   UNL     1      -4.072  -0.785  -0.903  0.00  0.00    -0.004 A 
ENDBRANCH  13  14
ENDBRANCH  12  13
ENDBRANCH   1  12
TORSDOF 8
