REMARK  Name = 
REMARK  4 active torsions:
REMARK  status: ('A' for Active; 'I' for Inactive)
REMARK    1  A    between atoms: C_2  and  C_3
REMARK    2  A    between atoms: C_8  and  N_9
REMARK    3  A    between atoms: C_12  and  N_13
REMARK    4  A    between atoms: C_28  and  C_29
REMARK                            x       y       z     vdW  Elec       q    Type
REMARK                         _______ _______ _______ _____ _____    ______ ____
ROOT
ATOM      1  C   UNL     1       0.945  -1.897   0.272  0.00  0.00    -0.009 A 
ATOM      2  C   UNL     1       1.454  -0.731  -0.288  0.00  0.00    +0.043 A 
ATOM      3  C   UNL     1       0.764   0.438   0.009  0.00  0.00    +0.010 A 
ATOM      4  C   UNL     1      -0.498   0.441   0.541  0.00  0.00    -0.013 A 
ATOM      5  C   UNL     1      -1.321   1.660   0.730  0.00  0.00    +0.054 C 
ATOM      6  C   UNL     1      -2.760   1.378   0.431  0.00  0.00    +0.065 A 
ATOM      7  C   UNL     1      -3.337   0.191   0.860  0.00  0.00    +0.054 A 
ATOM      8  C   UNL     1      -2.403  -0.842   1.319  0.00  0.00    +0.196 C 
ATOM      9  O   UNL     1      -2.912  -1.877   1.819  0.00  0.00    -0.287 OA
ATOM     10  C   UNL     1      -4.622   0.083   0.342  0.00  0.00    +0.022 A 
ATOM     11  C   UNL     1      -4.844   1.282  -0.318  0.00  0.00    +0.082 A 
ATOM     12  C   UNL     1      -6.143   1.496  -0.763  0.00  0.00    +0.029 A 
ATOM     13  C   UNL     1      -7.082   0.484  -0.770  0.00  0.00    +0.070 A 
ATOM     14  C   UNL     1      -6.607  -0.814  -0.689  0.00  0.00    +0.010 A 
ATOM     15  C   UNL     1      -5.410  -0.997  -0.033  0.00  0.00    +0.002 A 
ATOM     16  N   UNL     1      -3.753   2.060  -0.158  0.00  0.00    -0.249 NA
ATOM     17  C   UNL     1      -1.266   2.018   2.211  0.00  0.00    +0.010 C 
ATOM     18  C   UNL     1      -0.861   2.815  -0.113  0.00  0.00    +0.010 C 
ATOM     19  C   UNL     1      -0.951  -0.716   1.151  0.00  0.00    +0.035 A 
ATOM     20  C   UNL     1      -0.159  -1.857   1.115  0.00  0.00    -0.000 A 
ENDROOT
BRANCH   2  21
ATOM     21  N   UNL     1       2.862  -0.617  -0.526  0.00  0.00    -0.308 N 
ATOM     22  C   UNL     1       3.413  -1.528  -1.510  0.00  0.00    +0.092 C 
ATOM     23  C   UNL     1       4.878  -1.318  -1.751  0.00  0.00    +0.037 C 
ATOM     24  C   UNL     1       5.668  -1.157  -0.465  0.00  0.00    +0.061 C 
ATOM     25  C   UNL     1       4.713  -1.492   0.676  0.00  0.00    +0.037 C 
ATOM     26  C   UNL     1       3.672  -0.377   0.666  0.00  0.00    +0.092 C 
BRANCH  24  27
ATOM     27  N   UNL     1       5.935   0.274  -0.336  0.00  0.00    -0.270 NA
ATOM     28  C   UNL     1       6.468   0.478   0.989  0.00  0.00    +0.105 C 
ATOM     29  C   UNL     1       7.031   1.868   1.148  0.00  0.00    +0.159 C 
ATOM     30  O   UNL     1       7.990   2.086   0.156  0.00  0.00    -0.351 OA
ATOM     31  C   UNL     1       7.305   2.078  -1.064  0.00  0.00    +0.159 C 
ATOM     32  C   UNL     1       6.829   0.691  -1.387  0.00  0.00    +0.105 C 
ENDBRANCH  24  27
ENDBRANCH   2  21
BRANCH   1  34
ATOM     33  C   UNL     1       1.541  -4.092   1.075  0.00  0.00    +0.005 C 
ATOM     34  C   UNL     1       1.578  -3.182  -0.141  0.00  0.00    +0.028 C 
ENDBRANCH   1  34
BRANCH  13  35
ATOM     35  C   UNL     1      -8.486   0.783  -0.875  0.00  0.00    +0.100 C 
ATOM     36  N   UNL     1      -9.630   0.888  -1.030  0.00  0.00    -0.191 NA
ENDBRANCH  13  35
TORSDOF 4
