REMARK  Name = 
REMARK  8 active torsions:
REMARK  status: ('A' for Active; 'I' for Inactive)
REMARK    1  A    between atoms: C_2  and  C_3
REMARK    2  A    between atoms: C_3  and  C_4
REMARK    3  A    between atoms: C_6  and  C_7
REMARK    4  A    between atoms: C_11  and  C_12
REMARK    5  A    between atoms: N_15  and  C_16
REMARK    6  A    between atoms: C_16  and  C_17
REMARK    7  A    between atoms: C_20  and  C_21
REMARK    8  A    between atoms: C_26  and  C_27
REMARK                            x       y       z     vdW  Elec       q    Type
REMARK                         _______ _______ _______ _____ _____    ______ ____
ROOT
ATOM      1  C   UNL     1      -0.383  -0.513  -1.212  0.00  0.00    +0.000 A 
ATOM      2  C   UNL     1       0.282   0.243  -2.164  0.00  0.00    -0.002 A 
ATOM      3  C   UNL     1       1.615   0.515  -1.918  0.00  0.00    -0.000 A 
ATOM      4  C   UNL     1       2.188   0.360  -0.660  0.00  0.00    -0.001 A 
ATOM      5  C   UNL     1       1.327   0.064   0.361  0.00  0.00    -0.000 A 
ATOM      6  C   UNL     1       0.159  -0.620   0.044  0.00  0.00    -0.002 A 
ENDROOT
BRANCH   4   7
ATOM      7  C   UNL     1       3.441   1.106  -0.472  0.00  0.00    -0.006 A 
ATOM      8  C   UNL     1       4.593   0.328  -0.514  0.00  0.00    -0.015 A 
ATOM      9  C   UNL     1       5.718   0.837  -1.155  0.00  0.00    -0.007 A 
ATOM     10  C   UNL     1       5.776   2.160  -1.577  0.00  0.00    -0.001 A 
ATOM     11  C   UNL     1       4.797   3.018  -1.088  0.00  0.00    -0.000 A 
ATOM     12  C   UNL     1       3.554   2.431  -0.881  0.00  0.00    -0.001 A 
BRANCH   8  13
ATOM     13  C   UNL     1       4.636  -0.795   0.400  0.00  0.00    +0.044 A 
ATOM     14  N   UNL     1       5.670  -0.987   1.255  0.00  0.00    -0.289 NA
ATOM     15  N   UNL     1       5.255  -1.796   2.205  0.00  0.00    -0.218 NA
ATOM     16  N   UNL     1       4.174  -2.394   1.709  0.00  0.00    -0.218 NA
ATOM     17  N   UNL     1       3.895  -1.896   0.504  0.00  0.00    -0.289 NA
ENDBRANCH   8  13
ENDBRANCH   4   7
BRANCH   1  18
ATOM     18  C   UNL     1      -1.788  -0.876  -1.537  0.00  0.00    +0.134 C 
BRANCH  18  20
ATOM     19  C   UNL     1      -2.788  -1.550   0.624  0.00  0.00    +0.120 A 
ATOM     20  N   UNL     1      -2.683  -0.692  -0.420  0.00  0.00    -0.306 N 
ATOM     21  C   UNL     1      -3.316   0.450  -0.073  0.00  0.00    +0.158 A 
ATOM     22  C   UNL     1      -3.867   0.269   1.189  0.00  0.00    +0.110 A 
ATOM     23  N   UNL     1      -3.228  -0.825   1.671  0.00  0.00    -0.233 NA
BRANCH  22  24
ATOM     24  C   UNL     1      -4.298   1.389   2.072  0.00  0.00    +0.163 C 
ATOM     25  O   UNL     1      -3.228   2.265   2.211  0.00  0.00    -0.220 OA
ATOM     26  C   UNL     1      -5.511   2.106   1.514  0.00  0.00    +0.039 C 
ATOM     27  C   UNL     1      -4.686   0.825   3.433  0.00  0.00    +0.039 C 
ENDBRANCH  22  24
BRANCH  21  28
ATOM     28  C   UNL     1      -3.734   1.459  -1.048  0.00  0.00    +0.405 C 
ATOM     29  O   UNL     1      -4.042   1.092  -2.362  0.00  0.00    -0.239 OA
ATOM     30  O   UNL     1      -3.564   2.694  -0.854  0.00  0.00    -0.239 OA
ENDBRANCH  21  28
BRANCH  19  31
ATOM     31  C   UNL     1      -2.692  -3.041   0.534  0.00  0.00    +0.064 C 
BRANCH  31  33
ATOM     32  C   UNL     1      -3.373  -4.051  -1.569  0.00  0.00    +0.000 C 
ATOM     33  C   UNL     1      -3.898  -3.574  -0.225  0.00  0.00    +0.008 C 
ENDBRANCH  31  33
ENDBRANCH  19  31
ENDBRANCH  18  20
ENDBRANCH   1  18
TORSDOF 8
