REMARK  Name = 
REMARK  5 active torsions:
REMARK  status: ('A' for Active; 'I' for Inactive)
REMARK    1  A    between atoms: C_2  and  C_3
REMARK    2  A    between atoms: C_4  and  C_5
REMARK    3  A    between atoms: C_6  and  C_8
REMARK    4  A    between atoms: C_9  and  C_10
REMARK    5  A    between atoms: C_19  and  C_20
REMARK                            x       y       z     vdW  Elec       q    Type
REMARK                         _______ _______ _______ _____ _____    ______ ____
ROOT
ATOM      1  C   UNL     1       0.541  -2.395   0.009  0.00  0.00    -0.004 C 
ATOM      2  C   UNL     1      -0.509  -1.918  -0.662  0.00  0.00    -0.022 C 
ATOM      3  C   UNL     1      -1.494  -2.816  -1.340  0.00  0.00    +0.031 C 
ENDROOT
BRANCH   1   5
ATOM      4  C   UNL     1       2.757  -1.633   0.730  0.00  0.00    -0.004 C 
ATOM      5  C   UNL     1       1.896  -1.878  -0.229  0.00  0.00    -0.001 C 
BRANCH   4   7
ATOM      6  C   UNL     1       4.955  -1.063  -0.427  0.00  0.00    +0.031 C 
ATOM      7  C   UNL     1       3.868  -0.700   0.506  0.00  0.00    -0.015 C 
ATOM      8  C   UNL     1       4.038   0.364   1.282  0.00  0.00    +0.082 C 
BRANCH   8   9
ATOM      9  C   UNL     1       4.885   1.484   0.859  0.00  0.00    +0.388 C 
ATOM     10  O   UNL     1       4.331   2.757   1.014  0.00  0.00    -0.241 OA
ATOM     11  O   UNL     1       5.685   1.287  -0.101  0.00  0.00    -0.241 OA
ENDBRANCH   8   9
ENDBRANCH   4   7
ENDBRANCH   1   5
BRANCH   2  12
ATOM     12  C   UNL     1      -0.321  -0.559  -1.191  0.00  0.00    -0.005 C 
ATOM     13  C   UNL     1      -0.941   0.371  -0.462  0.00  0.00    -0.005 C 
BRANCH  13  14
ATOM     14  C   UNL     1      -2.401   0.199  -0.397  0.00  0.00    -0.031 C 
ATOM     15  C   UNL     1      -3.125   0.110   0.911  0.00  0.00    +0.018 C 
ATOM     16  C   UNL     1      -2.461  -0.808   1.885  0.00  0.00    +0.004 C 
ATOM     17  C   UNL     1      -4.550  -0.329   0.593  0.00  0.00    +0.004 C 
ATOM     18  C   UNL     1      -3.255   1.531   1.431  0.00  0.00    +0.004 C 
ATOM     19  C   UNL     1      -3.919   2.374   0.378  0.00  0.00    +0.005 C 
ATOM     20  C   UNL     1      -4.352   1.561  -0.834  0.00  0.00    +0.022 C 
ATOM     21  C   UNL     1      -3.114   0.865  -1.312  0.00  0.00    -0.048 C 
ATOM     22  C   UNL     1      -2.516   1.197  -2.643  0.00  0.00    +0.026 C 
ENDBRANCH  13  14
ENDBRANCH   2  12
TORSDOF 5
