REMARK  Name = 
REMARK  8 active torsions:
REMARK  status: ('A' for Active; 'I' for Inactive)
REMARK    1  A    between atoms: O_2  and  C_3
REMARK    2  A    between atoms: C_9  and  C_10
REMARK    3  A    between atoms: N_12  and  C_13
REMARK    4  A    between atoms: C_13  and  C_14
REMARK    5  A    between atoms: C_14  and  C_15
REMARK    6  A    between atoms: C_18  and  S_19
REMARK    7  A    between atoms: S_19  and  N_22
REMARK    8  A    between atoms: N_25  and  C_26
REMARK                            x       y       z     vdW  Elec       q    Type
REMARK                         _______ _______ _______ _____ _____    ______ ____
ROOT
ATOM      1  C   UNL     1      -0.513  -0.803   1.313  0.00  0.00    -0.020 A 
ATOM      2  C   UNL     1       0.641  -1.432   1.764  0.00  0.00    -0.003 A 
ATOM      3  C   UNL     1       1.635  -1.853   0.889  0.00  0.00    +0.020 A 
ATOM      4  C   UNL     1       1.465  -1.689  -0.480  0.00  0.00    +0.129 A 
ATOM      5  C   UNL     1       0.159  -1.475  -0.897  0.00  0.00    +0.020 A 
ATOM      6  C   UNL     1      -0.805  -0.987  -0.033  0.00  0.00    -0.003 A 
ENDROOT
BRANCH   4   7
ATOM      7  S   UNL     1       2.820  -1.437  -1.560  0.00  0.00    +0.104 S 
ATOM      8  O   UNL     1       3.218  -2.754  -2.148  0.00  0.00    -0.146 OA
ATOM      9  O   UNL     1       2.479  -0.522  -2.693  0.00  0.00    -0.146 OA
BRANCH   7  10
ATOM     10  N   UNL     1       4.169  -0.731  -0.724  0.00  0.00    -0.071 NA
ATOM     11  C   UNL     1       4.837  -1.508   0.045  0.00  0.00    +0.371 C 
ATOM     12  N   UNL     1       5.985  -0.991   0.677  0.00  0.00    -0.185 NA
ATOM     13  O   UNL     1       4.609  -2.876   0.159  0.00  0.00    -0.244 OA
BRANCH  12  14
ATOM     14  C   UNL     1       6.589   0.281   0.410  0.00  0.00    +0.097 C 
ATOM     15  C   UNL     1       6.178   1.366   1.363  0.00  0.00    +0.022 C 
ATOM     16  C   UNL     1       7.228   2.470   1.317  0.00  0.00    +0.002 C 
ATOM     17  C   UNL     1       8.040   2.401   0.030  0.00  0.00    +0.000 C 
ATOM     18  C   UNL     1       7.086   2.116  -1.098  0.00  0.00    +0.002 C 
ATOM     19  C   UNL     1       6.535   0.697  -1.032  0.00  0.00    +0.022 C 
ENDBRANCH  12  14
ENDBRANCH   7  10
ENDBRANCH   4   7
BRANCH   1  20
ATOM     20  C   UNL     1      -1.210   0.239   2.129  0.00  0.00    +0.050 C 
BRANCH  20  21
ATOM     21  C   UNL     1      -1.768   1.315   1.216  0.00  0.00    +0.120 C 
BRANCH  21  23
ATOM     22  C   UNL     1      -3.968   1.417   0.025  0.00  0.00    +0.268 C 
ATOM     23  N   UNL     1      -2.824   0.676   0.440  0.00  0.00    -0.201 NA
ATOM     24  O   UNL     1      -3.780   2.598  -0.328  0.00  0.00    -0.268 OA
BRANCH  22  26
ATOM     25  C   UNL     1      -6.417   1.417   0.148  0.00  0.00    +0.143 A 
ATOM     26  C   UNL     1      -5.252   0.752  -0.212  0.00  0.00    +0.090 A 
ATOM     27  C   UNL     1      -5.351  -0.605  -0.405  0.00  0.00    +0.019 A 
ATOM     28  C   UNL     1      -6.471  -1.301   0.018  0.00  0.00    +0.058 A 
ATOM     29 CL   UNL     1      -6.513  -3.034  -0.238  0.00  0.00    -0.082 Cl
ATOM     30  C   UNL     1      -7.494  -0.674   0.678  0.00  0.00    +0.015 A 
ATOM     31  C   UNL     1      -7.508   0.714   0.642  0.00  0.00    +0.038 A 
BRANCH  25  33
ATOM     32  C   UNL     1      -7.336   3.405  -0.946  0.00  0.00    +0.252 C 
ATOM     33  O   UNL     1      -6.465   2.807   0.006  0.00  0.00    -0.471 OA
ENDBRANCH  25  33
ENDBRANCH  22  26
ENDBRANCH  21  23
ENDBRANCH  20  21
ENDBRANCH   1  20
TORSDOF 8
