REMARK  Name = 
REMARK  1 active torsions:
REMARK  status: ('A' for Active; 'I' for Inactive)
REMARK    1  A    between atoms: O_2  and  C_3
REMARK                            x       y       z     vdW  Elec       q    Type
REMARK                         _______ _______ _______ _____ _____    ______ ____
ROOT
ATOM      1  C   UNL     1      -0.439   0.935  -0.248  0.00  0.00    +0.207 A 
ATOM      2  C   UNL     1       0.664   0.111  -0.085  0.00  0.00    +0.185 A 
ATOM      3  C   UNL     1       0.516  -1.245  -0.330  0.00  0.00    +0.038 A 
ATOM      4  C   UNL     1       1.637  -2.057  -0.318  0.00  0.00    +0.010 A 
ATOM      5  C   UNL     1       2.823  -1.426   0.012  0.00  0.00    +0.082 A 
ATOM      6  C   UNL     1       2.844  -0.109   0.444  0.00  0.00    +0.346 A 
ATOM      7  O   UNL     1       3.976   0.431   0.548  0.00  0.00    -0.244 OA
ATOM      8  C   UNL     1      -0.751  -1.737  -0.601  0.00  0.00    +0.006 A 
ATOM      9  C   UNL     1      -1.878  -0.955  -0.370  0.00  0.00    +0.041 A 
ATOM     10  C   UNL     1      -3.132  -1.239   0.156  0.00  0.00    +0.044 A 
ATOM     11  C   UNL     1      -3.649  -0.071   0.704  0.00  0.00    +0.180 A 
ATOM     12  O   UNL     1      -2.894   0.891   0.202  0.00  0.00    -0.447 OA
ATOM     13  O   UNL     1       1.754   0.635   0.399  0.00  0.00    -0.418 OA
ATOM     14  C   UNL     1      -1.719   0.406  -0.146  0.00  0.00    +0.182 A 
ENDROOT
BRANCH   1  16
ATOM     15  C   UNL     1       0.555   3.154   0.165  0.00  0.00    +0.253 C 
ATOM     16  O   UNL     1      -0.307   2.276  -0.532  0.00  0.00    -0.465 OA
ENDBRANCH   1  16
TORSDOF 1
