REMARK  Name = 
REMARK  2 active torsions:
REMARK  status: ('A' for Active; 'I' for Inactive)
REMARK    1  A    between atoms: C_4  and  C_5
REMARK    2  A    between atoms: N_7  and  C_8
REMARK                            x       y       z     vdW  Elec       q    Type
REMARK                         _______ _______ _______ _____ _____    ______ ____
ROOT
ATOM      1  C   UNL     1      -0.648   1.182   0.425  0.00  0.00    +0.284 C 
ATOM      2  N   UNL     1       0.192   0.441  -0.435  0.00  0.00    -0.202 NA
ATOM      3  O   UNL     1      -0.196   2.274   0.871  0.00  0.00    -0.267 OA
ENDROOT
BRANCH   1  11
ATOM      4  C   UNL     1      -5.014   1.433  -1.524  0.00  0.00    +0.154 C 
ATOM      5  N   UNL     1      -4.060   0.998  -0.609  0.00  0.00    -0.249 N 
ATOM      6  C   UNL     1      -3.949  -0.169   0.056  0.00  0.00    +0.080 A 
ATOM      7  C   UNL     1      -2.746  -0.212   0.750  0.00  0.00    +0.041 A 
ATOM      8  C   UNL     1      -2.241  -1.415   1.229  0.00  0.00    +0.003 A 
ATOM      9  C   UNL     1      -3.163  -2.440   1.361  0.00  0.00    +0.000 A 
ATOM     10  C   UNL     1      -4.303  -2.442   0.581  0.00  0.00    +0.002 A 
ATOM     11  C   UNL     1      -2.091   0.942   0.343  0.00  0.00    +0.157 A 
ATOM     12  C   UNL     1      -4.773  -1.267   0.013  0.00  0.00    +0.019 A 
ATOM     13  N   UNL     1      -2.915   1.658  -0.434  0.00  0.00    -0.165 NA
ENDBRANCH   1  11
BRANCH   2  14
ATOM     14  C   UNL     1       1.527   0.316  -0.175  0.00  0.00    +0.098 C 
ATOM     15  C   UNL     1       2.478   1.370  -0.792  0.00  0.00    +0.038 C 
ATOM     16  C   UNL     1       3.595   0.667   0.162  0.00  0.00    +0.059 C 
ATOM     17  N   UNL     1       3.487  -0.624  -0.749  0.00  0.00    -0.274 NA
ATOM     18  C   UNL     1       3.276  -1.449   0.553  0.00  0.00    +0.059 C 
ATOM     19  C   UNL     1       4.519  -0.726   1.356  0.00  0.00    +0.016 C 
ATOM     20  C   UNL     1       5.538  -0.103   0.467  0.00  0.00    +0.003 C 
ATOM     21  C   UNL     1       4.421  -1.005  -1.554  0.00  0.00    +0.090 C 
ATOM     22  C   UNL     1       5.035   1.023  -0.490  0.00  0.00    +0.016 C 
ATOM     23  C   UNL     1       2.029  -0.450   1.003  0.00  0.00    +0.038 C 
ENDBRANCH   2  14
TORSDOF 2
