REMARK  Name = 
REMARK  6 active torsions:
REMARK  status: ('A' for Active; 'I' for Inactive)
REMARK    1  A    between atoms: C_2  and  C_4
REMARK    2  A    between atoms: C_6  and  N_7
REMARK    3  A    between atoms: N_8  and  C_9
REMARK    4  A    between atoms: C_12  and  S_13
REMARK    5  A    between atoms: S_13  and  N_16
REMARK    6  A    between atoms: N_16  and  C_17
REMARK                            x       y       z     vdW  Elec       q    Type
REMARK                         _______ _______ _______ _____ _____    ______ ____
ROOT
ATOM      1  C   UNL     1      -0.199   0.223  -0.073  0.00  0.00    +0.103 A 
ATOM      2  C   UNL     1       0.638   0.415  -1.166  0.00  0.00    +0.022 A 
ATOM      3  C   UNL     1       1.726  -0.434  -1.333  0.00  0.00    +0.022 A 
ATOM      4  C   UNL     1       1.966  -1.495  -0.469  0.00  0.00    +0.127 A 
ATOM      5  C   UNL     1       0.938  -1.867   0.388  0.00  0.00    +0.022 A 
ATOM      6  C   UNL     1      -0.193  -1.061   0.453  0.00  0.00    +0.022 A 
ENDROOT
BRANCH   4   7
ATOM      7  S   UNL     1       3.610  -1.982  -0.075  0.00  0.00    +0.094 S 
ATOM      8  O   UNL     1       3.541  -3.317   0.600  0.00  0.00    -0.148 OA
ATOM      9  O   UNL     1       4.427  -2.009  -1.329  0.00  0.00    -0.148 OA
BRANCH   7  10
ATOM     10  N   UNL     1       4.229  -0.774   1.008  0.00  0.00    -0.077 NA
BRANCH  10  11
ATOM     11  C   UNL     1       5.088   0.244   0.510  0.00  0.00    +0.172 A 
ATOM     12  N   UNL     1       6.428   0.114   0.491  0.00  0.00    -0.226 NA
ATOM     13  C   UNL     1       7.209   0.886  -0.296  0.00  0.00    +0.100 A 
ATOM     14  C   UNL     1       6.642   1.631  -1.320  0.00  0.00    +0.021 A 
ATOM     15  C   UNL     1       5.291   1.909  -1.246  0.00  0.00    +0.005 A 
ATOM     16  C   UNL     1       4.575   1.300  -0.229  0.00  0.00    +0.038 A 
ENDBRANCH  10  11
ENDBRANCH   7  10
ENDBRANCH   4   7
BRANCH   1  18
ATOM     17  N   UNL     1      -1.991   1.261   1.095  0.00  0.00    -0.148 NA
ATOM     18  N   UNL     1      -1.250   1.142   0.088  0.00  0.00    -0.148 NA
BRANCH  17  24
ATOM     19  C   UNL     1      -5.186   0.052  -0.045  0.00  0.00    +0.120 A 
ATOM     20  C   UNL     1      -5.833   1.237  -0.370  0.00  0.00    +0.202 A 
ATOM     21  O   UNL     1      -7.185   1.216  -0.729  0.00  0.00    -0.286 OA
ATOM     22  C   UNL     1      -5.300   2.449   0.053  0.00  0.00    +0.044 A 
ATOM     23  C   UNL     1      -4.098   2.498   0.745  0.00  0.00    +0.024 A 
ATOM     24  C   UNL     1      -3.421   1.318   1.013  0.00  0.00    +0.103 A 
ATOM     25  C   UNL     1      -4.170   0.153   0.898  0.00  0.00    +0.031 A 
BRANCH  19  27
ATOM     26  O   UNL     1      -5.771  -1.738  -1.436  0.00  0.00    -0.240 OA
ATOM     27  C   UNL     1      -5.853  -1.232  -0.277  0.00  0.00    +0.391 C 
ATOM     28  O   UNL     1      -5.858  -2.140   0.783  0.00  0.00    -0.240 OA
ENDBRANCH  19  27
ENDBRANCH  17  24
ENDBRANCH   1  18
TORSDOF 6
