REMARK  Name = 
REMARK  5 active torsions:
REMARK  status: ('A' for Active; 'I' for Inactive)
REMARK    1  A    between atoms: C_2  and  C_4
REMARK    2  A    between atoms: C_4  and  C_5
REMARK    3  A    between atoms: C_5  and  C_6
REMARK    4  A    between atoms: C_5  and  C_8
REMARK    5  A    between atoms: C_8  and  C_9
REMARK                            x       y       z     vdW  Elec       q    Type
REMARK                         _______ _______ _______ _____ _____    ______ ____
ROOT
ATOM      1  C   UNL     1      -0.370   0.312  -1.212  0.00  0.00    +0.030 C 
ENDROOT
BRANCH   1   2
ATOM      2  C   UNL     1      -0.155  -1.300  -1.532  0.00  0.00    +0.110 C 
ATOM      3  N   UNL     1       0.794  -1.772  -0.571  0.00  0.00    -0.131 NA
ENDBRANCH   1   2
BRANCH   1   4
ATOM      4  C   UNL     1      -0.525   0.030   0.417  0.00  0.00    +0.002 C 
BRANCH   4   6
ATOM      5  C   UNL     1      -2.764   1.029   0.351  0.00  0.00    +0.000 C 
ATOM      6  C   UNL     1      -2.010  -0.191   0.500  0.00  0.00    +0.000 C 
ATOM      7  C   UNL     1      -2.465  -0.924   1.719  0.00  0.00    +0.000 C 
ENDBRANCH   4   6
ENDBRANCH   1   4
BRANCH   1   8
ATOM      8  C   UNL     1       1.257   0.598  -1.194  0.00  0.00    +0.116 C 
BRANCH   8   9
ATOM      9  C   UNL     1       1.761   0.635   0.140  0.00  0.00    +0.365 C 
ATOM     10  O   UNL     1       3.034   0.093   0.359  0.00  0.00    -0.246 OA
ATOM     11  O   UNL     1       1.444   1.490   1.022  0.00  0.00    -0.246 OA
ENDBRANCH   8   9
ENDBRANCH   1   8
TORSDOF 5
