REMARK  Name = 
REMARK  3 active torsions:
REMARK  status: ('A' for Active; 'I' for Inactive)
REMARK    1  A    between atoms: C_4  and  O_5
REMARK    2  A    between atoms: O_5  and  C_6
REMARK    3  A    between atoms: C_35  and  C_36
REMARK                            x       y       z     vdW  Elec       q    Type
REMARK                         _______ _______ _______ _____ _____    ______ ____
ROOT
ATOM      1  C   UNL     1       1.706   0.315   1.502  0.00  0.00    +0.142 C 
ATOM      2  C   UNL     1       0.917  -1.019   0.933  0.00  0.00    +0.064 C 
ATOM      3  C   UNL     1       1.888  -1.650  -0.229  0.00  0.00    +0.134 C 
ATOM      4  O   UNL     1       0.816  -2.388  -0.947  0.00  0.00    -0.334 OA
ATOM      5  C   UNL     1      -0.156  -2.946  -0.441  0.00  0.00    +0.224 C 
ATOM      6  C   UNL     1       0.115  -3.433   0.974  0.00  0.00    +0.093 C 
ATOM      7  C   UNL     1       1.466  -4.191   0.414  0.00  0.00    +0.170 C 
ATOM      8  O   UNL     1       1.854  -4.781   1.771  0.00  0.00    -0.222 OA
ATOM      9  O   UNL     1      -0.442  -4.203  -1.094  0.00  0.00    -0.195 OA
ATOM     10  C   UNL     1      -1.487  -2.351  -0.611  0.00  0.00    +0.092 C 
ATOM     11  C   UNL     1      -2.524  -3.233   0.359  0.00  0.00    +0.159 C 
ATOM     12  O   UNL     1      -2.712  -1.977   1.196  0.00  0.00    -0.223 OA
ATOM     13  C   UNL     1      -3.679  -3.060  -0.742  0.00  0.00    +0.065 C 
ATOM     14  C   UNL     1      -5.146  -2.609  -0.240  0.00  0.00    +0.149 C 
ATOM     15  C   UNL     1      -4.606  -1.046   0.113  0.00  0.00    +0.164 C 
ATOM     16  C   UNL     1      -6.095  -0.391   0.036  0.00  0.00    +0.012 C 
ATOM     17  C   UNL     1      -6.501   0.208   1.122  0.00  0.00    +0.080 C 
ATOM     18  C   UNL     1      -5.982   1.567   1.286  0.00  0.00    +0.341 C 
ATOM     19  O   UNL     1      -6.658   2.319   1.972  0.00  0.00    -0.245 OA
ATOM     20  O   UNL     1      -4.846   1.685   0.467  0.00  0.00    -0.449 OA
ATOM     21  C   UNL     1      -5.455   2.112  -0.878  0.00  0.00    +0.174 C 
ATOM     22  C   UNL     1      -4.721   1.142  -1.992  0.00  0.00    +0.048 C 
ATOM     23  C   UNL     1      -4.146   3.075  -1.160  0.00  0.00    +0.070 C 
ATOM     24  C   UNL     1      -3.755   3.853  -0.025  0.00  0.00    -0.022 C 
ATOM     25  C   UNL     1      -2.870   4.770  -0.217  0.00  0.00    -0.004 C 
ATOM     26  C   UNL     1      -1.662   4.627  -1.038  0.00  0.00    -0.000 C 
ATOM     27  C   UNL     1      -1.367   3.585  -1.621  0.00  0.00    -0.000 C 
ATOM     28  C   UNL     1       0.057   3.424  -1.166  0.00  0.00    -0.000 C 
ATOM     29  C   UNL     1       0.083   2.187  -1.402  0.00  0.00    -0.000 C 
ATOM     30  C   UNL     1       0.568   1.046  -0.644  0.00  0.00    -0.002 C 
ATOM     31  O   UNL     1      -4.851  -2.156   1.330  0.00  0.00    -0.349 OA
ATOM     32  C   UNL     1       2.561  -2.923   0.680  0.00  0.00    +0.161 C 
ATOM     33  C   UNL     1       1.073   1.406   0.493  0.00  0.00    +0.003 C 
ENDROOT
BRANCH  32  34
ATOM     34  C   UNL     1       3.502  -3.390  -0.512  0.00  0.00    +0.369 C 
ATOM     35  O   UNL     1       4.545  -4.156  -0.015  0.00  0.00    -0.245 OA
ATOM     36  O   UNL     1       3.012  -3.900  -1.553  0.00  0.00    -0.245 OA
ENDBRANCH  32  34
BRANCH   1  37
ATOM     37  O   UNL     1       2.962   0.224   0.658  0.00  0.00    -0.327 OA
BRANCH  37  46
ATOM     38  C   UNL     1       5.009   3.286   1.828  0.00  0.00    +0.035 C 
ATOM     39  C   UNL     1       5.909   1.926   1.607  0.00  0.00    +0.150 C 
ATOM     40  C   UNL     1       6.273   2.212  -0.042  0.00  0.00    +0.199 C 
ATOM     41  O   UNL     1       7.518   1.376   0.052  0.00  0.00    -0.219 OA
ATOM     42  C   UNL     1       5.431   0.890  -0.659  0.00  0.00    +0.160 C 
ATOM     43  N   UNL     1       5.809   1.255  -2.117  0.00  0.00    -0.127 NA
ATOM     44  C   UNL     1       3.915   1.634  -0.812  0.00  0.00    +0.228 C 
ATOM     45  O   UNL     1       4.330   3.070  -0.938  0.00  0.00    -0.216 OA
ATOM     46  C   UNL     1       3.551   1.631   0.889  0.00  0.00    +0.268 C 
ATOM     47  O   UNL     1       4.791   0.980   1.417  0.00  0.00    -0.328 OA
ENDBRANCH  37  46
ENDBRANCH   1  37
TORSDOF 3
