REMARK  Name = 
REMARK  12 active torsions:
REMARK  status: ('A' for Active; 'I' for Inactive)
REMARK    1  A    between atoms: C_2  and  N_3
REMARK    2  A    between atoms: C_4  and  C_6
REMARK    3  A    between atoms: C_6  and  C_7
REMARK    4  A    between atoms: C_7  and  C_8
REMARK    5  A    between atoms: C_8  and  C_9
REMARK    6  A    between atoms: C_10  and  C_11
REMARK    7  A    between atoms: C_11  and  C_12
REMARK    8  A    between atoms: C_13  and  C_14
REMARK    9  A    between atoms: C_15  and  C_16
REMARK   10  A    between atoms: C_16  and  C_18
REMARK   11  A    between atoms: C_18  and  C_19
REMARK   12  A    between atoms: C_19  and  C_20
REMARK                            x       y       z     vdW  Elec       q    Type
REMARK                         _______ _______ _______ _____ _____    ______ ____
ROOT
ATOM      1  C   UNL     1       0.530  -0.347   0.472  0.00  0.00    +0.041 C 
ATOM      2  C   UNL     1       0.185   0.519  -0.969  0.00  0.00    +0.155 C 
ATOM      3  O   UNL     1       1.620   0.891  -1.305  0.00  0.00    -0.223 OA
ATOM      4  C   UNL     1       0.291  -0.863  -1.882  0.00  0.00    +0.066 C 
ATOM      5  C   UNL     1      -1.210  -0.889  -1.203  0.00  0.00    +0.159 C 
ATOM      6  O   UNL     1      -1.546  -2.242  -1.799  0.00  0.00    -0.223 OA
ATOM      7  C   UNL     1      -0.515  -1.617   0.161  0.00  0.00    +0.055 C 
ENDROOT
BRANCH   7   8
ATOM      8  C   UNL     1      -1.658  -1.121   1.141  0.00  0.00    -0.026 C 
ATOM      9  C   UNL     1      -2.884  -1.219   0.903  0.00  0.00    +0.002 C 
BRANCH   9  10
ATOM     10  C   UNL     1      -3.685  -2.641   0.984  0.00  0.00    +0.174 C 
ATOM     11  O   UNL     1      -4.543  -2.188   2.164  0.00  0.00    -0.218 OA
BRANCH  10  12
ATOM     12  C   UNL     1      -4.768  -2.100  -0.157  0.00  0.00    +0.042 C 
BRANCH  12  13
ATOM     13  C   UNL     1      -5.665  -1.111   0.368  0.00  0.00    +0.029 C 
BRANCH  13  14
ATOM     14  C   UNL     1      -5.665   0.274   0.081  0.00  0.00    -0.022 A 
ATOM     15  C   UNL     1      -5.474   1.153   1.132  0.00  0.00    -0.004 A 
ATOM     16  C   UNL     1      -5.154   2.468   0.855  0.00  0.00    -0.000 A 
ATOM     17  C   UNL     1      -5.639   2.988  -0.321  0.00  0.00    -0.000 A 
ATOM     18  C   UNL     1      -6.249   2.177  -1.266  0.00  0.00    -0.000 A 
ATOM     19  C   UNL     1      -6.211   0.818  -1.064  0.00  0.00    -0.004 A 
ENDBRANCH  13  14
ENDBRANCH  12  13
ENDBRANCH  10  12
ENDBRANCH   9  10
ENDBRANCH   7   8
BRANCH   1  20
ATOM     20  C   UNL     1       1.808  -1.176  -0.075  0.00  0.00    +0.029 C 
BRANCH  20  22
ATOM     21  C   UNL     1       3.883  -0.718   1.264  0.00  0.00    -0.031 C 
ATOM     22  C   UNL     1       2.674  -1.180   1.079  0.00  0.00    -0.031 C 
BRANCH  21  23
ATOM     23  C   UNL     1       4.424  -0.076   0.152  0.00  0.00    +0.026 C 
BRANCH  23  24
ATOM     24  C   UNL     1       4.621  -0.657  -1.165  0.00  0.00    +0.014 C 
BRANCH  24  25
ATOM     25  C   UNL     1       6.051  -0.139  -1.427  0.00  0.00    +0.087 C 
BRANCH  25  27
ATOM     26  N   UNL     1       7.511   0.910   0.201  0.00  0.00    -0.205 NA
ATOM     27  C   UNL     1       6.235   1.028  -0.500  0.00  0.00    +0.241 C 
ATOM     28  O   UNL     1       5.495   2.023  -0.350  0.00  0.00    -0.273 OA
BRANCH  26  30
ATOM     29  C   UNL     1       7.451   2.787   0.057  0.00  0.00    +0.025 C 
ATOM     30  C   UNL     1       8.086   2.249   0.288  0.00  0.00    +0.115 C 
ENDBRANCH  26  30
ENDBRANCH  25  27
ENDBRANCH  24  25
ENDBRANCH  23  24
ENDBRANCH  21  23
ENDBRANCH  20  22
ENDBRANCH   1  20
TORSDOF 12
