REMARK  Name = 
REMARK  3 active torsions:
REMARK  status: ('A' for Active; 'I' for Inactive)
REMARK    1  A    between atoms: N_4  and  C_5
REMARK    2  A    between atoms: C_7  and  N_8
REMARK    3  A    between atoms: C_11  and  C_12
REMARK                            x       y       z     vdW  Elec       q    Type
REMARK                         _______ _______ _______ _____ _____    ______ ____
ROOT
ATOM      1  C   UNL     1      -0.598  -0.024  -0.889  0.00  0.00    +0.210 C 
ATOM      2  O   UNL     1      -0.718   1.473  -0.571  0.00  0.00    -0.333 OA
ATOM      3  C   UNL     1      -2.171   1.172  -0.871  0.00  0.00    +0.180 C 
ATOM      4  C   UNL     1      -2.358   0.605   0.738  0.00  0.00    +0.221 C 
ATOM      5  C   UNL     1      -1.068  -0.381   0.656  0.00  0.00    +0.088 C 
ENDROOT
BRANCH   1  13
ATOM      6  C   UNL     1       3.812   1.632   0.224  0.00  0.00    +0.038 C 
ATOM      7  C   UNL     1       3.019   0.726  -0.066  0.00  0.00    +0.053 A 
ATOM      8  C   UNL     1       3.461  -0.588   0.026  0.00  0.00    +0.280 A 
ATOM      9  O   UNL     1       4.674  -0.752   0.262  0.00  0.00    -0.265 OA
ATOM     10  N   UNL     1       2.643  -1.646  -0.187  0.00  0.00    -0.153 NA
ATOM     11  C   UNL     1       1.312  -1.439  -0.313  0.00  0.00    +0.354 A 
ATOM     12  O   UNL     1       0.488  -2.338   0.028  0.00  0.00    -0.244 OA
ATOM     13  N   UNL     1       0.932  -0.152  -0.503  0.00  0.00    -0.256 N 
ATOM     14  C   UNL     1       1.687   0.898  -0.424  0.00  0.00    +0.082 A 
ENDBRANCH   1  13
BRANCH   4  15
ATOM     15  N   UNL     1      -3.361  -0.490   0.262  0.00  0.00    +0.090 NA
ATOM     16  N   UNL     1      -3.333  -1.565   0.845  0.00  0.00    -0.014 NA
ATOM     17  N   UNL     1      -3.110  -2.784   0.737  0.00  0.00    -0.328 NA
ENDBRANCH   4  15
BRANCH   3  18
ATOM     18  C   UNL     1      -2.661   2.703  -0.571  0.00  0.00    +0.214 C 
ATOM     19  O   UNL     1      -2.651   2.951   0.751  0.00  0.00    -0.218 OA
ENDBRANCH   3  18
TORSDOF 3
