REMARK  Name = 
REMARK  6 active torsions:
REMARK  status: ('A' for Active; 'I' for Inactive)
REMARK    1  A    between atoms: C_5  and  C_6
REMARK    2  A    between atoms: C_6  and  O_7
REMARK    3  A    between atoms: O_7  and  C_8
REMARK    4  A    between atoms: C_8  and  C_9
REMARK    5  A    between atoms: C_8  and  C_15
REMARK    6  A    between atoms: C_9  and  N_10
REMARK                            x       y       z     vdW  Elec       q    Type
REMARK                         _______ _______ _______ _____ _____    ______ ____
ROOT
ATOM      1  C   UNL     1      -0.170  -0.197   0.737  0.00  0.00    +0.161 C 
ENDROOT
BRANCH   1   2
ATOM      2  C   UNL     1      -1.375   0.845   0.404  0.00  0.00    +0.017 A 
ATOM      3  C   UNL     1      -1.504   1.587   1.579  0.00  0.00    +0.057 A 
ATOM      4 CL   UNL     1      -1.427   0.809   3.157  0.00  0.00    -0.082 Cl
ATOM      5  C   UNL     1      -1.924   2.904   1.571  0.00  0.00    +0.023 A 
ATOM      6  C   UNL     1      -2.055   3.507   0.345  0.00  0.00    +0.058 A 
ATOM      7 CL   UNL     1      -2.104   5.261   0.179  0.00  0.00    -0.082 Cl
ATOM      8  C   UNL     1      -1.903   2.770  -0.814  0.00  0.00    +0.011 A 
ATOM      9  C   UNL     1      -1.151   1.621  -0.726  0.00  0.00    -0.000 A 
ENDBRANCH   1   2
BRANCH   1  10
ATOM     10  O   UNL     1      -0.129  -0.759  -0.678  0.00  0.00    -0.345 OA
BRANCH  10  11
ATOM     11  C   UNL     1       1.113  -0.430  -1.152  0.00  0.00    +0.169 C 
BRANCH  11  16
ATOM     12 CL   UNL     1       5.624   0.749   0.996  0.00  0.00    -0.082 Cl
ATOM     13  C   UNL     1       4.732  -0.012   0.697  0.00  0.00    +0.058 A 
ATOM     14  C   UNL     1       4.650  -0.880  -0.390  0.00  0.00    +0.011 A 
ATOM     15  C   UNL     1       3.424  -1.259  -0.932  0.00  0.00    -0.001 A 
ATOM     16  C   UNL     1       2.234  -0.913  -0.300  0.00  0.00    +0.007 A 
ATOM     17  C   UNL     1       2.396  -0.585   1.032  0.00  0.00    -0.001 A 
ATOM     18  C   UNL     1       3.613  -0.120   1.519  0.00  0.00    +0.011 A 
ENDBRANCH  11  16
ENDBRANCH  10  11
ENDBRANCH   1  10
BRANCH   1  19
ATOM     19  C   UNL     1      -1.222  -1.302   1.344  0.00  0.00    +0.142 C 
BRANCH  19  20
ATOM     20  N   UNL     1      -1.808  -2.065   0.330  0.00  0.00    -0.305 N 
ATOM     21  C   UNL     1      -2.620  -3.056   0.785  0.00  0.00    +0.179 A 
ATOM     22  N   UNL     1      -3.119  -3.703  -0.260  0.00  0.00    -0.222 NA
ATOM     23  C   UNL     1      -2.938  -2.959  -1.351  0.00  0.00    +0.119 A 
ATOM     24  C   UNL     1      -2.335  -1.812  -0.896  0.00  0.00    +0.098 A 
ENDBRANCH  19  20
ENDBRANCH   1  19
TORSDOF 6
