REMARK  Name = 
REMARK  1 active torsions:
REMARK  status: ('A' for Active; 'I' for Inactive)
REMARK    1  A    between atoms: C_4  and  C_5
REMARK                            x       y       z     vdW  Elec       q    Type
REMARK                         _______ _______ _______ _____ _____    ______ ____
ROOT
ATOM      1  C   UNL     1      -1.616   0.255   0.614  0.00  0.00    +0.026 C 
ATOM      2  C   UNL     1      -1.240   0.592   0.029  0.00  0.00    +0.140 C 
ATOM      3  S   UNL     1       0.137   1.639   0.148  0.00  0.00    +0.005 S 
ATOM      4  O   UNL     1       0.086   2.622   1.200  0.00  0.00    -0.171 OA
ATOM      5  O   UNL     1       0.913   1.868  -1.051  0.00  0.00    -0.171 OA
ATOM      6  C   UNL     1       0.778   0.079   1.033  0.00  0.00    +0.215 C 
ATOM      7  N   UNL     1       0.819  -0.691  -0.274  0.00  0.00    -0.252 N 
ATOM      8  C   UNL     1       2.220  -0.491  -0.433  0.00  0.00    +0.231 C 
ATOM      9  O   UNL     1       3.109  -1.268  -0.899  0.00  0.00    -0.275 OA
ATOM     10  C   UNL     1       2.331   0.405   0.761  0.00  0.00    +0.130 C 
ATOM     11  C   UNL     1      -0.612  -0.612  -0.941  0.00  0.00    +0.201 C 
ATOM     12  C   UNL     1      -2.200   1.206  -0.982  0.00  0.00    +0.026 C 
ENDROOT
BRANCH  11  13
ATOM     13  C   UNL     1      -1.224  -1.805   0.014  0.00  0.00    +0.384 C 
ATOM     14  O   UNL     1      -2.511  -2.095  -0.432  0.00  0.00    -0.244 OA
ATOM     15  O   UNL     1      -0.989  -1.704   1.214  0.00  0.00    -0.244 OA
ENDBRANCH  11  13
TORSDOF 1
