REMARK  Name = 
REMARK  3 active torsions:
REMARK  status: ('A' for Active; 'I' for Inactive)
REMARK    1  A    between atoms: C_2  and  C_4
REMARK    2  A    between atoms: N_10  and  C_11
REMARK    3  A    between atoms: C_14  and  C_15
REMARK                            x       y       z     vdW  Elec       q    Type
REMARK                         _______ _______ _______ _____ _____    ______ ____
ROOT
ATOM      1  C   UNL     1      -4.246  -0.272   0.640  0.00  0.00    +0.076 A 
ATOM      2  C   UNL     1      -2.899  -0.035   0.567  0.00  0.00    +0.107 A 
ATOM      3  C   UNL     1      -2.232   0.470   1.678  0.00  0.00    +0.039 A 
ATOM      4  C   UNL     1      -0.948   0.677   1.211  0.00  0.00    +0.102 A 
ATOM      5  N   UNL     1      -0.811   0.110  -0.008  0.00  0.00    -0.228 N 
ATOM      6  C   UNL     1      -2.833   0.432   2.917  0.00  0.00    +0.003 A 
ATOM      7  C   UNL     1      -4.069  -0.198   3.023  0.00  0.00    +0.000 A 
ATOM      8  N   UNL     1      -2.048  -0.016  -0.476  0.00  0.00    -0.165 NA
ATOM      9  C   UNL     1      -4.813  -0.452   1.883  0.00  0.00    +0.006 A 
ENDROOT
BRANCH   5  10
ATOM     10  C   UNL     1       0.372  -0.442  -0.598  0.00  0.00    +0.083 A 
ATOM     11  C   UNL     1       1.087  -1.428   0.070  0.00  0.00    +0.019 A 
ATOM     12  C   UNL     1       2.470  -1.442   0.015  0.00  0.00    -0.003 A 
ATOM     13  C   UNL     1       3.076  -0.549  -0.862  0.00  0.00    -0.021 A 
ATOM     14  C   UNL     1       2.338  -0.141  -1.944  0.00  0.00    -0.003 A 
ATOM     15  C   UNL     1       0.998   0.129  -1.691  0.00  0.00    +0.019 A 
BRANCH  13  16
ATOM     16  C   UNL     1       4.551  -1.131  -1.241  0.00  0.00    +0.040 C 
ATOM     17  C   UNL     1       5.067   0.301  -1.900  0.00  0.00    +0.093 C 
ATOM     18  N   UNL     1       4.458   1.361  -1.190  0.00  0.00    -0.218 NA
ATOM     19  C   UNL     1       5.035   1.550   0.142  0.00  0.00    +0.089 C 
ATOM     20  C   UNL     1       5.978   0.354   0.264  0.00  0.00    +0.019 C 
ATOM     21  C   UNL     1       5.115  -0.831   0.290  0.00  0.00    +0.007 C 
ENDBRANCH  13  16
ENDBRANCH   5  10
BRANCH   1  23
ATOM     22  N   UNL     1      -5.954  -0.786  -0.621  0.00  0.00    -0.084 NA
ATOM     23  C   UNL     1      -5.081  -0.303  -0.566  0.00  0.00    +0.286 C 
ATOM     24  O   UNL     1      -4.612   0.253  -1.604  0.00  0.00    -0.267 OA
ENDBRANCH   1  23
TORSDOF 3
