REMARK  Name = 
REMARK  4 active torsions:
REMARK  status: ('A' for Active; 'I' for Inactive)
REMARK    1  A    between atoms: C_5  and  C_6
REMARK    2  A    between atoms: C_14  and  C_15
REMARK    3  A    between atoms: N_17  and  CA_18
REMARK    4  A    between atoms: CA_27  and  C_28
REMARK                            x       y       z     vdW  Elec       q    Type
REMARK                         _______ _______ _______ _____ _____    ______ ____
ROOT
ATOM      1  C   UNL     1      -0.386  -0.094   0.163  0.00  0.00    +0.270 C 
ATOM      2  N   UNL     1       0.960  -0.186   0.601  0.00  0.00    -0.191 NA
ATOM      3  O   UNL     1      -0.560   0.712  -0.796  0.00  0.00    -0.268 OA
ENDROOT
BRANCH   2   4
ATOM      4  CA  UNL     1       1.420   1.242   1.175  0.00  0.00    +0.200 C 
ATOM      5  C   UNL     1       3.095   0.928   1.230  0.00  0.00    +0.153 C 
ATOM      6  S   UNL     1       3.167  -0.975   1.415  0.00  0.00    -0.118 S 
ATOM      7  C   UNL     1       3.793  -1.324  -0.166  0.00  0.00    +0.068 C 
ATOM      8  CA  UNL     1       4.165   0.175  -0.822  0.00  0.00    +0.189 C 
ATOM      9  C   UNL     1       2.882  -1.937  -1.185  0.00  0.00    +0.013 C 
ATOM     10  C   UNL     1       5.082  -2.085  -0.245  0.00  0.00    +0.013 C 
ATOM     11  N   UNL     1       2.832   0.840  -0.260  0.00  0.00    -0.259 N 
ATOM     12  C   UNL     1       1.795   1.789  -0.322  0.00  0.00    +0.249 C 
ATOM     13  O   UNL     1       1.843   3.046  -0.507  0.00  0.00    -0.273 OA
BRANCH   8  14
ATOM     14  C   UNL     1       5.129   0.612   0.451  0.00  0.00    +0.383 C 
ATOM     15  OXT UNL     1       6.377  -0.024   0.388  0.00  0.00    -0.244 OA
ATOM     16  O   UNL     1       5.260   1.872   0.299  0.00  0.00    -0.244 OA
ENDBRANCH   8  14
ENDBRANCH   2   4
BRANCH   1  19
ATOM     17  C   UNL     1      -0.462  -1.909   2.618  0.00  0.00    +0.076 C 
ATOM     18  C   UNL     1      -1.472  -1.856   1.644  0.00  0.00    +0.159 A 
ATOM     19  C   UNL     1      -1.464  -0.962   0.583  0.00  0.00    +0.109 A 
ATOM     20  C   UNL     1      -2.772  -0.872   0.178  0.00  0.00    +0.129 A 
ATOM     21  N   UNL     1      -3.373  -1.975   0.687  0.00  0.00    -0.077 NA
ATOM     22  O   UNL     1      -2.576  -2.577   1.526  0.00  0.00    -0.358 OA
BRANCH  20  23
ATOM     23  C   UNL     1      -3.438   0.151  -0.638  0.00  0.00    +0.042 A 
ATOM     24  C   UNL     1      -3.665   1.430  -0.139  0.00  0.00    +0.060 A 
ATOM     25 CL   UNL     1      -3.167   1.848   1.502  0.00  0.00    -0.082 Cl
ATOM     26  C   UNL     1      -4.543   2.278  -0.804  0.00  0.00    +0.011 A 
ATOM     27  C   UNL     1      -5.575   1.744  -1.569  0.00  0.00    +0.002 A 
ATOM     28  C   UNL     1      -5.349   0.500  -2.102  0.00  0.00    +0.011 A 
ATOM     29  C   UNL     1      -4.400  -0.333  -1.520  0.00  0.00    +0.060 A 
ATOM     30 CL   UNL     1      -4.599  -2.058  -1.812  0.00  0.00    -0.082 Cl
ENDBRANCH  20  23
ENDBRANCH   1  19
TORSDOF 4
