REMARK  Name = 
REMARK  5 active torsions:
REMARK  status: ('A' for Active; 'I' for Inactive)
REMARK    1  A    between atoms: P_2  and  N_3
REMARK    2  A    between atoms: N_3  and  C_4
REMARK    3  A    between atoms: N_3  and  C_7
REMARK    4  A    between atoms: C_4  and  C_5
REMARK    5  A    between atoms: C_7  and  C_8
REMARK                            x       y       z     vdW  Elec       q    Type
REMARK                         _______ _______ _______ _____ _____    ______ ____
ROOT
ATOM      1  O   UNL     1       1.207  -0.888  -1.469  0.00  0.00    -0.253 OA
ATOM      2  P   UNL     1       0.760  -0.191  -0.200  0.00  0.00    +0.365 P 
ATOM      3  O   UNL     1       1.276  -1.080   1.144  0.00  0.00    -0.291 OA
ATOM      4  C   UNL     1       2.564  -0.618   1.455  0.00  0.00    +0.153 C 
ATOM      5  C   UNL     1       3.310  -0.196   0.198  0.00  0.00    +0.052 C 
ATOM      6  C   UNL     1       2.959   1.223  -0.205  0.00  0.00    +0.102 C 
ATOM      7  N   UNL     1       1.529   1.385  -0.069  0.00  0.00    -0.133 NA
ENDROOT
BRANCH   2   8
ATOM      8  N   UNL     1      -0.932   0.036  -0.280  0.00  0.00    -0.195 NA
BRANCH   8   9
ATOM      9  C   UNL     1      -1.524   0.829   0.742  0.00  0.00    +0.099 C 
BRANCH   9  10
ATOM     10  C   UNL     1      -1.378   2.285   0.310  0.00  0.00    +0.113 C 
ATOM     11 CL   UNL     1      -2.980   3.058   0.205  0.00  0.00    -0.112 Cl
ENDBRANCH   9  10
ENDBRANCH   8   9
BRANCH   8  12
ATOM     12  C   UNL     1      -1.712  -1.007  -0.824  0.00  0.00    +0.099 C 
BRANCH  12  13
ATOM     13  C   UNL     1      -1.732  -2.279  -0.034  0.00  0.00    +0.113 C 
ATOM     14 CL   UNL     1      -3.345  -2.557   0.663  0.00  0.00    -0.112 Cl
ENDBRANCH  12  13
ENDBRANCH   8  12
ENDBRANCH   2   8
TORSDOF 5
