REMARK  Name = 
REMARK  4 active torsions:
REMARK  status: ('A' for Active; 'I' for Inactive)
REMARK    1  A    between atoms: C_2  and  C_3
REMARK    2  A    between atoms: C_3  and  O_4
REMARK    3  A    between atoms: O_4  and  C_5
REMARK    4  A    between atoms: C_25  and  C_26
REMARK                            x       y       z     vdW  Elec       q    Type
REMARK                         _______ _______ _______ _____ _____    ______ ____
ROOT
ATOM      1  C   UNL     1      -3.018  -0.691  -0.397  0.00  0.00    +0.189 C 
ATOM      2  C   UNL     1      -1.626  -0.709   0.108  0.00  0.00    +0.045 C 
ATOM      3  C   UNL     1      -0.960   0.409  -0.866  0.00  0.00    +0.004 C 
ATOM      4  C   UNL     1       0.203   0.852   0.282  0.00  0.00    +0.001 C 
ATOM      5  C   UNL     1       1.233  -0.315  -0.353  0.00  0.00    +0.004 C 
ATOM      6  C   UNL     1       0.581  -1.488   0.538  0.00  0.00    +0.000 C 
ATOM      7  C   UNL     1       2.429   0.039   0.794  0.00  0.00    +0.019 C 
ATOM      8  C   UNL     1       3.033   1.198  -0.132  0.00  0.00    -0.043 C 
ATOM      9  C   UNL     1       4.265   1.563   0.126  0.00  0.00    +0.010 C 
ATOM     10  C   UNL     1       5.288   0.521   0.240  0.00  0.00    +0.101 C 
ATOM     11  C   UNL     1       4.802  -0.780   0.796  0.00  0.00    +0.050 C 
ATOM     12  N   UNL     1       6.532   0.768   0.332  0.00  0.00    -0.034 NA
ATOM     13  O   UNL     1       7.410  -0.028   1.035  0.00  0.00    -0.143 OA
ATOM     14  C   UNL     1       2.124   1.877  -1.044  0.00  0.00    +0.022 C 
ATOM     15  C   UNL     1       3.443  -1.086   0.180  0.00  0.00    +0.010 C 
ATOM     16  C   UNL     1       0.738   2.060  -0.632  0.00  0.00    +0.004 C 
ATOM     17  C   UNL     1      -2.113   1.459  -0.393  0.00  0.00    +0.005 C 
ATOM     18  C   UNL     1      -0.750  -1.856  -0.127  0.00  0.00    +0.004 C 
ATOM     19  C   UNL     1      -3.125   0.617  -1.189  0.00  0.00    +0.053 C 
ENDROOT
BRANCH   1  21
ATOM     20  C   UNL     1      -3.801  -2.828  -1.663  0.00  0.00    -0.011 C 
ATOM     21  C   UNL     1      -3.349  -1.831  -1.232  0.00  0.00    -0.040 C 
ENDBRANCH   1  21
BRANCH   2  22
ATOM     22  C   UNL     1      -1.659  -0.163   1.500  0.00  0.00    +0.004 C 
ATOM     23  C   UNL     1      -1.781  -1.387   2.402  0.00  0.00    +0.000 C 
ENDBRANCH   2  22
BRANCH   1  24
ATOM     24  O   UNL     1      -3.969  -0.500   0.656  0.00  0.00    -0.443 OA
BRANCH  24  25
ATOM     25  C   UNL     1      -5.029   0.391   0.570  0.00  0.00    +0.318 C 
ATOM     26  O   UNL     1      -5.316   0.799  -0.597  0.00  0.00    -0.250 OA
ATOM     27  C   UNL     1      -5.585   1.109   1.763  0.00  0.00    +0.121 C 
ENDBRANCH  24  25
ENDBRANCH   1  24
TORSDOF 4
