REMARK  Name = 
REMARK  7 active torsions:
REMARK  status: ('A' for Active; 'I' for Inactive)
REMARK    1  A    between atoms: C_2  and  C_3
REMARK    2  A    between atoms: C_6  and  C_7
REMARK    3  A    between atoms: C_7  and  C_8
REMARK    4  A    between atoms: C_8  and  O_9
REMARK    5  A    between atoms: O_9  and  C_10
REMARK    6  A    between atoms: C_13  and  C_14
REMARK    7  A    between atoms: C_14  and  C_15
REMARK                            x       y       z     vdW  Elec       q    Type
REMARK                         _______ _______ _______ _____ _____    ______ ____
ROOT
ATOM      1  C   UNL     1      -0.304   0.613  -0.836  0.00  0.00    +0.139 A 
ATOM      2  C   UNL     1      -0.467  -0.608  -0.215  0.00  0.00    +0.037 A 
ATOM      3  C   UNL     1      -1.372  -0.709   0.805  0.00  0.00    -0.001 A 
ATOM      4  C   UNL     1      -2.060   0.380   1.326  0.00  0.00    -0.021 A 
ATOM      5  C   UNL     1      -1.967   1.556   0.614  0.00  0.00    -0.001 A 
ATOM      6  C   UNL     1      -0.930   1.713  -0.285  0.00  0.00    +0.037 A 
ENDROOT
BRANCH   4   7
ATOM      7  C   UNL     1      -3.169   0.058   2.243  0.00  0.00    +0.047 C 
BRANCH   7   8
ATOM      8  C   UNL     1      -4.528   0.584   1.602  0.00  0.00    +0.139 C 
ATOM      9  C   UNL     1      -5.348  -0.703   1.937  0.00  0.00    +0.259 C 
ATOM     10  O   UNL     1      -5.495  -1.124   3.119  0.00  0.00    -0.272 OA
ATOM     11  N   UNL     1      -6.337  -0.839   0.943  0.00  0.00    -0.135 NA
ATOM     12  C   UNL     1      -5.766  -0.855  -0.371  0.00  0.00    +0.299 C 
ATOM     13  O   UNL     1      -6.483  -0.564  -1.378  0.00  0.00    -0.261 OA
ATOM     14  S   UNL     1      -4.166  -0.059  -0.158  0.00  0.00    -0.046 S 
ENDBRANCH   7   8
ENDBRANCH   4   7
BRANCH   1  15
ATOM     15  O   UNL     1       0.212   0.746  -2.127  0.00  0.00    -0.475 OA
BRANCH  15  16
ATOM     16  C   UNL     1       1.630   0.834  -2.249  0.00  0.00    +0.212 C 
BRANCH  16  17
ATOM     17  C   UNL     1       2.200  -0.201  -1.323  0.00  0.00    +0.093 C 
BRANCH  17  21
ATOM     18  C   UNL     1       6.208   0.081  -0.379  0.00  0.00    -0.003 A 
ATOM     19  C   UNL     1       5.731   0.797  -1.442  0.00  0.00    +0.094 A 
ATOM     20  N   UNL     1       4.488   0.586  -1.939  0.00  0.00    -0.248 NA
ATOM     21  C   UNL     1       3.668  -0.284  -1.350  0.00  0.00    +0.063 A 
ATOM     22  C   UNL     1       4.245  -1.227  -0.513  0.00  0.00    +0.015 A 
ATOM     23  C   UNL     1       5.551  -1.094  -0.063  0.00  0.00    -0.002 A 
BRANCH  18  25
ATOM     24  C   UNL     1       7.203   0.187   1.479  0.00  0.00    +0.005 C 
ATOM     25  C   UNL     1       7.255   0.592   0.560  0.00  0.00    +0.028 C 
ENDBRANCH  18  25
ENDBRANCH  17  21
ENDBRANCH  16  17
ENDBRANCH  15  16
ENDBRANCH   1  15
TORSDOF 7
