REMARK  Name = 
REMARK  3 active torsions:
REMARK  status: ('A' for Active; 'I' for Inactive)
REMARK    1  A    between atoms: C_2  and  C_3
REMARK    2  A    between atoms: C_2  and  C_12
REMARK    3  A    between atoms: C_6  and  C_7
REMARK                            x       y       z     vdW  Elec       q    Type
REMARK                         _______ _______ _______ _____ _____    ______ ____
ROOT
ATOM      1  C   UNL     1      -0.203  -1.289   0.176  0.00  0.00    -0.004 A 
ATOM      2  C   UNL     1      -1.206  -2.240   0.036  0.00  0.00    -0.022 A 
ATOM      3  C   UNL     1      -1.015  -3.595   0.611  0.00  0.00    +0.031 C 
ATOM      4  C   UNL     1      -2.486  -1.762  -0.154  0.00  0.00    -0.009 A 
ATOM      5  C   UNL     1      -2.808  -0.422  -0.053  0.00  0.00    -0.027 A 
ATOM      6  C   UNL     1      -4.035   0.085  -0.728  0.00  0.00    +0.019 C 
ATOM      7  C   UNL     1      -3.914   1.585  -0.928  0.00  0.00    +0.004 C 
ATOM      8  C   UNL     1      -3.500   2.289   0.335  0.00  0.00    +0.004 C 
ATOM      9  C   UNL     1      -2.232   1.746   0.932  0.00  0.00    +0.019 C 
ATOM     10  C   UNL     1      -2.552   1.355   2.369  0.00  0.00    +0.004 C 
ATOM     11  C   UNL     1      -1.165   2.806   0.896  0.00  0.00    +0.004 C 
ATOM     12  C   UNL     1      -5.228  -0.224   0.152  0.00  0.00    +0.004 C 
ATOM     13  C   UNL     1      -4.169  -0.554  -2.097  0.00  0.00    +0.004 C 
ATOM     14  C   UNL     1      -1.806   0.494   0.231  0.00  0.00    -0.027 A 
ATOM     15  C   UNL     1      -0.483   0.066   0.273  0.00  0.00    -0.005 A 
ENDROOT
BRANCH   1  17
ATOM     16  C   UNL     1       1.258  -2.167   1.814  0.00  0.00    -0.000 C 
ATOM     17  C   UNL     1       1.122  -1.803   0.541  0.00  0.00    -0.000 C 
BRANCH  17  18
ATOM     18  C   UNL     1       2.318  -1.437  -0.228  0.00  0.00    -0.000 A 
ATOM     19  C   UNL     1       3.580  -1.429   0.354  0.00  0.00    +0.000 A 
ATOM     20  C   UNL     1       4.513  -0.445   0.048  0.00  0.00    +0.007 A 
ATOM     21  C   UNL     1       4.182   0.589  -0.821  0.00  0.00    +0.080 A 
ATOM     22  C   UNL     1       3.159   0.288  -1.711  0.00  0.00    +0.007 A 
ATOM     23  C   UNL     1       2.214  -0.680  -1.389  0.00  0.00    +0.000 A 
BRANCH  21  24
ATOM     24  C   UNL     1       4.596   1.973  -0.549  0.00  0.00    +0.388 C 
ATOM     25  O   UNL     1       5.974   2.148  -0.382  0.00  0.00    -0.241 OA
ATOM     26  O   UNL     1       3.884   2.625   0.274  0.00  0.00    -0.241 OA
ENDBRANCH  21  24
ENDBRANCH  17  18
ENDBRANCH   1  17
TORSDOF 3
