REMARK  Name = 
REMARK  4 active torsions:
REMARK  status: ('A' for Active; 'I' for Inactive)
REMARK    1  A    between atoms: C_14  and  C_16
REMARK    2  A    between atoms: C_19  and  N_20
REMARK    3  A    between atoms: C_21  and  C_23
REMARK    4  A    between atoms: C_28  and  C_29
REMARK                            x       y       z     vdW  Elec       q    Type
REMARK                         _______ _______ _______ _____ _____    ______ ____
ROOT
ATOM      1  C   UNL     1       0.876   0.511  -0.248  0.00  0.00    +0.054 A 
ATOM      2  C   UNL     1       0.130  -0.628   0.023  0.00  0.00    +0.006 A 
ATOM      3  C   UNL     1      -1.023  -0.495   0.770  0.00  0.00    +0.017 A 
ATOM      4  C   UNL     1      -1.675   0.721   0.933  0.00  0.00    +0.074 A 
ATOM      5  C   UNL     1      -0.977   1.861   0.555  0.00  0.00    +0.017 A 
ATOM      6  C   UNL     1       0.194   1.718  -0.179  0.00  0.00    +0.006 A 
ENDROOT
BRANCH   1  16
ATOM      7  C   UNL     1       9.245   0.330  -2.052  0.00  0.00    +0.074 C 
ATOM      8  C   UNL     1       8.097  -0.410  -1.440  0.00  0.00    +0.139 A 
ATOM      9  N   UNL     1       7.521  -0.149  -0.241  0.00  0.00    -0.229 NA
ATOM     10  C   UNL     1       6.244  -0.604  -0.240  0.00  0.00    +0.097 A 
ATOM     11  C   UNL     1       5.167  -0.029   0.577  0.00  0.00    +0.033 A 
ATOM     12  C   UNL     1       3.809  -0.020   0.282  0.00  0.00    +0.056 A 
ATOM     13  N   UNL     1       3.149  -0.374  -0.939  0.00  0.00    -0.255 N 
ATOM     14  C   UNL     1       3.817  -0.790  -2.145  0.00  0.00    +0.105 C 
ATOM     15  C   UNL     1       4.816  -1.893  -1.930  0.00  0.00    +0.069 C 
ATOM     16  C   UNL     1       1.983   0.417  -1.198  0.00  0.00    +0.253 C 
ATOM     17  O   UNL     1       1.784   0.958  -2.327  0.00  0.00    -0.270 OA
ATOM     18  C   UNL     1       2.985   0.572   1.202  0.00  0.00    +0.015 A 
ATOM     19  C   UNL     1       3.449   0.805   2.491  0.00  0.00    +0.001 A 
ATOM     20  C   UNL     1       4.815   0.797   2.746  0.00  0.00    +0.000 A 
ATOM     21  C   UNL     1       5.683   0.655   1.669  0.00  0.00    +0.003 A 
ATOM     22  C   UNL     1       6.099  -1.316  -1.424  0.00  0.00    +0.080 A 
ATOM     23  N   UNL     1       7.261  -1.242  -2.108  0.00  0.00    -0.233 NA
ENDBRANCH   1  16
BRANCH   4  24
ATOM     24  N   UNL     1      -3.108   0.698   0.929  0.00  0.00    -0.175 NA
ATOM     25  C   UNL     1      -3.889   1.195  -0.143  0.00  0.00    +0.269 C 
ATOM     26  O   UNL     1      -3.367   2.123  -0.832  0.00  0.00    -0.268 OA
BRANCH  25  27
ATOM     27  C   UNL     1      -4.885   0.381  -0.855  0.00  0.00    +0.055 A 
ATOM     28  C   UNL     1      -5.624  -0.506  -0.088  0.00  0.00    +0.004 A 
ATOM     29  C   UNL     1      -6.153  -1.659  -0.652  0.00  0.00    +0.000 A 
ATOM     30  C   UNL     1      -5.539  -2.205  -1.770  0.00  0.00    +0.000 A 
ATOM     31  C   UNL     1      -4.904  -1.299  -2.608  0.00  0.00    +0.000 A 
ATOM     32  C   UNL     1      -4.653  -0.005  -2.169  0.00  0.00    +0.005 A 
BRANCH  28  33
ATOM     33  C   UNL     1      -6.216   0.039   1.140  0.00  0.00    +0.000 A 
ATOM     34  C   UNL     1      -7.274   0.925   0.984  0.00  0.00    +0.000 A 
ATOM     35  C   UNL     1      -8.084   1.195   2.079  0.00  0.00    +0.000 A 
ATOM     36  C   UNL     1      -7.535   0.991   3.337  0.00  0.00    +0.000 A 
ATOM     37  C   UNL     1      -6.386   0.223   3.481  0.00  0.00    +0.000 A 
ATOM     38  C   UNL     1      -5.831  -0.433   2.389  0.00  0.00    +0.000 A 
ENDBRANCH  28  33
ENDBRANCH  25  27
ENDBRANCH   4  24
TORSDOF 4
