REMARK  Name = 
REMARK  5 active torsions:
REMARK  status: ('A' for Active; 'I' for Inactive)
REMARK    1  A    between atoms: C_2  and  C_3
REMARK    2  A    between atoms: C_3  and  C_4
REMARK    3  A    between atoms: C_4  and  C_5
REMARK    4  A    between atoms: C_5  and  C_6
REMARK    5  A    between atoms: C_6  and  C_7
REMARK                            x       y       z     vdW  Elec       q    Type
REMARK                         _______ _______ _______ _____ _____    ______ ____
ROOT
ATOM      1  C   UNL     1      -0.928  -0.614  -0.158  0.00  0.00    +0.017 A 
ATOM      2  C   UNL     1      -1.230   0.717  -0.315  0.00  0.00    +0.195 A 
ATOM      3  O   UNL     1      -0.284   1.725  -0.279  0.00  0.00    -0.287 OA
ATOM      4  C   UNL     1      -2.564   1.070  -0.233  0.00  0.00    +0.084 A 
ATOM      5  C   UNL     1      -3.574   0.134  -0.072  0.00  0.00    +0.199 A 
ATOM      6  O   UNL     1      -4.888   0.561   0.142  0.00  0.00    -0.286 OA
ATOM      7  C   UNL     1      -3.175  -1.100   0.415  0.00  0.00    +0.042 A 
ATOM      8  C   UNL     1      -1.912  -1.565   0.064  0.00  0.00    +0.002 A 
ENDROOT
BRANCH   1   9
ATOM      9  C   UNL     1       0.477  -1.029  -0.015  0.00  0.00    +0.030 C 
BRANCH   9  10
ATOM     10  C   UNL     1       1.455  -0.036  -0.581  0.00  0.00    +0.005 C 
BRANCH  10  11
ATOM     11  C   UNL     1       2.387   0.388   0.548  0.00  0.00    +0.000 C 
BRANCH  11  12
ATOM     12  C   UNL     1       3.693  -0.364   0.489  0.00  0.00    +0.000 C 
BRANCH  12  14
ATOM     13  C   UNL     1       5.885  -0.352  -0.726  0.00  0.00    +0.000 C 
ATOM     14  C   UNL     1       4.659   0.466  -0.348  0.00  0.00    +0.000 C 
ENDBRANCH  12  14
ENDBRANCH  11  12
ENDBRANCH  10  11
ENDBRANCH   9  10
ENDBRANCH   1   9
TORSDOF 5
