REMARK  Name = 
REMARK  2 active torsions:
REMARK  status: ('A' for Active; 'I' for Inactive)
REMARK    1  A    between atoms: C_2  and  C_3
REMARK    2  A    between atoms: C_13  and  O_14
REMARK                            x       y       z     vdW  Elec       q    Type
REMARK                         _______ _______ _______ _____ _____    ______ ____
ROOT
ATOM      1  C   UNL     1      -3.558   0.137   0.299  0.00  0.00    +0.180 C 
ATOM      2  C   UNL     1      -2.185  -0.391   0.508  0.00  0.00    +0.037 C 
ATOM      3  C   UNL     1      -1.608   0.385  -0.805  0.00  0.00    +0.004 C 
ATOM      4  C   UNL     1      -0.009   0.319  -0.248  0.00  0.00    +0.004 C 
ATOM      5  C   UNL     1       0.239  -1.258  -0.834  0.00  0.00    +0.022 C 
ATOM      6  C   UNL     1      -0.404  -1.965   0.498  0.00  0.00    +0.004 C 
ATOM      7  C   UNL     1       1.752  -1.272  -0.287  0.00  0.00    -0.026 A 
ATOM      8  C   UNL     1       2.441  -0.411  -1.141  0.00  0.00    -0.023 A 
ATOM      9  C   UNL     1       3.625   0.145  -0.710  0.00  0.00    +0.032 A 
ATOM     10  C   UNL     1       3.985   0.029   0.624  0.00  0.00    +0.138 A 
ATOM     11  C   UNL     1       3.272  -0.826   1.452  0.00  0.00    +0.037 A 
ATOM     12  C   UNL     1       1.629   0.273  -2.200  0.00  0.00    +0.026 C 
ATOM     13  C   UNL     1       1.996  -1.197   1.040  0.00  0.00    -0.001 A 
ATOM     14  C   UNL     1       0.518   1.026  -1.592  0.00  0.00    +0.005 C 
ATOM     15  C   UNL     1      -1.861   1.821  -0.074  0.00  0.00    +0.004 C 
ATOM     16  C   UNL     1      -1.574   0.226   1.704  0.00  0.00    +0.003 C 
ATOM     17  C   UNL     1      -1.897  -1.793   0.219  0.00  0.00    +0.004 C 
ATOM     18  C   UNL     1      -3.222   1.614   0.540  0.00  0.00    +0.043 C 
ATOM     19  O   UNL     1      -4.498  -0.273   1.206  0.00  0.00    -0.212 OA
ENDROOT
BRANCH   1  21
ATOM     20  C   UNL     1      -4.425   0.133  -2.062  0.00  0.00    -0.012 C 
ATOM     21  C   UNL     1      -4.010   0.051  -1.102  0.00  0.00    -0.049 C 
ENDBRANCH   1  21
BRANCH  10  22
ATOM     22  O   UNL     1       4.921   0.939   1.124  0.00  0.00    -0.471 OA
ATOM     23  C   UNL     1       4.873   2.290   0.705  0.00  0.00    +0.252 C 
ENDBRANCH  10  22
TORSDOF 2
