REMARK  Name = 
REMARK  4 active torsions:
REMARK  status: ('A' for Active; 'I' for Inactive)
REMARK    1  A    between atoms: O_2  and  C_3
REMARK    2  A    between atoms: C_7  and  C_8
REMARK    3  A    between atoms: C_14  and  C_15
REMARK    4  A    between atoms: C_15  and  N_16
REMARK                            x       y       z     vdW  Elec       q    Type
REMARK                         _______ _______ _______ _____ _____    ______ ____
ROOT
ATOM      1  C   UNL     1       0.427  -0.375   0.679  0.00  0.00    +0.147 C 
ATOM      2  C   UNL     1       1.375  -0.448  -0.674  0.00  0.00    +0.048 C 
ATOM      3  C   UNL     1       2.663  -1.036   0.184  0.00  0.00    +0.004 C 
ATOM      4  C   UNL     1       2.366  -2.512   0.158  0.00  0.00    +0.000 C 
ATOM      5  C   UNL     1       0.867  -2.785   0.118  0.00  0.00    +0.003 C 
ATOM      6  C   UNL     1       0.124  -1.818   1.012  0.00  0.00    +0.035 C 
ATOM      7  O   UNL     1       1.172   0.255   1.633  0.00  0.00    -0.221 OA
ENDROOT
BRANCH   1  10
ATOM      8  C   UNL     1      -2.928   0.009  -0.820  0.00  0.00    +0.138 A 
ATOM      9  C   UNL     1      -1.554  -0.183  -0.754  0.00  0.00    +0.035 A 
ATOM     10  C   UNL     1      -0.788   0.355   0.261  0.00  0.00    +0.008 A 
ATOM     11  C   UNL     1      -1.471   1.121   1.194  0.00  0.00    -0.002 A 
ATOM     12  C   UNL     1      -2.859   1.151   1.242  0.00  0.00    +0.003 A 
ATOM     13  C   UNL     1      -3.607   0.441   0.310  0.00  0.00    +0.037 A 
BRANCH   8  15
ATOM     14  C   UNL     1      -4.047  -0.194  -2.417  0.00  0.00    +0.252 C 
ATOM     15  O   UNL     1      -3.640  -0.137  -2.013  0.00  0.00    -0.471 OA
ENDBRANCH   8  15
ENDBRANCH   1  10
BRANCH   2  16
ATOM     16  C   UNL     1       1.794   1.143  -0.567  0.00  0.00    +0.075 C 
BRANCH  16  17
ATOM     17  N   UNL     1       2.946   1.292   0.211  0.00  0.00    -0.270 NA
ATOM     18  C   UNL     1       2.954   2.607   0.785  0.00  0.00    +0.090 C 
ATOM     19  C   UNL     1       4.207   1.114  -0.487  0.00  0.00    +0.090 C 
ENDBRANCH  16  17
ENDBRANCH   2  16
TORSDOF 4
