REMARK  Name = 
REMARK  12 active torsions:
REMARK  status: ('A' for Active; 'I' for Inactive)
REMARK    1  A    between atoms: C_2  and  C_35
REMARK    2  A    between atoms: N_3  and  C_4
REMARK    3  A    between atoms: N_7  and  C_8
REMARK    4  A    between atoms: C_8  and  C_9
REMARK    5  A    between atoms: C_9  and  C_10
REMARK    6  A    between atoms: C_10  and  C_11
REMARK    7  A    between atoms: C_11  and  C_12
REMARK    8  A    between atoms: C_12  and  C_13
REMARK    9  A    between atoms: N_15  and  C_16
REMARK   10  A    between atoms: C_16  and  C_17
REMARK   11  A    between atoms: C_40  and  C_41
REMARK   12  A    between atoms: C_44  and  C_45
REMARK                            x       y       z     vdW  Elec       q    Type
REMARK                         _______ _______ _______ _____ _____    ______ ____
ROOT
ATOM      1  C   UNL     1      -1.884  -0.450  -0.901  0.00  0.00    +0.098 C 
ATOM      2  C   UNL     1      -1.459  -1.669  -0.156  0.00  0.00    +0.039 C 
ATOM      3  C   UNL     1      -0.876  -1.426   1.193  0.00  0.00    +0.074 C 
ATOM      4  N   UNL     1      -0.228  -0.171   1.374  0.00  0.00    -0.273 NA
ATOM      5  C   UNL     1      -0.923   0.957   0.816  0.00  0.00    +0.074 C 
ATOM      6  C   UNL     1      -0.959   0.736  -0.693  0.00  0.00    +0.039 C 
ENDROOT
BRANCH   1   9
ATOM      7  O   UNL     1      -4.367  -1.231  -2.047  0.00  0.00    -0.268 OA
ATOM      8  C   UNL     1      -4.334  -0.129  -1.419  0.00  0.00    +0.265 C 
ATOM      9  N   UNL     1      -3.218   0.015  -0.533  0.00  0.00    -0.203 NA
BRANCH   8  10
ATOM     10  C   UNL     1      -5.276   0.946  -1.688  0.00  0.00    +0.055 A 
ATOM     11  C   UNL     1      -6.601   0.577  -1.889  0.00  0.00    +0.004 A 
ATOM     12  C   UNL     1      -7.396   1.421  -2.656  0.00  0.00    +0.000 A 
ATOM     13  C   UNL     1      -7.030   2.738  -2.898  0.00  0.00    +0.000 A 
ATOM     14  C   UNL     1      -5.804   3.196  -2.433  0.00  0.00    +0.000 A 
ATOM     15  C   UNL     1      -4.885   2.212  -2.103  0.00  0.00    +0.005 A 
BRANCH  11  16
ATOM     16  C   UNL     1      -7.188  -0.408  -0.973  0.00  0.00    +0.000 A 
ATOM     17  C   UNL     1      -6.589  -0.735   0.238  0.00  0.00    -0.000 A 
ATOM     18  C   UNL     1      -7.327  -0.875   1.407  0.00  0.00    +0.004 A 
ATOM     19  C   UNL     1      -8.714  -0.805   1.368  0.00  0.00    +0.071 A 
ATOM     20  C   UNL     1      -9.278  -0.974   0.109  0.00  0.00    +0.004 A 
ATOM     21  C   UNL     1      -8.559  -0.632  -1.030  0.00  0.00    -0.000 A 
BRANCH  19  22
ATOM     22  C   UNL     1      -9.481  -0.205   2.504  0.00  0.00    +0.419 C 
ATOM     23  F   UNL     1     -10.827  -0.271   2.168  0.00  0.00    -0.166 F 
ATOM     24  F   UNL     1      -9.066   1.101   2.683  0.00  0.00    -0.166 F 
ATOM     25  F   UNL     1      -9.318  -0.926   3.669  0.00  0.00    -0.166 F 
ENDBRANCH  19  22
ENDBRANCH  11  16
ENDBRANCH   8  10
ENDBRANCH   1   9
BRANCH   4  26
ATOM     26  C   UNL     1       1.156  -0.134   1.007  0.00  0.00    +0.072 C 
BRANCH  26  27
ATOM     27  C   UNL     1       1.693  -1.428   0.474  0.00  0.00    +0.017 C 
BRANCH  27  28
ATOM     28  C   UNL     1       2.829  -1.099  -0.484  0.00  0.00    +0.003 C 
BRANCH  28  29
ATOM     29  C   UNL     1       3.304   0.325  -0.338  0.00  0.00    +0.017 C 
BRANCH  29  30
ATOM     30  C   UNL     1       4.797   0.281  -0.129  0.00  0.00    +0.108 C 
ATOM     31  C   UNL     1       5.177   0.078   1.283  0.00  0.00    -0.011 A 
ATOM     32  C   UNL     1       5.544  -1.253   1.411  0.00  0.00    -0.004 A 
ATOM     33  C   UNL     1       5.705  -1.821   2.661  0.00  0.00    -0.000 A 
ATOM     34  C   UNL     1       5.484  -1.082   3.813  0.00  0.00    -0.000 A 
ATOM     35  C   UNL     1       4.810   0.108   3.660  0.00  0.00    -0.000 A 
ATOM     36  C   UNL     1       5.879  -1.795   0.102  0.00  0.00    -0.004 A 
ATOM     37  C   UNL     1       6.543  -2.944  -0.284  0.00  0.00    -0.000 A 
ATOM     38  C   UNL     1       6.482  -3.340  -1.607  0.00  0.00    -0.000 A 
ATOM     39  C   UNL     1       6.106  -2.407  -2.553  0.00  0.00    -0.000 A 
ATOM     40  C   UNL     1       5.540  -1.208  -2.149  0.00  0.00    -0.004 A 
ATOM     41  C   UNL     1       4.872   0.746   2.442  0.00  0.00    -0.004 A 
ATOM     42  C   UNL     1       5.354  -0.905  -0.825  0.00  0.00    -0.011 A 
BRANCH  30  43
ATOM     43  C   UNL     1       5.408   1.498  -0.704  0.00  0.00    +0.248 C 
ATOM     44  N   UNL     1       6.391   2.282  -0.043  0.00  0.00    -0.196 NA
ATOM     45  O   UNL     1       5.063   1.862  -1.849  0.00  0.00    -0.273 OA
BRANCH  44  46
ATOM     46  C   UNL     1       7.528   2.806  -0.796  0.00  0.00    +0.218 C 
BRANCH  46  47
ATOM     47  C   UNL     1       8.729   1.973  -0.403  0.00  0.00    +0.417 C 
ATOM     48  F   UNL     1       9.902   2.676  -0.503  0.00  0.00    -0.168 F 
ATOM     49  F   UNL     1       8.560   1.603   0.915  0.00  0.00    -0.168 F 
ATOM     50  F   UNL     1       8.729   0.853  -1.210  0.00  0.00    -0.168 F 
ENDBRANCH  46  47
ENDBRANCH  44  46
ENDBRANCH  30  43
ENDBRANCH  29  30
ENDBRANCH  28  29
ENDBRANCH  27  28
ENDBRANCH  26  27
ENDBRANCH   4  26
TORSDOF 12
