REMARK  Name = 
REMARK  5 active torsions:
REMARK  status: ('A' for Active; 'I' for Inactive)
REMARK    1  A    between atoms: C_2  and  N_5
REMARK    2  A    between atoms: N_5  and  C_6
REMARK    3  A    between atoms: C_6  and  C_7
REMARK    4  A    between atoms: C_7  and  C_9
REMARK    5  A    between atoms: C_14  and  C_15
REMARK                            x       y       z     vdW  Elec       q    Type
REMARK                         _______ _______ _______ _____ _____    ______ ____
ROOT
ATOM      1  C   UNL     1      -0.390   0.340   0.201  0.00  0.00    +0.009 A 
ATOM      2  C   UNL     1      -1.232  -0.702  -0.181  0.00  0.00    -0.000 A 
ATOM      3  C   UNL     1      -2.565  -0.771   0.197  0.00  0.00    +0.049 A 
ATOM      4  C   UNL     1      -3.171   0.329   0.794  0.00  0.00    +0.194 A 
ATOM      5  O   UNL     1      -4.479   0.646   0.411  0.00  0.00    -0.287 OA
ATOM      6  C   UNL     1      -2.320   1.274   1.357  0.00  0.00    +0.042 A 
ATOM      7  C   UNL     1      -0.994   1.329   0.965  0.00  0.00    +0.001 A 
ENDROOT
BRANCH   1   8
ATOM      8  C   UNL     1       0.357   0.993  -1.131  0.00  0.00    +0.192 C 
ATOM      9  O   UNL     1       1.215   1.948  -0.255  0.00  0.00    -0.217 OA
BRANCH   8  10
ATOM     10  C   UNL     1       1.529  -0.217  -1.151  0.00  0.00    +0.126 C 
BRANCH  10  11
ATOM     11  N   UNL     1       2.167  -0.171   0.112  0.00  0.00    -0.218 NA
BRANCH  11  13
ATOM     12  C   UNL     1       3.900   0.930  -0.689  0.00  0.00    +0.017 C 
ATOM     13  C   UNL     1       3.599   0.061  -0.038  0.00  0.00    +0.060 C 
ATOM     14  C   UNL     1       4.283  -1.192  -0.575  0.00  0.00    +0.017 C 
ATOM     15  C   UNL     1       4.170   0.254   1.364  0.00  0.00    +0.017 C 
ENDBRANCH  11  13
ENDBRANCH  10  11
ENDBRANCH   8  10
ENDBRANCH   1   8
BRANCH   3  16
ATOM     16  C   UNL     1      -3.399  -1.990   0.037  0.00  0.00    +0.212 C 
ATOM     17  O   UNL     1      -2.668  -3.063  -0.429  0.00  0.00    -0.215 OA
ENDBRANCH   3  16
TORSDOF 5
