REMARK  Name = 
REMARK  3 active torsions:
REMARK  status: ('A' for Active; 'I' for Inactive)
REMARK    1  A    between atoms: CA_2  and  C_3
REMARK    2  A    between atoms: CA_2  and  C_6
REMARK    3  A    between atoms: C_6  and  C_8
REMARK                            x       y       z     vdW  Elec       q    Type
REMARK                         _______ _______ _______ _____ _____    ______ ____
ROOT
ATOM      1  C   UNL     1      -0.212  -0.381  -0.129  0.00  0.00    +0.013 A 
ATOM      2  C   UNL     1      -1.032   0.726   0.088  0.00  0.00    +0.044 A 
ATOM      3  C   UNL     1      -2.405   0.613   0.188  0.00  0.00    +0.234 A 
ATOM      4  O   UNL     1      -3.245   1.687   0.475  0.00  0.00    -0.283 OA
ATOM      5  C   UNL     1      -2.974  -0.621  -0.058  0.00  0.00    +0.234 A 
ATOM      6  O   UNL     1      -4.260  -0.723  -0.583  0.00  0.00    -0.283 OA
ATOM      7  C   UNL     1      -2.179  -1.746  -0.143  0.00  0.00    +0.045 A 
ATOM      8  C   UNL     1      -0.833  -1.584   0.154  0.00  0.00    +0.002 A 
ENDROOT
BRANCH   1   9
ATOM      9  C   UNL     1       1.170  -0.113   0.664  0.00  0.00    +0.203 C 
ATOM     10  O   UNL     1       1.755  -1.456   0.295  0.00  0.00    -0.216 OA
BRANCH   9  12
ATOM     11  N   UNL     1       2.365  -0.400  -1.512  0.00  0.00    -0.118 NA
ATOM     12  CA  UNL     1       1.786   0.786  -0.676  0.00  0.00    +0.229 C 
BRANCH  12  13
ATOM     13  C   UNL     1       3.171   1.060   0.082  0.00  0.00    +0.385 C 
ATOM     14  OXT UNL     1       3.835   0.005   0.627  0.00  0.00    -0.244 OA
ATOM     15  O   UNL     1       3.057   2.145   0.729  0.00  0.00    -0.244 OA
ENDBRANCH  12  13
ENDBRANCH   9  12
ENDBRANCH   1   9
TORSDOF 3
