REMARK  Name = 
REMARK  1 active torsions:
REMARK  status: ('A' for Active; 'I' for Inactive)
REMARK    1  A    between atoms: C_2  and  C_4
REMARK                            x       y       z     vdW  Elec       q    Type
REMARK                         _______ _______ _______ _____ _____    ______ ____
ROOT
ATOM      1  C   UNL     1       0.701  -0.142   0.097  0.00  0.00    +0.016 C 
ATOM      2  C   UNL     1       0.125   0.315   1.394  0.00  0.00    +0.001 C 
ATOM      3  C   UNL     1      -1.373   0.315   1.310  0.00  0.00    +0.000 C 
ATOM      4  C   UNL     1      -1.815  -1.089   1.031  0.00  0.00    +0.000 C 
ATOM      5  C   UNL     1      -1.171  -1.564  -0.252  0.00  0.00    +0.000 C 
ATOM      6  C   UNL     1      -1.636  -0.579  -1.316  0.00  0.00    +0.000 C 
ATOM      7  C   UNL     1      -1.121   0.813  -1.081  0.00  0.00    +0.000 C 
ATOM      8  C   UNL     1      -1.724   1.297   0.222  0.00  0.00    +0.000 C 
ATOM      9  C   UNL     1       0.349  -1.560  -0.160  0.00  0.00    +0.001 C 
ATOM     10  C   UNL     1       0.392   0.804  -1.005  0.00  0.00    +0.001 C 
ENDROOT
BRANCH   1  12
ATOM     11  C   UNL     1       2.285   1.574   0.441  0.00  0.00    +0.020 C 
ATOM     12  C   UNL     1       2.299  -0.068   0.421  0.00  0.00    +0.092 C 
ATOM     13  N   UNL     1       2.689  -0.115  -1.102  0.00  0.00    -0.133 NA
ENDBRANCH   1  12
TORSDOF 1
