REMARK  Name = 
REMARK  6 active torsions:
REMARK  status: ('A' for Active; 'I' for Inactive)
REMARK    1  A    between atoms: O_2  and  C_3
REMARK    2  A    between atoms: C_7  and  C_8
REMARK    3  A    between atoms: C_9  and  C_10
REMARK    4  A    between atoms: C_12  and  C_13
REMARK    5  A    between atoms: C_14  and  C_15
REMARK    6  A    between atoms: C_17  and  C_18
REMARK                            x       y       z     vdW  Elec       q    Type
REMARK                         _______ _______ _______ _____ _____    ______ ____
ROOT
ATOM      1  C   UNL     1      -1.230  -1.095  -1.330  0.00  0.00    -0.001 C 
ATOM      2  C   UNL     1      -0.507  -0.361  -2.138  0.00  0.00    -0.004 C 
ENDROOT
BRANCH   1   8
ATOM      3  C   UNL     1      -4.273   0.848   0.908  0.00  0.00    +0.134 A 
ATOM      4  C   UNL     1      -4.589   0.269  -0.315  0.00  0.00    +0.008 A 
ATOM      5  C   UNL     1      -6.012   0.174  -0.761  0.00  0.00    +0.034 C 
ATOM      6  C   UNL     1      -3.593  -0.327  -1.074  0.00  0.00    -0.023 A 
ATOM      7  C   UNL     1      -3.844  -0.822  -2.445  0.00  0.00    +0.031 C 
ATOM      8  C   UNL     1      -2.350  -0.582  -0.531  0.00  0.00    -0.008 A 
ATOM      9  C   UNL     1      -2.114  -0.211   0.788  0.00  0.00    -0.019 A 
ATOM     10  C   UNL     1      -0.814  -0.584   1.373  0.00  0.00    +0.031 C 
ATOM     11  C   UNL     1      -2.950   0.760   1.319  0.00  0.00    +0.032 A 
BRANCH   3  13
ATOM     12  C   UNL     1      -6.003   2.205   1.902  0.00  0.00    +0.252 C 
ATOM     13  O   UNL     1      -5.331   0.955   1.810  0.00  0.00    -0.472 OA
ENDBRANCH   3  13
ENDBRANCH   1   8
BRANCH   2  14
ATOM     14  C   UNL     1       0.949  -0.203  -2.041  0.00  0.00    -0.022 C 
ATOM     15  C   UNL     1       1.409   0.910  -1.469  0.00  0.00    -0.004 C 
ATOM     16  C   UNL     1       1.907  -1.272  -2.368  0.00  0.00    +0.031 C 
BRANCH  15  17
ATOM     17  C   UNL     1       2.654   0.907  -0.691  0.00  0.00    -0.001 C 
ATOM     18  C   UNL     1       2.749   0.210   0.432  0.00  0.00    -0.004 C 
BRANCH  18  19
ATOM     19  C   UNL     1       4.042   0.273   1.119  0.00  0.00    -0.015 C 
ATOM     20  C   UNL     1       5.142   0.265   0.400  0.00  0.00    +0.082 C 
ATOM     21  C   UNL     1       4.181   0.029   2.582  0.00  0.00    +0.031 C 
BRANCH  20  22
ATOM     22  C   UNL     1       6.378  -0.387   0.830  0.00  0.00    +0.388 C 
ATOM     23  O   UNL     1       7.271  -0.729  -0.190  0.00  0.00    -0.241 OA
ATOM     24  O   UNL     1       6.927   0.043   1.889  0.00  0.00    -0.241 OA
ENDBRANCH  20  22
ENDBRANCH  18  19
ENDBRANCH  15  17
ENDBRANCH   2  14
TORSDOF 6
