REMARK  Name = 
REMARK  6 active torsions:
REMARK  status: ('A' for Active; 'I' for Inactive)
REMARK    1  A    between atoms: C_2  and  N_4
REMARK    2  A    between atoms: N_4  and  C_5
REMARK    3  A    between atoms: C_5  and  C_6
REMARK    4  A    between atoms: C_6  and  C_8
REMARK    5  A    between atoms: C_11  and  N_12
REMARK    6  A    between atoms: N_12  and  S_13
REMARK                            x       y       z     vdW  Elec       q    Type
REMARK                         _______ _______ _______ _____ _____    ______ ____
ROOT
ATOM      1  C   UNL     1      -0.808  -1.239  -0.161  0.00  0.00    +0.009 A 
ATOM      2  C   UNL     1      -0.465  -0.564  -1.273  0.00  0.00    -0.000 A 
ATOM      3  C   UNL     1       0.716   0.161  -1.139  0.00  0.00    +0.018 A 
ATOM      4  C   UNL     1       1.752  -0.398  -0.414  0.00  0.00    +0.091 A 
ATOM      5  C   UNL     1       1.532  -1.655   0.134  0.00  0.00    +0.018 A 
ATOM      6  C   UNL     1       0.214  -1.981   0.430  0.00  0.00    -0.000 A 
ENDROOT
BRANCH   1   7
ATOM      7  C   UNL     1      -2.218  -2.098  -0.174  0.00  0.00    +0.192 C 
ATOM      8  O   UNL     1      -2.675  -1.608  -1.578  0.00  0.00    -0.217 OA
BRANCH   7   9
ATOM      9  C   UNL     1      -3.058  -0.854   0.602  0.00  0.00    +0.126 C 
BRANCH   9  10
ATOM     10  N   UNL     1      -2.678   0.322  -0.112  0.00  0.00    -0.216 NA
BRANCH  10  12
ATOM     11  C   UNL     1      -3.534   2.304  -0.173  0.00  0.00    +0.019 C 
ATOM     12  C   UNL     1      -3.689   1.269  -0.392  0.00  0.00    +0.073 C 
ATOM     13  C   UNL     1      -5.080   0.730  -0.493  0.00  0.00    +0.019 C 
ENDBRANCH  10  12
ENDBRANCH   9  10
ENDBRANCH   7   9
ENDBRANCH   1   7
BRANCH   4  14
ATOM     14  N   UNL     1       3.071  -0.025  -0.806  0.00  0.00    -0.101 NA
BRANCH  14  15
ATOM     15  S   UNL     1       4.014   1.122   0.043  0.00  0.00    +0.075 S 
ATOM     16  O   UNL     1       4.133   0.696   1.482  0.00  0.00    -0.153 OA
ATOM     17  O   UNL     1       5.413   1.059  -0.525  0.00  0.00    -0.153 OA
ATOM     18  C   UNL     1       3.360   2.760  -0.045  0.00  0.00    +0.202 C 
ENDBRANCH  14  15
ENDBRANCH   4  14
TORSDOF 6
