REMARK  Name = 
REMARK  3 active torsions:
REMARK  status: ('A' for Active; 'I' for Inactive)
REMARK    1  A    between atoms: C_7  and  N_8
REMARK    2  A    between atoms: N_8  and  C_9
REMARK    3  A    between atoms: C_14  and  C_15
REMARK                            x       y       z     vdW  Elec       q    Type
REMARK                         _______ _______ _______ _____ _____    ______ ____
ROOT
ATOM      1  N   UNL     1      -0.143   0.144   0.390  0.00  0.00    -0.211 NA
ENDROOT
BRANCH   1   6
ATOM      2  C   UNL     1       4.152   1.531  -1.270  0.00  0.00    +0.032 C 
ATOM      3  C   UNL     1       3.392   0.464  -0.546  0.00  0.00    -0.010 A 
ATOM      4  C   UNL     1       2.028   0.323  -0.772  0.00  0.00    +0.070 A 
ATOM      5 CL   UNL     1       1.275   1.234  -2.071  0.00  0.00    -0.081 Cl
ATOM      6  C   UNL     1       1.199  -0.246   0.186  0.00  0.00    +0.091 A 
ATOM      7  C   UNL     1       1.851  -0.918   1.204  0.00  0.00    +0.074 A 
ATOM      8 CL   UNL     1       0.877  -2.002   2.185  0.00  0.00    -0.081 Cl
ATOM      9  C   UNL     1       3.166  -0.669   1.549  0.00  0.00    +0.012 A 
ATOM     10  C   UNL     1       3.951   0.048   0.657  0.00  0.00    -0.002 A 
ENDBRANCH   1   6
BRANCH   1  11
ATOM     11  C   UNL     1      -1.228  -0.215  -0.440  0.00  0.00    +0.077 A 
ATOM     12  C   UNL     1      -2.433   0.432  -0.197  0.00  0.00    +0.095 A 
ATOM     13  C   UNL     1      -3.520   0.013  -0.953  0.00  0.00    +0.008 A 
ATOM     14  C   UNL     1      -3.567  -1.264  -1.496  0.00  0.00    +0.000 A 
ATOM     15  C   UNL     1      -2.477  -2.105  -1.311  0.00  0.00    +0.001 A 
ATOM     16  C   UNL     1      -1.272  -1.461  -1.053  0.00  0.00    +0.017 A 
BRANCH  12  17
ATOM     17  C   UNL     1      -2.617   1.337   0.942  0.00  0.00    +0.389 C 
ATOM     18  O   UNL     1      -1.974   2.577   0.916  0.00  0.00    -0.241 OA
ATOM     19  O   UNL     1      -2.660   0.778   2.080  0.00  0.00    -0.241 OA
ENDBRANCH  12  17
ENDBRANCH   1  11
TORSDOF 3
