REMARK  Name = 
REMARK  6 active torsions:
REMARK  status: ('A' for Active; 'I' for Inactive)
REMARK    1  A    between atoms: C_3  and  O_4
REMARK    2  A    between atoms: O_4  and  C_5
REMARK    3  A    between atoms: C_5  and  C_6
REMARK    4  A    between atoms: C_13  and  C_14
REMARK    5  A    between atoms: C_14  and  S_15
REMARK    6  A    between atoms: S_15  and  C_17
REMARK                            x       y       z     vdW  Elec       q    Type
REMARK                         _______ _______ _______ _____ _____    ______ ____
ROOT
ATOM      1  C   UNL     1      -1.729  -1.521  -1.720  0.00  0.00    +0.035 C 
ATOM      2  C   UNL     1      -1.686  -1.221  -0.561  0.00  0.00    +0.027 A 
ATOM      3  C   UNL     1      -0.600  -1.542   0.245  0.00  0.00    +0.072 A 
ATOM      4  N   UNL     1      -0.581  -1.270   1.573  0.00  0.00    -0.247 NA
ATOM      5  C   UNL     1      -1.560  -0.583   2.177  0.00  0.00    +0.102 A 
ATOM      6  C   UNL     1      -2.669  -0.217   1.425  0.00  0.00    +0.057 A 
ATOM      7  C   UNL     1      -2.650  -0.430   0.052  0.00  0.00    +0.138 A 
ENDROOT
BRANCH   3   8
ATOM      8  C   UNL     1       0.300  -2.633  -0.213  0.00  0.00    +0.145 C 
BRANCH   8   9
ATOM      9  S   UNL     1       1.536  -1.961  -1.402  0.00  0.00    +0.107 S 
ATOM     10  O   UNL     1       2.320  -3.265  -1.736  0.00  0.00    -0.248 OA
BRANCH   9  11
ATOM     11  C   UNL     1       2.678  -1.150  -0.252  0.00  0.00    +0.221 A 
ATOM     12  N   UNL     1       2.382   0.007   0.391  0.00  0.00    -0.218 NA
ATOM     13  C   UNL     1       3.462   0.797   0.454  0.00  0.00    +0.101 A 
ATOM     14  C   UNL     1       4.528   0.053  -0.035  0.00  0.00    +0.101 A 
ATOM     15  C   UNL     1       5.756   0.656  -0.276  0.00  0.00    +0.021 A 
ATOM     16  C   UNL     1       5.756   2.009  -0.549  0.00  0.00    +0.002 A 
ATOM     17  C   UNL     1       4.728   2.758  -0.001  0.00  0.00    +0.002 A 
ATOM     18  C   UNL     1       3.714   2.134   0.716  0.00  0.00    +0.021 A 
ATOM     19  N   UNL     1       4.018  -1.170  -0.293  0.00  0.00    -0.218 NA
ENDBRANCH   9  11
ENDBRANCH   8   9
ENDBRANCH   3   8
BRANCH   7  20
ATOM     20  O   UNL     1      -3.587   0.168  -0.788  0.00  0.00    -0.467 OA
BRANCH  20  21
ATOM     21  C   UNL     1      -3.946   1.525  -0.673  0.00  0.00    +0.308 C 
BRANCH  21  22
ATOM     22  C   UNL     1      -5.244   1.680   0.095  0.00  0.00    +0.438 C 
ATOM     23  F   UNL     1      -5.029   2.546   1.157  0.00  0.00    -0.166 F 
ATOM     24  F   UNL     1      -6.227   2.167  -0.755  0.00  0.00    -0.166 F 
ATOM     25  F   UNL     1      -5.670   0.460   0.558  0.00  0.00    -0.166 F 
ENDBRANCH  21  22
ENDBRANCH  20  21
ENDBRANCH   7  20
TORSDOF 6
