REMARK  Name = 
REMARK  8 active torsions:
REMARK  status: ('A' for Active; 'I' for Inactive)
REMARK    1  A    between atoms: C_2  and  C_3
REMARK    2  A    between atoms: C_3  and  O_4
REMARK    3  A    between atoms: O_4  and  C_5
REMARK    4  A    between atoms: C_8  and  C_9
REMARK    5  A    between atoms: C_9  and  C_20
REMARK    6  A    between atoms: C_10  and  C_11
REMARK    7  A    between atoms: C_10  and  C_14
REMARK    8  A    between atoms: C_11  and  C_12
REMARK                            x       y       z     vdW  Elec       q    Type
REMARK                         _______ _______ _______ _____ _____    ______ ____
ROOT
ATOM      1  C   UNL     1      -0.718   0.735  -0.650  0.00  0.00    -0.004 C 
ATOM      2  C   UNL     1      -1.904   0.154  -0.461  0.00  0.00    -0.021 C 
ENDROOT
BRANCH   2   3
ATOM      3  C   UNL     1      -2.038  -1.306  -0.548  0.00  0.00    -0.004 A 
ATOM      4  C   UNL     1      -1.779  -2.098   0.562  0.00  0.00    -0.000 A 
ATOM      5  C   UNL     1      -2.281  -3.384   0.682  0.00  0.00    -0.000 A 
ATOM      6  C   UNL     1      -2.892  -3.919  -0.444  0.00  0.00    -0.000 A 
ATOM      7  C   UNL     1      -3.519  -3.065  -1.330  0.00  0.00    -0.000 A 
ATOM      8  C   UNL     1      -2.977  -1.797  -1.446  0.00  0.00    -0.000 A 
ENDBRANCH   2   3
BRANCH   1   9
ATOM      9  C   UNL     1      -0.572   2.167  -0.386  0.00  0.00    -0.000 A 
ATOM     10  C   UNL     1      -0.016   2.983  -1.363  0.00  0.00    -0.000 A 
ATOM     11  C   UNL     1      -0.308   4.335  -1.252  0.00  0.00    -0.000 A 
ATOM     12  C   UNL     1      -0.682   4.843  -0.024  0.00  0.00    -0.000 A 
ATOM     13  C   UNL     1      -0.656   4.003   1.077  0.00  0.00    -0.000 A 
ATOM     14  C   UNL     1      -0.452   2.638   0.914  0.00  0.00    -0.000 A 
ENDBRANCH   1   9
BRANCH   1  18
ATOM     15  C   UNL     1       3.026  -1.239  -0.606  0.00  0.00    +0.139 A 
ATOM     16  C   UNL     1       2.029  -1.703  -1.453  0.00  0.00    +0.037 A 
ATOM     17  C   UNL     1       0.829  -1.009  -1.546  0.00  0.00    +0.003 A 
ATOM     18  C   UNL     1       0.486  -0.083  -0.592  0.00  0.00    -0.000 A 
ATOM     19  C   UNL     1       1.266  -0.057   0.556  0.00  0.00    +0.003 A 
ATOM     20  C   UNL     1       2.587  -0.437   0.440  0.00  0.00    +0.037 A 
BRANCH  15  21
ATOM     21  O   UNL     1       4.223  -1.937  -0.454  0.00  0.00    -0.473 OA
BRANCH  21  22
ATOM     22  C   UNL     1       5.062  -1.692   0.650  0.00  0.00    +0.241 C 
BRANCH  22  24
ATOM     23  O   UNL     1       5.516   0.615   0.136  0.00  0.00    -0.216 OA
ATOM     24  C   UNL     1       6.106  -0.631   0.365  0.00  0.00    +0.229 C 
ENDBRANCH  22  24
ENDBRANCH  21  22
ENDBRANCH  15  21
ENDBRANCH   1  18
BRANCH   2  25
ATOM     25  C   UNL     1      -2.993   0.869   0.273  0.00  0.00    +0.044 C 
BRANCH  25  26
ATOM     26  C   UNL     1      -2.859   0.521   1.750  0.00  0.00    +0.100 C 
ATOM     27 CL   UNL     1      -4.485   0.491   2.495  0.00  0.00    -0.113 Cl
ENDBRANCH  25  26
ENDBRANCH   2  25
TORSDOF 8
