REMARK  Name = 
REMARK  1 active torsions:
REMARK  status: ('A' for Active; 'I' for Inactive)
REMARK    1  A    between atoms: C_7  and  C_8
REMARK                            x       y       z     vdW  Elec       q    Type
REMARK                         _______ _______ _______ _____ _____    ______ ____
ROOT
ATOM      1  N   UNL     1       2.961  -1.396   0.583  0.00  0.00    -0.128 NA
ATOM      2  C   UNL     1       1.867  -0.744  -0.045  0.00  0.00    +0.090 A 
ATOM      3  C   UNL     1       0.553  -1.100   0.159  0.00  0.00    +0.028 A 
ATOM      4  C   UNL     1      -0.477  -0.178   0.062  0.00  0.00    +0.120 A 
ATOM      5  C   UNL     1      -0.130   1.145  -0.188  0.00  0.00    +0.202 A 
ATOM      6  O   UNL     1      -0.961   2.152   0.314  0.00  0.00    -0.286 OA
ATOM      7  C   UNL     1       1.124   1.460  -0.698  0.00  0.00    +0.044 A 
ATOM      8  C   UNL     1       2.093   0.467  -0.688  0.00  0.00    +0.021 A 
ENDROOT
BRANCH   4   9
ATOM      9  C   UNL     1      -1.880  -0.541   0.130  0.00  0.00    +0.391 C 
ATOM     10  O   UNL     1      -2.853   0.276  -0.423  0.00  0.00    -0.240 OA
ATOM     11  O   UNL     1      -2.296  -1.539   0.793  0.00  0.00    -0.240 OA
ENDBRANCH   4   9
TORSDOF 1
