REMARK  Name = 
REMARK  15 active torsions:
REMARK  status: ('A' for Active; 'I' for Inactive)
REMARK    1  A    between atoms: C_2  and  C_3
REMARK    2  A    between atoms: C_3  and  C_4
REMARK    3  A    between atoms: C_4  and  C_5
REMARK    4  A    between atoms: C_5  and  C_6
REMARK    5  A    between atoms: C_6  and  C_7
REMARK    6  A    between atoms: C_7  and  C_8
REMARK    7  A    between atoms: C_8  and  C_9
REMARK    8  A    between atoms: C_9  and  C_10
REMARK    9  A    between atoms: C_10  and  C_11
REMARK   10  A    between atoms: C_11  and  C_12
REMARK   11  A    between atoms: C_12  and  C_13
REMARK   12  A    between atoms: C_13  and  C_14
REMARK   13  A    between atoms: C_14  and  C_15
REMARK   14  A    between atoms: C_15  and  C_16
REMARK   15  A    between atoms: C_16  and  N_17
REMARK                            x       y       z     vdW  Elec       q    Type
REMARK                         _______ _______ _______ _____ _____    ______ ____
ROOT
ATOM      1  C   UNL     1       0.387  -2.357   0.336  0.00  0.00    +0.000 C 
ENDROOT
BRANCH   1   2
ATOM      2  C   UNL     1      -1.098  -2.562   0.247  0.00  0.00    +0.000 C 
BRANCH   2   3
ATOM      3  C   UNL     1      -1.846  -1.880   1.375  0.00  0.00    +0.000 C 
BRANCH   3   4
ATOM      4  C   UNL     1      -3.246  -2.473   1.485  0.00  0.00    +0.007 C 
BRANCH   4   5
ATOM      5  C   UNL     1      -4.284  -1.550   0.885  0.00  0.00    +0.085 C 
BRANCH   5   6
ATOM      6  C   UNL     1      -3.673  -0.420   0.100  0.00  0.00    +0.322 C 
BRANCH   6   7
ATOM      7  N   UNL     1      -4.522   0.755   0.055  0.00  0.00    -0.160 N 
ATOM      8  C   UNL     1      -4.670   1.460  -1.092  0.00  0.00    +0.290 A 
ATOM      9  C   UNL     1      -5.563   2.524  -1.099  0.00  0.00    +0.076 A 
ATOM     10  C   UNL     1      -6.601   2.565  -0.178  0.00  0.00    +0.013 A 
ATOM     11  C   UNL     1      -6.319   1.976   1.049  0.00  0.00    +0.076 A 
ATOM     12  C   UNL     1      -5.210   1.149   1.148  0.00  0.00    +0.290 A 
ENDBRANCH   6   7
ENDBRANCH   5   6
ENDBRANCH   4   5
ENDBRANCH   3   4
ENDBRANCH   2   3
ENDBRANCH   1   2
BRANCH   1  13
ATOM     13  C   UNL     1       0.717  -0.902   0.601  0.00  0.00    +0.000 C 
BRANCH  13  14
ATOM     14  C   UNL     1       1.836  -0.465  -0.328  0.00  0.00    +0.000 C 
BRANCH  14  15
ATOM     15  C   UNL     1       2.845  -1.603  -0.353  0.00  0.00    +0.000 C 
BRANCH  15  16
ATOM     16  C   UNL     1       4.127  -1.038   0.249  0.00  0.00    +0.000 C 
BRANCH  16  17
ATOM     17  C   UNL     1       5.225  -1.306  -0.754  0.00  0.00    +0.000 C 
BRANCH  17  18
ATOM     18  C   UNL     1       6.575  -1.077  -0.091  0.00  0.00    +0.000 C 
BRANCH  18  19
ATOM     19  C   UNL     1       7.036   0.310  -0.518  0.00  0.00    +0.000 C 
BRANCH  19  20
ATOM     20  C   UNL     1       5.794   1.188  -0.587  0.00  0.00    +0.000 C 
BRANCH  20  22
ATOM     21  C   UNL     1       6.634   3.446  -0.091  0.00  0.00    +0.000 C 
ATOM     22  C   UNL     1       5.858   2.259   0.467  0.00  0.00    +0.000 C 
ENDBRANCH  20  22
ENDBRANCH  19  20
ENDBRANCH  18  19
ENDBRANCH  17  18
ENDBRANCH  16  17
ENDBRANCH  15  16
ENDBRANCH  14  15
ENDBRANCH  13  14
ENDBRANCH   1  13
TORSDOF 15
