REMARK  Name = 
REMARK  9 active torsions:
REMARK  status: ('A' for Active; 'I' for Inactive)
REMARK    1  A    between atoms: O_2  and  C_3
REMARK    2  A    between atoms: C_3  and  C_4
REMARK    3  A    between atoms: C_4  and  C_5
REMARK    4  A    between atoms: C_8  and  O_9
REMARK    5  A    between atoms: O_9  and  C_10
REMARK    6  A    between atoms: C_10  and  C_11
REMARK    7  A    between atoms: C_11  and  C_13
REMARK    8  A    between atoms: C_13  and  N_14
REMARK    9  A    between atoms: N_14  and  C_15
REMARK                            x       y       z     vdW  Elec       q    Type
REMARK                         _______ _______ _______ _____ _____    ______ ____
ROOT
ATOM      1  C   UNL     1      -2.582   0.278  -0.439  0.00  0.00    -0.019 A 
ATOM      2  C   UNL     1      -2.117  -0.366   0.701  0.00  0.00    -0.001 A 
ATOM      3  C   UNL     1      -0.950  -1.110   0.631  0.00  0.00    +0.037 A 
ATOM      4  C   UNL     1      -0.235  -1.219  -0.547  0.00  0.00    +0.139 A 
ATOM      5  C   UNL     1      -0.546  -0.367  -1.599  0.00  0.00    +0.037 A 
ATOM      6  C   UNL     1      -1.672   0.436  -1.466  0.00  0.00    -0.001 A 
ENDROOT
BRANCH   4   7
ATOM      7  O   UNL     1       0.533  -2.333  -0.789  0.00  0.00    -0.473 OA
BRANCH   7   8
ATOM      8  C   UNL     1       1.810  -2.554  -0.234  0.00  0.00    +0.240 C 
BRANCH   8   9
ATOM      9  C   UNL     1       2.216  -1.106   0.469  0.00  0.00    +0.213 C 
ATOM     10  O   UNL     1       3.429  -1.731   1.158  0.00  0.00    -0.218 OA
BRANCH   9  11
ATOM     11  C   UNL     1       3.129  -0.661  -0.844  0.00  0.00    +0.125 C 
BRANCH  11  12
ATOM     12  N   UNL     1       4.178   0.150  -0.239  0.00  0.00    -0.217 NA
BRANCH  12  13
ATOM     13  C   UNL     1       3.897   1.564  -0.477  0.00  0.00    +0.073 C 
ATOM     14  C   UNL     1       5.235   2.253  -0.715  0.00  0.00    +0.019 C 
ATOM     15  C   UNL     1       3.304   2.089   0.824  0.00  0.00    +0.019 C 
ENDBRANCH  12  13
ENDBRANCH  11  12
ENDBRANCH   9  11
ENDBRANCH   8   9
ENDBRANCH   7   8
ENDBRANCH   4   7
BRANCH   1  16
ATOM     16  C   UNL     1      -4.044   0.428  -0.716  0.00  0.00    +0.058 C 
BRANCH  16  17
ATOM     17  C   UNL     1      -4.810   0.496   0.578  0.00  0.00    +0.147 C 
BRANCH  17  19
ATOM     18  C   UNL     1      -5.378   1.992   0.587  0.00  0.00    +0.174 C 
ATOM     19  O   UNL     1      -5.399   1.764   0.676  0.00  0.00    -0.351 OA
ENDBRANCH  17  19
ENDBRANCH  16  17
ENDBRANCH   1  16
TORSDOF 9
