REMARK  Name = 
REMARK  5 active torsions:
REMARK  status: ('A' for Active; 'I' for Inactive)
REMARK    1  A    between atoms: C_2  and  C_4
REMARK    2  A    between atoms: C_4  and  S_5
REMARK    3  A    between atoms: S_5  and  C_6
REMARK    4  A    between atoms: N_11  and  C_12
REMARK    5  A    between atoms: C_15  and  C_16
REMARK                            x       y       z     vdW  Elec       q    Type
REMARK                         _______ _______ _______ _____ _____    ______ ____
ROOT
ATOM      1  C   UNL     1      -0.424  -0.744   0.556  0.00  0.00    +0.068 A 
ATOM      2  C   UNL     1      -1.211  -0.480  -0.558  0.00  0.00    +0.016 A 
ATOM      3  C   UNL     1      -2.156   0.527  -0.405  0.00  0.00    -0.003 A 
ATOM      4  C   UNL     1      -2.797   0.942  -1.544  0.00  0.00    -0.000 A 
ATOM      5  C   UNL     1      -2.792   0.109  -2.657  0.00  0.00    -0.000 A 
ATOM      6  C   UNL     1      -2.242  -1.165  -2.600  0.00  0.00    +0.000 A 
ATOM      7  C   UNL     1      -2.482   0.991   0.855  0.00  0.00    -0.022 A 
ATOM      8  C   UNL     1      -1.850   0.517   1.980  0.00  0.00    -0.003 A 
ATOM      9  C   UNL     1      -1.284  -1.379  -1.617  0.00  0.00    +0.001 A 
ATOM     10  C   UNL     1      -0.728  -0.253   1.798  0.00  0.00    +0.017 A 
ENDROOT
BRANCH   1  12
ATOM     11  C   UNL     1       1.940  -1.295   0.075  0.00  0.00    +0.198 A 
ATOM     12  N   UNL     1       0.665  -1.650   0.343  0.00  0.00    -0.264 N 
ATOM     13  C   UNL     1       0.653  -2.920   0.771  0.00  0.00    +0.205 A 
ATOM     14 BR   UNL     1      -0.960  -3.931   0.967  0.00  0.00    -0.006 Br
ATOM     15  N   UNL     1       1.923  -3.357   0.812  0.00  0.00    -0.121 NA
ATOM     16  N   UNL     1       2.639  -2.447   0.155  0.00  0.00    -0.121 NA
BRANCH  11  17
ATOM     17  S   UNL     1       2.550   0.387   0.239  0.00  0.00    -0.063 S 
BRANCH  17  18
ATOM     18  C   UNL     1       3.793   0.729  -1.038  0.00  0.00    +0.179 C 
BRANCH  18  20
ATOM     19  O   UNL     1       5.068   1.686   0.701  0.00  0.00    -0.245 OA
ATOM     20  C   UNL     1       4.661   1.821  -0.493  0.00  0.00    +0.376 C 
ATOM     21  O   UNL     1       4.343   3.133  -0.856  0.00  0.00    -0.245 OA
ENDBRANCH  18  20
ENDBRANCH  17  18
ENDBRANCH  11  17
ENDBRANCH   1  12
BRANCH   7  22
ATOM     22  C   UNL     1      -3.458   2.124   0.903  0.00  0.00    +0.022 C 
ATOM     23  C   UNL     1      -2.802   3.364   1.569  0.00  0.00    +0.005 C 
ATOM     24  C   UNL     1      -3.050   3.293   0.045  0.00  0.00    +0.005 C 
ENDBRANCH   7  22
TORSDOF 5
