REMARK  Name = 
REMARK  5 active torsions:
REMARK  status: ('A' for Active; 'I' for Inactive)
REMARK    1  A    between atoms: C_2  and  C_4
REMARK    2  A    between atoms: C_4  and  C_5
REMARK    3  A    between atoms: C_5  and  C_6
REMARK    4  A    between atoms: C_6  and  C_7
REMARK    5  A    between atoms: C_7  and  C_8
REMARK                            x       y       z     vdW  Elec       q    Type
REMARK                         _______ _______ _______ _____ _____    ______ ____
ROOT
ATOM      1  C   UNL     1      -0.395  -0.989  -0.265  0.00  0.00    +0.070 C 
ATOM      2  C   UNL     1      -1.849  -0.953   0.564  0.00  0.00    +0.130 C 
ATOM      3  C   UNL     1      -2.764  -1.310  -0.855  0.00  0.00    +0.139 C 
ATOM      4  N   UNL     1      -4.011  -0.651  -0.143  0.00  0.00    -0.219 NA
ATOM      5  C   UNL     1      -3.599   0.426   0.376  0.00  0.00    +0.350 C 
ATOM      6  O   UNL     1      -4.501   1.320   0.973  0.00  0.00    -0.246 OA
ATOM      7  C   UNL     1      -2.433   0.112  -1.612  0.00  0.00    +0.084 C 
ATOM      8  N   UNL     1      -2.177   0.575   0.407  0.00  0.00    -0.184 NA
ATOM      9  S   UNL     1      -0.748   0.360  -1.510  0.00  0.00    -0.137 S 
ENDROOT
BRANCH   1  10
ATOM     10  C   UNL     1       0.339  -0.061   0.775  0.00  0.00    +0.013 C 
BRANCH  10  11
ATOM     11  C   UNL     1       1.528  -0.863   1.227  0.00  0.00    +0.002 C 
BRANCH  11  12
ATOM     12  C   UNL     1       2.701  -0.720   0.304  0.00  0.00    +0.012 C 
BRANCH  12  13
ATOM     13  C   UNL     1       3.093   0.703   0.036  0.00  0.00    +0.114 C 
BRANCH  13  15
ATOM     14  O   UNL     1       4.912   1.540   0.488  0.00  0.00    -0.246 OA
ATOM     15  C   UNL     1       4.559   0.829   0.228  0.00  0.00    +0.365 C 
ATOM     16  O   UNL     1       5.344  -0.317   0.122  0.00  0.00    -0.246 OA
ENDBRANCH  13  15
ENDBRANCH  12  13
ENDBRANCH  11  12
ENDBRANCH  10  11
ENDBRANCH   1  10
TORSDOF 5
