REMARK  Name = 
REMARK  1 active torsions:
REMARK  status: ('A' for Active; 'I' for Inactive)
REMARK    1  A    between atoms: C_10  and  C_11
REMARK                            x       y       z     vdW  Elec       q    Type
REMARK                         _______ _______ _______ _____ _____    ______ ____
ROOT
ATOM      1  C   UNL     1      -3.127  -1.278   0.231  0.00  0.00    -0.000 A 
ATOM      2  C   UNL     1      -2.910   0.008   0.635  0.00  0.00    -0.005 A 
ATOM      3  C   UNL     1      -1.801   0.671   0.117  0.00  0.00    -0.026 A 
ATOM      4  C   UNL     1      -1.893   2.137  -0.046  0.00  0.00    +0.026 C 
ATOM      5  C   UNL     1      -0.548   2.780  -0.194  0.00  0.00    +0.006 C 
ATOM      6  C   UNL     1       0.422   1.816   0.431  0.00  0.00    +0.017 C 
ATOM      7  C   UNL     1       0.588   0.630  -0.724  0.00  0.00    +0.131 C 
ATOM      8  C   UNL     1      -0.756  -0.129  -0.212  0.00  0.00    -0.015 A 
ATOM      9  C   UNL     1      -1.051  -1.290  -0.921  0.00  0.00    -0.004 A 
ATOM     10  C   UNL     1      -2.300  -1.862  -0.694  0.00  0.00    -0.000 A 
ENDROOT
BRANCH   7  11
ATOM     11  C   UNL     1       1.534  -0.301   0.228  0.00  0.00    +0.336 C 
ATOM     12  N   UNL     1       2.131  -1.403  -0.473  0.00  0.00    -0.030 NA
ATOM     13  C   UNL     1       3.552  -1.469  -0.215  0.00  0.00    +0.308 C 
ATOM     14  C   UNL     1       3.691  -0.523   0.934  0.00  0.00    +0.318 C 
ATOM     15  N   UNL     1       2.470   0.213   0.905  0.00  0.00    -0.061 NA
ENDBRANCH   7  11
TORSDOF 1
