REMARK  Name = 
REMARK  4 active torsions:
REMARK  status: ('A' for Active; 'I' for Inactive)
REMARK    1  A    between atoms: N_2  and  C_4
REMARK    2  A    between atoms: C_4  and  C_5
REMARK    3  A    between atoms: C_5  and  C_6
REMARK    4  A    between atoms: C_5  and  C_13
REMARK                            x       y       z     vdW  Elec       q    Type
REMARK                         _______ _______ _______ _____ _____    ______ ____
ROOT
ATOM      1  C   UNL     1       0.332   0.946  -0.232  0.00  0.00    +0.066 C 
ENDROOT
BRANCH   1   2
ATOM      2  C   UNL     1       1.351  -0.340  -0.389  0.00  0.00    +0.132 C 
ATOM      3  C   UNL     1       2.327   0.221  -1.430  0.00  0.00    +0.031 C 
ATOM      4  C   UNL     1       3.088  -1.004  -1.929  0.00  0.00    +0.003 C 
ATOM      5  C   UNL     1       3.171  -2.067  -0.838  0.00  0.00    +0.000 C 
ATOM      6  C   UNL     1       3.365  -1.300   0.466  0.00  0.00    +0.003 C 
ATOM      7  C   UNL     1       2.109  -0.564   0.826  0.00  0.00    +0.031 C 
ATOM      8  O   UNL     1       0.721  -1.357  -1.002  0.00  0.00    -0.225 OA
ENDBRANCH   1   2
BRANCH   1   9
ATOM      9  C   UNL     1      -1.012   0.023  -0.156  0.00  0.00    -0.019 A 
ATOM     10  C   UNL     1      -1.501  -0.271  -1.433  0.00  0.00    -0.001 A 
ATOM     11  C   UNL     1      -2.656  -1.046  -1.442  0.00  0.00    +0.042 A 
ATOM     12  C   UNL     1      -3.470  -1.098  -0.321  0.00  0.00    +0.196 A 
ATOM     13  O   UNL     1      -4.371  -2.145  -0.095  0.00  0.00    -0.287 OA
ATOM     14  C   UNL     1      -3.216  -0.128   0.637  0.00  0.00    +0.042 A 
ATOM     15  C   UNL     1      -2.023   0.589   0.622  0.00  0.00    -0.001 A 
ENDBRANCH   1   9
BRANCH   1  16
ATOM     16  C   UNL     1       0.449   1.019   1.426  0.00  0.00    +0.079 C 
BRANCH  16  18
ATOM     17  C   UNL     1       0.851   3.261   0.716  0.00  0.00    +0.090 C 
ATOM     18  N   UNL     1       0.106   2.428   1.601  0.00  0.00    -0.270 NA
ATOM     19  C   UNL     1       0.380   2.832   2.974  0.00  0.00    +0.090 C 
ENDBRANCH  16  18
ENDBRANCH   1  16
TORSDOF 4
