REMARK  Name = 
REMARK  15 active torsions:
REMARK  status: ('A' for Active; 'I' for Inactive)
REMARK    1  A    between atoms: C_2  and  C_3
REMARK    2  A    between atoms: C_3  and  C_4
REMARK    3  A    between atoms: C_4  and  C_5
REMARK    4  A    between atoms: C_5  and  C_6
REMARK    5  A    between atoms: C_6  and  C_7
REMARK    6  A    between atoms: C_7  and  C_8
REMARK    7  A    between atoms: C_8  and  C_9
REMARK    8  A    between atoms: C_10  and  C_11
REMARK    9  A    between atoms: C_11  and  C_12
REMARK   10  A    between atoms: C_12  and  C_13
REMARK   11  A    between atoms: C_13  and  C_14
REMARK   12  A    between atoms: C_14  and  C_15
REMARK   13  A    between atoms: C_15  and  C_16
REMARK   14  A    between atoms: C_16  and  C_17
REMARK   15  A    between atoms: C_17  and  C_18
REMARK                            x       y       z     vdW  Elec       q    Type
REMARK                         _______ _______ _______ _____ _____    ______ ____
ROOT
ATOM      1  C   UNL     1       1.576   0.775   0.072  0.00  0.00    -0.031 C 
ATOM      2  C   UNL     1       0.314   1.052   0.413  0.00  0.00    -0.031 C 
ENDROOT
BRANCH   1   3
ATOM      3  C   UNL     1       1.750  -0.171  -1.078  0.00  0.00    +0.026 C 
BRANCH   3   4
ATOM      4  C   UNL     1       2.884  -1.096  -0.648  0.00  0.00    +0.005 C 
BRANCH   4   5
ATOM      5  C   UNL     1       3.845  -0.380   0.272  0.00  0.00    +0.000 C 
BRANCH   5   6
ATOM      6  C   UNL     1       4.339   0.883  -0.372  0.00  0.00    +0.000 C 
BRANCH   6   7
ATOM      7  C   UNL     1       4.641   0.576  -1.823  0.00  0.00    +0.000 C 
BRANCH   7   8
ATOM      8  C   UNL     1       5.953  -0.191  -1.848  0.00  0.00    +0.000 C 
BRANCH   8  10
ATOM      9  C   UNL     1       7.197  -0.152   0.311  0.00  0.00    +0.000 C 
ATOM     10  C   UNL     1       6.935   0.579  -0.984  0.00  0.00    +0.000 C 
ENDBRANCH   8  10
ENDBRANCH   7   8
ENDBRANCH   6   7
ENDBRANCH   5   6
ENDBRANCH   4   5
ENDBRANCH   3   4
ENDBRANCH   1   3
BRANCH   2  11
ATOM     11  C   UNL     1      -0.603   1.438  -0.678  0.00  0.00    +0.026 C 
BRANCH  11  12
ATOM     12  C   UNL     1      -1.569   0.361  -1.074  0.00  0.00    +0.005 C 
BRANCH  12  13
ATOM     13  C   UNL     1      -2.130  -0.411   0.085  0.00  0.00    +0.000 C 
BRANCH  13  14
ATOM     14  C   UNL     1      -2.462   0.449   1.272  0.00  0.00    +0.000 C 
BRANCH  14  15
ATOM     15  C   UNL     1      -3.495  -0.280   2.085  0.00  0.00    +0.001 C 
BRANCH  15  16
ATOM     16  C   UNL     1      -4.288  -1.278   1.289  0.00  0.00    +0.012 C 
BRANCH  16  17
ATOM     17  C   UNL     1      -5.066  -0.660   0.160  0.00  0.00    +0.114 C 
BRANCH  17  18
ATOM     18  C   UNL     1      -6.214   0.110   0.693  0.00  0.00    +0.365 C 
ATOM     19  O   UNL     1      -7.445   0.042   0.058  0.00  0.00    -0.246 OA
ATOM     20  O   UNL     1      -6.162   0.693   1.794  0.00  0.00    -0.246 OA
ENDBRANCH  17  18
ENDBRANCH  16  17
ENDBRANCH  15  16
ENDBRANCH  14  15
ENDBRANCH  13  14
ENDBRANCH  12  13
ENDBRANCH  11  12
ENDBRANCH   2  11
TORSDOF 15
