REMARK  Name = 
REMARK  1 active torsions:
REMARK  status: ('A' for Active; 'I' for Inactive)
REMARK    1  A    between atoms: C_5  and  C_6
REMARK                            x       y       z     vdW  Elec       q    Type
REMARK                         _______ _______ _______ _____ _____    ______ ____
ROOT
ATOM      1  C   UNL     1       3.429  -0.094   0.827  0.00  0.00    +0.031 C 
ATOM      2  C   UNL     1       2.196   0.068  -0.007  0.00  0.00    -0.019 A 
ATOM      3  C   UNL     1       1.345   1.140   0.238  0.00  0.00    +0.037 A 
ATOM      4  C   UNL     1      -0.034   0.962   0.229  0.00  0.00    +0.191 A 
ATOM      5  O   UNL     1      -0.872   2.058   0.290  0.00  0.00    -0.287 OA
ATOM      6  C   UNL     1      -0.588  -0.216  -0.234  0.00  0.00    +0.016 A 
ATOM      7  C   UNL     1       0.253  -1.229  -0.663  0.00  0.00    -0.001 A 
ATOM      8  C   UNL     1       1.626  -1.006  -0.683  0.00  0.00    -0.004 A 
ENDROOT
BRANCH   6   9
ATOM      9  C   UNL     1      -1.940  -0.616   0.196  0.00  0.00    +0.025 C 
ATOM     10  C   UNL     1      -2.585  -1.604  -0.738  0.00  0.00    +0.005 C 
ATOM     11  C   UNL     1      -2.829   0.537   0.546  0.00  0.00    +0.005 C 
ENDBRANCH   6   9
TORSDOF 1
