REMARK  Name = 
REMARK  9 active torsions:
REMARK  status: ('A' for Active; 'I' for Inactive)
REMARK    1  A    between atoms: C_2  and  C_3
REMARK    2  A    between atoms: C_7  and  O_8
REMARK    3  A    between atoms: O_8  and  C_9
REMARK    4  A    between atoms: C_12  and  N_13
REMARK    5  A    between atoms: C_32  and  O_33
REMARK    6  A    between atoms: O_33  and  C_34
REMARK    7  A    between atoms: C_38  and  O_39
REMARK    8  A    between atoms: C_41  and  O_42
REMARK    9  A    between atoms: C_44  and  O_45
REMARK                            x       y       z     vdW  Elec       q    Type
REMARK                         _______ _______ _______ _____ _____    ______ ____
ROOT
ATOM      1  C   UNL     1       4.258  -1.288  -2.478  0.00  0.00    +0.169 C 
ATOM      2  O   UNL     1       3.622  -2.215  -1.429  0.00  0.00    -0.452 OA
ATOM      3  C   UNL     1       2.304  -2.165  -1.172  0.00  0.00    +0.317 C 
ATOM      4  O   UNL     1       1.951  -3.353  -0.810  0.00  0.00    -0.250 OA
ATOM      5  C   UNL     1       1.301  -1.333  -1.826  0.00  0.00    +0.114 C 
ATOM      6  C   UNL     1       0.907  -0.066  -0.869  0.00  0.00    +0.040 C 
ATOM      7  C   UNL     1       0.745  -0.799   0.547  0.00  0.00    +0.009 C 
ATOM      8  C   UNL     1      -0.327  -1.441   0.546  0.00  0.00    -0.028 C 
ATOM      9  C   UNL     1      -0.986  -1.607  -0.878  0.00  0.00    +0.026 C 
ATOM     10  C   UNL     1      -2.482  -1.551  -0.145  0.00  0.00    +0.011 C 
ATOM     11  C   UNL     1      -2.945   0.056  -0.392  0.00  0.00    +0.021 C 
ATOM     12  C   UNL     1      -4.008  -0.533   0.677  0.00  0.00    +0.034 C 
ATOM     13  C   UNL     1      -4.744  -1.628  -0.313  0.00  0.00    +0.118 C 
ATOM     14  C   UNL     1      -2.098   0.732   0.799  0.00  0.00    -0.048 C 
ATOM     15  C   UNL     1      -2.766   2.060   1.042  0.00  0.00    +0.026 C 
ATOM     16  C   UNL     1      -0.958   0.682   0.232  0.00  0.00    -0.034 C 
ATOM     17  C   UNL     1      -3.501  -1.699  -1.405  0.00  0.00    +0.030 C 
ATOM     18  C   UNL     1       1.467   0.146   1.447  0.00  0.00    +0.171 C 
ATOM     19  O   UNL     1       0.994   0.611   2.427  0.00  0.00    -0.292 OA
ATOM     20  C   UNL     1       2.894  -0.572   1.408  0.00  0.00    +0.089 C 
ATOM     21  C   UNL     1       2.953  -0.883   3.001  0.00  0.00    +0.011 C 
ATOM     22  C   UNL     1       3.916   0.793   1.519  0.00  0.00    +0.125 C 
ATOM     23  C   UNL     1       3.423   1.413   0.085  0.00  0.00    +0.030 C 
ATOM     24  C   UNL     1       4.105   0.882  -1.080  0.00  0.00    +0.006 C 
ATOM     25  C   UNL     1      -0.753   0.016  -1.196  0.00  0.00    +0.030 C 
ATOM     26  C   UNL     1       3.438   0.077  -2.101  0.00  0.00    +0.044 C 
ENDROOT
BRANCH   1  28
ATOM     27  C   UNL     1       3.356  -1.153  -4.601  0.00  0.00    +0.004 C 
ATOM     28  C   UNL     1       3.211  -1.677  -3.693  0.00  0.00    +0.044 C 
ENDBRANCH   1  28
BRANCH  22  29
ATOM     29  O   UNL     1       5.036   0.056   0.844  0.00  0.00    -0.333 OA
BRANCH  29  30
ATOM     30  C   UNL     1       5.688  -0.723   1.975  0.00  0.00    +0.235 C 
ATOM     31  O   UNL     1       6.721   0.374   2.262  0.00  0.00    -0.332 OA
ATOM     32  C   UNL     1       7.957  -0.117   1.562  0.00  0.00    +0.132 C 
ATOM     33  C   UNL     1       8.805   1.203   2.025  0.00  0.00    +0.034 C 
ATOM     34  C   UNL     1       7.285   0.560   0.130  0.00  0.00    +0.085 C 
ATOM     35  C   UNL     1       6.935  -0.984  -0.295  0.00  0.00    +0.024 C 
ATOM     36  C   UNL     1       6.560  -1.652   0.902  0.00  0.00    +0.063 C 
BRANCH  34  37
ATOM     37  N   UNL     1       8.578   0.600  -0.739  0.00  0.00    -0.269 NA
ATOM     38  C   UNL     1       8.552   2.035  -1.083  0.00  0.00    +0.090 C 
ATOM     39  C   UNL     1       7.955   0.148  -2.005  0.00  0.00    +0.090 C 
ENDBRANCH  34  37
ENDBRANCH  29  30
ENDBRANCH  22  29
BRANCH  13  40
ATOM     40  O   UNL     1      -5.588  -0.487  -0.907  0.00  0.00    -0.331 OA
BRANCH  40  41
ATOM     41  C   UNL     1      -6.649  -0.992   0.090  0.00  0.00    +0.266 C 
ATOM     42  C   UNL     1      -6.169   0.007   1.419  0.00  0.00    +0.201 C 
ATOM     43  C   UNL     1      -6.138   1.563   0.743  0.00  0.00    +0.177 C 
ATOM     44  C   UNL     1      -7.790   1.760   0.460  0.00  0.00    +0.172 C 
ATOM     45  C   UNL     1      -7.433   1.016  -1.040  0.00  0.00    +0.147 C 
ATOM     46  C   UNL     1      -8.977   1.337  -1.505  0.00  0.00    +0.035 C 
ATOM     47  O   UNL     1      -7.850  -0.235  -0.378  0.00  0.00    -0.329 OA
BRANCH  42  48
ATOM     48  O   UNL     1      -7.541   0.021   2.026  0.00  0.00    -0.346 OA
ATOM     49  C   UNL     1      -7.107  -0.876   3.040  0.00  0.00    +0.174 C 
ENDBRANCH  42  48
BRANCH  44  50
ATOM     50  O   UNL     1      -7.568   3.122  -0.120  0.00  0.00    -0.349 OA
ATOM     51  C   UNL     1      -8.865   3.639  -0.020  0.00  0.00    +0.174 C 
ENDBRANCH  44  50
BRANCH  43  52
ATOM     52  O   UNL     1      -6.307   2.120   2.132  0.00  0.00    -0.348 OA
ATOM     53  C   UNL     1      -5.367   2.999   2.438  0.00  0.00    +0.174 C 
ENDBRANCH  43  52
ENDBRANCH  40  41
ENDBRANCH  13  40
TORSDOF 9
