REMARK  Name = 
REMARK  5 active torsions:
REMARK  status: ('A' for Active; 'I' for Inactive)
REMARK    1  A    between atoms: O_2  and  C_3
REMARK    2  A    between atoms: C_8  and  O_9
REMARK    3  A    between atoms: O_9  and  C_10
REMARK    4  A    between atoms: C_10  and  C_11
REMARK    5  A    between atoms: C_11  and  C_13
REMARK                            x       y       z     vdW  Elec       q    Type
REMARK                         _______ _______ _______ _____ _____    ______ ____
ROOT
ATOM      1  C   UNL     1      -1.647   0.051  -0.692  0.00  0.00    +0.172 A 
ATOM      2  C   UNL     1      -0.922   0.269   0.473  0.00  0.00    +0.172 A 
ATOM      3  C   UNL     1      -1.505  -0.306   1.596  0.00  0.00    +0.040 A 
ATOM      4  C   UNL     1      -2.423  -1.320   1.490  0.00  0.00    +0.003 A 
ATOM      5  C   UNL     1      -2.858  -1.760   0.267  0.00  0.00    +0.003 A 
ATOM      6  C   UNL     1      -2.468  -1.060  -0.845  0.00  0.00    +0.040 A 
ENDROOT
BRANCH   1   8
ATOM      7  C   UNL     1      -1.767   2.136  -1.850  0.00  0.00    +0.253 C 
ATOM      8  O   UNL     1      -1.318   0.801  -1.806  0.00  0.00    -0.468 OA
ENDBRANCH   1   8
BRANCH   2   9
ATOM      9  O   UNL     1       0.346   0.791   0.467  0.00  0.00    -0.470 OA
BRANCH   9  10
ATOM     10  C   UNL     1       1.448  -0.013   0.121  0.00  0.00    +0.241 C 
BRANCH  10  11
ATOM     11  C   UNL     1       2.712   1.048   0.368  0.00  0.00    +0.228 C 
ATOM     12  O   UNL     1       3.218   0.240   1.571  0.00  0.00    -0.216 OA
BRANCH  11  13
ATOM     13  C   UNL     1       3.717   0.231  -0.680  0.00  0.00    +0.219 C 
ATOM     14  O   UNL     1       3.467  -1.106  -0.480  0.00  0.00    -0.217 OA
ENDBRANCH  11  13
ENDBRANCH  10  11
ENDBRANCH   9  10
ENDBRANCH   2   9
TORSDOF 5
