REMARK  Name = 
REMARK  2 active torsions:
REMARK  status: ('A' for Active; 'I' for Inactive)
REMARK    1  A    between atoms: C_8  and  N_9
REMARK    2  A    between atoms: C_10  and  C_12
REMARK                            x       y       z     vdW  Elec       q    Type
REMARK                         _______ _______ _______ _____ _____    ______ ____
ROOT
ATOM      1  N   UNL     1      -0.282   0.028   0.571  0.00  0.00    -0.179 NA
ATOM      2  C   UNL     1       0.466   0.522  -0.531  0.00  0.00    +0.260 C 
ATOM      3  O   UNL     1      -0.076   1.507  -1.129  0.00  0.00    -0.272 OA
ENDROOT
BRANCH   1   6
ATOM      4  C   UNL     1      -2.141   1.833   0.725  0.00  0.00    +0.032 C 
ATOM      5  C   UNL     1      -2.474   0.960   0.458  0.00  0.00    -0.007 A 
ATOM      6  C   UNL     1      -1.674  -0.177   0.423  0.00  0.00    +0.065 A 
ATOM      7  C   UNL     1      -2.151  -1.449   0.259  0.00  0.00    -0.007 A 
ATOM      8  C   UNL     1      -1.306  -2.660   0.202  0.00  0.00    +0.032 C 
ATOM      9  C   UNL     1      -3.515  -1.655   0.174  0.00  0.00    -0.003 A 
ATOM     10  C   UNL     1      -4.338  -0.565   0.102  0.00  0.00    -0.001 A 
ATOM     11  C   UNL     1      -3.805   0.720   0.131  0.00  0.00    -0.003 A 
ENDBRANCH   1   6
BRANCH   2  12
ATOM     12  C   UNL     1       1.960   1.035  -0.181  0.00  0.00    +0.137 C 
ATOM     13  N   UNL     1       2.341  -0.267   0.619  0.00  0.00    -0.265 NA
ATOM     14  C   UNL     1       2.276  -1.383  -0.207  0.00  0.00    +0.090 C 
ATOM     15  C   UNL     1       3.697  -0.019   1.054  0.00  0.00    +0.073 C 
ATOM     16  C   UNL     1       4.437   0.753  -0.006  0.00  0.00    +0.017 C 
ATOM     17  C   UNL     1       4.031   0.342  -1.394  0.00  0.00    +0.003 C 
ATOM     18  C   UNL     1       2.553   0.476  -1.614  0.00  0.00    +0.025 C 
ENDBRANCH   2  12
TORSDOF 2
