REMARK  Name = 
REMARK  2 active torsions:
REMARK  status: ('A' for Active; 'I' for Inactive)
REMARK    1  A    between atoms: C_23  and  C_25
REMARK    2  A    between atoms: C_25  and  C_27
REMARK                            x       y       z     vdW  Elec       q    Type
REMARK                         _______ _______ _______ _____ _____    ______ ____
ROOT
ATOM      1  C   UNL     1       3.122  -2.130  -0.249  0.00  0.00    +0.003 C 
ATOM      2  C   UNL     1       3.374  -0.747   0.577  0.00  0.00    +0.035 C 
ATOM      3  C   UNL     1       2.870   0.217  -0.632  0.00  0.00    +0.180 C 
ATOM      4  O   UNL     1       3.264  -0.310  -1.826  0.00  0.00    -0.218 OA
ATOM      5  C   UNL     1       1.529   0.537  -0.355  0.00  0.00    +0.035 C 
ATOM      6  C   UNL     1       1.057  -0.971   0.015  0.00  0.00    +0.004 C 
ATOM      7  C   UNL     1      -0.370  -0.309   0.601  0.00  0.00    +0.019 C 
ATOM      8  C   UNL     1      -1.215  -0.914  -0.707  0.00  0.00    +0.039 C 
ATOM      9  C   UNL     1      -0.234  -0.296  -1.961  0.00  0.00    +0.153 C 
ATOM     10  O   UNL     1      -1.285   0.578  -2.609  0.00  0.00    -0.223 OA
ATOM     11  C   UNL     1      -2.364   0.186  -0.572  0.00  0.00    +0.036 C 
ATOM     12  C   UNL     1      -2.833  -0.281   0.790  0.00  0.00    -0.037 C 
ATOM     13  C   UNL     1      -3.996   0.276   1.145  0.00  0.00    +0.034 C 
ATOM     14  C   UNL     1      -5.031   0.558   0.138  0.00  0.00    +0.195 C 
ATOM     15  C   UNL     1      -4.752  -0.074  -1.160  0.00  0.00    +0.038 C 
ATOM     16  O   UNL     1      -6.193   0.948   0.458  0.00  0.00    -0.287 OA
ATOM     17  C   UNL     1      -2.357  -1.512   1.411  0.00  0.00    +0.039 C 
ATOM     18  C   UNL     1      -1.969   1.546  -0.408  0.00  0.00    +0.009 C 
ATOM     19  C   UNL     1      -3.460  -0.137  -1.492  0.00  0.00    -0.020 C 
ATOM     20  C   UNL     1      -0.792  -1.530   1.620  0.00  0.00    +0.084 C 
ATOM     21 CL   UNL     1      -0.508  -3.009   0.520  0.00  0.00    -0.115 Cl
ATOM     22  C   UNL     1       1.516   1.353   0.938  0.00  0.00    +0.003 C 
ATOM     23  C   UNL     1       0.463   0.965  -1.187  0.00  0.00    +0.036 C 
ATOM     24  C   UNL     1       1.942  -0.863   1.360  0.00  0.00    +0.003 C 
ENDROOT
BRANCH   3  25
ATOM     25  C   UNL     1       3.742   1.428  -0.442  0.00  0.00    +0.211 C 
ATOM     26  O   UNL     1       3.657   2.342  -1.262  0.00  0.00    -0.291 OA
BRANCH  25  27
ATOM     27  C   UNL     1       4.886   1.487   0.488  0.00  0.00    +0.248 C 
ATOM     28  O   UNL     1       5.937   0.663   0.150  0.00  0.00    -0.212 OA
ENDBRANCH  25  27
ENDBRANCH   3  25
TORSDOF 2
