REMARK  Name = 
REMARK  4 active torsions:
REMARK  status: ('A' for Active; 'I' for Inactive)
REMARK    1  A    between atoms: O_2  and  C_3
REMARK    2  A    between atoms: C_3  and  C_5
REMARK    3  A    between atoms: C_6  and  C_7
REMARK    4  A    between atoms: C_7  and  O_9
REMARK                            x       y       z     vdW  Elec       q    Type
REMARK                         _______ _______ _______ _____ _____    ______ ____
ROOT
ATOM      1  C   UNL     1       0.664  -1.149   0.711  0.00  0.00    +0.089 C 
ATOM      2  C   UNL     1      -0.520  -1.509   0.259  0.00  0.00    +0.089 C 
ENDROOT
BRANCH   1   3
ATOM      3  C   UNL     1       1.311   0.011   0.084  0.00  0.00    +0.342 C 
ATOM      4  O   UNL     1       0.885   1.185   0.297  0.00  0.00    -0.245 OA
BRANCH   3   6
ATOM      5  C   UNL     1       3.528   1.036  -0.284  0.00  0.00    +0.256 C 
ATOM      6  O   UNL     1       2.693  -0.093  -0.105  0.00  0.00    -0.441 OA
ENDBRANCH   3   6
ENDBRANCH   1   3
BRANCH   2   7
ATOM      7  C   UNL     1      -1.480  -0.489  -0.190  0.00  0.00    +0.342 C 
ATOM      8  O   UNL     1      -2.442  -0.954  -0.877  0.00  0.00    -0.245 OA
BRANCH   7   9
ATOM      9  O   UNL     1      -1.879   0.484   0.732  0.00  0.00    -0.441 OA
ATOM     10  C   UNL     1      -2.759   1.478   0.209  0.00  0.00    +0.256 C 
ENDBRANCH   7   9
ENDBRANCH   2   7
TORSDOF 4
