REMARK  Name = 
REMARK  9 active torsions:
REMARK  status: ('A' for Active; 'I' for Inactive)
REMARK    1  A    between atoms: C_2  and  N_3
REMARK    2  A    between atoms: N_3  and  C_4
REMARK    3  A    between atoms: N_3  and  C_6
REMARK    4  A    between atoms: C_6  and  C_7
REMARK    5  A    between atoms: C_7  and  O_8
REMARK    6  A    between atoms: O_8  and  C_9
REMARK    7  A    between atoms: C_12  and  C_13
REMARK    8  A    between atoms: C_13  and  C_22
REMARK    9  A    between atoms: C_14  and  C_16
REMARK                            x       y       z     vdW  Elec       q    Type
REMARK                         _______ _______ _______ _____ _____    ______ ____
ROOT
ATOM      1  C   UNL     1      -1.804  -0.383  -0.011  0.00  0.00    +0.011 C 
ATOM      2  C   UNL     1      -2.272   0.620  -0.753  0.00  0.00    +0.058 C 
ATOM      3 CL   UNL     1      -1.221   1.225  -2.030  0.00  0.00    -0.082 Cl
ENDROOT
BRANCH   1   7
ATOM      4  C   UNL     1       2.389  -1.028  -0.225  0.00  0.00    +0.139 A 
ATOM      5  C   UNL     1       1.494  -1.639  -1.090  0.00  0.00    +0.037 A 
ATOM      6  C   UNL     1       0.135  -1.573  -0.945  0.00  0.00    +0.003 A 
ATOM      7  C   UNL     1      -0.374  -0.718   0.006  0.00  0.00    +0.001 A 
ATOM      8  C   UNL     1       0.466  -0.173   0.969  0.00  0.00    +0.003 A 
ATOM      9  C   UNL     1       1.833  -0.285   0.802  0.00  0.00    +0.037 A 
BRANCH   4  10
ATOM     10  O   UNL     1       3.621  -0.698  -0.750  0.00  0.00    -0.474 OA
BRANCH  10  11
ATOM     11  C   UNL     1       4.854  -1.155  -0.259  0.00  0.00    +0.223 C 
BRANCH  11  12
ATOM     12  C   UNL     1       5.310  -0.422   0.974  0.00  0.00    +0.120 C 
BRANCH  12  13
ATOM     13  N   UNL     1       5.365   1.011   0.795  0.00  0.00    -0.270 NA
BRANCH  13  15
ATOM     14  C   UNL     1       6.338   0.940  -1.406  0.00  0.00    +0.019 C 
ATOM     15  C   UNL     1       5.134   1.361  -0.601  0.00  0.00    +0.072 C 
ENDBRANCH  13  15
BRANCH  13  16
ATOM     16  C   UNL     1       6.720   1.464   1.099  0.00  0.00    +0.072 C 
ATOM     17  C   UNL     1       7.710   0.318   1.013  0.00  0.00    +0.019 C 
ENDBRANCH  13  16
ENDBRANCH  12  13
ENDBRANCH  11  12
ENDBRANCH  10  11
ENDBRANCH   4  10
ENDBRANCH   1   7
BRANCH   2  18
ATOM     18  C   UNL     1      -3.420   1.398  -0.268  0.00  0.00    +0.011 A 
ATOM     19  C   UNL     1      -4.181   2.139  -1.163  0.00  0.00    +0.001 A 
ATOM     20  C   UNL     1      -4.874   3.265  -0.736  0.00  0.00    +0.000 A 
ATOM     21  C   UNL     1      -4.493   3.874   0.453  0.00  0.00    +0.000 A 
ATOM     22  C   UNL     1      -3.975   3.028   1.424  0.00  0.00    +0.000 A 
ATOM     23  C   UNL     1      -3.543   1.769   1.065  0.00  0.00    +0.001 A 
ENDBRANCH   2  18
BRANCH   1  24
ATOM     24  C   UNL     1      -2.799  -1.201   0.691  0.00  0.00    +0.001 A 
ATOM     25  C   UNL     1      -2.329  -2.200   1.530  0.00  0.00    +0.000 A 
ATOM     26  C   UNL     1      -3.060  -3.342   1.807  0.00  0.00    +0.000 A 
ATOM     27  C   UNL     1      -4.184  -3.622   1.049  0.00  0.00    +0.000 A 
ATOM     28  C   UNL     1      -4.757  -2.587   0.340  0.00  0.00    +0.000 A 
ATOM     29  C   UNL     1      -4.081  -1.385   0.192  0.00  0.00    +0.000 A 
ENDBRANCH   1  24
TORSDOF 9
