REMARK  Name = 
REMARK  10 active torsions:
REMARK  status: ('A' for Active; 'I' for Inactive)
REMARK    1  A    between atoms: C_2  and  C_3
REMARK    2  A    between atoms: C_3  and  C_4
REMARK    3  A    between atoms: C_4  and  C_5
REMARK    4  A    between atoms: C_5  and  C_6
REMARK    5  A    between atoms: C_5  and  C_8
REMARK    6  A    between atoms: C_8  and  O_9
REMARK    7  A    between atoms: O_9  and  C_10
REMARK    8  A    between atoms: C_10  and  C_12
REMARK    9  A    between atoms: C_13  and  C_14
REMARK   10  A    between atoms: C_17  and  O_18
REMARK                            x       y       z     vdW  Elec       q    Type
REMARK                         _______ _______ _______ _____ _____    ______ ____
ROOT
ATOM      1  C   UNL     1      -0.234   0.414   0.498  0.00  0.00    +0.341 C 
ATOM      2  O   UNL     1      -0.126   1.668   0.335  0.00  0.00    -0.245 OA
ENDROOT
BRANCH   1   3
ATOM      3  C   UNL     1       0.158  -0.558  -0.532  0.00  0.00    +0.082 C 
ATOM      4  C   UNL     1       0.870  -0.064  -1.507  0.00  0.00    +0.007 C 
BRANCH   4   5
ATOM      5  C   UNL     1       2.154   0.514  -1.091  0.00  0.00    +0.000 A 
ATOM      6  C   UNL     1       3.113   0.510  -2.100  0.00  0.00    +0.003 A 
ATOM      7  C   UNL     1       4.417   0.082  -1.882  0.00  0.00    +0.037 A 
ATOM      8  C   UNL     1       4.847  -0.164  -0.591  0.00  0.00    +0.139 A 
ATOM      9  C   UNL     1       4.048   0.350   0.412  0.00  0.00    +0.037 A 
ATOM     10  C   UNL     1       2.677   0.383   0.183  0.00  0.00    +0.003 A 
BRANCH   8  11
ATOM     11  O   UNL     1       5.933  -1.006  -0.333  0.00  0.00    -0.471 OA
ATOM     12  C   UNL     1       5.827  -2.187   0.436  0.00  0.00    +0.252 C 
ENDBRANCH   8  11
ENDBRANCH   4   5
ENDBRANCH   1   3
BRANCH   1  13
ATOM     13  O   UNL     1      -1.490   0.072   1.014  0.00  0.00    -0.445 OA
BRANCH  13  14
ATOM     14  C   UNL     1      -2.273   0.759   1.877  0.00  0.00    +0.209 C 
BRANCH  14  15
ATOM     15  C   UNL     1      -3.436   1.596   1.060  0.00  0.00    +0.044 C 
BRANCH  15  16
ATOM     16  C   UNL     1      -3.376   0.655  -0.298  0.00  0.00    +0.004 C 
ATOM     17  C   UNL     1      -3.837   1.655  -1.334  0.00  0.00    +0.000 C 
ENDBRANCH  15  16
BRANCH  15  18
ATOM     18  C   UNL     1      -4.651   0.686   1.716  0.00  0.00    +0.004 C 
BRANCH  18  19
ATOM     19  C   UNL     1      -4.236  -0.742   1.570  0.00  0.00    +0.000 C 
BRANCH  19  21
ATOM     20  C   UNL     1      -5.501  -1.820   0.141  0.00  0.00    +0.000 C 
ATOM     21  C   UNL     1      -4.884  -1.468   0.426  0.00  0.00    +0.000 C 
ENDBRANCH  19  21
ENDBRANCH  18  19
ENDBRANCH  15  18
ENDBRANCH  14  15
ENDBRANCH  13  14
ENDBRANCH   1  13
TORSDOF 10
