REMARK  Name = 
REMARK  3 active torsions:
REMARK  status: ('A' for Active; 'I' for Inactive)
REMARK    1  A    between atoms: C_6  and  C_7
REMARK    2  A    between atoms: N_9  and  C_10
REMARK    3  A    between atoms: C_13  and  C_14
REMARK                            x       y       z     vdW  Elec       q    Type
REMARK                         _______ _______ _______ _____ _____    ______ ____
ROOT
ATOM      1  C   UNL     1      -0.337   0.118   0.561  0.00  0.00    +0.074 A 
ATOM      2  C   UNL     1      -1.274   1.083   0.911  0.00  0.00    +0.017 A 
ATOM      3  C   UNL     1      -2.600   0.996   0.511  0.00  0.00    +0.005 A 
ATOM      4  C   UNL     1      -3.086  -0.208   0.015  0.00  0.00    +0.072 A 
ATOM      5  C   UNL     1      -2.183  -1.198  -0.258  0.00  0.00    +0.005 A 
ATOM      6  C   UNL     1      -0.866  -1.109   0.176  0.00  0.00    +0.017 A 
ENDROOT
BRANCH   4   7
ATOM      7  C   UNL     1      -4.521  -0.548   0.197  0.00  0.00    +0.419 C 
ATOM      8  F   UNL     1      -5.050  -0.952  -1.000  0.00  0.00    -0.166 F 
ATOM      9  F   UNL     1      -5.204   0.604   0.571  0.00  0.00    -0.166 F 
ATOM     10  F   UNL     1      -4.650  -1.478   1.200  0.00  0.00    -0.166 F 
ENDBRANCH   4   7
BRANCH   1  12
ATOM     11  C   UNL     1       2.099   0.143   0.841  0.00  0.00    +0.273 C 
ATOM     12  N   UNL     1       0.958   0.520   0.101  0.00  0.00    -0.175 NA
ATOM     13  O   UNL     1       2.040   0.249   2.088  0.00  0.00    -0.268 OA
BRANCH  11  16
ATOM     14  C   UNL     1       2.780  -0.709  -2.078  0.00  0.00    +0.076 C 
ATOM     15  C   UNL     1       3.651   0.102  -1.172  0.00  0.00    +0.159 A 
ATOM     16  C   UNL     1       3.397   0.230   0.184  0.00  0.00    +0.111 A 
ATOM     17  C   UNL     1       4.598   0.669   0.726  0.00  0.00    +0.148 A 
ATOM     18  N   UNL     1       5.418   0.852  -0.313  0.00  0.00    -0.076 NA
ATOM     19  O   UNL     1       4.829   0.638  -1.441  0.00  0.00    -0.358 OA
ENDBRANCH  11  16
ENDBRANCH   1  12
TORSDOF 3
