REMARK  Name = 
REMARK  0 active torsions:
REMARK  status: ('A' for Active; 'I' for Inactive)
REMARK                            x       y       z     vdW  Elec       q    Type
REMARK                         _______ _______ _______ _____ _____    ______ ____
ROOT
ATOM      1  C   UNL     1      -2.877  -0.362   0.950  0.00  0.00    +0.003 C 
ATOM      2  C   UNL     1      -2.567  -0.724  -0.378  0.00  0.00    +0.028 C 
ATOM      3  C   UNL     1      -3.890  -0.477  -1.366  0.00  0.00    +0.152 C 
ATOM      4  O   UNL     1      -4.847  -1.181  -0.374  0.00  0.00    -0.223 OA
ATOM      5  C   UNL     1      -4.207   1.018  -0.672  0.00  0.00    +0.033 C 
ATOM      6  C   UNL     1      -2.864   1.551  -0.397  0.00  0.00    +0.003 C 
ATOM      7  C   UNL     1      -1.897   0.515  -1.211  0.00  0.00    +0.002 C 
ATOM      8  C   UNL     1      -0.608   0.625  -0.100  0.00  0.00    +0.001 C 
ATOM      9  C   UNL     1      -0.084   1.970  -0.808  0.00  0.00    +0.004 C 
ATOM     10  C   UNL     1       1.377   2.091  -0.637  0.00  0.00    +0.022 C 
ATOM     11  C   UNL     1       1.883   0.959   0.214  0.00  0.00    -0.042 C 
ATOM     12  C   UNL     1       1.612  -0.424  -0.185  0.00  0.00    +0.016 C 
ATOM     13  C   UNL     1       1.587  -1.439   0.846  0.00  0.00    +0.004 C 
ATOM     14  C   UNL     1       2.675  -0.761  -1.228  0.00  0.00    +0.012 C 
ATOM     15  C   UNL     1       3.985  -0.957  -0.478  0.00  0.00    +0.069 C 
ATOM     16  C   UNL     1       4.165   0.100   0.544  0.00  0.00    +0.173 C 
ATOM     17  O   UNL     1       5.341   0.359   0.947  0.00  0.00    -0.291 OA
ATOM     18  C   UNL     1       3.138   1.145   0.637  0.00  0.00    +0.029 C 
ATOM     19  C   UNL     1       0.277  -0.417  -1.123  0.00  0.00    +0.003 C 
ATOM     20  C   UNL     1      -0.387  -1.752  -0.437  0.00  0.00    +0.000 C 
ATOM     21  C   UNL     1      -1.810  -1.839  -0.842  0.00  0.00    +0.002 C 
ENDROOT
TORSDOF 0
