REMARK  Name = 
REMARK  0 active torsions:
REMARK  status: ('A' for Active; 'I' for Inactive)
REMARK                            x       y       z     vdW  Elec       q    Type
REMARK                         _______ _______ _______ _____ _____    ______ ____
ROOT
ATOM      1  N   UNL     1      -1.549   2.101  -0.228  0.00  0.00    -0.105 NA
ATOM      2  C   UNL     1      -1.112   0.783   0.013  0.00  0.00    +0.192 A 
ATOM      3  C   UNL     1       0.227   0.484   0.241  0.00  0.00    +0.153 A 
ATOM      4  C   UNL     1       0.630  -0.844   0.171  0.00  0.00    +0.186 A 
ATOM      5  N   UNL     1       1.944  -0.797  -0.162  0.00  0.00    -0.203 NA
ATOM      6  C   UNL     1       2.403   0.471  -0.024  0.00  0.00    +0.200 A 
ATOM      7  N   UNL     1      -0.283  -1.767  -0.217  0.00  0.00    -0.203 NA
ATOM      8  C   UNL     1      -1.579  -1.490   0.058  0.00  0.00    +0.202 A 
ATOM      9  N   UNL     1       1.314   1.272   0.062  0.00  0.00    -0.218 NA
ATOM     10  N   UNL     1      -1.995  -0.214   0.086  0.00  0.00    -0.204 NA
ENDROOT
TORSDOF 0
