REMARK  Name = 
REMARK  10 active torsions:
REMARK  status: ('A' for Active; 'I' for Inactive)
REMARK    1  A    between atoms: C_2  and  C_3
REMARK    2  A    between atoms: C_13  and  C_14
REMARK    3  A    between atoms: C_14  and  C_15
REMARK    4  A    between atoms: C_15  and  O_17
REMARK    5  A    between atoms: C_24  and  C_26
REMARK    6  A    between atoms: C_40  and  O_41
REMARK    7  A    between atoms: C_48  and  C_50
REMARK    8  A    between atoms: C_50  and  O_52
REMARK    9  A    between atoms: C_54  and  O_55
REMARK   10  A    between atoms: O_55  and  C_56
REMARK                            x       y       z     vdW  Elec       q    Type
REMARK                         _______ _______ _______ _____ _____    ______ ____
ROOT
ATOM      1  C   UNL     1       4.990   0.495  -1.032  0.00  0.00    +0.072 C 
ATOM      2  C   UNL     1       3.469   0.008  -1.317  0.00  0.00    +0.070 C 
ATOM      3  N   UNL     1       3.147   1.173  -2.312  0.00  0.00    -0.269 NA
ATOM      4  C   UNL     1       2.031   1.831  -1.780  0.00  0.00    +0.073 C 
ATOM      5  C   UNL     1       2.600   2.116  -0.389  0.00  0.00    +0.024 C 
ATOM      6  C   UNL     1       4.224   1.864  -2.783  0.00  0.00    +0.099 C 
ATOM      7  C   UNL     1       4.924   2.646  -1.701  0.00  0.00    -0.013 C 
ATOM      8  C   UNL     1       2.803   0.726  -0.029  0.00  0.00    +0.055 C 
ATOM      9  C   UNL     1       3.857   0.563   1.191  0.00  0.00    +0.120 C 
ATOM     10  C   UNL     1       4.367  -0.930   0.845  0.00  0.00    +0.268 C 
ATOM     11  O   UNL     1       4.992  -1.377   2.024  0.00  0.00    -0.209 OA
ATOM     12  N   UNL     1       2.809   0.004   2.238  0.00  0.00    -0.304 N 
ATOM     13  C   UNL     1       3.338  -0.191   3.568  0.00  0.00    +0.112 C 
ATOM     14  C   UNL     1       1.564   0.450   1.772  0.00  0.00    +0.047 A 
ATOM     15  C   UNL     1       0.427   0.790   2.455  0.00  0.00    +0.051 A 
ATOM     16  C   UNL     1      -0.787   0.760   1.779  0.00  0.00    +0.137 A 
ATOM     17  C   UNL     1      -0.823   0.081   0.566  0.00  0.00    +0.026 A 
ATOM     18  C   UNL     1       0.362  -0.160  -0.127  0.00  0.00    -0.003 A 
ATOM     19  C   UNL     1       1.606   0.097   0.423  0.00  0.00    -0.007 A 
ATOM     20  C   UNL     1       5.651  -0.676  -0.128  0.00  0.00    +0.213 C 
ATOM     21  C   UNL     1       5.195   1.799  -0.688  0.00  0.00    -0.025 C 
ENDROOT
BRANCH  17  22
ATOM     22  C   UNL     1      -2.137  -0.401   0.054  0.00  0.00    +0.146 C 
ATOM     23  C   UNL     1      -2.735   0.674  -0.758  0.00  0.00    +0.068 A 
ATOM     24  C   UNL     1      -3.887   0.494  -1.517  0.00  0.00    -0.005 A 
ATOM     25  C   UNL     1      -4.557   1.707  -1.463  0.00  0.00    +0.015 A 
ATOM     26  C   UNL     1      -3.570   2.624  -1.165  0.00  0.00    +0.081 A 
ATOM     27  C   UNL     1      -3.969   3.946  -1.055  0.00  0.00    +0.019 A 
ATOM     28  C   UNL     1      -5.302   4.272  -0.839  0.00  0.00    +0.002 A 
ATOM     29  C   UNL     1      -6.284   3.319  -1.084  0.00  0.00    +0.000 A 
ATOM     30  C   UNL     1      -5.891   2.073  -1.562  0.00  0.00    +0.001 A 
ATOM     31  C   UNL     1      -4.260  -0.860  -1.925  0.00  0.00    +0.045 C 
ATOM     32  C   UNL     1      -5.623  -1.302  -1.543  0.00  0.00    +0.077 C 
ATOM     33  N   UNL     1      -5.633  -2.340  -0.511  0.00  0.00    -0.270 NA
ATOM     34  C   UNL     1      -6.681  -1.985   0.365  0.00  0.00    +0.103 C 
ATOM     35  C   UNL     1      -6.417  -1.878   1.809  0.00  0.00    +0.141 C 
ATOM     36  C   UNL     1      -5.074  -1.321   2.203  0.00  0.00    +0.033 C 
ATOM     37  C   UNL     1      -4.507  -0.757   0.784  0.00  0.00    +0.020 C 
ATOM     38  O   UNL     1      -6.642  -3.113   2.442  0.00  0.00    -0.224 OA
ATOM     39  C   UNL     1      -4.372  -2.263   0.170  0.00  0.00    +0.072 C 
ATOM     40  N   UNL     1      -2.397   1.961  -1.032  0.00  0.00    -0.249 NA
ATOM     41  C   UNL     1      -2.955  -0.759   1.275  0.00  0.00    +0.022 C 
BRANCH  35  42
ATOM     42  C   UNL     1      -7.526  -0.976   2.355  0.00  0.00    +0.032 C 
ATOM     43  C   UNL     1      -8.745  -1.089   1.444  0.00  0.00    +0.003 C 
ENDBRANCH  35  42
BRANCH  22  44
ATOM     44  C   UNL     1      -1.811  -1.617  -0.751  0.00  0.00    +0.325 C 
ATOM     45  O   UNL     1      -1.250  -1.440  -1.876  0.00  0.00    -0.249 OA
BRANCH  44  46
ATOM     46  O   UNL     1      -1.218  -2.634   0.011  0.00  0.00    -0.444 OA
ATOM     47  C   UNL     1      -0.667  -3.750  -0.680  0.00  0.00    +0.256 C 
ENDBRANCH  44  46
ENDBRANCH  22  44
ENDBRANCH  17  22
BRANCH  16  48
ATOM     48  O   UNL     1      -1.782   1.717   1.977  0.00  0.00    -0.472 OA
ATOM     49  C   UNL     1      -1.494   3.026   2.464  0.00  0.00    +0.252 C 
ENDBRANCH  16  48
BRANCH  10  50
ATOM     50  C   UNL     1       3.489  -1.890   0.405  0.00  0.00    +0.350 C 
ATOM     51  O   UNL     1       2.842  -2.555   1.280  0.00  0.00    -0.247 OA
BRANCH  50  52
ATOM     52  O   UNL     1       4.003  -2.804  -0.539  0.00  0.00    -0.443 OA
ATOM     53  C   UNL     1       3.409  -4.027  -0.842  0.00  0.00    +0.256 C 
ENDBRANCH  50  52
ENDBRANCH  10  50
BRANCH   1  55
ATOM     54  C   UNL     1       6.634   0.237  -2.228  0.00  0.00    +0.001 C 
ATOM     55  C   UNL     1       5.784   0.213  -2.309  0.00  0.00    +0.009 C 
ENDBRANCH   1  55
BRANCH  20  56
ATOM     56  O   UNL     1       6.278   0.326   0.870  0.00  0.00    -0.449 OA
BRANCH  56  57
ATOM     57  C   UNL     1       7.637   0.382   0.903  0.00  0.00    +0.318 C 
ATOM     58  O   UNL     1       8.286  -0.663   0.632  0.00  0.00    -0.250 OA
ATOM     59  C   UNL     1       8.277   1.389   1.801  0.00  0.00    +0.121 C 
ENDBRANCH  56  57
ENDBRANCH  20  56
TORSDOF 10
