REMARK  Name = 
REMARK  3 active torsions:
REMARK  status: ('A' for Active; 'I' for Inactive)
REMARK    1  A    between atoms: C_5  and  N_6
REMARK    2  A    between atoms: N_9  and  C_10
REMARK    3  A    between atoms: C_10  and  C_11
REMARK                            x       y       z     vdW  Elec       q    Type
REMARK                         _______ _______ _______ _____ _____    ______ ____
ROOT
ATOM      1  C   UNL     1       0.759   2.595  -0.928  0.00  0.00    +0.072 C 
ATOM      2  C   UNL     1       0.199   1.651  -0.104  0.00  0.00    +0.125 A 
ATOM      3  N   UNL     1       0.135   0.298  -0.213  0.00  0.00    -0.255 N 
ATOM      4  C   UNL     1      -1.024  -0.148   0.327  0.00  0.00    +0.378 A 
ATOM      5  C   UNL     1      -1.406   0.858   1.204  0.00  0.00    +0.195 A 
ATOM      6  N   UNL     1      -0.759   1.971   0.802  0.00  0.00    -0.223 NA
ENDROOT
BRANCH   4   7
ATOM      7  N   UNL     1      -1.744  -1.337  -0.009  0.00  0.00    +0.101 N 
ATOM      8  O   UNL     1      -2.818  -1.652   0.803  0.00  0.00    -0.575 OA
ATOM      9  O   UNL     1      -1.882  -1.590  -1.225  0.00  0.00    +0.043 OA
ENDBRANCH   4   7
BRANCH   3  10
ATOM     10  C   UNL     1       1.049  -0.419  -1.024  0.00  0.00    +0.146 C 
BRANCH  10  11
ATOM     11  C   UNL     1       2.011  -1.311   0.024  0.00  0.00    +0.175 C 
ATOM     12  O   UNL     1       2.080  -0.176   1.075  0.00  0.00    -0.221 OA
ATOM     13  C   UNL     1       3.400  -0.739  -0.731  0.00  0.00    +0.038 C 
ENDBRANCH  10  11
ENDBRANCH   3  10
TORSDOF 3
