REMARK  Name = 
REMARK  1 active torsions:
REMARK  status: ('A' for Active; 'I' for Inactive)
REMARK    1  A    between atoms: O_2  and  C_3
REMARK                            x       y       z     vdW  Elec       q    Type
REMARK                         _______ _______ _______ _____ _____    ______ ____
ROOT
ATOM      1  C   UNL     1       2.659   0.150  -0.432  0.00  0.00    +0.172 A 
ATOM      2  C   UNL     1       1.485   0.581   0.183  0.00  0.00    +0.168 A 
ATOM      3  O   UNL     1       1.163   1.559   1.037  0.00  0.00    -0.473 OA
ATOM      4  C   UNL     1      -0.278   1.403   1.535  0.00  0.00    +0.204 C 
ATOM      5  C   UNL     1      -0.651   0.158   0.585  0.00  0.00    +0.067 C 
ATOM      6  C   UNL     1      -2.147   0.354   0.117  0.00  0.00    +0.044 C 
ATOM      7  C   UNL     1      -2.323  -1.000  -0.916  0.00  0.00    +0.066 C 
ATOM      8  N   UNL     1      -2.764  -1.923   0.279  0.00  0.00    -0.272 NA
ATOM      9  C   UNL     1      -1.988  -1.781   1.385  0.00  0.00    +0.073 C 
ATOM     10  C   UNL     1      -2.564  -3.287  -0.228  0.00  0.00    +0.090 C 
ATOM     11  C   UNL     1      -0.872  -1.696  -0.932  0.00  0.00    +0.042 C 
ATOM     12  C   UNL     1       0.164  -0.790  -1.383  0.00  0.00    -0.022 A 
ATOM     13  C   UNL     1       1.355  -1.248  -1.934  0.00  0.00    -0.001 A 
ATOM     14  C   UNL     1      -1.773   1.305  -1.124  0.00  0.00    -0.027 C 
ATOM     15  C   UNL     1      -0.795   2.145  -0.850  0.00  0.00    +0.005 C 
ATOM     16  C   UNL     1      -0.811  -0.977   1.571  0.00  0.00    +0.025 C 
ATOM     17  C   UNL     1      -0.969   2.719   0.636  0.00  0.00    +0.214 C 
ATOM     18  O   UNL     1       0.312   3.526   0.506  0.00  0.00    -0.214 OA
ATOM     19  C   UNL     1       0.353   0.037  -0.310  0.00  0.00    +0.014 A 
ATOM     20  C   UNL     1       2.589  -0.807  -1.448  0.00  0.00    +0.040 A 
ENDROOT
BRANCH   1  22
ATOM     21  C   UNL     1       4.016  -0.641   1.413  0.00  0.00    +0.253 C 
ATOM     22  O   UNL     1       3.839   0.210   0.310  0.00  0.00    -0.468 OA
ENDBRANCH   1  22
TORSDOF 1
