REMARK  Name = 
REMARK  2 active torsions:
REMARK  status: ('A' for Active; 'I' for Inactive)
REMARK    1  A    between atoms: N_2  and  C_3
REMARK    2  A    between atoms: C_11  and  C_12
REMARK                            x       y       z     vdW  Elec       q    Type
REMARK                         _______ _______ _______ _____ _____    ______ ____
ROOT
ATOM      1  C   UNL     1      -3.337   0.595  -0.274  0.00  0.00    +0.078 C 
ATOM      2  C   UNL     1      -1.853   1.043   0.275  0.00  0.00    +0.045 C 
ATOM      3  C   UNL     1      -0.996  -0.166   0.069  0.00  0.00    -0.006 A 
ATOM      4  C   UNL     1      -1.474  -1.451   0.262  0.00  0.00    +0.055 A 
ATOM      5  N   UNL     1      -0.451  -2.282   0.538  0.00  0.00    -0.250 NA
ATOM      6  C   UNL     1       0.674  -1.567   0.513  0.00  0.00    +0.081 A 
ATOM      7  C   UNL     1       1.997  -1.901   0.747  0.00  0.00    +0.019 A 
ATOM      8  C   UNL     1       3.029  -1.080   0.338  0.00  0.00    +0.006 A 
ATOM      9  C   UNL     1       2.695   0.084  -0.345  0.00  0.00    +0.057 A 
ATOM     10  C   UNL     1       1.388   0.529  -0.382  0.00  0.00    +0.006 A 
ATOM     11  C   UNL     1      -2.927  -1.737   0.411  0.00  0.00    +0.047 C 
ATOM     12  C   UNL     1       0.364  -0.314   0.016  0.00  0.00    +0.015 A 
ATOM     13  C   UNL     1      -3.546  -0.464   0.965  0.00  0.00    +0.024 C 
ENDROOT
BRANCH   9  14
ATOM     14  C   UNL     1       3.735   1.098  -0.405  0.00  0.00    +0.284 C 
ATOM     15  O   UNL     1       4.046   1.543  -1.523  0.00  0.00    -0.267 OA
ATOM     16  N   UNL     1       4.266   1.706   0.749  0.00  0.00    -0.084 NA
ENDBRANCH   9  14
BRANCH   1  18
ATOM     17  C   UNL     1      -3.559   2.610   0.152  0.00  0.00    +0.107 C 
ATOM     18  N   UNL     1      -4.051   1.752   0.524  0.00  0.00    -0.218 NA
ENDBRANCH   1  18
TORSDOF 2
