REMARK  Name = 
REMARK  0 active torsions:
REMARK  status: ('A' for Active; 'I' for Inactive)
REMARK                            x       y       z     vdW  Elec       q    Type
REMARK                         _______ _______ _______ _____ _____    ______ ____
ROOT
ATOM      1  C   UNL     1      -2.999   0.460  -1.318  0.00  0.00    +0.003 C 
ATOM      2  C   UNL     1      -2.455   0.781  -0.056  0.00  0.00    +0.028 C 
ATOM      3  C   UNL     1      -3.650   0.611   1.106  0.00  0.00    +0.152 C 
ATOM      4  O   UNL     1      -4.630   1.503   0.299  0.00  0.00    -0.223 OA
ATOM      5  C   UNL     1      -4.226  -0.778   0.347  0.00  0.00    +0.033 C 
ATOM      6  C   UNL     1      -2.948  -1.470  -0.018  0.00  0.00    +0.003 C 
ATOM      7  C   UNL     1      -1.831  -0.524   0.719  0.00  0.00    +0.003 C 
ATOM      8  C   UNL     1      -0.626  -0.715  -0.473  0.00  0.00    +0.004 C 
ATOM      9  C   UNL     1       0.326   0.392   0.421  0.00  0.00    +0.022 C 
ATOM     10  C   UNL     1       1.606   0.232  -0.562  0.00  0.00    -0.026 A 
ATOM     11  C   UNL     1       2.186  -0.986  -0.219  0.00  0.00    -0.023 A 
ATOM     12  C   UNL     1       1.348  -2.211  -0.424  0.00  0.00    +0.026 C 
ATOM     13  C   UNL     1       3.529  -1.155   0.005  0.00  0.00    +0.037 A 
ATOM     14  C   UNL     1       4.364  -0.072   0.060  0.00  0.00    +0.195 A 
ATOM     15  O   UNL     1       5.588  -0.099   0.736  0.00  0.00    -0.287 OA
ATOM     16  C   UNL     1       3.859   1.136  -0.334  0.00  0.00    +0.042 A 
ATOM     17  C   UNL     1       2.489   1.295  -0.391  0.00  0.00    -0.001 A 
ATOM     18  C   UNL     1      -0.288   1.670  -0.418  0.00  0.00    +0.004 C 
ATOM     19  C   UNL     1       0.004  -1.999   0.266  0.00  0.00    +0.005 C 
ATOM     20  C   UNL     1      -1.645   1.930   0.251  0.00  0.00    +0.003 C 
ENDROOT
TORSDOF 0
