REMARK  Name = 
REMARK  12 active torsions:
REMARK  status: ('A' for Active; 'I' for Inactive)
REMARK    1  A    between atoms: C_2  and  C_3
REMARK    2  A    between atoms: C_3  and  C_4
REMARK    3  A    between atoms: C_4  and  C_5
REMARK    4  A    between atoms: C_5  and  C_6
REMARK    5  A    between atoms: C_6  and  C_9
REMARK    6  A    between atoms: C_10  and  C_11
REMARK    7  A    between atoms: C_12  and  C_13
REMARK    8  A    between atoms: C_13  and  C_14
REMARK    9  A    between atoms: C_15  and  C_16
REMARK   10  A    between atoms: C_16  and  C_17
REMARK   11  A    between atoms: C_17  and  C_18
REMARK   12  A    between atoms: C_18  and  C_19
REMARK                            x       y       z     vdW  Elec       q    Type
REMARK                         _______ _______ _______ _____ _____    ______ ____
ROOT
ATOM      1  C   UNL     1      -0.730  -0.092   0.322  0.00  0.00    +0.055 C 
ATOM      2  C   UNL     1      -1.284  -0.429   1.898  0.00  0.00    +0.159 C 
ATOM      3  O   UNL     1      -0.718  -1.843   1.966  0.00  0.00    -0.223 OA
ATOM      4  C   UNL     1      -0.041   0.140   2.757  0.00  0.00    +0.066 C 
ATOM      5  C   UNL     1       0.935   0.879   1.715  0.00  0.00    +0.155 C 
ATOM      6  O   UNL     1      -0.167   1.719   1.098  0.00  0.00    -0.223 OA
ATOM      7  C   UNL     1       0.833  -0.482   0.697  0.00  0.00    +0.041 C 
ENDROOT
BRANCH   1   9
ATOM      8  C   UNL     1      -2.211  -1.514  -1.003  0.00  0.00    -0.001 C 
ATOM      9  C   UNL     1      -1.129  -1.510  -0.289  0.00  0.00    -0.026 C 
BRANCH   8  10
ATOM     10  C   UNL     1      -3.489  -2.163  -0.961  0.00  0.00    +0.145 C 
ATOM     11  O   UNL     1      -3.479  -3.488  -0.482  0.00  0.00    -0.221 OA
ATOM     12  C   UNL     1      -3.933  -2.293  -2.420  0.00  0.00    +0.038 C 
BRANCH  10  13
ATOM     13  C   UNL     1      -4.583  -1.531  -0.196  0.00  0.00    +0.035 C 
BRANCH  13  14
ATOM     14  C   UNL     1      -4.782  -0.067  -0.305  0.00  0.00    +0.003 C 
BRANCH  14  15
ATOM     15  C   UNL     1      -5.961   0.218   0.602  0.00  0.00    +0.000 C 
BRANCH  15  17
ATOM     16  C   UNL     1      -7.334   1.660   0.914  0.00  0.00    +0.000 C 
ATOM     17  C   UNL     1      -6.362   1.689   0.574  0.00  0.00    +0.000 C 
ENDBRANCH  15  17
ENDBRANCH  14  15
ENDBRANCH  13  14
ENDBRANCH  10  13
ENDBRANCH   8  10
ENDBRANCH   1   9
BRANCH   7  18
ATOM     18  C   UNL     1       1.482   0.341  -0.521  0.00  0.00    +0.029 C 
BRANCH  18  19
ATOM     19  C   UNL     1       2.627  -0.487  -0.972  0.00  0.00    -0.031 C 
ATOM     20  C   UNL     1       3.848   0.019  -0.746  0.00  0.00    -0.031 C 
BRANCH  20  21
ATOM     21  C   UNL     1       4.116   0.252   0.695  0.00  0.00    +0.026 C 
BRANCH  21  22
ATOM     22  C   UNL     1       4.702   1.559   0.965  0.00  0.00    +0.016 C 
BRANCH  22  23
ATOM     23  C   UNL     1       5.704   2.218   0.305  0.00  0.00    +0.114 C 
BRANCH  23  24
ATOM     24  C   UNL     1       6.865   1.829  -0.388  0.00  0.00    +0.365 C 
ATOM     25  O   UNL     1       7.465   0.587  -0.316  0.00  0.00    -0.246 OA
ATOM     26  O   UNL     1       7.626   2.789  -0.742  0.00  0.00    -0.246 OA
ENDBRANCH  23  24
ENDBRANCH  22  23
ENDBRANCH  21  22
ENDBRANCH  20  21
ENDBRANCH  18  19
ENDBRANCH   7  18
TORSDOF 12
