REMARK  Name = 
REMARK  9 active torsions:
REMARK  status: ('A' for Active; 'I' for Inactive)
REMARK    1  A    between atoms: C_8  and  C_9
REMARK    2  A    between atoms: C_9  and  N_10
REMARK    3  A    between atoms: N_10  and  C_11
REMARK    4  A    between atoms: C_14  and  C_15
REMARK    5  A    between atoms: N_17  and  CA_18
REMARK    6  A    between atoms: CA_18  and  CB_19
REMARK    7  A    between atoms: CA_18  and  C_24
REMARK    8  A    between atoms: CB_19  and  CG_20
REMARK    9  A    between atoms: CG_20  and  CD_21
REMARK                            x       y       z     vdW  Elec       q    Type
REMARK                         _______ _______ _______ _____ _____    ______ ____
ROOT
ATOM      1  C   UNK A   0      -0.997  -0.045  -0.282  0.00  0.00    +0.066 A 
ATOM      2  C   UNK A   0      -0.366  -0.176   0.950  0.00  0.00    +0.016 A 
ATOM      3  C   UNK A   0       1.003   0.052   1.088  0.00  0.00    +0.006 A 
ATOM      4  C   UNK A   0       1.770   0.466   0.001  0.00  0.00    +0.055 A 
ATOM      5  C   UNK A   0       1.031   1.080  -1.004  0.00  0.00    +0.006 A 
ATOM      6  C   UNK A   0      -0.321   0.789  -1.167  0.00  0.00    +0.016 A 
ENDROOT
BRANCH   4   7
ATOM      7  C   UNK A   0       3.067  -0.178  -0.271  0.00  0.00    +0.265 C 
ATOM      8  N   GLU A   1       4.236   0.588  -0.064  0.00  0.00    -0.192 NA
ATOM      9  O   UNK A   0       3.135  -1.363  -0.727  0.00  0.00    -0.268 OA
BRANCH   8  10
ATOM     10  CA  GLU A   1       5.576  -0.205  -0.302  0.00  0.00    +0.199 C 
BRANCH  10  11
ATOM     11  C   GLU A   1       5.230  -1.305   0.819  0.00  0.00    +0.384 C 
ATOM     12  OXT GLU A   1       5.591  -2.595   0.532  0.00  0.00    -0.244 OA
ATOM     13  O   GLU A   1       4.804  -0.924   1.913  0.00  0.00    -0.244 OA
ENDBRANCH  10  11
BRANCH  10  14
ATOM     14  CB  GLU A   1       6.405   0.742   0.757  0.00  0.00    +0.045 C 
BRANCH  14  15
ATOM     15  CG  GLU A   1       6.452   2.042  -0.039  0.00  0.00    +0.116 C 
BRANCH  15  16
ATOM     16  CD  GLU A   1       7.799   2.069  -0.691  0.00  0.00    +0.365 C 
ATOM     17  OE2 GLU A   1       8.242   0.845  -1.203  0.00  0.00    -0.246 OA
ATOM     18  OE1 GLU A   1       8.663   2.814  -0.136  0.00  0.00    -0.246 OA
ENDBRANCH  15  16
ENDBRANCH  14  15
ENDBRANCH  10  14
ENDBRANCH   8  10
ENDBRANCH   4   7
BRANCH   1  19
ATOM     19  N   UNK A   0      -1.894  -1.041  -0.793  0.00  0.00    -0.231 NA
BRANCH  19  20
ATOM     20  C   UNK A   0      -2.304  -2.158   0.034  0.00  0.00    +0.159 C 
BRANCH  20  27
ATOM     21  N   UNK A   0      -6.332   2.704  -1.548  0.00  0.00    -0.086 NA
ATOM     22  C   UNK A   0      -6.449   1.599  -0.849  0.00  0.00    +0.261 A 
ATOM     23  N   UNK A   0      -6.547   0.345  -1.359  0.00  0.00    -0.190 NA
ATOM     24  C   UNK A   0      -6.039  -0.723  -0.702  0.00  0.00    +0.188 A 
ATOM     25  C   UNK A   0      -5.525  -0.575   0.583  0.00  0.00    +0.174 A 
ATOM     26  N   UNK A   0      -4.435  -1.284   0.965  0.00  0.00    -0.238 NA
ATOM     27  C   UNK A   0      -3.800  -2.108   0.094  0.00  0.00    +0.100 A 
ATOM     28  C   UNK A   0      -4.590  -2.576  -0.950  0.00  0.00    +0.117 A 
ATOM     29  C   UNK A   0      -5.906   0.596   1.230  0.00  0.00    +0.302 A 
ATOM     30  O   UNK A   0      -5.498   0.731   2.562  0.00  0.00    -0.263 OA
ATOM     31  N   UNK A   0      -5.688  -1.873  -1.325  0.00  0.00    -0.222 NA
ATOM     32  N   UNK A   0      -6.312   1.665   0.499  0.00  0.00    -0.171 NA
ENDBRANCH  20  27
ENDBRANCH  19  20
ENDBRANCH   1  19
TORSDOF 9
