REMARK  Name = 
REMARK  8 active torsions:
REMARK  status: ('A' for Active; 'I' for Inactive)
REMARK    1  A    between atoms: C_2  and  C_3
REMARK    2  A    between atoms: C_2  and  N_11
REMARK    3  A    between atoms: C_3  and  O_4
REMARK    4  A    between atoms: O_4  and  C_5
REMARK    5  A    between atoms: N_11  and  C_12
REMARK    6  A    between atoms: N_11  and  C_15
REMARK    7  A    between atoms: C_12  and  C_13
REMARK    8  A    between atoms: C_15  and  C_16
REMARK                            x       y       z     vdW  Elec       q    Type
REMARK                         _______ _______ _______ _____ _____    ______ ____
ROOT
ATOM      1  N   UNL     1      -1.142   0.837   0.286  0.00  0.00    -0.266 NA
ENDROOT
BRANCH   1   3
ATOM      2  C   UNL     1       0.411   2.666   0.544  0.00  0.00    +0.021 C 
ATOM      3  C   UNL     1       0.391   1.111  -0.070  0.00  0.00    +0.102 C 
BRANCH   3   4
ATOM      4  C   UNL     1       0.883   0.492   1.401  0.00  0.00    +0.221 C 
BRANCH   4   5
ATOM      5  O   UNL     1       1.778  -0.537   1.065  0.00  0.00    -0.474 OA
BRANCH   5   6
ATOM      6  C   UNL     1       2.983  -0.199   0.469  0.00  0.00    +0.139 A 
ATOM      7  C   UNL     1       3.825   0.736   1.052  0.00  0.00    +0.037 A 
ATOM      8  C   UNL     1       5.188   0.605   0.930  0.00  0.00    +0.003 A 
ATOM      9  C   UNL     1       5.765  -0.425   0.196  0.00  0.00    +0.000 A 
ATOM     10  C   UNL     1       4.895  -1.132  -0.626  0.00  0.00    +0.003 A 
ATOM     11  C   UNL     1       3.539  -0.931  -0.573  0.00  0.00    +0.037 A 
ENDBRANCH   5   6
ENDBRANCH   4   5
ENDBRANCH   3   4
ENDBRANCH   1   3
BRANCH   1  12
ATOM     12  C   UNL     1      -1.539   0.095  -0.912  0.00  0.00    +0.099 C 
BRANCH  12  13
ATOM     13  C   UNL     1      -2.444  -1.044  -0.562  0.00  0.00    -0.006 A 
ATOM     14  C   UNL     1      -1.877  -2.079   0.173  0.00  0.00    -0.003 A 
ATOM     15  C   UNL     1      -2.623  -3.123   0.643  0.00  0.00    -0.000 A 
ATOM     16  C   UNL     1      -3.999  -3.083   0.474  0.00  0.00    -0.000 A 
ATOM     17  C   UNL     1      -4.596  -1.935  -0.010  0.00  0.00    -0.000 A 
ATOM     18  C   UNL     1      -3.820  -0.889  -0.486  0.00  0.00    -0.003 A 
ENDBRANCH  12  13
ENDBRANCH   1  12
BRANCH   1  19
ATOM     19  C   UNL     1      -1.803   2.048   0.471  0.00  0.00    +0.090 C 
BRANCH  19  20
ATOM     20  C   UNL     1      -2.614   2.586  -0.654  0.00  0.00    +0.112 C 
ATOM     21 CL   UNL     1      -3.199   4.201  -0.155  0.00  0.00    -0.112 Cl
ENDBRANCH  19  20
ENDBRANCH   1  19
TORSDOF 8
