REMARK  Name = 
REMARK  3 active torsions:
REMARK  status: ('A' for Active; 'I' for Inactive)
REMARK    1  A    between atoms: N_2  and  C_3
REMARK    2  A    between atoms: C_3  and  C_4
REMARK    3  A    between atoms: C_4  and  C_6
REMARK                            x       y       z     vdW  Elec       q    Type
REMARK                         _______ _______ _______ _____ _____    ______ ____
ROOT
ATOM      1  C   UNL     1      -0.024  -0.368   0.003  0.00  0.00    +0.012 A 
ATOM      2  C   UNL     1      -0.574   0.916   0.019  0.00  0.00    +0.040 A 
ATOM      3  C   UNL     1      -1.935   1.131  -0.021  0.00  0.00    +0.196 A 
ATOM      4  O   UNL     1      -2.534   2.363  -0.149  0.00  0.00    -0.287 OA
ATOM      5  C   UNL     1      -2.788   0.036  -0.095  0.00  0.00    +0.042 A 
ATOM      6  C   UNL     1      -2.261  -1.240  -0.151  0.00  0.00    +0.003 A 
ATOM      7  C   UNL     1      -0.933  -1.356   0.161  0.00  0.00    -0.002 A 
ENDROOT
BRANCH   1   8
ATOM      8  C   UNL     1       1.362  -0.441   0.840  0.00  0.00    +0.192 C 
ATOM      9  O   UNL     1       1.296  -1.942   1.103  0.00  0.00    -0.217 OA
BRANCH   8  10
ATOM     10  C   UNL     1       2.248  -0.703  -0.534  0.00  0.00    +0.126 C 
BRANCH  10  12
ATOM     11  C   UNL     1       2.838   1.317  -0.735  0.00  0.00    +0.108 C 
ATOM     12  N   UNL     1       3.306   0.286  -0.441  0.00  0.00    -0.213 NA
ENDBRANCH  10  12
ENDBRANCH   8  10
ENDBRANCH   1   8
TORSDOF 3
