REMARK  Name = 
REMARK  2 active torsions:
REMARK  status: ('A' for Active; 'I' for Inactive)
REMARK    1  A    between atoms: C_2  and  N_5
REMARK    2  A    between atoms: C_6  and  C_8
REMARK                            x       y       z     vdW  Elec       q    Type
REMARK                         _______ _______ _______ _____ _____    ______ ____
ROOT
ATOM      1  C   UNL     1       2.401   1.046   0.963  0.00  0.00    +0.078 C 
ATOM      2  C   UNL     1       0.998   0.316   0.613  0.00  0.00    +0.008 C 
ATOM      3  C   UNL     1       0.204   1.727   0.563  0.00  0.00    +0.000 C 
ATOM      4  C   UNL     1      -1.056   0.934  -0.227  0.00  0.00    +0.000 C 
ATOM      5  C   UNL     1      -1.850   0.718   1.248  0.00  0.00    +0.005 C 
ATOM      6  C   UNL     1      -1.012  -0.626   1.602  0.00  0.00    +0.000 C 
ATOM      7  C   UNL     1      -3.041  -0.117   0.568  0.00  0.00    +0.037 C 
ATOM      8  C   UNL     1      -4.062   1.019  -0.007  0.00  0.00    +0.099 C 
ATOM      9  N   UNL     1      -4.811  -0.012  -0.936  0.00  0.00    -0.203 NA
ATOM     10  C   UNL     1      -5.302  -1.179  -0.273  0.00  0.00    +0.265 C 
ATOM     11  C   UNL     1      -4.916  -1.383   1.131  0.00  0.00    +0.055 C 
ATOM     12  O   UNL     1      -5.708  -2.181  -0.940  0.00  0.00    -0.268 OA
ATOM     13  C   UNL     1      -3.073   1.490  -1.231  0.00  0.00    +0.022 C 
ATOM     14  C   UNL     1      -2.606  -1.006  -0.470  0.00  0.00    +0.006 C 
ATOM     15  C   UNL     1      -3.873  -0.712   1.630  0.00  0.00    -0.020 C 
ATOM     16  C   UNL     1      -1.923   2.244  -0.558  0.00  0.00    +0.002 C 
ATOM     17  C   UNL     1       1.007   2.112  -0.784  0.00  0.00    +0.001 C 
ATOM     18  C   UNL     1       1.081  -0.254  -0.725  0.00  0.00    +0.000 C 
ATOM     19  C   UNL     1       0.418  -0.340   1.748  0.00  0.00    +0.000 C 
ATOM     20  C   UNL     1       2.414   1.813  -0.481  0.00  0.00    +0.009 C 
ENDROOT
BRANCH   1  22
ATOM     21  N   UNL     1       4.698  -0.043   0.788  0.00  0.00    -0.209 NA
ATOM     22  C   UNL     1       3.316  -0.156   0.402  0.00  0.00    +0.241 C 
ATOM     23  O   UNL     1       2.891  -1.329   0.632  0.00  0.00    -0.273 OA
BRANCH  21  25
ATOM     24  C   UNL     1       5.297  -2.162  -0.046  0.00  0.00    +0.022 C 
ATOM     25  C   UNL     1       5.654  -0.886   0.077  0.00  0.00    +0.079 C 
ATOM     26  C   UNL     1       5.853  -0.198  -1.270  0.00  0.00    +0.022 C 
ATOM     27  C   UNL     1       7.001  -0.833   0.784  0.00  0.00    +0.022 C 
ENDBRANCH  21  25
ENDBRANCH   1  22
TORSDOF 2
