REMARK  Name = 
REMARK  9 active torsions:
REMARK  status: ('A' for Active; 'I' for Inactive)
REMARK    1  A    between atoms: C_2  and  C_4
REMARK    2  A    between atoms: C_4  and  C_5
REMARK    3  A    between atoms: C_5  and  C_6
REMARK    4  A    between atoms: C_6  and  C_7
REMARK    5  A    between atoms: C_10  and  N_11
REMARK    6  A    between atoms: N_11  and  C_12
REMARK    7  A    between atoms: N_11  and  C_15
REMARK    8  A    between atoms: C_12  and  C_13
REMARK    9  A    between atoms: C_15  and  C_16
REMARK                            x       y       z     vdW  Elec       q    Type
REMARK                         _______ _______ _______ _____ _____    ______ ____
ROOT
ATOM      1  C   UNL     1       1.144  -0.963   0.666  0.00  0.00    -0.022 A 
ATOM      2  C   UNL     1       0.471  -0.437   1.764  0.00  0.00    -0.003 A 
ATOM      3  C   UNL     1      -0.876  -0.140   1.620  0.00  0.00    +0.014 A 
ATOM      4  C   UNL     1      -1.427   0.140   0.376  0.00  0.00    +0.048 A 
ATOM      5  C   UNL     1      -0.674  -0.232  -0.730  0.00  0.00    +0.014 A 
ATOM      6  C   UNL     1       0.644  -0.574  -0.572  0.00  0.00    -0.003 A 
ENDROOT
BRANCH   1   7
ATOM      7  C   UNL     1       2.638  -0.904   0.772  0.00  0.00    +0.027 C 
BRANCH   7   8
ATOM      8  C   UNL     1       2.982   0.575   0.830  0.00  0.00    +0.016 C 
BRANCH   8   9
ATOM      9  C   UNL     1       4.099   0.900  -0.118  0.00  0.00    +0.114 C 
BRANCH   9  11
ATOM     10  O   UNL     1       6.281   0.632   0.871  0.00  0.00    -0.246 OA
ATOM     11  C   UNL     1       5.281   0.091   0.310  0.00  0.00    +0.365 C 
ATOM     12  O   UNL     1       5.294  -1.243  -0.090  0.00  0.00    -0.246 OA
ENDBRANCH   9  11
ENDBRANCH   8   9
ENDBRANCH   7   8
ENDBRANCH   1   7
BRANCH   4  13
ATOM     13  N   UNL     1      -2.846   0.024   0.214  0.00  0.00    -0.305 N 
BRANCH  13  14
ATOM     14  C   UNL     1      -3.475  -1.171   0.755  0.00  0.00    +0.108 C 
BRANCH  14  15
ATOM     15  C   UNL     1      -4.311  -1.894  -0.275  0.00  0.00    +0.116 C 
ATOM     16 CL   UNL     1      -5.986  -1.904   0.338  0.00  0.00    -0.112 Cl
ENDBRANCH  14  15
ENDBRANCH  13  14
BRANCH  13  17
ATOM     17  C   UNL     1      -3.639   1.179  -0.132  0.00  0.00    +0.108 C 
BRANCH  17  18
ATOM     18  C   UNL     1      -2.700   2.247  -0.683  0.00  0.00    +0.116 C 
ATOM     19 CL   UNL     1      -2.899   3.672   0.378  0.00  0.00    -0.112 Cl
ENDBRANCH  17  18
ENDBRANCH  13  17
ENDBRANCH   4  13
TORSDOF 9
