REMARK  Name = 
REMARK  6 active torsions:
REMARK  status: ('A' for Active; 'I' for Inactive)
REMARK    1  A    between atoms: C_2  and  C_3
REMARK    2  A    between atoms: C_5  and  O_6
REMARK    3  A    between atoms: O_6  and  C_7
REMARK    4  A    between atoms: C_13  and  O_14
REMARK    5  A    between atoms: O_14  and  C_15
REMARK    6  A    between atoms: C_17  and  C_18
REMARK                            x       y       z     vdW  Elec       q    Type
REMARK                         _______ _______ _______ _____ _____    ______ ____
ROOT
ATOM      1  C   UNL     1       1.522  -0.047  -0.122  0.00  0.00    +0.168 C 
ATOM      2  C   UNL     1       0.193   0.419   0.834  0.00  0.00    +0.209 C 
ATOM      3  O   UNL     1       0.189  -0.901   1.536  0.00  0.00    -0.218 OA
ATOM      4  C   UNL     1      -0.880  -0.157  -0.357  0.00  0.00    +0.168 C 
ATOM      5  C   UNL     1      -1.092   1.378  -1.095  0.00  0.00    +0.123 C 
ATOM      6  N   UNL     1      -0.700   0.796  -2.500  0.00  0.00    -0.130 NA
ATOM      7  C   UNL     1       0.277   2.070  -0.741  0.00  0.00    +0.043 C 
ATOM      8  C   UNL     1       1.733   1.486  -0.860  0.00  0.00    +0.123 C 
ATOM      9  N   UNL     1       1.601   0.879  -2.309  0.00  0.00    -0.130 NA
ENDROOT
BRANCH   4  10
ATOM     10  O   UNL     1      -1.960  -0.014   0.635  0.00  0.00    -0.327 OA
BRANCH  10  11
ATOM     11  C   UNL     1      -3.231   0.415  -0.095  0.00  0.00    +0.268 C 
ATOM     12  C   UNL     1      -4.004   0.217   1.448  0.00  0.00    +0.228 C 
ATOM     13  O   UNL     1      -3.852  -1.267   1.580  0.00  0.00    -0.216 OA
ATOM     14  C   UNL     1      -5.635   0.202   0.996  0.00  0.00    +0.160 C 
ATOM     15  N   UNL     1      -5.405   1.585   0.310  0.00  0.00    -0.127 NA
ATOM     16  C   UNL     1      -5.920  -0.871  -0.293  0.00  0.00    +0.202 C 
ATOM     17  O   UNL     1      -5.354  -2.108   0.377  0.00  0.00    -0.219 OA
ATOM     18  C   UNL     1      -4.665  -0.830  -1.471  0.00  0.00    +0.182 C 
ATOM     19  O   UNL     1      -3.513  -0.994  -0.540  0.00  0.00    -0.326 OA
BRANCH  18  20
ATOM     20  C   UNL     1      -4.774   0.795  -1.709  0.00  0.00    +0.214 C 
ATOM     21  O   UNL     1      -6.200   0.797  -1.825  0.00  0.00    -0.218 OA
ENDBRANCH  18  20
ENDBRANCH  10  11
ENDBRANCH   4  10
BRANCH   1  22
ATOM     22  O   UNL     1       2.362   0.261   1.068  0.00  0.00    -0.328 OA
BRANCH  22  29
ATOM     23  C   UNL     1       5.782  -0.439   1.649  0.00  0.00    +0.167 C 
ATOM     24  C   UNL     1       6.120  -1.504   0.305  0.00  0.00    +0.182 C 
ATOM     25  O   UNL     1       5.139  -2.579   0.744  0.00  0.00    -0.220 OA
ATOM     26  C   UNL     1       5.268  -0.767  -0.830  0.00  0.00    +0.060 C 
ATOM     27  C   UNL     1       3.694  -0.588  -0.773  0.00  0.00    +0.151 C 
ATOM     28  N   UNL     1       3.256  -1.847   0.059  0.00  0.00    -0.127 NA
ATOM     29  C   UNL     1       3.793   0.495   0.595  0.00  0.00    +0.253 C 
ATOM     30  O   UNL     1       4.295  -0.566   1.557  0.00  0.00    -0.328 OA
BRANCH  23  32
ATOM     31  N   UNL     1       5.976   1.219   1.047  0.00  0.00    -0.129 NA
ATOM     32  C   UNL     1       5.985   0.933   0.782  0.00  0.00    +0.141 C 
ENDBRANCH  23  32
ENDBRANCH  22  29
ENDBRANCH   1  22
TORSDOF 6
