REMARK  Name = 
REMARK  6 active torsions:
REMARK  status: ('A' for Active; 'I' for Inactive)
REMARK    1  A    between atoms: C_2  and  C_3
REMARK    2  A    between atoms: C_3  and  N_4
REMARK    3  A    between atoms: N_4  and  C_5
REMARK    4  A    between atoms: N_4  and  C_8
REMARK    5  A    between atoms: C_5  and  C_6
REMARK    6  A    between atoms: C_8  and  C_9
REMARK                            x       y       z     vdW  Elec       q    Type
REMARK                         _______ _______ _______ _____ _____    ______ ____
ROOT
ATOM      1  N   UNL     1       0.266  -0.076   0.150  0.00  0.00    -0.266 NA
ENDROOT
BRANCH   1   2
ATOM      2  C   UNL     1       1.153  -0.556   1.181  0.00  0.00    +0.108 C 
BRANCH   2   4
ATOM      3  O   UNL     1       3.056   0.170  -0.110  0.00  0.00    -0.219 OA
ATOM      4  C   UNL     1       2.500   0.100   1.176  0.00  0.00    +0.199 C 
ENDBRANCH   2   4
ENDBRANCH   1   2
BRANCH   1   5
ATOM      5  C   UNL     1      -0.984   0.432   0.666  0.00  0.00    +0.108 C 
BRANCH   5   6
ATOM      6  C   UNL     1      -1.143   1.915   0.447  0.00  0.00    +0.199 C 
ATOM      7  O   UNL     1      -1.189   2.268  -0.893  0.00  0.00    -0.219 OA
ENDBRANCH   5   6
ENDBRANCH   1   5
BRANCH   1   8
ATOM      8  C   UNL     1       0.006  -1.151  -0.790  0.00  0.00    +0.108 C 
BRANCH   8   9
ATOM      9  C   UNL     1      -1.408  -1.153  -1.306  0.00  0.00    +0.199 C 
ATOM     10  O   UNL     1      -2.257  -1.949  -0.522  0.00  0.00    -0.219 OA
ENDBRANCH   8   9
ENDBRANCH   1   8
TORSDOF 6
