REMARK  Name = 
REMARK  5 active torsions:
REMARK  status: ('A' for Active; 'I' for Inactive)
REMARK    1  A    between atoms: C_2  and  C_3
REMARK    2  A    between atoms: C_6  and  C_7
REMARK    3  A    between atoms: C_7  and  C_8
REMARK    4  A    between atoms: C_7  and  N_16
REMARK    5  A    between atoms: C_11  and  C_12
REMARK                            x       y       z     vdW  Elec       q    Type
REMARK                         _______ _______ _______ _____ _____    ______ ____
ROOT
ATOM      1  C   UNL     1      -0.009  -0.637   0.574  0.00  0.00    +0.151 C 
ENDROOT
BRANCH   1   5
ATOM      2  C   UNL     1       3.049   2.131  -0.176  0.00  0.00    +0.068 A 
ATOM      3  C   UNL     1       2.027   2.025  -1.113  0.00  0.00    +0.010 A 
ATOM      4  C   UNL     1       1.003   1.114  -0.931  0.00  0.00    -0.001 A 
ATOM      5  C   UNL     1       0.779   0.578   0.324  0.00  0.00    +0.004 A 
ATOM      6  C   UNL     1       1.646   0.970   1.338  0.00  0.00    -0.001 A 
ATOM      7  C   UNL     1       2.800   1.673   1.109  0.00  0.00    +0.010 A 
BRANCH   2   9
ATOM      8  N   UNL     1       5.088   3.668  -0.693  0.00  0.00    -0.191 NA
ATOM      9  C   UNL     1       4.189   2.954  -0.482  0.00  0.00    +0.100 C 
ENDBRANCH   2   9
ENDBRANCH   1   5
BRANCH   1  10
ATOM     10  C   UNL     1      -1.341  -0.646  -0.032  0.00  0.00    +0.004 A 
ATOM     11  C   UNL     1      -1.610  -0.411  -1.363  0.00  0.00    -0.001 A 
ATOM     12  C   UNL     1      -2.907  -0.035  -1.694  0.00  0.00    +0.010 A 
ATOM     13  C   UNL     1      -3.922  -0.004  -0.744  0.00  0.00    +0.068 A 
ATOM     14  C   UNL     1      -3.682  -0.736   0.404  0.00  0.00    +0.010 A 
ATOM     15  C   UNL     1      -2.389  -1.107   0.757  0.00  0.00    -0.001 A 
BRANCH  13  16
ATOM     16  C   UNL     1      -5.064   0.874  -0.878  0.00  0.00    +0.100 C 
ATOM     17  N   UNL     1      -5.701   1.845  -0.758  0.00  0.00    -0.191 NA
ENDBRANCH  13  16
ENDBRANCH   1  10
BRANCH   1  18
ATOM     18  N   UNL     1       0.719  -1.861   0.368  0.00  0.00    -0.224 N 
ATOM     19  N   UNL     1       1.942  -2.033  -0.123  0.00  0.00    -0.145 NA
ATOM     20  C   UNL     1       2.236  -3.322   0.168  0.00  0.00    +0.221 A 
ATOM     21  N   UNL     1       1.060  -3.982   0.260  0.00  0.00    -0.201 NA
ATOM     22  C   UNL     1       0.086  -3.059   0.410  0.00  0.00    +0.198 A 
ENDBRANCH   1  18
TORSDOF 5
