REMARK  Name = 
REMARK  2 active torsions:
REMARK  status: ('A' for Active; 'I' for Inactive)
REMARK    1  A    between atoms: S_2  and  C_5
REMARK    2  A    between atoms: C_11  and  S_12
REMARK                            x       y       z     vdW  Elec       q    Type
REMARK                         _______ _______ _______ _____ _____    ______ ____
ROOT
ATOM      1  C   UNL     1       1.349   0.139  -0.587  0.00  0.00    +0.127 A 
ATOM      2  C   UNL     1       0.184  -0.613  -0.551  0.00  0.00    +0.041 A 
ATOM      3  C   UNL     1      -1.019  -0.138  -0.097  0.00  0.00    +0.138 A 
ATOM      4  C   UNL     1      -1.157   1.224   0.112  0.00  0.00    +0.087 A 
ATOM      5 CL   UNL     1      -2.760   1.908   0.325  0.00  0.00    -0.080 Cl
ATOM      6  C   UNL     1      -0.061   2.042  -0.125  0.00  0.00    +0.071 A 
ATOM      7 CL   UNL     1      -0.163   3.709   0.406  0.00  0.00    -0.081 Cl
ATOM      8  C   UNL     1       1.195   1.501  -0.355  0.00  0.00    +0.032 A 
ENDROOT
BRANCH   1  10
ATOM      9  N   UNL     1       2.695  -2.340  -0.590  0.00  0.00    +0.039 NA
ATOM     10  S   UNL     1       2.882  -0.658  -0.251  0.00  0.00    +0.094 S 
ATOM     11  O   UNL     1       3.981  -0.128  -1.108  0.00  0.00    -0.150 OA
ATOM     12  O   UNL     1       3.143  -0.493   1.211  0.00  0.00    -0.150 OA
ENDBRANCH   1  10
BRANCH   3  13
ATOM     13  S   UNL     1      -2.332  -1.228   0.334  0.00  0.00    +0.094 S 
ATOM     14  O   UNL     1      -2.236  -1.565   1.795  0.00  0.00    -0.150 OA
ATOM     15  O   UNL     1      -3.668  -0.659   0.015  0.00  0.00    -0.150 OA
ATOM     16  N   UNL     1      -2.034  -2.703  -0.534  0.00  0.00    +0.039 NA
ENDBRANCH   3  13
TORSDOF 2
