REMARK  Name = 
REMARK  2 active torsions:
REMARK  status: ('A' for Active; 'I' for Inactive)
REMARK    1  A    between atoms: C_2  and  C_4
REMARK    2  A    between atoms: C_4  and  C_6
REMARK                            x       y       z     vdW  Elec       q    Type
REMARK                         _______ _______ _______ _____ _____    ______ ____
ROOT
ATOM      1  C   UNL     1       1.450  -1.502   0.123  0.00  0.00    +0.147 C 
ATOM      2  N   UNL     1       0.569  -0.338   0.678  0.00  0.00    -0.228 NA
ATOM      3  C   UNL     1      -0.824  -0.517   0.414  0.00  0.00    +0.157 A 
ATOM      4  C   UNL     1      -1.207  -0.728  -0.907  0.00  0.00    +0.170 A 
ATOM      5  N   UNL     1      -2.291  -0.102  -1.432  0.00  0.00    -0.193 NA
ATOM      6  C   UNL     1      -3.091   0.656  -0.639  0.00  0.00    +0.260 A 
ATOM      7  N   UNL     1      -2.953   0.431   0.691  0.00  0.00    -0.171 NA
ATOM      8  N   UNL     1      -3.672   1.871  -1.130  0.00  0.00    -0.086 NA
ATOM      9  N   UNL     1      -0.167  -1.272  -1.730  0.00  0.00    -0.217 NA
ATOM     10  C   UNL     1      -1.814  -0.024   1.244  0.00  0.00    +0.299 A 
ATOM     11  O   UNL     1      -1.554  -0.003   2.462  0.00  0.00    -0.264 OA
ATOM     12  C   UNL     1       1.229  -1.077  -1.434  0.00  0.00    +0.138 C 
ENDROOT
BRANCH   1  13
ATOM     13  C   UNL     1       2.948  -0.678   0.240  0.00  0.00    +0.203 C 
ATOM     14  O   UNL     1       2.733  -0.404   1.694  0.00  0.00    -0.219 OA
BRANCH  13  16
ATOM     15  C   UNL     1       3.903   1.274  -0.750  0.00  0.00    +0.038 C 
ATOM     16  C   UNL     1       2.367   0.805  -0.401  0.00  0.00    +0.184 C 
ATOM     17  O   UNL     1       2.373   1.608   0.875  0.00  0.00    -0.220 OA
ENDBRANCH  13  16
ENDBRANCH   1  13
TORSDOF 2
