REMARK  Name = 
REMARK  3 active torsions:
REMARK  status: ('A' for Active; 'I' for Inactive)
REMARK    1  A    between atoms: C_3  and  C_5
REMARK    2  A    between atoms: N_15  and  C1*_16
REMARK    3  A    between atoms: C4*_18  and  C5*_19
REMARK                            x       y       z     vdW  Elec       q    Type
REMARK                         _______ _______ _______ _____ _____    ______ ____
ROOT
ATOM      1  C   UNL     1       4.433  -0.099   0.493  0.00  0.00    +0.095 A 
ATOM      2  C   UNL     1       3.425   0.645  -0.108  0.00  0.00    +0.110 A 
ATOM      3  N   UNL     1       2.286  -0.067   0.002  0.00  0.00    -0.195 N 
ATOM      4  C   UNL     1       1.276  -0.198  -1.012  0.00  0.00    +0.256 A 
ATOM      5  N   UNL     1       1.213  -1.227  -1.892  0.00  0.00    -0.190 NA
ATOM      6  C   UNL     1       0.154  -2.082  -1.963  0.00  0.00    +0.193 A 
ATOM      7  N   UNL     1       0.147  -3.308  -2.609  0.00  0.00    -0.105 NA
ATOM      8  C   UNL     1      -1.006  -1.756  -1.272  0.00  0.00    +0.152 A 
ATOM      9  N   UNL     1      -1.791  -2.353  -0.320  0.00  0.00    -0.219 NA
ATOM     10  C   UNL     1      -2.675  -1.414   0.138  0.00  0.00    +0.182 A 
ATOM     11  N   UNL     1      -2.272  -0.318  -0.354  0.00  0.00    -0.269 N 
ATOM     12  C   UNL     1      -1.068  -0.407  -0.909  0.00  0.00    +0.171 A 
ATOM     13  N   UNL     1       0.043   0.362  -0.801  0.00  0.00    -0.191 NA
ATOM     14  N   UNL     1       2.490  -0.869   1.053  0.00  0.00    -0.161 NA
ATOM     15  C   UNL     1       3.809  -1.149   1.143  0.00  0.00    +0.127 A 
ENDROOT
BRANCH  11  16
ATOM     16  C1* UNL     1      -2.826   1.170  -0.355  0.00  0.00    +0.241 C 
ATOM     17  C2* UNL     1      -4.449   0.667  -0.160  0.00  0.00    +0.234 C 
ATOM     18  O2* UNL     1      -4.781   1.151  -1.544  0.00  0.00    -0.216 OA
ATOM     19  C3* UNL     1      -4.801   2.205   0.465  0.00  0.00    +0.216 C 
ATOM     20  O3* UNL     1      -3.850   3.038  -0.336  0.00  0.00    -0.218 OA
ATOM     21  C4* UNL     1      -3.755   1.933   1.793  0.00  0.00    +0.183 C 
ATOM     22  O4* UNL     1      -2.581   1.339   1.096  0.00  0.00    -0.331 OA
BRANCH  21  23
ATOM     23  C5* UNL     1      -4.303   0.410   2.144  0.00  0.00    +0.214 C 
ATOM     24  O5* UNL     1      -5.448   0.560   2.864  0.00  0.00    -0.218 OA
ENDBRANCH  21  23
ENDBRANCH  11  16
BRANCH   1  27
ATOM     25  C   UNL     1       7.555   1.517  -0.408  0.00  0.00    +0.139 C 
ATOM     26  N   UNL     1       6.577   1.189   0.189  0.00  0.00    -0.200 NA
ATOM     27  C   UNL     1       5.876  -0.046   0.200  0.00  0.00    +0.268 C 
ATOM     28  O   UNL     1       6.324  -0.891  -0.614  0.00  0.00    -0.268 OA
ENDBRANCH   1  27
TORSDOF 3
