REMARK  Name = 
REMARK  3 active torsions:
REMARK  status: ('A' for Active; 'I' for Inactive)
REMARK    1  A    between atoms: C_3  and  C_4
REMARK    2  A    between atoms: N_6  and  C_7
REMARK    3  A    between atoms: N_6  and  C_9
REMARK                            x       y       z     vdW  Elec       q    Type
REMARK                         _______ _______ _______ _____ _____    ______ ____
ROOT
ATOM      1  C   UNL     1       1.475   0.921   0.494  0.00  0.00    +0.253 C 
ATOM      2  N   UNL     1       0.412  -0.029   0.652  0.00  0.00    -0.255 N 
ATOM      3  O   UNL     1       2.140   1.274   1.516  0.00  0.00    -0.270 OA
ENDROOT
BRANCH   2   4
ATOM      4  C   UNL     1      -0.644  -0.122  -0.314  0.00  0.00    +0.050 A 
ATOM      5  C   UNL     1      -1.596   0.889  -0.254  0.00  0.00    -0.008 A 
ATOM      6  C   UNL     1      -1.300   2.142   0.509  0.00  0.00    +0.032 C 
ATOM      7  C   UNL     1      -2.910   0.684  -0.659  0.00  0.00    -0.003 A 
ATOM      8  C   UNL     1      -3.388  -0.621  -0.714  0.00  0.00    -0.000 A 
ATOM      9  C   UNL     1      -2.438  -1.555  -1.113  0.00  0.00    +0.001 A 
ATOM     10  C   UNL     1      -1.129  -1.368  -0.687  0.00  0.00    +0.015 A 
ENDBRANCH   2   4
BRANCH   1  13
ATOM     11  C   UNL     1       3.854  -0.769  -1.689  0.00  0.00    +0.031 C 
ATOM     12  C   UNL     1       2.489  -0.205  -1.439  0.00  0.00    -0.021 C 
ATOM     13  C   UNL     1       2.275   0.887  -0.740  0.00  0.00    +0.054 C 
ENDBRANCH   1  13
BRANCH   2  14
ATOM     14  C   UNL     1       0.032  -0.435   2.004  0.00  0.00    +0.099 C 
ATOM     15  C   UNL     1       0.727  -1.694   2.432  0.00  0.00    +0.024 C 
ENDBRANCH   2  14
TORSDOF 3
