REMARK  Name = 
REMARK  5 active torsions:
REMARK  status: ('A' for Active; 'I' for Inactive)
REMARK    1  A    between atoms: C_2  and  C_4
REMARK    2  A    between atoms: C_4  and  C_5
REMARK    3  A    between atoms: C_8  and  N_9
REMARK    4  A    between atoms: C_10  and  C_12
REMARK    5  A    between atoms: C_12  and  C_13
REMARK                            x       y       z     vdW  Elec       q    Type
REMARK                         _______ _______ _______ _____ _____    ______ ____
ROOT
ATOM      1  C   UNL     1       2.867  -0.333   0.853  0.00  0.00    +0.000 C 
ATOM      2  O   UNL     1       2.245   0.901   0.234  0.00  0.00    +0.000 OA
ATOM      3  B   UNL     1       1.004   0.579  -0.376  0.00  0.00    +0.000 B 
ATOM      4  O   UNL     1       1.025   0.248  -1.782  0.00  0.00    +0.000 OA
ATOM      5  C   UNL     1       0.092  -0.379   0.699  0.00  0.00    +0.000 C 
ATOM      6  C   UNL     1       0.864  -1.756   0.294  0.00  0.00    +0.000 C 
ATOM      7  C   UNL     1       2.203  -1.377  -0.237  0.00  0.00    +0.000 C 
ENDROOT
BRANCH   5   8
ATOM      8  N   UNL     1      -1.066  -0.616  -0.324  0.00  0.00    +0.000 NA
ATOM      9  C   UNL     1      -1.856  -1.764  -0.123  0.00  0.00    +0.000 C 
ATOM     10  O   UNL     1      -1.217  -2.830   0.053  0.00  0.00    +0.000 OA
BRANCH   9  11
ATOM     11  C   UNL     1      -3.317  -1.760   0.094  0.00  0.00    +0.000 C 
BRANCH  11  12
ATOM     12  C   UNL     1      -3.876  -0.375   0.066  0.00  0.00    +0.000 A 
ATOM     13  S   UNL     1      -4.514   0.521  -1.250  0.00  0.00    +0.000 S 
ATOM     14  C   UNL     1      -4.823   1.998  -0.437  0.00  0.00    +0.000 A 
ATOM     15  C   UNL     1      -4.078   1.808   0.711  0.00  0.00    +0.000 A 
ATOM     16  C   UNL     1      -4.017   0.512   1.097  0.00  0.00    +0.000 A 
ENDBRANCH  11  12
ENDBRANCH   9  11
ENDBRANCH   5   8
BRANCH   1  17
ATOM     17  C   UNL     1       4.218  -0.186  -0.081  0.00  0.00    +0.000 C 
BRANCH  17  19
ATOM     18  O   UNL     1       5.588   1.423   0.466  0.00  0.00    +0.000 OA
ATOM     19  C   UNL     1       4.662   1.214   0.030  0.00  0.00    +0.000 C 
ATOM     20  O   UNL     1       3.997   2.173  -0.744  0.00  0.00    +0.000 OA
ENDBRANCH  17  19
ENDBRANCH   1  17
TORSDOF 5
