REMARK  Name = 
REMARK  4 active torsions:
REMARK  status: ('A' for Active; 'I' for Inactive)
REMARK    1  A    between atoms: P_2  and  C_5
REMARK    2  A    between atoms: C_5  and  C_7
REMARK    3  A    between atoms: C_5  and  P_13
REMARK    4  A    between atoms: C_7  and  N_8
REMARK                            x       y       z     vdW  Elec       q    Type
REMARK                         _______ _______ _______ _____ _____    ______ ____
ROOT
ATOM      1  C   UNL     1      -0.581  -0.063   0.181  0.00  0.00    +0.236 C 
ATOM      2  O   UNL     1      -0.198  -0.599   1.397  0.00  0.00    -0.209 OA
ENDROOT
BRANCH   1   4
ATOM      3  O   UNL     1      -1.182  -2.300  -1.173  0.00  0.00    -0.457 OA
ATOM      4  P   UNL     1      -1.889  -1.105  -0.549  0.00  0.00    +0.153 P 
ATOM      5  O   UNL     1      -2.703  -0.283  -1.783  0.00  0.00    -0.355 OA
ATOM      6  O   UNL     1      -2.963  -1.656   0.634  0.00  0.00    -0.355 OA
ENDBRANCH   1   4
BRANCH   1   7
ATOM      7  P   UNL     1      -1.215   1.614   0.415  0.00  0.00    +0.153 P 
ATOM      8  O   UNL     1      -2.903   1.643   0.477  0.00  0.00    -0.355 OA
ATOM      9  O   UNL     1      -0.583   2.318   1.803  0.00  0.00    -0.355 OA
ATOM     10  O   UNL     1      -0.794   2.469  -0.769  0.00  0.00    -0.457 OA
ENDBRANCH   1   7
BRANCH   1  11
ATOM     11  C   UNL     1       0.520  -0.017  -0.838  0.00  0.00    +0.152 C 
BRANCH  11  12
ATOM     12  N   UNL     1       1.840  -0.083  -0.277  0.00  0.00    -0.304 N 
ATOM     13  C   UNL     1       2.280  -0.188   0.979  0.00  0.00    +0.179 A 
ATOM     14  N   UNL     1       3.501  -0.768   0.925  0.00  0.00    -0.222 NA
ATOM     15  C   UNL     1       3.939  -0.802  -0.350  0.00  0.00    +0.119 A 
ATOM     16  C   UNL     1       2.931  -0.180  -1.073  0.00  0.00    +0.098 A 
ENDBRANCH  11  12
ENDBRANCH   1  11
TORSDOF 4
