REMARK  Name = 
REMARK  11 active torsions:
REMARK  status: ('A' for Active; 'I' for Inactive)
REMARK    1  A    between atoms: C_2  and  C_3
REMARK    2  A    between atoms: C_3  and  C_4
REMARK    3  A    between atoms: C_4  and  C_5
REMARK    4  A    between atoms: C_13  and  C_14
REMARK    5  A    between atoms: C_14  and  C_16
REMARK    6  A    between atoms: C_20  and  O_21
REMARK    7  A    between atoms: O_21  and  C_22
REMARK    8  A    between atoms: C_22  and  C_23
REMARK    9  A    between atoms: C_23  and  N_24
REMARK   10  A    between atoms: N_24  and  C_25
REMARK   11  A    between atoms: N_24  and  C_27
REMARK                            x       y       z     vdW  Elec       q    Type
REMARK                         _______ _______ _______ _____ _____    ______ ____
ROOT
ATOM      1  C   UNL     1      -0.482  -1.683   0.105  0.00  0.00    +0.040 A 
ATOM      2  C   UNL     1       0.089  -1.578  -1.158  0.00  0.00    +0.012 A 
ATOM      3  C   UNL     1       1.415  -1.167  -1.207  0.00  0.00    +0.064 A 
ATOM      4  I   UNL     1       2.121   0.124  -2.729  0.00  0.00    -0.039 I 
ATOM      5  C   UNL     1       2.218  -1.534  -0.133  0.00  0.00    +0.149 A 
ATOM      6  C   UNL     1       1.677  -1.765   1.125  0.00  0.00    +0.064 A 
ATOM      7  I   UNL     1       2.802  -1.469   2.889  0.00  0.00    -0.039 I 
ATOM      8  C   UNL     1       0.295  -1.846   1.237  0.00  0.00    +0.012 A 
ENDROOT
BRANCH   1   9
ATOM      9  C   UNL     1      -1.944  -1.702   0.249  0.00  0.00    +0.198 C 
ATOM     10  O   UNL     1      -2.461  -2.858   0.323  0.00  0.00    -0.286 OA
BRANCH   9  12
ATOM     11  C   UNL     1      -3.973  -0.483   1.118  0.00  0.00    +0.126 A 
ATOM     12  C   UNL     1      -2.710  -0.509   0.540  0.00  0.00    +0.072 A 
ATOM     13  C   UNL     1      -2.538   0.743  -0.039  0.00  0.00    +0.040 A 
ATOM     14  C   UNL     1      -3.413   1.558   0.664  0.00  0.00    +0.145 A 
ATOM     15  C   UNL     1      -3.457   2.882   0.251  0.00  0.00    +0.037 A 
ATOM     16  C   UNL     1      -3.057   3.220  -1.034  0.00  0.00    +0.003 A 
ATOM     17  C   UNL     1      -2.157   2.423  -1.706  0.00  0.00    +0.000 A 
ATOM     18  C   UNL     1      -1.819   1.215  -1.125  0.00  0.00    +0.003 A 
ATOM     19  O   UNL     1      -4.237   0.778   1.332  0.00  0.00    -0.458 OA
BRANCH  11  20
ATOM     20  C   UNL     1      -4.747  -1.696   1.517  0.00  0.00    +0.065 C 
BRANCH  20  21
ATOM     21  C   UNL     1      -6.196  -1.316   1.648  0.00  0.00    +0.008 C 
BRANCH  21  23
ATOM     22  C   UNL     1      -6.955  -0.010  -0.253  0.00  0.00    +0.000 C 
ATOM     23  C   UNL     1      -6.853  -1.432   0.277  0.00  0.00    +0.000 C 
ENDBRANCH  21  23
ENDBRANCH  20  21
ENDBRANCH  11  20
ENDBRANCH   9  12
ENDBRANCH   1   9
BRANCH   5  24
ATOM     24  O   UNL     1       3.593  -1.399  -0.267  0.00  0.00    -0.473 OA
BRANCH  24  25
ATOM     25  C   UNL     1       4.205  -0.143   0.009  0.00  0.00    +0.223 C 
BRANCH  25  26
ATOM     26  C   UNL     1       5.634  -0.186  -0.456  0.00  0.00    +0.120 C 
BRANCH  26  27
ATOM     27  N   UNL     1       6.271   1.052  -0.081  0.00  0.00    -0.270 NA
BRANCH  27  28
ATOM     28  C   UNL     1       5.443   2.199  -0.376  0.00  0.00    +0.072 C 
ATOM     29  C   UNL     1       5.974   3.431   0.304  0.00  0.00    +0.019 C 
ENDBRANCH  27  28
BRANCH  27  30
ATOM     30  C   UNL     1       7.612   1.178  -0.595  0.00  0.00    +0.072 C 
ATOM     31  C   UNL     1       7.648   1.976  -1.873  0.00  0.00    +0.019 C 
ENDBRANCH  27  30
ENDBRANCH  26  27
ENDBRANCH  25  26
ENDBRANCH  24  25
ENDBRANCH   5  24
TORSDOF 11
