REMARK  Name = 
REMARK  4 active torsions:
REMARK  status: ('A' for Active; 'I' for Inactive)
REMARK    1  A    between atoms: N_4  and  N_5
REMARK    2  A    between atoms: C_6  and  C_7
REMARK    3  A    between atoms: C_10  and  C_11
REMARK    4  A    between atoms: C_14  and  N_15
REMARK                            x       y       z     vdW  Elec       q    Type
REMARK                         _______ _______ _______ _____ _____    ______ ____
ROOT
ATOM      1  C   UNL     1      -1.019  -0.600  -0.389  0.00  0.00    +0.166 A 
ATOM      2  O   UNL     1      -0.091  -0.237  -1.236  0.00  0.00    -0.452 OA
ATOM      3  C   UNL     1       0.959   0.230  -0.632  0.00  0.00    +0.145 A 
ATOM      4  C   UNL     1       0.530   0.625   0.628  0.00  0.00    +0.041 A 
ATOM      5  C   UNL     1      -0.731   0.065   0.791  0.00  0.00    +0.042 A 
ENDROOT
BRANCH   3   6
ATOM      6  C   UNL     1       2.379   0.099  -0.985  0.00  0.00    +0.035 A 
ATOM      7  C   UNL     1       3.039  -1.115  -0.836  0.00  0.00    +0.009 A 
ATOM      8  C   UNL     1       4.332  -1.160  -0.334  0.00  0.00    +0.075 A 
ATOM      9  C   UNL     1       5.070   0.013  -0.310  0.00  0.00    +0.290 A 
ATOM     10  C   UNL     1       4.551   1.109  -0.987  0.00  0.00    +0.075 A 
ATOM     11  C   UNL     1       3.182   1.210  -1.204  0.00  0.00    +0.009 A 
BRANCH   9  12
ATOM     12  N   UNL     1       6.134   0.202   0.631  0.00  0.00    +0.081 N 
ATOM     13  O   UNL     1       5.725   0.296   1.952  0.00  0.00    -0.576 OA
ATOM     14  O   UNL     1       7.001   1.045   0.288  0.00  0.00    +0.041 OA
ENDBRANCH   9  12
ENDBRANCH   3   6
BRANCH   1  16
ATOM     15  N   UNL     1      -3.283  -1.278  -0.916  0.00  0.00    -0.169 NA
ATOM     16  C   UNL     1      -2.093  -1.586  -0.559  0.00  0.00    +0.155 C 
BRANCH  15  22
ATOM     17  O   UNL     1      -6.313  -0.114   2.627  0.00  0.00    -0.271 OA
ATOM     18  C   UNL     1      -5.558  -0.053   1.633  0.00  0.00    +0.272 C 
ATOM     19  N   UNL     1      -5.816   0.745   0.476  0.00  0.00    -0.125 NA
ATOM     20  C   UNL     1      -4.886   0.569  -0.403  0.00  0.00    +0.349 C 
ATOM     21  O   UNL     1      -4.778   1.294  -1.593  0.00  0.00    -0.249 OA
ATOM     22  N   UNL     1      -4.119  -0.581  -0.048  0.00  0.00    -0.154 N 
ATOM     23  C   UNL     1      -4.215  -0.657   1.407  0.00  0.00    +0.208 C 
ENDBRANCH  15  22
ENDBRANCH   1  16
TORSDOF 4
