REMARK  Name = 
REMARK  24 active torsions:
REMARK  status: ('A' for Active; 'I' for Inactive)
REMARK    1  A    between atoms: C_2  and  C_3
REMARK    2  A    between atoms: C_3  and  N_4
REMARK    3  A    between atoms: C_21  and  O_22
REMARK    4  A    between atoms: O_22  and  C_23
REMARK    5  A    between atoms: C_23  and  C_24
REMARK    6  A    between atoms: C_24  and  O_25
REMARK    7  A    between atoms: O_25  and  C_26
REMARK    8  A    between atoms: C_26  and  C_27
REMARK    9  A    between atoms: C_27  and  O_28
REMARK   10  A    between atoms: O_28  and  C_29
REMARK   11  A    between atoms: C_29  and  C_30
REMARK   12  A    between atoms: C_30  and  O_31
REMARK   13  A    between atoms: O_31  and  C_32
REMARK   14  A    between atoms: C_32  and  C_33
REMARK   15  A    between atoms: C_33  and  O_34
REMARK   16  A    between atoms: O_34  and  C_35
REMARK   17  A    between atoms: C_35  and  C_36
REMARK   18  A    between atoms: C_36  and  O_37
REMARK   19  A    between atoms: O_37  and  C_38
REMARK   20  A    between atoms: C_38  and  C_39
REMARK   21  A    between atoms: C_39  and  O_40
REMARK   22  A    between atoms: O_40  and  C_41
REMARK   23  A    between atoms: C_41  and  C_42
REMARK   24  A    between atoms: C_42  and  O_43
REMARK                            x       y       z     vdW  Elec       q    Type
REMARK                         _______ _______ _______ _____ _____    ______ ____
ROOT
ATOM      1  N   UNL     1      -6.524  -0.043  -1.843  0.00  0.00    -0.268 NA
ATOM      2  C   UNL     1      -6.560   1.457  -1.384  0.00  0.00    +0.091 C 
ATOM      3  C   UNL     1      -6.726   1.175   0.213  0.00  0.00    +0.147 C 
ATOM      4  C   UNL     1      -5.773   0.257   0.635  0.00  0.00    +0.089 C 
ATOM      5  C   UNL     1      -5.552   0.167   2.221  0.00  0.00    +0.199 C 
ATOM      6  O   UNL     1      -4.370  -0.807   2.136  0.00  0.00    -0.473 OA
ATOM      7  C   UNL     1      -4.027  -1.035   0.837  0.00  0.00    +0.173 A 
ATOM      8  C   UNL     1      -2.836  -1.516   0.278  0.00  0.00    +0.229 A 
ATOM      9  C   UNL     1      -2.443  -1.142  -1.011  0.00  0.00    +0.045 A 
ATOM     10  C   UNL     1      -3.179  -0.211  -1.753  0.00  0.00    -0.001 A 
ATOM     11  C   UNL     1      -4.266   0.376  -1.167  0.00  0.00    -0.021 A 
ATOM     12  O   UNL     1      -1.889  -2.106   1.127  0.00  0.00    -0.283 OA
ATOM     13  C   UNL     1      -4.625   1.604   2.495  0.00  0.00    +0.156 C 
ATOM     14  C   UNL     1      -5.089   2.480   1.202  0.00  0.00    +0.036 C 
ATOM     15  C   UNL     1      -4.537  -0.043   0.077  0.00  0.00    +0.016 A 
ATOM     16  C   UNL     1      -6.486  -1.093   0.443  0.00  0.00    +0.027 C 
ATOM     17  C   UNL     1      -6.524   2.428   0.984  0.00  0.00    +0.035 C 
ATOM     18  O   UNL     1      -8.077   0.841   0.308  0.00  0.00    -0.224 OA
ATOM     19  C   UNL     1      -4.924   1.637  -1.445  0.00  0.00    +0.045 C 
ATOM     20  C   UNL     1      -6.858  -0.977  -0.953  0.00  0.00    +0.073 C 
ENDROOT
BRANCH  13  21
ATOM     21  O   UNL     1      -3.359   1.179   1.791  0.00  0.00    -0.350 OA
BRANCH  21  22
ATOM     22  C   UNL     1      -2.426   2.005   2.401  0.00  0.00    +0.174 C 
BRANCH  22  23
ATOM     23  C   UNL     1      -1.495   2.521   1.342  0.00  0.00    +0.174 C 
BRANCH  23  24
ATOM     24  O   UNL     1      -1.297   1.565   0.344  0.00  0.00    -0.348 OA
BRANCH  24  25
ATOM     25  C   UNL     1      -0.271   0.691   0.671  0.00  0.00    +0.174 C 
BRANCH  25  26
ATOM     26  C   UNL     1       0.169  -0.020  -0.580  0.00  0.00    +0.174 C 
BRANCH  26  27
ATOM     27  O   UNL     1       1.517   0.252  -0.795  0.00  0.00    -0.348 OA
BRANCH  27  28
ATOM     28  C   UNL     1       2.290  -0.869  -0.538  0.00  0.00    +0.174 C 
BRANCH  28  29
ATOM     29  C   UNL     1       3.003  -0.639   0.768  0.00  0.00    +0.174 C 
BRANCH  29  30
ATOM     30  O   UNL     1       4.372  -0.738   0.600  0.00  0.00    -0.348 OA
BRANCH  30  31
ATOM     31  C   UNL     1       4.782  -0.085  -0.549  0.00  0.00    +0.174 C 
BRANCH  31  32
ATOM     32  C   UNL     1       6.077   0.636  -0.280  0.00  0.00    +0.174 C 
BRANCH  32  33
ATOM     33  O   UNL     1       7.190  -0.101  -0.684  0.00  0.00    -0.348 OA
BRANCH  33  34
ATOM     34  C   UNL     1       6.967  -1.447  -0.369  0.00  0.00    +0.174 C 
BRANCH  34  35
ATOM     35  C   UNL     1       7.914  -1.899   0.713  0.00  0.00    +0.174 C 
BRANCH  35  36
ATOM     36  O   UNL     1       9.178  -1.383   0.464  0.00  0.00    -0.348 OA
BRANCH  36  37
ATOM     37  C   UNL     1       9.307  -0.118   1.009  0.00  0.00    +0.174 C 
BRANCH  37  38
ATOM     38  C   UNL     1      10.460   0.633   0.372  0.00  0.00    +0.174 C 
BRANCH  38  39
ATOM     39  O   UNL     1      10.691   0.147  -0.912  0.00  0.00    -0.348 OA
BRANCH  39  40
ATOM     40  C   UNL     1      11.456  -1.006  -0.885  0.00  0.00    +0.174 C 
BRANCH  40  41
ATOM     41  C   UNL     1      12.291  -1.030   0.366  0.00  0.00    +0.174 C 
BRANCH  41  42
ATOM     42  O   UNL     1      13.353  -0.159   0.190  0.00  0.00    -0.348 OA
ATOM     43  C   UNL     1      14.269  -0.715  -0.687  0.00  0.00    +0.174 C 
ENDBRANCH  41  42
ENDBRANCH  40  41
ENDBRANCH  39  40
ENDBRANCH  38  39
ENDBRANCH  37  38
ENDBRANCH  36  37
ENDBRANCH  35  36
ENDBRANCH  34  35
ENDBRANCH  33  34
ENDBRANCH  32  33
ENDBRANCH  31  32
ENDBRANCH  30  31
ENDBRANCH  29  30
ENDBRANCH  28  29
ENDBRANCH  27  28
ENDBRANCH  26  27
ENDBRANCH  25  26
ENDBRANCH  24  25
ENDBRANCH  23  24
ENDBRANCH  22  23
ENDBRANCH  21  22
ENDBRANCH  13  21
BRANCH   1  44
ATOM     44  C   UNL     1      -7.554  -0.116  -2.890  0.00  0.00    +0.099 C 
BRANCH  44  46
ATOM     45  C   UNL     1      -8.852  -1.920  -2.291  0.00  0.00    -0.003 C 
ATOM     46  C   UNL     1      -8.765  -0.836  -2.366  0.00  0.00    -0.009 C 
ENDBRANCH  44  46
ENDBRANCH   1  44
TORSDOF 24
