REMARK  Name = 
REMARK  4 active torsions:
REMARK  status: ('A' for Active; 'I' for Inactive)
REMARK    1  A    between atoms: O_2  and  C_3
REMARK    2  A    between atoms: C_4  and  N_5
REMARK    3  A    between atoms: C_18  and  C_19
REMARK    4  A    between atoms: N_23  and  C_24
REMARK                            x       y       z     vdW  Elec       q    Type
REMARK                         _______ _______ _______ _____ _____    ______ ____
ROOT
ATOM      1  C   UNL     1       0.505  -0.731  -0.592  0.00  0.00    +0.170 A 
ATOM      2  C   UNL     1      -0.757  -0.652  -0.010  0.00  0.00    +0.099 A 
ATOM      3  C   UNL     1      -0.953   0.254   1.029  0.00  0.00    +0.060 A 
ATOM      4  C   UNL     1      -2.286   0.501   1.345  0.00  0.00    +0.205 A 
ATOM      5  C   UNL     1      -3.316   0.300   0.430  0.00  0.00    +0.136 A 
ATOM      6  C   UNL     1      -3.029  -0.650  -0.545  0.00  0.00    +0.086 A 
ATOM      7  O   UNL     1      -2.506   1.205   2.344  0.00  0.00    -0.286 OA
ATOM      8  C   UNL     1       0.054   1.179   1.298  0.00  0.00    +0.036 A 
ATOM      9  C   UNL     1       1.064   1.387   0.371  0.00  0.00    +0.157 A 
ATOM     10  F   UNL     1       1.559   2.581   0.014  0.00  0.00    -0.203 F 
ATOM     11  N   UNL     1      -1.802  -1.228  -0.656  0.00  0.00    -0.325 N 
ATOM     12  C   UNL     1       1.432   0.293  -0.407  0.00  0.00    +0.112 A 
ENDROOT
BRANCH  12  13
ATOM     13  N   UNL     1       2.799   0.120  -0.727  0.00  0.00    -0.300 N 
ATOM     14  C   UNL     1       3.702   1.253  -0.556  0.00  0.00    +0.108 C 
ATOM     15  C   UNL     1       4.848   0.754   0.508  0.00  0.00    +0.093 C 
ATOM     16  C   UNL     1       4.901   2.218   1.252  0.00  0.00    +0.021 C 
ATOM     17  N   UNL     1       3.784   0.210   1.532  0.00  0.00    -0.216 NA
ATOM     18  C   UNL     1       3.741  -1.191   1.117  0.00  0.00    +0.110 C 
ATOM     19  C   UNL     1       3.379  -1.173  -0.364  0.00  0.00    +0.110 C 
ENDBRANCH  12  13
BRANCH   5  20
ATOM     20  C   UNL     1      -4.354   1.326   0.227  0.00  0.00    +0.392 C 
ATOM     21  O   UNL     1      -4.011   2.382  -0.629  0.00  0.00    -0.240 OA
ATOM     22  O   UNL     1      -4.932   1.697   1.294  0.00  0.00    -0.240 OA
ENDBRANCH   5  20
BRANCH  11  23
ATOM     23  C   UNL     1      -1.629  -2.363  -1.400  0.00  0.00    +0.086 C 
ATOM     24  C   UNL     1      -2.497  -3.470  -0.693  0.00  0.00    +0.024 C 
ATOM     25  C   UNL     1      -1.388  -3.687  -1.577  0.00  0.00    +0.024 C 
ENDBRANCH  11  23
BRANCH   1  27
ATOM     26  C   UNL     1       1.031  -1.008  -2.862  0.00  0.00    +0.253 C 
ATOM     27  O   UNL     1       0.659  -1.509  -1.739  0.00  0.00    -0.469 OA
ENDBRANCH   1  27
TORSDOF 4
