REMARK  Name = 
REMARK  9 active torsions:
REMARK  status: ('A' for Active; 'I' for Inactive)
REMARK    1  A    between atoms: C_2  and  C_3
REMARK    2  A    between atoms: C_3  and  C_4
REMARK    3  A    between atoms: C_4  and  C_6
REMARK    4  A    between atoms: C_4  and  C_11
REMARK    5  A    between atoms: C_6  and  O_7
REMARK    6  A    between atoms: O_7  and  C_8
REMARK    7  A    between atoms: C_11  and  O_12
REMARK    8  A    between atoms: O_12  and  C_13
REMARK    9  A    between atoms: N_15  and  C_16
REMARK                            x       y       z     vdW  Elec       q    Type
REMARK                         _______ _______ _______ _____ _____    ______ ____
ROOT
ATOM      1  C   UNL     1      -1.494  -0.959   0.128  0.00  0.00    +0.081 C 
ATOM      2  C   UNL     1      -2.053  -2.249   0.688  0.00  0.00    +0.007 C 
ENDROOT
BRANCH   1   3
ATOM      3  C   UNL     1      -0.095  -1.215  -0.334  0.00  0.00    +0.214 C 
BRANCH   3   4
ATOM      4  O   UNL     1       0.898  -0.797   0.562  0.00  0.00    -0.433 OA
BRANCH   4   5
ATOM      5  C   UNL     1       2.217  -0.912   0.163  0.00  0.00    +0.421 C 
ATOM      6  N   UNL     1       3.313  -0.360   0.872  0.00  0.00    -0.170 NA
ATOM      7  O   UNL     1       2.494  -1.551  -0.896  0.00  0.00    -0.225 OA
BRANCH   6   8
ATOM      8  C   UNL     1       4.612  -0.151   0.244  0.00  0.00    +0.099 C 
ATOM      9  C   UNL     1       5.255   1.039   0.933  0.00  0.00    +0.024 C 
ATOM     10  C   UNL     1       4.488   0.124  -1.235  0.00  0.00    +0.024 C 
ENDBRANCH   6   8
ENDBRANCH   4   5
ENDBRANCH   3   4
ENDBRANCH   1   3
BRANCH   1  11
ATOM     11  C   UNL     1      -1.628   0.164   1.111  0.00  0.00    +0.214 C 
BRANCH  11  12
ATOM     12  O   UNL     1      -2.034   1.331   0.413  0.00  0.00    -0.432 OA
BRANCH  12  13
ATOM     13  C   UNL     1      -3.355   1.758   0.484  0.00  0.00    +0.441 C 
ATOM     14  O   UNL     1      -4.279   0.957   0.748  0.00  0.00    -0.223 OA
ATOM     15  N   UNL     1      -3.677   2.970  -0.185  0.00  0.00    -0.048 NA
ENDBRANCH  12  13
ENDBRANCH  11  12
ENDBRANCH   1  11
BRANCH   1  16
ATOM     16  C   UNL     1      -2.322  -0.639  -1.111  0.00  0.00    +0.007 C 
BRANCH  16  18
ATOM     17  C   UNL     1      -0.931   0.334  -2.018  0.00  0.00    +0.000 C 
ATOM     18  C   UNL     1      -1.408   0.157  -2.037  0.00  0.00    +0.000 C 
ENDBRANCH  16  18
ENDBRANCH   1  16
TORSDOF 9
