REMARK  Name = 
REMARK  2 active torsions:
REMARK  status: ('A' for Active; 'I' for Inactive)
REMARK    1  A    between atoms: C_21  and  C_23
REMARK    2  A    between atoms: C_23  and  C_25
REMARK                            x       y       z     vdW  Elec       q    Type
REMARK                         _______ _______ _______ _____ _____    ______ ____
ROOT
ATOM      1  C   UNL     1      -1.629  -1.146  -1.587  0.00  0.00    +0.003 C 
ATOM      2  C   UNL     1      -1.902  -0.205  -0.507  0.00  0.00    +0.039 C 
ATOM      3  C   UNL     1      -3.181  -0.473   0.188  0.00  0.00    +0.180 C 
ATOM      4  O   UNL     1      -3.140   0.151   1.444  0.00  0.00    -0.218 OA
ATOM      5  C   UNL     1      -3.061  -1.976   0.419  0.00  0.00    +0.038 C 
ATOM      6  C   UNL     1      -1.561  -2.263   0.490  0.00  0.00    +0.003 C 
ATOM      7  C   UNL     1      -1.062  -0.736   0.797  0.00  0.00    +0.004 C 
ATOM      8  C   UNL     1       0.351  -0.918  -0.123  0.00  0.00    +0.008 C 
ATOM      9  C   UNL     1       1.075  -1.704   1.082  0.00  0.00    +0.005 C 
ATOM     10  C   UNL     1       2.384  -1.995   0.439  0.00  0.00    +0.022 C 
ATOM     11  C   UNL     1       2.866  -0.827  -0.305  0.00  0.00    -0.038 C 
ATOM     12  C   UNL     1       2.292   0.493  -0.471  0.00  0.00    +0.040 C 
ATOM     13  C   UNL     1       2.104   1.011  -1.816  0.00  0.00    +0.009 C 
ATOM     14  C   UNL     1       3.171   1.436   0.300  0.00  0.00    -0.019 C 
ATOM     15  C   UNL     1       4.496   1.274   0.348  0.00  0.00    +0.038 C 
ATOM     16  C   UNL     1       5.076   0.213  -0.489  0.00  0.00    +0.195 C 
ATOM     17  O   UNL     1       6.287   0.158  -0.787  0.00  0.00    -0.287 OA
ATOM     18  C   UNL     1       4.146  -0.912  -0.683  0.00  0.00    +0.034 C 
ATOM     19  C   UNL     1       0.926   0.592   0.423  0.00  0.00    +0.065 C 
ATOM     20  C   UNL     1       0.035   1.370  -0.687  0.00  0.00    +0.151 C 
ATOM     21  O   UNL     1       0.408   2.545  -0.680  0.00  0.00    -0.296 OA
ATOM     22  C   UNL     1      -1.420   1.164  -0.614  0.00  0.00    +0.067 C 
ENDROOT
BRANCH   3  23
ATOM     23  C   UNL     1      -4.413  -0.106  -0.533  0.00  0.00    +0.211 C 
ATOM     24  O   UNL     1      -5.448  -0.565  -0.042  0.00  0.00    -0.291 OA
BRANCH  23  25
ATOM     25  C   UNL     1      -4.506   1.361  -0.847  0.00  0.00    +0.248 C 
ATOM     26  O   UNL     1      -4.294   2.058   0.351  0.00  0.00    -0.212 OA
ENDBRANCH  23  25
ENDBRANCH   3  23
TORSDOF 2
