REMARK  Name = 
REMARK  5 active torsions:
REMARK  status: ('A' for Active; 'I' for Inactive)
REMARK    1  A    between atoms: C_2  and  C_3
REMARK    2  A    between atoms: C_3  and  C_4
REMARK    3  A    between atoms: C_4  and  N_5
REMARK    4  A    between atoms: C_10  and  C_11
REMARK    5  A    between atoms: N_13  and  C_14
REMARK                            x       y       z     vdW  Elec       q    Type
REMARK                         _______ _______ _______ _____ _____    ______ ____
ROOT
ATOM      1  C   UNL     1       0.157  -0.281   0.346  0.00  0.00    +0.260 C 
ATOM      2  N   UNL     1      -1.207  -0.530   0.581  0.00  0.00    -0.179 NA
ATOM      3  O   UNL     1       0.418   0.384   1.398  0.00  0.00    -0.272 OA
ENDROOT
BRANCH   2   4
ATOM      4  C   UNL     1      -2.297   0.228   0.318  0.00  0.00    +0.065 A 
ATOM      5  C   UNL     1      -3.267  -0.449  -0.430  0.00  0.00    -0.007 A 
ATOM      6  C   UNL     1      -3.345  -1.944  -0.440  0.00  0.00    +0.032 C 
ATOM      7  C   UNL     1      -4.364   0.185  -0.947  0.00  0.00    -0.003 A 
ATOM      8  C   UNL     1      -4.467   1.550  -0.909  0.00  0.00    -0.001 A 
ATOM      9  C   UNL     1      -3.687   2.197   0.023  0.00  0.00    -0.003 A 
ATOM     10  C   UNL     1      -2.582   1.535   0.548  0.00  0.00    -0.007 A 
ATOM     11  C   UNL     1      -1.525   2.387   1.075  0.00  0.00    +0.032 C 
ENDBRANCH   2   4
BRANCH   1  13
ATOM     12  N   UNL     1       2.241  -0.795  -0.457  0.00  0.00    -0.267 NA
ATOM     13  C   UNL     1       1.154  -1.552   0.399  0.00  0.00    +0.137 C 
ATOM     14  C   UNL     1       0.472  -2.243  -0.924  0.00  0.00    +0.025 C 
ATOM     15  C   UNL     1       1.519  -2.731  -1.820  0.00  0.00    +0.003 C 
ATOM     16  C   UNL     1       2.873  -2.950  -1.248  0.00  0.00    +0.017 C 
ATOM     17  C   UNL     1       3.361  -1.726  -0.539  0.00  0.00    +0.072 C 
BRANCH  12  18
ATOM     18  C   UNL     1       2.729   0.267   0.422  0.00  0.00    +0.072 C 
BRANCH  18  19
ATOM     19  C   UNL     1       3.536   1.182  -0.447  0.00  0.00    +0.017 C 
BRANCH  19  21
ATOM     20  C   UNL     1       4.393   2.890   0.204  0.00  0.00    +0.000 C 
ATOM     21  C   UNL     1       3.887   2.396   0.403  0.00  0.00    +0.001 C 
ENDBRANCH  19  21
ENDBRANCH  18  19
ENDBRANCH  12  18
ENDBRANCH   1  13
TORSDOF 5
