REMARK  Name = 
REMARK  2 active torsions:
REMARK  status: ('A' for Active; 'I' for Inactive)
REMARK    1  A    between atoms: C_2  and  O_4
REMARK    2  A    between atoms: O_4  and  C_5
REMARK                            x       y       z     vdW  Elec       q    Type
REMARK                         _______ _______ _______ _____ _____    ______ ____
ROOT
ATOM      1  C   UNL     1       1.636  -0.649  -0.709  0.00  0.00    +0.197 C 
ATOM      2  C   UNL     1       0.840   0.770  -0.694  0.00  0.00    +0.032 A 
ATOM      3  C   UNL     1      -0.020   1.297   0.165  0.00  0.00    +0.059 A 
ATOM      4  C   UNL     1      -0.339   2.637  -0.068  0.00  0.00    +0.015 A 
ATOM      5  C   UNL     1       0.259   3.354  -1.104  0.00  0.00    +0.001 A 
ATOM      6  C   UNL     1       1.284   2.781  -1.847  0.00  0.00    -0.000 A 
ATOM      7  N   UNL     1      -1.274   0.626   0.394  0.00  0.00    -0.220 N 
ATOM      8  C   UNL     1      -2.276   1.332   1.112  0.00  0.00    +0.350 C 
ATOM      9  O   UNL     1      -3.439   1.290   0.686  0.00  0.00    -0.248 OA
ATOM     10  N   UNL     1      -1.914   1.747   2.434  0.00  0.00    -0.069 NA
ATOM     11  C   UNL     1      -1.623  -0.758   0.238  0.00  0.00    +0.056 A 
ATOM     12  C   UNL     1      -0.637  -1.611  -0.270  0.00  0.00    -0.004 A 
ATOM     13  C   UNL     1      -0.992  -2.849  -0.701  0.00  0.00    -0.003 A 
ATOM     14  C   UNL     1      -2.328  -3.010  -1.055  0.00  0.00    -0.000 A 
ATOM     15  C   UNL     1      -3.296  -2.194  -0.477  0.00  0.00    +0.001 A 
ATOM     16  C   UNL     1      -2.955  -1.027   0.201  0.00  0.00    +0.015 A 
ATOM     17  C   UNL     1       1.760   1.566  -1.370  0.00  0.00    +0.000 A 
ATOM     18  C   UNL     1       0.700  -1.485   0.394  0.00  0.00    +0.076 C 
ENDROOT
BRANCH   1  19
ATOM     19  O   UNL     1       2.608  -0.158   0.424  0.00  0.00    -0.447 OA
BRANCH  19  21
ATOM     20  C   UNL     1       4.188  -1.035   1.744  0.00  0.00    +0.121 C 
ATOM     21  C   UNL     1       3.582  -1.106   0.754  0.00  0.00    +0.318 C 
ATOM     22  O   UNL     1       4.236  -1.518  -0.252  0.00  0.00    -0.250 OA
ENDBRANCH  19  21
ENDBRANCH   1  19
TORSDOF 2
