REMARK  Name = 
REMARK  4 active torsions:
REMARK  status: ('A' for Active; 'I' for Inactive)
REMARK    1  A    between atoms: C_8  and  C_9
REMARK    2  A    between atoms: C_9  and  C_10
REMARK    3  A    between atoms: C_10  and  N_11
REMARK    4  A    between atoms: C_14  and  C_15
REMARK                            x       y       z     vdW  Elec       q    Type
REMARK                         _______ _______ _______ _____ _____    ______ ____
ROOT
ATOM      1  N   UNL     1      -0.317   1.406   0.773  0.00  0.00    -0.272 NA
ATOM      2  C   UNL     1       0.817   2.133   0.248  0.00  0.00    +0.072 C 
ATOM      3  C   UNL     1       1.723   1.094  -0.402  0.00  0.00    +0.023 C 
ATOM      4  C   UNL     1       2.450   0.418   0.726  0.00  0.00    +0.046 C 
ATOM      5  C   UNL     1       1.441  -0.033   1.732  0.00  0.00    +0.023 C 
ATOM      6  C   UNL     1       0.017   0.105   1.279  0.00  0.00    +0.072 C 
ENDROOT
BRANCH   4   7
ATOM      7  C   UNL     1       3.383  -0.626   0.284  0.00  0.00    +0.100 A 
ATOM      8  C   UNL     1       4.604  -0.369  -0.326  0.00  0.00    +0.054 A 
ATOM      9  C   UNL     1       5.442  -1.438  -0.029  0.00  0.00    +0.179 A 
ATOM     10  C   UNL     1       6.819  -1.302  -0.170  0.00  0.00    +0.070 A 
ATOM     11  C   UNL     1       7.350  -0.026  -0.284  0.00  0.00    +0.143 A 
ATOM     12  C   UNL     1       6.555   0.917  -0.918  0.00  0.00    +0.030 A 
ATOM     13  F   UNL     1       8.510   0.338   0.335  0.00  0.00    -0.204 F 
ATOM     14  O   UNL     1       4.640  -2.374   0.423  0.00  0.00    -0.354 OA
ATOM     15  C   UNL     1       5.178   0.733  -0.936  0.00  0.00    +0.007 A 
ATOM     16  N   UNL     1       3.427  -1.948   0.548  0.00  0.00    -0.081 NA
ENDBRANCH   4   7
BRANCH   1  17
ATOM     17  C   UNL     1      -1.216   1.198  -0.361  0.00  0.00    +0.077 C 
BRANCH  17  18
ATOM     18  C   UNL     1      -2.359   2.193  -0.225  0.00  0.00    +0.050 C 
BRANCH  18  21
ATOM     19  C   UNL     1      -3.911   2.375   2.190  0.00  0.00    +0.052 C 
ATOM     20  C   UNL     1      -4.085   1.260   1.236  0.00  0.00    +0.061 A 
ATOM     21  C   UNL     1      -3.609   1.414  -0.055  0.00  0.00    +0.049 A 
ATOM     22  C   UNL     1      -3.801   0.343  -0.920  0.00  0.00    +0.259 A 
ATOM     23  O   UNL     1      -3.063   0.150  -1.924  0.00  0.00    -0.267 OA
ATOM     24  N   UNL     1      -4.715  -0.604  -0.609  0.00  0.00    -0.284 N 
ATOM     25  C   UNL     1      -5.343  -1.381  -1.673  0.00  0.00    +0.110 C 
ATOM     26  C   UNL     1      -6.818  -1.489  -1.312  0.00  0.00    +0.025 C 
ATOM     27  C   UNL     1      -7.006  -2.235  -0.019  0.00  0.00    +0.010 C 
ATOM     28  C   UNL     1      -6.016  -1.830   1.041  0.00  0.00    +0.064 C 
ATOM     29  C   UNL     1      -5.197  -0.658   0.637  0.00  0.00    +0.122 A 
ATOM     30  N   UNL     1      -4.898   0.234   1.587  0.00  0.00    -0.237 NA
ENDBRANCH  18  21
ENDBRANCH  17  18
ENDBRANCH   1  17
TORSDOF 4
