REMARK  Name = 
REMARK  8 active torsions:
REMARK  status: ('A' for Active; 'I' for Inactive)
REMARK    1  A    between atoms: C_2  and  N_4
REMARK    2  A    between atoms: C_5  and  C_6
REMARK    3  A    between atoms: C_7  and  C_8
REMARK    4  A    between atoms: C_8  and  C_10
REMARK    5  A    between atoms: C_10  and  C_11
REMARK    6  A    between atoms: C_11  and  C_13
REMARK    7  A    between atoms: C_13  and  C_14
REMARK    8  A    between atoms: C_17  and  C_18
REMARK                            x       y       z     vdW  Elec       q    Type
REMARK                         _______ _______ _______ _____ _____    ______ ____
ROOT
ATOM      1  N   UNL     1      -1.502  -1.925   0.147  0.00  0.00    -0.329 N 
ATOM      2  C   UNL     1      -2.827  -2.041   0.345  0.00  0.00    +0.060 A 
ATOM      3  C   UNL     1      -3.330  -0.764   0.198  0.00  0.00    +0.017 A 
ATOM      4  C   UNL     1      -4.695  -0.549   0.297  0.00  0.00    +0.001 A 
ATOM      5  C   UNL     1      -5.547  -1.629   0.395  0.00  0.00    +0.000 A 
ATOM      6  C   UNL     1      -5.008  -2.907   0.481  0.00  0.00    +0.001 A 
ATOM      7  C   UNL     1      -2.344   0.044  -0.345  0.00  0.00    +0.017 A 
ATOM      8  C   UNL     1      -3.658  -3.122   0.542  0.00  0.00    +0.017 A 
ATOM      9  C   UNL     1      -1.254  -0.779  -0.527  0.00  0.00    +0.060 A 
ENDROOT
BRANCH   7  10
ATOM     10  C   UNL     1      -2.298   1.500  -0.370  0.00  0.00    +0.002 A 
ATOM     11  C   UNL     1      -2.332   2.248  -1.524  0.00  0.00    +0.002 A 
ATOM     12  C   UNL     1      -1.812   3.531  -1.500  0.00  0.00    +0.030 A 
ATOM     13  C   UNL     1      -1.853   4.257  -0.323  0.00  0.00    +0.140 A 
ATOM     14  F   UNL     1      -2.098   5.579  -0.293  0.00  0.00    -0.204 F 
ATOM     15  C   UNL     1      -2.032   3.537   0.838  0.00  0.00    +0.030 A 
ATOM     16  C   UNL     1      -2.189   2.183   0.824  0.00  0.00    +0.002 A 
ENDBRANCH   7  10
BRANCH   1  18
ATOM     17  C   UNL     1      -0.211  -2.938   0.395  0.00  0.00    +0.024 C 
ATOM     18  C   UNL     1      -0.553  -2.920   0.618  0.00  0.00    +0.086 C 
ATOM     19  C   UNL     1      -0.186  -2.725   2.075  0.00  0.00    +0.024 C 
ENDBRANCH   1  18
BRANCH   9  20
ATOM     20  C   UNL     1      -0.068  -0.526  -1.323  0.00  0.00    +0.015 C 
ATOM     21  C   UNL     1       1.024   0.085  -0.899  0.00  0.00    +0.008 C 
BRANCH  21  22
ATOM     22  C   UNL     1       2.397  -0.536  -1.554  0.00  0.00    +0.177 C 
ATOM     23  O   UNL     1       2.591  -1.470  -0.345  0.00  0.00    -0.218 OA
BRANCH  22  24
ATOM     24  C   UNL     1       3.338   0.666  -0.870  0.00  0.00    +0.071 C 
BRANCH  24  25
ATOM     25  C   UNL     1       4.634  -0.278  -0.411  0.00  0.00    +0.166 C 
ATOM     26  O   UNL     1       4.282  -0.110   1.075  0.00  0.00    -0.222 OA
BRANCH  25  27
ATOM     27  C   UNL     1       5.662   1.031  -0.359  0.00  0.00    +0.147 C 
BRANCH  27  28
ATOM     28  C   UNL     1       6.911   0.391   0.150  0.00  0.00    +0.367 C 
ATOM     29  O   UNL     1       7.043  -0.951   0.420  0.00  0.00    -0.246 OA
ATOM     30  O   UNL     1       7.915   1.118   0.352  0.00  0.00    -0.246 OA
ENDBRANCH  27  28
ENDBRANCH  25  27
ENDBRANCH  24  25
ENDBRANCH  22  24
ENDBRANCH  21  22
ENDBRANCH   9  20
TORSDOF 8
