REMARK  Name = 
REMARK  2 active torsions:
REMARK  status: ('A' for Active; 'I' for Inactive)
REMARK    1  A    between atoms: C_24  and  C_26
REMARK    2  A    between atoms: C_26  and  C_28
REMARK                            x       y       z     vdW  Elec       q    Type
REMARK                         _______ _______ _______ _____ _____    ______ ____
ROOT
ATOM      1  C   UNL     1       3.108  -2.962   0.081  0.00  0.00    +0.003 C 
ATOM      2  C   UNL     1       3.002  -1.788  -1.045  0.00  0.00    +0.035 C 
ATOM      3  C   UNL     1       2.974  -0.564   0.032  0.00  0.00    +0.178 C 
ATOM      4  O   UNL     1       3.181   0.448  -0.933  0.00  0.00    -0.218 OA
ATOM      5  C   UNL     1       1.664  -0.508   0.537  0.00  0.00    +0.035 C 
ATOM      6  C   UNL     1       1.045  -0.372  -0.960  0.00  0.00    +0.006 C 
ATOM      7  C   UNL     1      -0.486  -0.659  -0.332  0.00  0.00    +0.036 C 
ATOM      8  C   UNL     1      -0.852   0.901  -0.299  0.00  0.00    +0.168 C 
ATOM      9  C   UNL     1       0.445   1.698   0.238  0.00  0.00    +0.182 C 
ATOM     10  O   UNL     1      -0.298   2.425   1.349  0.00  0.00    -0.220 OA
ATOM     11  F   UNL     1      -0.786   1.449  -1.568  0.00  0.00    -0.237 F 
ATOM     12  C   UNL     1      -2.085   0.879   0.286  0.00  0.00    +0.066 C 
ATOM     13  C   UNL     1      -2.813  -0.366  -0.018  0.00  0.00    -0.003 C 
ATOM     14  C   UNL     1      -3.946  -0.632   0.647  0.00  0.00    +0.036 C 
ATOM     15  C   UNL     1      -4.565   0.552   1.279  0.00  0.00    +0.195 C 
ATOM     16  C   UNL     1      -4.270   1.772   0.499  0.00  0.00    +0.038 C 
ATOM     17  O   UNL     1      -5.772   0.429   1.652  0.00  0.00    -0.287 OA
ATOM     18  C   UNL     1      -2.715  -1.169  -1.417  0.00  0.00    +0.180 C 
ATOM     19  F   UNL     1      -3.184   0.015  -2.237  0.00  0.00    -0.233 F 
ATOM     20  C   UNL     1      -2.053   0.773   1.821  0.00  0.00    +0.011 C 
ATOM     21  C   UNL     1      -3.091   1.918  -0.116  0.00  0.00    -0.017 C 
ATOM     22  C   UNL     1      -1.141  -0.842  -1.792  0.00  0.00    +0.042 C 
ATOM     23  C   UNL     1       1.050  -1.759   1.154  0.00  0.00    +0.003 C 
ATOM     24  C   UNL     1       1.002   0.534   1.263  0.00  0.00    +0.038 C 
ATOM     25  C   UNL     1       1.381  -1.932  -1.188  0.00  0.00    +0.003 C 
ENDROOT
BRANCH   3  26
ATOM     26  C   UNL     1       4.173  -0.615   0.842  0.00  0.00    +0.194 C 
ATOM     27  O   UNL     1       4.478  -1.523   1.618  0.00  0.00    -0.292 OA
BRANCH  26  28
ATOM     28  C   UNL     1       5.429   0.114   0.436  0.00  0.00    +0.161 C 
ATOM     29 CL   UNL     1       5.124   1.781  -0.039  0.00  0.00    -0.105 Cl
ENDBRANCH  26  28
ENDBRANCH   3  26
TORSDOF 2
