REMARK  Name = 
REMARK  1 active torsions:
REMARK  status: ('A' for Active; 'I' for Inactive)
REMARK    1  A    between atoms: C_6  and  C_8
REMARK                            x       y       z     vdW  Elec       q    Type
REMARK                         _______ _______ _______ _____ _____    ______ ____
ROOT
ATOM      1  C   UNL     1      -2.985   0.828   1.159  0.00  0.00    +0.123 C 
ATOM      2  N   UNL     1      -2.159   0.339   0.456  0.00  0.00    -0.228 N 
ATOM      3  C   UNL     1      -1.351  -0.819   0.708  0.00  0.00    +0.235 C 
ATOM      4  O   UNL     1      -1.704  -1.675   1.576  0.00  0.00    -0.274 OA
ATOM      5  C   UNL     1      -0.325  -0.962  -0.352  0.00  0.00    +0.097 C 
ATOM      6  C   UNL     1      -0.097  -2.412  -0.683  0.00  0.00    +0.014 C 
ATOM      7  C   UNL     1      -0.954  -0.233  -1.528  0.00  0.00    +0.098 C 
ATOM      8  C   UNL     1      -1.720   0.838  -0.816  0.00  0.00    +0.232 C 
ATOM      9  O   UNL     1      -1.817   2.057  -1.148  0.00  0.00    -0.274 OA
ENDROOT
BRANCH   5  10
ATOM     10  C   UNL     1       0.926  -0.273   0.030  0.00  0.00    -0.014 A 
ATOM     11  C   UNL     1       1.063   1.096  -0.148  0.00  0.00    -0.004 A 
ATOM     12  C   UNL     1       2.312   1.661  -0.258  0.00  0.00    -0.000 A 
ATOM     13  C   UNL     1       3.397   0.960   0.251  0.00  0.00    -0.000 A 
ATOM     14  C   UNL     1       3.341  -0.422   0.199  0.00  0.00    -0.000 A 
ATOM     15  C   UNL     1       2.073  -0.983   0.287  0.00  0.00    -0.004 A 
ENDBRANCH   5  10
TORSDOF 1
