REMARK  Name = 
REMARK  1 active torsions:
REMARK  status: ('A' for Active; 'I' for Inactive)
REMARK    1  A    between atoms: C_6  and  C_8
REMARK                            x       y       z     vdW  Elec       q    Type
REMARK                         _______ _______ _______ _____ _____    ______ ____
ROOT
ATOM      1  C   UNL     1      -2.262   1.345  -1.728  0.00  0.00    +0.123 C 
ATOM      2  N   UNL     1      -1.823   0.574  -0.670  0.00  0.00    -0.228 N 
ATOM      3  C   UNL     1      -1.264  -0.736  -0.731  0.00  0.00    +0.235 C 
ATOM      4  O   UNL     1      -1.435  -1.540  -1.680  0.00  0.00    -0.274 OA
ATOM      5  C   UNL     1      -0.436  -0.952   0.474  0.00  0.00    +0.097 C 
ATOM      6  C   UNL     1      -0.436  -2.387   0.920  0.00  0.00    +0.014 C 
ATOM      7  C   UNL     1      -1.149  -0.126   1.509  0.00  0.00    +0.098 C 
ATOM      8  C   UNL     1      -1.905   0.896   0.722  0.00  0.00    +0.232 C 
ATOM      9  O   UNL     1      -2.173   2.028   1.224  0.00  0.00    -0.274 OA
ENDROOT
BRANCH   5  10
ATOM     10  C   UNL     1       0.922  -0.418   0.243  0.00  0.00    -0.014 A 
ATOM     11  C   UNL     1       1.441   0.507   1.115  0.00  0.00    -0.004 A 
ATOM     12  C   UNL     1       2.684   1.038   0.900  0.00  0.00    -0.000 A 
ATOM     13  C   UNL     1       3.345   0.766  -0.281  0.00  0.00    -0.000 A 
ATOM     14  C   UNL     1       2.865  -0.213  -1.139  0.00  0.00    -0.000 A 
ATOM     15  C   UNL     1       1.625  -0.782  -0.877  0.00  0.00    -0.004 A 
ENDBRANCH   5  10
TORSDOF 1
