REMARK  Name = 
REMARK  1 active torsions:
REMARK  status: ('A' for Active; 'I' for Inactive)
REMARK    1  A    between atoms: C_5  and  C_6
REMARK                            x       y       z     vdW  Elec       q    Type
REMARK                         _______ _______ _______ _____ _____    ______ ____
ROOT
ATOM      1  C   UNL     1      -0.125  -1.717   0.671  0.00  0.00    -0.001 C 
ATOM      2  C   UNL     1      -1.049  -0.773   0.480  0.00  0.00    +0.012 C 
ATOM      3  C   UNL     1      -2.058  -0.909  -0.785  0.00  0.00    +0.026 C 
ATOM      4  C   UNL     1      -1.973   0.693  -1.190  0.00  0.00    +0.010 C 
ATOM      5  C   UNL     1      -2.012   1.284   0.177  0.00  0.00    +0.055 C 
ATOM      6  C   UNL     1      -3.194   0.616   0.762  0.00  0.00    +0.008 C 
ATOM      7  C   UNL     1      -1.990   2.746   0.148  0.00  0.00    +0.008 C 
ATOM      8  C   UNL     1      -3.163   0.970  -2.039  0.00  0.00    +0.001 C 
ATOM      9  C   UNL     1      -0.654   0.817  -1.884  0.00  0.00    +0.001 C 
ATOM     10  C   UNL     1      -3.407  -0.697   0.146  0.00  0.00    +0.005 C 
ATOM     11  C   UNL     1      -0.797   0.613   0.676  0.00  0.00    +0.168 C 
ATOM     12  O   UNL     1       0.313   1.181   0.765  0.00  0.00    -0.292 OA
ENDROOT
BRANCH   1  17
ATOM     13  C   UNL     1       4.454   1.097   0.076  0.00  0.00    +0.031 C 
ATOM     14  C   UNL     1       3.677  -0.128   0.290  0.00  0.00    -0.022 A 
ATOM     15  C   UNL     1       3.346  -0.606   1.553  0.00  0.00    -0.004 A 
ATOM     16  C   UNL     1       2.081  -1.163   1.727  0.00  0.00    -0.000 A 
ATOM     17  C   UNL     1       1.306  -1.476   0.616  0.00  0.00    -0.000 A 
ATOM     18  C   UNL     1       2.046  -1.650  -0.550  0.00  0.00    -0.000 A 
ATOM     19  C   UNL     1       3.197  -0.900  -0.761  0.00  0.00    -0.004 A 
ENDBRANCH   1  17
TORSDOF 1
