REMARK  Name = 
REMARK  1 active torsions:
REMARK  status: ('A' for Active; 'I' for Inactive)
REMARK    1  A    between atoms: C_2  and  C_3
REMARK                            x       y       z     vdW  Elec       q    Type
REMARK                         _______ _______ _______ _____ _____    ______ ____
ROOT
ATOM      1  C   UNL     1      -3.417  -0.332   0.079  0.00  0.00    +0.180 C 
ATOM      2  C   UNL     1      -2.001  -0.794   0.148  0.00  0.00    +0.037 C 
ATOM      3  C   UNL     1      -1.449   0.709  -0.109  0.00  0.00    +0.004 C 
ATOM      4  C   UNL     1       0.108   0.350   0.412  0.00  0.00    +0.004 C 
ATOM      5  C   UNL     1       0.489  -0.430  -1.035  0.00  0.00    +0.022 C 
ATOM      6  C   UNL     1      -0.033  -1.881  -0.523  0.00  0.00    +0.004 C 
ATOM      7  C   UNL     1       1.996  -0.658  -0.565  0.00  0.00    -0.026 A 
ATOM      8  C   UNL     1       2.613   0.557  -0.867  0.00  0.00    -0.023 A 
ATOM      9  C   UNL     1       3.863   0.785  -0.317  0.00  0.00    +0.037 A 
ATOM     10  C   UNL     1       4.356  -0.126   0.611  0.00  0.00    +0.195 A 
ATOM     11  C   UNL     1       3.568  -1.170   1.088  0.00  0.00    +0.042 A 
ATOM     12  O   UNL     1       5.468   0.323   1.333  0.00  0.00    -0.287 OA
ATOM     13  C   UNL     1       1.654   1.681  -1.148  0.00  0.00    +0.026 C 
ATOM     14  C   UNL     1       2.252  -1.264   0.635  0.00  0.00    -0.001 A 
ATOM     15  C   UNL     1       0.652   1.777  -0.073  0.00  0.00    +0.005 C 
ATOM     16  C   UNL     1      -1.967   1.124   1.371  0.00  0.00    +0.004 C 
ATOM     17  C   UNL     1      -1.541  -1.206   1.514  0.00  0.00    +0.003 C 
ATOM     18  C   UNL     1      -1.504  -1.681  -0.914  0.00  0.00    +0.004 C 
ATOM     19  C   UNL     1      -3.398   0.587   1.300  0.00  0.00    +0.043 C 
ATOM     20  O   UNL     1      -4.375  -1.298   0.129  0.00  0.00    -0.212 OA
ENDROOT
BRANCH   1  22
ATOM     21  C   UNL     1      -3.691   1.167  -1.999  0.00  0.00    -0.012 C 
ATOM     22  C   UNL     1      -3.641   0.564  -1.069  0.00  0.00    -0.049 C 
ENDBRANCH   1  22
TORSDOF 1
