REMARK  Name = 
REMARK  8 active torsions:
REMARK  status: ('A' for Active; 'I' for Inactive)
REMARK    1  A    between atoms: O_2  and  C_3
REMARK    2  A    between atoms: C_5  and  C_6
REMARK    3  A    between atoms: C_11  and  O_12
REMARK    4  A    between atoms: O_12  and  C_13
REMARK    5  A    between atoms: C_13  and  C_14
REMARK    6  A    between atoms: C_14  and  C_15
REMARK    7  A    between atoms: C_15  and  N_16
REMARK    8  A    between atoms: C_19  and  C_20
REMARK                            x       y       z     vdW  Elec       q    Type
REMARK                         _______ _______ _______ _____ _____    ______ ____
ROOT
ATOM      1  N   UNL     1      -1.112  -0.246  -0.320  0.00  0.00    -0.273 NA
ATOM      2  C   UNL     1      -1.080   0.859  -1.273  0.00  0.00    +0.072 C 
ATOM      3  C   UNL     1      -2.277   0.691  -2.173  0.00  0.00    +0.023 C 
ATOM      4  C   UNL     1      -2.709  -0.758  -2.221  0.00  0.00    +0.046 C 
ATOM      5  C   UNL     1      -1.531  -1.708  -2.224  0.00  0.00    +0.023 C 
ATOM      6  C   UNL     1      -0.627  -1.425  -1.032  0.00  0.00    +0.072 C 
ENDROOT
BRANCH   4   7
ATOM      7  C   UNL     1      -3.623  -1.038  -1.069  0.00  0.00    +0.100 A 
ATOM      8  C   UNL     1      -4.899  -0.502  -0.988  0.00  0.00    +0.054 A 
ATOM      9  C   UNL     1      -5.713  -1.430  -0.350  0.00  0.00    +0.179 A 
ATOM     10  C   UNL     1      -6.982  -1.017   0.027  0.00  0.00    +0.070 A 
ATOM     11  C   UNL     1      -7.258   0.340   0.037  0.00  0.00    +0.143 A 
ATOM     12  C   UNL     1      -6.614   1.154  -0.879  0.00  0.00    +0.030 A 
ATOM     13  F   UNL     1      -8.312   0.814   0.726  0.00  0.00    -0.204 F 
ATOM     14  O   UNL     1      -4.944  -2.454  -0.091  0.00  0.00    -0.354 OA
ATOM     15  C   UNL     1      -5.343   0.775  -1.292  0.00  0.00    +0.007 A 
ATOM     16  N   UNL     1      -3.689  -2.163  -0.317  0.00  0.00    -0.081 NA
ENDBRANCH   4   7
BRANCH   1  17
ATOM     17  C   UNL     1      -0.165   0.020   0.736  0.00  0.00    +0.076 C 
BRANCH  17  18
ATOM     18  C   UNL     1       1.265   0.001   0.211  0.00  0.00    +0.065 C 
BRANCH  18  19
ATOM     19  C   UNL     1       1.937   1.311   0.515  0.00  0.00    +0.207 C 
BRANCH  19  20
ATOM     20  O   UNL     1       2.722   1.262   1.693  0.00  0.00    -0.472 OA
BRANCH  20  22
ATOM     21  C   UNL     1       4.772   0.041   2.155  0.00  0.00    +0.172 A 
ATOM     22  C   UNL     1       4.106   1.111   1.568  0.00  0.00    +0.172 A 
ATOM     23  C   UNL     1       4.839   1.806   0.613  0.00  0.00    +0.040 A 
ATOM     24  C   UNL     1       5.998   1.252   0.083  0.00  0.00    +0.006 A 
ATOM     25  C   UNL     1       6.286  -0.091   0.292  0.00  0.00    +0.038 A 
ATOM     26  C   UNL     1       5.777  -0.629   1.468  0.00  0.00    +0.043 A 
BRANCH  25  27
ATOM     27  C   UNL     1       6.798  -0.954  -0.778  0.00  0.00    +0.174 C 
ATOM     28  O   UNL     1       8.056  -1.060  -0.881  0.00  0.00    -0.291 OA
ATOM     29  C   UNL     1       6.021  -1.232  -2.018  0.00  0.00    +0.077 C 
ENDBRANCH  25  27
BRANCH  21  31
ATOM     30  C   UNL     1       4.075   0.421   4.442  0.00  0.00    +0.253 C 
ATOM     31  O   UNL     1       4.226  -0.466   3.339  0.00  0.00    -0.468 OA
ENDBRANCH  21  31
ENDBRANCH  20  22
ENDBRANCH  19  20
ENDBRANCH  18  19
ENDBRANCH  17  18
ENDBRANCH   1  17
TORSDOF 8
