REMARK  Name = 
REMARK  15 active torsions:
REMARK  status: ('A' for Active; 'I' for Inactive)
REMARK    1  A    between atoms: N_2  and  C_3
REMARK    2  A    between atoms: C_3  and  C_4
REMARK    3  A    between atoms: C_4  and  O_6
REMARK    4  A    between atoms: O_6  and  C_7
REMARK    5  A    between atoms: C_7  and  C_8
REMARK    6  A    between atoms: C_16  and  O_18
REMARK    7  A    between atoms: O_18  and  C_19
REMARK    8  A    between atoms: C_19  and  N_21
REMARK    9  A    between atoms: N_24  and  C_25
REMARK   10  A    between atoms: C_25  and  C_26
REMARK   11  A    between atoms: C_26  and  C_28
REMARK   12  A    between atoms: C_26  and  C_36
REMARK   13  A    between atoms: C_36  and  C_38
REMARK   14  A    between atoms: C_40  and  C_41
REMARK   15  A    between atoms: C_44  and  C_45
REMARK                            x       y       z     vdW  Elec       q    Type
REMARK                         _______ _______ _______ _____ _____    ______ ____
ROOT
ATOM      1  C   UNL     1       1.253  -1.110   1.727  0.00  0.00    +0.169 C 
ENDROOT
BRANCH   1   4
ATOM      2  N   UNL     1      -1.679  -2.599   0.610  0.00  0.00    -0.091 N 
ATOM      3  C   UNL     1      -1.189  -1.499   1.135  0.00  0.00    +0.402 A 
ATOM      4  N   UNL     1       0.066  -1.863   1.508  0.00  0.00    -0.181 N 
ATOM      5  N   UNL     1      -0.035  -3.144   1.873  0.00  0.00    -0.092 NA
ATOM      6  C   UNL     1      -1.255  -3.573   1.462  0.00  0.00    +0.423 A 
BRANCH   2   7
ATOM      7  C   UNL     1      -3.217  -2.742   0.144  0.00  0.00    +0.437 C 
ATOM      8  C   UNL     1      -3.811  -2.168   1.623  0.00  0.00    +0.141 C 
BRANCH   7   9
ATOM      9  O   UNL     1      -3.277  -1.292  -0.496  0.00  0.00    -0.375 OA
BRANCH   9  13
ATOM     10  C   UNL     1      -6.989   0.254   0.359  0.00  0.00    +0.053 A 
ATOM     11  C   UNL     1      -6.611  -0.558  -0.705  0.00  0.00    +0.139 A 
ATOM     12  N   UNL     1      -5.393  -0.341  -1.431  0.00  0.00    -0.208 N 
ATOM     13  C   UNL     1      -4.319  -1.261  -1.430  0.00  0.00    +0.414 C 
ATOM     14  O   UNL     1      -4.418  -2.260  -2.206  0.00  0.00    -0.226 OA
ATOM     15  C   UNL     1      -5.216   1.023  -1.926  0.00  0.00    +0.125 C 
ATOM     16  N   UNL     1      -7.083  -1.825  -0.710  0.00  0.00    -0.229 NA
ATOM     17  C   UNL     1      -7.801  -2.338   0.311  0.00  0.00    +0.100 A 
ATOM     18  C   UNL     1      -7.933  -1.623   1.479  0.00  0.00    +0.021 A 
ATOM     19  C   UNL     1      -7.489  -0.306   1.531  0.00  0.00    +0.004 A 
BRANCH  10  20
ATOM     20  C   UNL     1      -6.121   1.457   0.558  0.00  0.00    +0.238 C 
BRANCH  20  21
ATOM     21  O   UNL     1      -6.840   2.652   0.602  0.00  0.00    -0.442 OA
BRANCH  21  22
ATOM     22  C   UNL     1      -8.210   2.772   0.457  0.00  0.00    +0.335 C 
ATOM     23  O   UNL     1      -8.759   1.899  -0.245  0.00  0.00    -0.248 OA
BRANCH  22  24
ATOM     24  C   UNL     1      -8.913   3.966   0.975  0.00  0.00    +0.198 C 
BRANCH  24  26
ATOM     25  C   UNL     1      -8.569   6.154   0.341  0.00  0.00    +0.108 C 
ATOM     26  N   UNL     1      -8.035   5.115   0.894  0.00  0.00    -0.205 NA
ENDBRANCH  24  26
ENDBRANCH  22  24
ENDBRANCH  21  22
ENDBRANCH  20  21
ENDBRANCH  10  20
ENDBRANCH   9  13
ENDBRANCH   7   9
ENDBRANCH   2   7
ENDBRANCH   1   4
BRANCH   1  27
ATOM     27  C   UNL     1       2.148  -0.910   0.566  0.00  0.00    +0.176 C 
ATOM     28  O   UNL     1       1.555  -0.192  -0.443  0.00  0.00    -0.219 OA
BRANCH  27  29
ATOM     29  C   UNL     1       2.894  -2.013   0.058  0.00  0.00    +0.037 A 
ATOM     30  C   UNL     1       2.626  -2.434  -1.246  0.00  0.00    +0.139 A 
ATOM     31  F   UNL     1       1.530  -1.986  -1.928  0.00  0.00    -0.204 F 
ATOM     32  C   UNL     1       3.354  -3.408  -1.875  0.00  0.00    +0.032 A 
ATOM     33  C   UNL     1       4.442  -3.977  -1.238  0.00  0.00    +0.032 A 
ATOM     34  C   UNL     1       4.577  -3.727   0.123  0.00  0.00    +0.140 A 
ATOM     35  F   UNL     1       5.738  -4.092   0.685  0.00  0.00    -0.204 F 
ATOM     36  C   UNL     1       3.599  -2.979   0.766  0.00  0.00    +0.030 A 
ENDBRANCH  27  29
BRANCH  27  37
ATOM     37  C   UNL     1       3.169   0.228   1.204  0.00  0.00    +0.080 C 
ATOM     38  C   UNL     1       3.742  -0.830   2.351  0.00  0.00    +0.010 C 
BRANCH  37  39
ATOM     39  C   UNL     1       4.381  -0.127   0.170  0.00  0.00    +0.091 A 
ATOM     40  S   UNL     1       4.374   0.406  -1.460  0.00  0.00    -0.070 S 
ATOM     41  C   UNL     1       6.056   0.744  -1.569  0.00  0.00    +0.056 A 
ATOM     42  C   UNL     1       6.363   0.856  -0.214  0.00  0.00    +0.088 A 
ATOM     43  N   UNL     1       5.644   0.023   0.524  0.00  0.00    -0.243 NA
BRANCH  42  44
ATOM     44  C   UNL     1       7.513   1.624   0.312  0.00  0.00    +0.018 A 
ATOM     45  C   UNL     1       8.546   2.022  -0.528  0.00  0.00    +0.002 A 
ATOM     46  C   UNL     1       9.180   3.246  -0.322  0.00  0.00    +0.010 A 
ATOM     47  C   UNL     1       8.570   4.237   0.439  0.00  0.00    +0.068 A 
ATOM     48  C   UNL     1       7.737   3.765   1.448  0.00  0.00    +0.010 A 
ATOM     49  C   UNL     1       7.332   2.435   1.429  0.00  0.00    +0.002 A 
BRANCH  47  50
ATOM     50  C   UNL     1       8.485   5.607  -0.008  0.00  0.00    +0.100 C 
ATOM     51  N   UNL     1       8.288   6.695  -0.380  0.00  0.00    -0.191 NA
ENDBRANCH  47  50
ENDBRANCH  42  44
ENDBRANCH  37  39
ENDBRANCH  27  37
ENDBRANCH   1  27
TORSDOF 15
