REMARK  Name = 
REMARK  1 active torsions:
REMARK  status: ('A' for Active; 'I' for Inactive)
REMARK    1  A    between atoms: N_2  and  C_3
REMARK                            x       y       z     vdW  Elec       q    Type
REMARK                         _______ _______ _______ _____ _____    ______ ____
ROOT
ATOM      1  C   UNL     1      -0.614  -0.400   0.306  0.00  0.00    +0.059 C 
ATOM      2  C   UNL     1      -0.282   0.928   0.071  0.00  0.00    +0.014 C 
ATOM      3  C   UNL     1      -1.137   1.460  -1.076  0.00  0.00    +0.001 C 
ATOM      4  C   UNL     1      -0.348   1.946   1.181  0.00  0.00    +0.001 C 
ATOM      5  C   UNL     1       1.189   1.036  -0.602  0.00  0.00    +0.001 C 
ATOM      6  C   UNL     1       1.153  -0.416  -1.311  0.00  0.00    +0.001 C 
ATOM      7  C   UNL     1       1.982   0.532   0.720  0.00  0.00    +0.000 C 
ATOM      8  C   UNL     1       1.619  -0.772   1.027  0.00  0.00    +0.001 C 
ATOM      9  C   UNL     1       0.624  -1.361  -0.111  0.00  0.00    +0.015 C 
ATOM     10  C   UNL     1      -0.856  -0.722   1.776  0.00  0.00    +0.017 C 
ENDROOT
BRANCH   1  12
ATOM     11  C   UNL     1      -1.545  -1.307  -1.585  0.00  0.00    +0.107 C 
ATOM     12  N   UNL     1      -1.785  -0.923  -0.395  0.00  0.00    -0.219 NA
ENDBRANCH   1  12
TORSDOF 1
