REMARK  Name = 
REMARK  9 active torsions:
REMARK  status: ('A' for Active; 'I' for Inactive)
REMARK    1  A    between atoms: N_2  and  C_4
REMARK    2  A    between atoms: C_4  and  C_5
REMARK    3  A    between atoms: C_5  and  O_6
REMARK    4  A    between atoms: O_6  and  C_7
REMARK    5  A    between atoms: C_10  and  C_11
REMARK    6  A    between atoms: C_11  and  C_22
REMARK    7  A    between atoms: C_12  and  C_13
REMARK    8  A    between atoms: C_12  and  C_16
REMARK    9  A    between atoms: C_13  and  C_14
REMARK                            x       y       z     vdW  Elec       q    Type
REMARK                         _______ _______ _______ _____ _____    ______ ____
ROOT
ATOM      1  C   UNL     1      -1.207   0.555   0.598  0.00  0.00    -0.004 C 
ATOM      2  C   UNL     1      -2.324  -0.171   0.625  0.00  0.00    -0.021 C 
ENDROOT
BRANCH   2   3
ATOM      3  C   UNL     1      -2.641  -0.990  -0.552  0.00  0.00    -0.004 A 
ATOM      4  C   UNL     1      -3.025  -2.317  -0.397  0.00  0.00    -0.000 A 
ATOM      5  C   UNL     1      -4.022  -2.862  -1.180  0.00  0.00    -0.000 A 
ATOM      6  C   UNL     1      -4.407  -2.239  -2.361  0.00  0.00    -0.000 A 
ATOM      7  C   UNL     1      -4.075  -0.902  -2.510  0.00  0.00    -0.000 A 
ATOM      8  C   UNL     1      -3.068  -0.394  -1.732  0.00  0.00    -0.000 A 
ENDBRANCH   2   3
BRANCH   1   9
ATOM      9  C   UNL     1      -1.136   1.900   1.183  0.00  0.00    -0.000 A 
ATOM     10  C   UNL     1      -0.924   2.949   0.303  0.00  0.00    -0.000 A 
ATOM     11  C   UNL     1      -1.222   4.253   0.598  0.00  0.00    -0.000 A 
ATOM     12  C   UNL     1      -2.125   4.501   1.623  0.00  0.00    -0.000 A 
ATOM     13  C   UNL     1      -2.372   3.479   2.526  0.00  0.00    -0.000 A 
ATOM     14  C   UNL     1      -1.910   2.192   2.298  0.00  0.00    -0.000 A 
ENDBRANCH   1   9
BRANCH   1  18
ATOM     15  C   UNL     1       2.482  -0.919  -0.838  0.00  0.00    +0.139 A 
ATOM     16  C   UNL     1       2.396  -0.228   0.363  0.00  0.00    +0.037 A 
ATOM     17  C   UNL     1       1.124  -0.101   0.910  0.00  0.00    +0.003 A 
ATOM     18  C   UNL     1      -0.011  -0.141   0.109  0.00  0.00    -0.000 A 
ATOM     19  C   UNL     1       0.202  -0.413  -1.224  0.00  0.00    +0.003 A 
ATOM     20  C   UNL     1       1.331  -1.129  -1.583  0.00  0.00    +0.037 A 
BRANCH  15  21
ATOM     21  O   UNL     1       3.672  -1.545  -1.221  0.00  0.00    -0.474 OA
BRANCH  21  22
ATOM     22  C   UNL     1       4.888  -0.852  -1.124  0.00  0.00    +0.223 C 
BRANCH  22  23
ATOM     23  C   UNL     1       5.948  -1.607  -0.376  0.00  0.00    +0.120 C 
BRANCH  23  25
ATOM     24  C   UNL     1       6.454   0.436   0.797  0.00  0.00    +0.090 C 
ATOM     25  N   UNL     1       6.984  -0.721   0.096  0.00  0.00    -0.267 NA
ATOM     26  C   UNL     1       7.861  -0.353  -0.991  0.00  0.00    +0.090 C 
ENDBRANCH  23  25
ENDBRANCH  22  23
ENDBRANCH  21  22
ENDBRANCH  15  21
ENDBRANCH   1  18
BRANCH   2  27
ATOM     27  C   UNL     1      -3.388   0.217   1.603  0.00  0.00    +0.044 C 
BRANCH  27  28
ATOM     28  C   UNL     1      -3.410  -0.717   2.797  0.00  0.00    +0.100 C 
ATOM     29 CL   UNL     1      -2.075  -1.881   2.760  0.00  0.00    -0.113 Cl
ENDBRANCH  27  28
ENDBRANCH   2  27
TORSDOF 9
