REMARK  Name = 
REMARK  2 active torsions:
REMARK  status: ('A' for Active; 'I' for Inactive)
REMARK    1  A    between atoms: C_6  and  C_7
REMARK    2  A    between atoms: C_7  and  N_8
REMARK                            x       y       z     vdW  Elec       q    Type
REMARK                         _______ _______ _______ _____ _____    ______ ____
ROOT
ATOM      1  N   UNL     1       1.187  -0.416   0.546  0.00  0.00    -0.270 N 
ATOM      2  C   UNL     1       0.106   0.493   0.300  0.00  0.00    +0.250 C 
ATOM      3  O   UNL     1       0.292   1.426  -0.537  0.00  0.00    -0.270 OA
ATOM      4  C   UNL     1      -1.261   0.121   0.690  0.00  0.00    +0.067 A 
ATOM      5  C   UNL     1      -2.476   0.762   0.482  0.00  0.00    +0.021 A 
ATOM      6  C   UNL     1      -3.496  -0.178   0.452  0.00  0.00    +0.060 A 
ATOM      7  N   UNL     1      -2.939  -1.359   0.820  0.00  0.00    -0.328 N 
ATOM      8  C   UNL     1      -3.561  -2.641   0.499  0.00  0.00    +0.130 C 
ATOM      9  C   UNL     1      -4.708   0.168  -0.121  0.00  0.00    +0.017 A 
ATOM     10  C   UNL     1      -4.806   1.399  -0.758  0.00  0.00    +0.001 A 
ATOM     11  C   UNL     1      -3.991   2.406  -0.259  0.00  0.00    +0.000 A 
ATOM     12  C   UNL     1      -2.752   2.111   0.291  0.00  0.00    +0.002 A 
ATOM     13  C   UNL     1      -1.591  -1.225   0.804  0.00  0.00    +0.043 A 
ATOM     14  C   UNL     1      -0.456  -2.184   0.637  0.00  0.00    +0.065 C 
ATOM     15  C   UNL     1       0.807  -1.637   1.253  0.00  0.00    +0.100 C 
ENDROOT
BRANCH   1  16
ATOM     16  C   UNL     1       2.240  -0.494  -0.464  0.00  0.00    +0.141 C 
BRANCH  16  19
ATOM     17  C   UNL     1       3.619   2.087   0.794  0.00  0.00    +0.053 C 
ATOM     18  C   UNL     1       4.294   0.818   0.422  0.00  0.00    +0.076 A 
ATOM     19  C   UNL     1       3.593  -0.350   0.149  0.00  0.00    +0.094 A 
ATOM     20  N   UNL     1       4.557  -1.298   0.051  0.00  0.00    -0.225 NA
ATOM     21  C   UNL     1       5.751  -0.671  -0.071  0.00  0.00    +0.198 A 
ATOM     22  N   UNL     1       5.590   0.664   0.056  0.00  0.00    -0.227 NA
ENDBRANCH  16  19
ENDBRANCH   1  16
TORSDOF 2
