REMARK  Name = 
REMARK  0 active torsions:
REMARK  status: ('A' for Active; 'I' for Inactive)
REMARK                            x       y       z     vdW  Elec       q    Type
REMARK                         _______ _______ _______ _____ _____    ______ ____
ROOT
ATOM      1 CL   UNL     1      -0.257  -3.000  -0.211  0.00  0.00    -0.112 Cl
ATOM      2  C   UNL     1      -0.333  -1.216  -0.723  0.00  0.00    +0.112 C 
ATOM      3  C   UNL     1       1.229  -0.783  -0.539  0.00  0.00    +0.112 C 
ATOM      4 CL   UNL     1       1.599  -1.660   1.055  0.00  0.00    -0.112 Cl
ATOM      5  C   UNL     1       1.063   0.661   0.196  0.00  0.00    +0.112 C 
ATOM      6 CL   UNL     1       2.461   1.502  -0.675  0.00  0.00    -0.112 Cl
ATOM      7  C   UNL     1      -0.101   1.199  -0.790  0.00  0.00    +0.112 C 
ATOM      8 CL   UNL     1       0.002   2.989  -0.317  0.00  0.00    -0.112 Cl
ATOM      9  C   UNL     1      -1.368   0.774   0.145  0.00  0.00    +0.112 C 
ATOM     10 CL   UNL     1      -0.966   1.674   1.721  0.00  0.00    -0.112 Cl
ATOM     11  C   UNL     1      -0.839  -0.657   0.709  0.00  0.00    +0.112 C 
ATOM     12 CL   UNL     1      -2.489  -1.483   0.648  0.00  0.00    -0.112 Cl
ENDROOT
TORSDOF 0
