REMARK  Name = 
REMARK  5 active torsions:
REMARK  status: ('A' for Active; 'I' for Inactive)
REMARK    1  A    between atoms: C_8  and  N_9
REMARK    2  A    between atoms: C_10  and  C_12
REMARK    3  A    between atoms: N_16  and  C_17
REMARK    4  A    between atoms: N_23  and  C_24
REMARK    5  A    between atoms: C_24  and  C_25
REMARK                            x       y       z     vdW  Elec       q    Type
REMARK                         _______ _______ _______ _____ _____    ______ ____
ROOT
ATOM      1  C   UNL     1       3.295   0.275  -0.475  0.00  0.00    +0.107 A 
ATOM      2  S   UNL     1       2.204  -0.553  -1.516  0.00  0.00    -0.045 S 
ATOM      3  C   UNL     1       0.768  -0.360  -0.592  0.00  0.00    +0.185 A 
ATOM      4  N   UNL     1      -0.439  -1.129  -0.553  0.00  0.00    -0.170 NA
ATOM      5  N   UNL     1       1.193   0.587   0.279  0.00  0.00    -0.221 NA
ATOM      6  C   UNL     1       2.463   0.407   0.632  0.00  0.00    +0.112 A 
ENDROOT
BRANCH   4   7
ATOM      7  C   UNL     1      -1.682  -0.655  -1.021  0.00  0.00    +0.158 A 
ATOM      8  N   UNL     1      -1.838  -0.344  -2.331  0.00  0.00    -0.214 NA
ATOM      9  C   UNL     1      -2.928   0.407  -2.616  0.00  0.00    +0.142 A 
ATOM     10  C   UNL     1      -2.929   1.283  -3.828  0.00  0.00    +0.074 C 
ATOM     11  N   UNL     1      -4.023   0.200  -1.873  0.00  0.00    -0.216 NA
ATOM     12  C   UNL     1      -4.008  -0.505  -0.720  0.00  0.00    +0.136 A 
ATOM     13  N   UNL     1      -5.082  -0.310   0.176  0.00  0.00    -0.290 N 
ATOM     14  C   UNL     1      -5.498   1.036   0.559  0.00  0.00    +0.109 C 
ATOM     15  C   UNL     1      -6.745   1.470  -0.175  0.00  0.00    +0.094 C 
ATOM     16  N   UNL     1      -7.773   0.461  -0.162  0.00  0.00    -0.268 NA
ATOM     17  C   UNL     1      -7.305  -0.832  -0.591  0.00  0.00    +0.094 C 
ATOM     18  C   UNL     1      -6.128  -1.328   0.218  0.00  0.00    +0.109 C 
ATOM     19  C   UNL     1      -2.826  -1.135  -0.393  0.00  0.00    +0.070 A 
BRANCH  16  20
ATOM     20  C   UNL     1      -8.527   0.421   1.065  0.00  0.00    +0.108 C 
BRANCH  20  21
ATOM     21  C   UNL     1      -7.835  -0.353   2.153  0.00  0.00    +0.199 C 
ATOM     22  O   UNL     1      -8.733  -0.960   3.026  0.00  0.00    -0.219 OA
ENDBRANCH  20  21
ENDBRANCH  16  20
ENDBRANCH   4   7
BRANCH   1  24
ATOM     23  N   UNL     1       5.593   1.262  -0.054  0.00  0.00    -0.174 NA
ATOM     24  C   UNL     1       4.763   0.208  -0.494  0.00  0.00    +0.277 C 
ATOM     25  O   UNL     1       5.351  -0.831  -0.922  0.00  0.00    -0.267 OA
BRANCH  23  28
ATOM     26  C   UNL     1       8.112   0.574  -1.290  0.00  0.00    +0.032 C 
ATOM     27  C   UNL     1       7.848   0.283   0.151  0.00  0.00    -0.006 A 
ATOM     28  C   UNL     1       6.748   0.909   0.720  0.00  0.00    +0.080 A 
ATOM     29  C   UNL     1       6.596   0.706   2.086  0.00  0.00    +0.073 A 
ATOM     30 CL   UNL     1       5.468   1.770   2.918  0.00  0.00    -0.081 Cl
ATOM     31  C   UNL     1       7.245  -0.331   2.744  0.00  0.00    +0.013 A 
ATOM     32  C   UNL     1       8.098  -1.177   2.051  0.00  0.00    +0.001 A 
ATOM     33  C   UNL     1       8.553  -0.706   0.826  0.00  0.00    -0.003 A 
ENDBRANCH  23  28
ENDBRANCH   1  24
TORSDOF 5
