REMARK  Name = 
REMARK  7 active torsions:
REMARK  status: ('A' for Active; 'I' for Inactive)
REMARK    1  A    between atoms: C_2  and  C_4
REMARK    2  A    between atoms: C_4  and  C_5
REMARK    3  A    between atoms: C_4  and  C_11
REMARK    4  A    between atoms: C_4  and  C_17
REMARK    5  A    between atoms: N_20  and  C_21
REMARK    6  A    between atoms: C_21  and  C_22
REMARK    7  A    between atoms: C_22  and  C_23
REMARK                            x       y       z     vdW  Elec       q    Type
REMARK                         _______ _______ _______ _____ _____    ______ ____
ROOT
ATOM      1  C   UNL     1      -2.423  -0.475  -0.414  0.00  0.00    +0.111 C 
ENDROOT
BRANCH   1   2
ATOM      2  C   UNL     1      -3.386   0.014  -1.403  0.00  0.00    -0.011 A 
ATOM      3  C   UNL     1      -3.362   1.280  -1.954  0.00  0.00    -0.004 A 
ATOM      4  C   UNL     1      -4.404   1.677  -2.782  0.00  0.00    -0.000 A 
ATOM      5  C   UNL     1      -5.645   1.055  -2.710  0.00  0.00    -0.000 A 
ATOM      6  C   UNL     1      -5.665  -0.227  -2.176  0.00  0.00    -0.000 A 
ATOM      7  C   UNL     1      -4.508  -0.744  -1.607  0.00  0.00    -0.004 A 
ENDBRANCH   1   2
BRANCH   1   8
ATOM      8  C   UNL     1      -2.974  -0.190   0.943  0.00  0.00    -0.011 A 
ATOM      9  C   UNL     1      -3.404  -1.133   1.833  0.00  0.00    -0.004 A 
ATOM     10  C   UNL     1      -4.147  -0.728   2.937  0.00  0.00    -0.000 A 
ATOM     11  C   UNL     1      -4.494   0.595   3.144  0.00  0.00    -0.000 A 
ATOM     12  C   UNL     1      -3.761   1.540   2.441  0.00  0.00    -0.000 A 
ATOM     13  C   UNL     1      -3.198   1.148   1.253  0.00  0.00    -0.004 A 
ENDBRANCH   1   8
BRANCH   1  14
ATOM     14  C   UNL     1      -1.192   0.601  -0.449  0.00  0.00    +0.033 C 
ATOM     15  C   UNL     1      -0.129  -0.415   0.260  0.00  0.00    +0.073 C 
ATOM     16  N   UNL     1       1.091  -0.059  -0.415  0.00  0.00    -0.272 NA
ATOM     17  C   UNL     1       0.760   0.410  -1.728  0.00  0.00    +0.072 C 
ATOM     18  C   UNL     1      -0.718   0.107  -1.930  0.00  0.00    +0.020 C 
BRANCH  16  19
ATOM     19  C   UNL     1       1.697   0.960   0.427  0.00  0.00    +0.077 C 
BRANCH  19  20
ATOM     20  C   UNL     1       2.316   0.202   1.597  0.00  0.00    +0.044 C 
BRANCH  20  21
ATOM     21  C   UNL     1       3.747  -0.010   1.233  0.00  0.00    -0.021 A 
ATOM     22  C   UNL     1       4.341   0.667   0.183  0.00  0.00    -0.005 A 
ATOM     23  C   UNL     1       5.708   0.898   0.300  0.00  0.00    +0.015 A 
ATOM     24  C   UNL     1       6.566   1.552  -0.739  0.00  0.00    +0.077 C 
ATOM     25  C   UNL     1       7.950   1.201  -0.207  0.00  0.00    +0.210 C 
ATOM     26  O   UNL     1       7.724  -0.136   0.233  0.00  0.00    -0.475 OA
ATOM     27  C   UNL     1       6.497  -0.076   0.900  0.00  0.00    +0.135 A 
ATOM     28  C   UNL     1       5.837  -1.076   1.604  0.00  0.00    +0.036 A 
ATOM     29  C   UNL     1       4.471  -1.068   1.756  0.00  0.00    -0.001 A 
ENDBRANCH  20  21
ENDBRANCH  19  20
ENDBRANCH  16  19
ENDBRANCH   1  14
BRANCH   1  31
ATOM     30  N   UNL     1      -1.621  -1.830  -0.489  0.00  0.00    -0.087 NA
ATOM     31  C   UNL     1      -1.904  -1.797  -0.573  0.00  0.00    +0.267 C 
ATOM     32  O   UNL     1      -1.771  -2.627  -1.467  0.00  0.00    -0.271 OA
ENDBRANCH   1  31
TORSDOF 7
