REMARK  Name = 
REMARK  2 active torsions:
REMARK  status: ('A' for Active; 'I' for Inactive)
REMARK    1  A    between atoms: C_10  and  C_11
REMARK    2  A    between atoms: C_11  and  C_12
REMARK                            x       y       z     vdW  Elec       q    Type
REMARK                         _______ _______ _______ _____ _____    ______ ____
ROOT
ATOM      1  C   UNL     1      -3.302   1.524   0.193  0.00  0.00    -0.000 A 
ATOM      2  C   UNL     1      -3.472   0.156   0.358  0.00  0.00    -0.000 A 
ATOM      3  C   UNL     1      -2.331  -0.636   0.324  0.00  0.00    -0.000 A 
ATOM      4  C   UNL     1      -2.473  -1.994   0.076  0.00  0.00    -0.000 A 
ATOM      5  C   UNL     1      -1.335  -2.760  -0.124  0.00  0.00    -0.000 A 
ATOM      6  C   UNL     1      -0.164  -2.136  -0.506  0.00  0.00    -0.004 A 
ATOM      7  C   UNL     1      -0.005  -0.762  -0.372  0.00  0.00    -0.010 A 
ATOM      8  C   UNL     1      -1.064  -0.104   0.233  0.00  0.00    -0.003 A 
ATOM      9  C   UNL     1      -0.957   1.253   0.503  0.00  0.00    -0.000 A 
ATOM     10  C   UNL     1      -2.086   2.051   0.610  0.00  0.00    -0.000 A 
ENDROOT
BRANCH   7  11
ATOM     11  C   UNL     1       1.061  -0.024  -1.100  0.00  0.00    +0.147 C 
BRANCH  11  12
ATOM     12  C   UNL     1       2.178   0.357  -0.184  0.00  0.00    +0.336 C 
ATOM     13  N   UNL     1       3.219  -0.483   0.330  0.00  0.00    -0.030 NA
ATOM     14  C   UNL     1       4.444   0.313   0.366  0.00  0.00    +0.308 C 
ATOM     15  C   UNL     1       3.861   1.713   0.465  0.00  0.00    +0.318 C 
ATOM     16  N   UNL     1       2.425   1.534   0.310  0.00  0.00    -0.061 NA
ENDBRANCH  11  12
ENDBRANCH   7  11
TORSDOF 2
