REMARK  Name = 
REMARK  8 active torsions:
REMARK  status: ('A' for Active; 'I' for Inactive)
REMARK    1  A    between atoms: C_2  and  N_3
REMARK    2  A    between atoms: N_3  and  C_4
REMARK    3  A    between atoms: N_3  and  C_6
REMARK    4  A    between atoms: C_6  and  C_7
REMARK    5  A    between atoms: C_7  and  O_8
REMARK    6  A    between atoms: O_8  and  C_9
REMARK    7  A    between atoms: C_9  and  C_11
REMARK    8  A    between atoms: C_11  and  C_12
REMARK                            x       y       z     vdW  Elec       q    Type
REMARK                         _______ _______ _______ _____ _____    ______ ____
ROOT
ATOM      1  C   UNL     1      -1.499   0.745  -0.047  0.00  0.00    +0.090 C 
ATOM      2  C   UNL     1      -2.153   1.642  -1.093  0.00  0.00    +0.011 C 
ATOM      3  C   UNL     1      -2.882   2.803  -0.437  0.00  0.00    +0.001 C 
ATOM      4  C   UNL     1      -1.919   3.591   0.439  0.00  0.00    +0.000 C 
ATOM      5  C   UNL     1      -1.165   2.676   1.396  0.00  0.00    +0.001 C 
ATOM      6  C   UNL     1      -1.809   1.319   1.322  0.00  0.00    +0.011 C 
ENDROOT
BRANCH   1   7
ATOM      7  C   UNL     1      -2.192  -0.578  -0.141  0.00  0.00    +0.010 C 
ATOM      8  C   UNL     1      -3.488  -0.470   0.639  0.00  0.00    +0.001 C 
ATOM      9  C   UNL     1      -4.317  -1.682   0.264  0.00  0.00    +0.000 C 
ATOM     10  C   UNL     1      -3.554  -2.920   0.649  0.00  0.00    +0.000 C 
ATOM     11  C   UNL     1      -2.182  -2.986  -0.001  0.00  0.00    +0.000 C 
ATOM     12  C   UNL     1      -1.398  -1.735   0.384  0.00  0.00    +0.001 C 
ENDBRANCH   1   7
BRANCH   1  13
ATOM     13  C   UNL     1      -0.061   0.701  -0.344  0.00  0.00    +0.316 C 
ATOM     14  O   UNL     1       0.487   1.787  -0.701  0.00  0.00    -0.250 OA
BRANCH  13  15
ATOM     15  O   UNL     1       0.734  -0.423  -0.297  0.00  0.00    -0.447 OA
BRANCH  15  16
ATOM     16  C   UNL     1       1.837  -0.461  -1.195  0.00  0.00    +0.226 C 
BRANCH  16  17
ATOM     17  C   UNL     1       3.088  -0.987  -0.547  0.00  0.00    +0.120 C 
BRANCH  17  18
ATOM     18  N   UNL     1       3.721  -0.001   0.297  0.00  0.00    -0.270 NA
BRANCH  18  19
ATOM     19  C   UNL     1       5.006   0.422  -0.201  0.00  0.00    +0.072 C 
ATOM     20  C   UNL     1       6.009  -0.723  -0.253  0.00  0.00    +0.019 C 
ENDBRANCH  18  19
BRANCH  18  22
ATOM     21  C   UNL     1       3.791  -2.113   1.520  0.00  0.00    +0.019 C 
ATOM     22  C   UNL     1       3.945  -0.609   1.605  0.00  0.00    +0.072 C 
ENDBRANCH  18  22
ENDBRANCH  17  18
ENDBRANCH  16  17
ENDBRANCH  15  16
ENDBRANCH  13  15
ENDBRANCH   1  13
TORSDOF 8
