REMARK  Name = 
REMARK  7 active torsions:
REMARK  status: ('A' for Active; 'I' for Inactive)
REMARK    1  A    between atoms: O_2  and  C_3
REMARK    2  A    between atoms: C_6  and  C_7
REMARK    3  A    between atoms: C_7  and  N_8
REMARK    4  A    between atoms: N_8  and  C_9
REMARK    5  A    between atoms: N_8  and  C_14
REMARK    6  A    between atoms: C_9  and  C_10
REMARK    7  A    between atoms: C_10  and  N_11
REMARK                            x       y       z     vdW  Elec       q    Type
REMARK                         _______ _______ _______ _____ _____    ______ ____
ROOT
ATOM      1  N   UNL     1       1.107  -0.371  -0.828  0.00  0.00    -0.288 N 
ENDROOT
BRANCH   1   2
ATOM      2  C   UNL     1       1.762   0.747  -0.216  0.00  0.00    +0.132 A 
ATOM      3  N   UNL     1       2.918   0.565   0.456  0.00  0.00    -0.229 NA
ATOM      4  C   UNL     1       3.806   1.560   0.669  0.00  0.00    +0.100 A 
ATOM      5  C   UNL     1       3.803   2.595  -0.249  0.00  0.00    +0.021 A 
ATOM      6  C   UNL     1       2.612   2.932  -0.844  0.00  0.00    +0.004 A 
ATOM      7  C   UNL     1       1.582   2.002  -0.783  0.00  0.00    +0.034 A 
ENDBRANCH   1   2
BRANCH   1   8
ATOM      8  C   UNL     1      -0.181  -0.161  -1.442  0.00  0.00    +0.119 C 
BRANCH   8  12
ATOM      9  C   UNL     1      -3.917   0.487   0.295  0.00  0.00    +0.139 A 
ATOM     10  C   UNL     1      -3.145  -0.558   0.723  0.00  0.00    +0.037 A 
ATOM     11  C   UNL     1      -1.810  -0.571   0.430  0.00  0.00    +0.000 A 
ATOM     12  C   UNL     1      -1.211   0.301  -0.468  0.00  0.00    -0.002 A 
ATOM     13  C   UNL     1      -1.993   1.389  -0.838  0.00  0.00    +0.000 A 
ATOM     14  C   UNL     1      -3.339   1.457  -0.502  0.00  0.00    +0.037 A 
BRANCH   9  16
ATOM     15  C   UNL     1      -6.288  -0.062  -0.100  0.00  0.00    +0.252 C 
ATOM     16  O   UNL     1      -5.273   0.617   0.606  0.00  0.00    -0.471 OA
ENDBRANCH   9  16
ENDBRANCH   8  12
ENDBRANCH   1   8
BRANCH   1  17
ATOM     17  C   UNL     1       1.955  -1.387  -1.447  0.00  0.00    +0.110 C 
BRANCH  17  18
ATOM     18  C   UNL     1       2.805  -2.104  -0.434  0.00  0.00    +0.094 C 
BRANCH  18  19
ATOM     19  N   UNL     1       2.074  -3.151   0.266  0.00  0.00    -0.269 NA
ATOM     20  C   UNL     1       1.952  -2.886   1.681  0.00  0.00    +0.090 C 
ATOM     21  C   UNL     1       0.782  -3.400  -0.355  0.00  0.00    +0.090 C 
ENDBRANCH  18  19
ENDBRANCH  17  18
ENDBRANCH   1  17
TORSDOF 7
