REMARK  Name = 
REMARK  6 active torsions:
REMARK  status: ('A' for Active; 'I' for Inactive)
REMARK    1  A    between atoms: C_2  and  N_5
REMARK    2  A    between atoms: N_5  and  C_6
REMARK    3  A    between atoms: C_6  and  C_7
REMARK    4  A    between atoms: C_7  and  C_9
REMARK    5  A    between atoms: C_9  and  O_10
REMARK    6  A    between atoms: O_10  and  C_11
REMARK                            x       y       z     vdW  Elec       q    Type
REMARK                         _______ _______ _______ _____ _____    ______ ____
ROOT
ATOM      1  C   UNL     1      -1.065  -0.843  -0.042  0.00  0.00    +0.136 A 
ATOM      2  C   UNL     1      -2.162  -0.003  -0.191  0.00  0.00    +0.028 A 
ATOM      3  C   UNL     1      -2.698   0.399  -1.507  0.00  0.00    +0.040 C 
ATOM      4  C   UNL     1      -4.221   0.327  -1.484  0.00  0.00    +0.092 C 
ATOM      5  C   UNL     1      -4.754   1.140  -0.347  0.00  0.00    +0.246 C 
ATOM      6  N   UNL     1      -4.005   1.135   0.868  0.00  0.00    -0.179 NA
ATOM      7  O   UNL     1      -5.996   1.295  -0.313  0.00  0.00    -0.273 OA
ATOM      8  C   UNL     1      -2.768   0.423   0.985  0.00  0.00    +0.072 A 
ATOM      9  C   UNL     1      -2.362  -0.076   2.215  0.00  0.00    +0.016 A 
ATOM     10  C   UNL     1      -1.505  -1.168   2.248  0.00  0.00    +0.004 A 
ATOM     11  C   UNL     1      -1.009  -1.689   1.059  0.00  0.00    +0.037 A 
ENDROOT
BRANCH   1  12
ATOM     12  O   UNL     1      -0.170  -0.920  -1.094  0.00  0.00    -0.473 OA
BRANCH  12  13
ATOM     13  C   UNL     1       1.124  -0.379  -1.018  0.00  0.00    +0.239 C 
BRANCH  13  14
ATOM     14  C   UNL     1       1.584  -0.756   0.522  0.00  0.00    +0.213 C 
ATOM     15  O   UNL     1       2.620  -1.755   0.028  0.00  0.00    -0.218 OA
BRANCH  14  16
ATOM     16  C   UNL     1       2.674   0.484   0.560  0.00  0.00    +0.125 C 
BRANCH  16  17
ATOM     17  N   UNL     1       3.836  -0.038   1.205  0.00  0.00    -0.218 NA
BRANCH  17  19
ATOM     18  C   UNL     1       5.144   0.679   1.049  0.00  0.00    +0.017 C 
ATOM     19  C   UNL     1       5.008   0.532   0.655  0.00  0.00    +0.060 C 
ATOM     20  C   UNL     1       5.950  -0.463   0.014  0.00  0.00    +0.017 C 
ATOM     21  C   UNL     1       4.775   1.677  -0.295  0.00  0.00    +0.017 C 
ENDBRANCH  17  19
ENDBRANCH  16  17
ENDBRANCH  14  16
ENDBRANCH  13  14
ENDBRANCH  12  13
ENDBRANCH   1  12
TORSDOF 6
