REMARK  Name = 
REMARK  10 active torsions:
REMARK  status: ('A' for Active; 'I' for Inactive)
REMARK    1  A    between atoms: C_2  and  C_4
REMARK    2  A    between atoms: N_6  and  C_7
REMARK    3  A    between atoms: C_10  and  C_11
REMARK    4  A    between atoms: N_13  and  CA_14
REMARK    5  A    between atoms: CA_14  and  CB_15
REMARK    6  A    between atoms: CA_14  and  C_17
REMARK    7  A    between atoms: C_21  and  C_22
REMARK    8  A    between atoms: N_24  and  CA_25
REMARK    9  A    between atoms: CA_25  and  CB_26
REMARK   10  A    between atoms: CA_25  and  C_28
REMARK                            x       y       z     vdW  Elec       q    Type
REMARK                         _______ _______ _______ _____ _____    ______ ____
ROOT
ATOM      1  C   UNK A   0       0.019   1.543  -0.743  0.00  0.00    +0.084 A 
ATOM      2  C   UNK A   0       0.878   0.459  -0.886  0.00  0.00    +0.051 A 
ATOM      3  I   UNK A   0       2.386   0.680  -2.323  0.00  0.00    -0.041 I 
ATOM      4  C   UNK A   0       0.840  -0.654  -0.075  0.00  0.00    +0.067 A 
ATOM      5  C   UNK A   0      -0.220  -0.796   0.817  0.00  0.00    +0.040 A 
ATOM      6  I   UNK A   0       0.033  -1.893   2.610  0.00  0.00    -0.042 I 
ATOM      7  C   UNK A   0      -1.219   0.171   0.833  0.00  0.00    +0.067 A 
ATOM      8  C   UNK A   0      -1.153   1.235  -0.060  0.00  0.00    +0.051 A 
ATOM      9  I   UNK A   0      -2.623   2.712   0.031  0.00  0.00    -0.041 I 
ENDROOT
BRANCH   1  11
ATOM     10  C   UNK A   0       0.443   3.738  -1.718  0.00  0.00    +0.276 C 
ATOM     11  N   UNK A   0       0.555   2.857  -0.696  0.00  0.00    -0.176 NA
ATOM     12  O   UNK A   0      -0.477   3.695  -2.536  0.00  0.00    -0.270 OA
BRANCH  10  14
ATOM     13  C   UNK A   0       2.142   4.729  -3.013  0.00  0.00    +0.046 C 
ATOM     14  C   UNK A   0       1.264   5.137  -1.669  0.00  0.00    +0.229 C 
ATOM     15  O   UNK A   0       2.351   4.641  -0.716  0.00  0.00    -0.213 OA
ENDBRANCH  10  14
ENDBRANCH   1  11
BRANCH   4  16
ATOM     16  C   UNK A   0       1.957  -1.611  -0.022  0.00  0.00    +0.266 C 
ATOM     17  N   SER A   1       3.218  -1.355  -0.591  0.00  0.00    -0.198 NA
ATOM     18  O   UNK A   0       1.914  -2.524   0.856  0.00  0.00    -0.268 OA
BRANCH  17  19
ATOM     19  CA  SER A   1       4.464  -1.974  -0.162  0.00  0.00    +0.161 C 
BRANCH  19  20
ATOM     20  C   SER A   1       4.690  -1.898   1.310  0.00  0.00    +0.206 C 
ATOM     21  O   SER A   1       4.276  -0.660   1.805  0.00  0.00    -0.218 OA
ENDBRANCH  19  20
BRANCH  19  22
ATOM     22  CB  SER A   1       4.662  -3.344  -0.715  0.00  0.00    +0.206 C 
ATOM     23  OG  SER A   1       3.495  -4.006  -1.039  0.00  0.00    -0.218 OA
ENDBRANCH  19  22
ENDBRANCH  17  19
ENDBRANCH   4  16
BRANCH   7  24
ATOM     24  C   UNK A   0      -2.525  -0.296   1.322  0.00  0.00    +0.266 C 
ATOM     25  N   SER A   1      -3.186  -1.340   0.595  0.00  0.00    -0.198 NA
ATOM     26  O   UNK A   0      -2.826  -0.267   2.552  0.00  0.00    -0.268 OA
BRANCH  25  27
ATOM     27  CA  SER A   1      -4.619  -1.345   0.618  0.00  0.00    +0.161 C 
BRANCH  27  28
ATOM     28  C   SER A   1      -5.248  -2.295  -0.362  0.00  0.00    +0.206 C 
ATOM     29  O   SER A   1      -4.602  -3.524  -0.427  0.00  0.00    -0.218 OA
ENDBRANCH  27  28
BRANCH  27  30
ATOM     30  CB  SER A   1      -5.170  -1.526   2.026  0.00  0.00    +0.206 C 
ATOM     31  OG  SER A   1      -5.720  -0.289   2.378  0.00  0.00    -0.218 OA
ENDBRANCH  27  30
ENDBRANCH  25  27
ENDBRANCH   7  24
TORSDOF 10
