REMARK  Name = 
REMARK  7 active torsions:
REMARK  status: ('A' for Active; 'I' for Inactive)
REMARK    1  A    between atoms: C_2  and  N_3
REMARK    2  A    between atoms: N_3  and  C_4
REMARK    3  A    between atoms: N_3  and  C_6
REMARK    4  A    between atoms: C_6  and  C_7
REMARK    5  A    between atoms: C_7  and  S_8
REMARK    6  A    between atoms: S_8  and  C_11
REMARK    7  A    between atoms: C_41  and  C_42
REMARK                            x       y       z     vdW  Elec       q    Type
REMARK                         _______ _______ _______ _____ _____    ______ ____
ROOT
ATOM      1  C   UNL     1      -2.907   0.008  -1.650  0.00  0.00    +0.160 C 
ATOM      2  C   UNL     1      -1.480   0.108  -0.745  0.00  0.00    +0.197 C 
ATOM      3  N   UNL     1      -1.871  -0.996   0.285  0.00  0.00    -0.265 N 
ATOM      4  C   UNL     1      -1.956  -0.384   1.589  0.00  0.00    +0.270 C 
ATOM      5  C   UNL     1      -1.118   0.751   1.999  0.00  0.00    +0.175 A 
ATOM      6  N   UNL     1      -0.674   1.569   1.021  0.00  0.00    -0.207 NA
ATOM      7  C   UNL     1       0.568   2.015   1.291  0.00  0.00    +0.213 A 
ATOM      8  C   UNL     1       1.224   2.748   0.196  0.00  0.00    +0.150 C 
ATOM      9  C   UNL     1       2.629   3.126   0.485  0.00  0.00    +0.163 C 
ATOM     10  C   UNL     1       3.678   2.640  -0.473  0.00  0.00    +0.102 C 
ATOM     11  C   UNL     1       5.002   2.465   0.523  0.00  0.00    +0.181 C 
ATOM     12  C   UNL     1       4.716   0.919   0.921  0.00  0.00    +0.002 C 
ATOM     13  C   UNL     1       5.918   0.428   1.240  0.00  0.00    -0.024 C 
ATOM     14  C   UNL     1       6.460   0.090  -0.090  0.00  0.00    -0.007 C 
ATOM     15  C   UNL     1       5.430   0.153  -0.954  0.00  0.00    -0.003 C 
ATOM     16  C   UNL     1       4.470  -0.940  -0.803  0.00  0.00    +0.142 C 
ATOM     17  N   UNL     1       4.175  -1.543  -2.111  0.00  0.00    -0.197 NA
ATOM     18  C   UNL     1       4.524  -2.936  -2.166  0.00  0.00    +0.265 C 
ATOM     19  C   UNL     1       3.915  -3.676  -1.045  0.00  0.00    +0.055 C 
ATOM     20  C   UNL     1       2.893  -3.018  -0.478  0.00  0.00    -0.018 C 
ATOM     21  C   UNL     1       1.911  -2.578  -1.653  0.00  0.00    +0.062 C 
ATOM     22  C   UNL     1       0.467  -2.310  -0.752  0.00  0.00    +0.173 C 
ATOM     23  O   UNL     1       0.558  -0.831  -1.136  0.00  0.00    -0.451 OA
ATOM     24  C   UNL     1       1.448  -4.107  -1.932  0.00  0.00    +0.008 C 
ATOM     25  O   UNL     1       5.432  -3.418  -2.885  0.00  0.00    -0.268 OA
ATOM     26  C   UNL     1       6.394  -0.056   2.528  0.00  0.00    +0.031 C 
ATOM     27  O   UNL     1       5.994   2.374  -0.620  0.00  0.00    -0.218 OA
ATOM     28  O   UNL     1       2.775   4.272   0.908  0.00  0.00    -0.295 OA
ATOM     29  O   UNL     1       0.724   1.810   2.575  0.00  0.00    -0.435 OA
ATOM     30  C   UNL     1      -0.217   0.996   3.030  0.00  0.00    +0.205 A 
ATOM     31  O   UNL     1      -2.132  -1.242   2.510  0.00  0.00    -0.268 OA
ATOM     32  C   UNL     1      -2.660  -1.976  -0.303  0.00  0.00    +0.096 C 
ATOM     33  C   UNL     1      -0.680  -0.787  -1.824  0.00  0.00    +0.337 C 
ATOM     34  O   UNL     1      -0.721  -0.211  -2.962  0.00  0.00    -0.248 OA
ATOM     35  C   UNL     1      -2.996  -1.569  -1.660  0.00  0.00    +0.047 C 
ENDROOT
BRANCH   1  36
ATOM     36  S   UNL     1      -4.207   0.390  -0.405  0.00  0.00    -0.008 S 
ATOM     37  O   UNL     1      -3.976   1.658   0.283  0.00  0.00    -0.173 OA
ATOM     38  O   UNL     1      -4.695  -0.743   0.348  0.00  0.00    -0.173 OA
BRANCH  36  39
ATOM     39  C   UNL     1      -5.598   0.804  -1.479  0.00  0.00    +0.168 C 
BRANCH  39  40
ATOM     40  C   UNL     1      -6.424   1.923  -0.870  0.00  0.00    +0.098 C 
BRANCH  40  41
ATOM     41  N   UNL     1      -7.421   1.432   0.062  0.00  0.00    -0.271 NA
BRANCH  41  43
ATOM     42  C   UNL     1      -7.446   2.425   1.890  0.00  0.00    +0.019 C 
ATOM     43  C   UNL     1      -7.318   2.049   1.358  0.00  0.00    +0.072 C 
ENDBRANCH  41  43
BRANCH  41  44
ATOM     44  C   UNL     1      -8.700   1.858  -0.506  0.00  0.00    +0.072 C 
ATOM     45  C   UNL     1      -9.867   1.246   0.215  0.00  0.00    +0.019 C 
ENDBRANCH  41  44
ENDBRANCH  40  41
ENDBRANCH  39  40
ENDBRANCH  36  39
ENDBRANCH   1  36
BRANCH  22  46
ATOM     46  C   UNL     1       1.134  -2.230   0.708  0.00  0.00    +0.041 C 
ATOM     47  C   UNL     1       0.874  -3.502   1.367  0.00  0.00    +0.004 C 
ATOM     48  C   UNL     1       1.750  -1.205   1.271  0.00  0.00    +0.004 C 
ENDBRANCH  22  46
TORSDOF 7
