REMARK  Name = 
REMARK  5 active torsions:
REMARK  status: ('A' for Active; 'I' for Inactive)
REMARK    1  A    between atoms: N_6  and  C_7
REMARK    2  A    between atoms: C_10  and  C_11
REMARK    3  A    between atoms: C_11  and  C_12
REMARK    4  A    between atoms: C_12  and  N_13
REMARK    5  A    between atoms: N_16  and  C_17
REMARK                            x       y       z     vdW  Elec       q    Type
REMARK                         _______ _______ _______ _____ _____    ______ ____
ROOT
ATOM      1  C   UNL     1       0.418  -1.324   0.316  0.00  0.00    +0.072 C 
ENDROOT
BRANCH   1   2
ATOM      2  N   UNL     1      -0.844  -0.618   0.354  0.00  0.00    -0.270 NA
ATOM      3  C   UNL     1      -0.688   0.813   0.266  0.00  0.00    +0.094 C 
ATOM      4  C   UNL     1      -2.066   1.407   0.091  0.00  0.00    +0.108 C 
ATOM      5  N   UNL     1      -3.076   0.484   0.543  0.00  0.00    -0.304 N 
ATOM      6  C   UNL     1      -2.871  -0.364   1.699  0.00  0.00    +0.108 C 
ATOM      7  C   UNL     1      -1.548  -1.053   1.530  0.00  0.00    +0.094 C 
BRANCH   5   8
ATOM      8  C   UNL     1      -4.292   0.272  -0.185  0.00  0.00    +0.059 A 
ATOM      9  C   UNL     1      -5.202   1.307  -0.205  0.00  0.00    +0.081 A 
ATOM     10 CL   UNL     1      -4.571   2.937  -0.234  0.00  0.00    -0.080 Cl
ATOM     11  C   UNL     1      -6.552   1.079  -0.443  0.00  0.00    +0.069 A 
ATOM     12 CL   UNL     1      -7.609   2.405  -0.884  0.00  0.00    -0.081 Cl
ATOM     13  C   UNL     1      -7.014  -0.231  -0.491  0.00  0.00    +0.012 A 
ATOM     14  C   UNL     1      -6.119  -1.260  -0.660  0.00  0.00    +0.002 A 
ATOM     15  C   UNL     1      -4.778  -0.984  -0.462  0.00  0.00    +0.015 A 
ENDBRANCH   5   8
ENDBRANCH   1   2
BRANCH   1  16
ATOM     16  C   UNL     1       1.459  -0.609  -0.493  0.00  0.00    +0.017 C 
BRANCH  16  20
ATOM     17  C   UNL     1       4.676  -1.755   0.993  0.00  0.00    +0.097 C 
ATOM     18  C   UNL     1       4.699  -1.913  -0.652  0.00  0.00    +0.022 C 
ATOM     19  C   UNL     1       3.682  -0.976  -1.185  0.00  0.00    +0.002 C 
ATOM     20  C   UNL     1       2.262  -1.781  -1.313  0.00  0.00    +0.001 C 
ATOM     21  C   UNL     1       2.517  -2.673   0.041  0.00  0.00    +0.002 C 
ATOM     22  C   UNL     1       3.029  -1.751   1.082  0.00  0.00    +0.022 C 
BRANCH  17  26
ATOM     23  C   UNL     1       6.664   2.212   0.414  0.00  0.00    +0.117 C 
ATOM     24  N   UNL     1       5.859   1.815   0.126  0.00  0.00    -0.259 N 
ATOM     25  C   UNL     1       5.717   0.389   0.126  0.00  0.00    +0.323 C 
ATOM     26  N   UNL     1       4.717  -0.176   0.925  0.00  0.00    -0.190 NA
ATOM     27  O   UNL     1       6.675  -0.306  -0.295  0.00  0.00    -0.251 OA
ATOM     28  C   UNL     1       4.854   2.653  -0.525  0.00  0.00    +0.117 C 
ENDBRANCH  17  26
ENDBRANCH  16  20
ENDBRANCH   1  16
TORSDOF 5
