REMARK  Name = 
REMARK  8 active torsions:
REMARK  status: ('A' for Active; 'I' for Inactive)
REMARK    1  A    between atoms: O_2  and  C_3
REMARK    2  A    between atoms: C_6  and  C_7
REMARK    3  A    between atoms: C_7  and  C_8
REMARK    4  A    between atoms: C_8  and  N_10
REMARK    5  A    between atoms: N_10  and  C_11
REMARK    6  A    between atoms: C_11  and  C_12
REMARK    7  A    between atoms: C_12  and  C_14
REMARK    8  A    between atoms: C_19  and  N_20
REMARK                            x       y       z     vdW  Elec       q    Type
REMARK                         _______ _______ _______ _____ _____    ______ ____
ROOT
ATOM      1  C   UNL     1      -0.362  -0.732  -0.774  0.00  0.00    +0.126 C 
ENDROOT
BRANCH   1   2
ATOM      2  C   UNL     1      -1.083   0.188   0.414  0.00  0.00    +0.192 C 
ATOM      3  O   UNL     1      -0.868  -0.907   1.468  0.00  0.00    -0.217 OA
BRANCH   2   4
ATOM      4  C   UNL     1      -2.570  -0.351   0.024  0.00  0.00    +0.011 A 
ATOM      5  C   UNL     1      -3.563   0.587   0.106  0.00  0.00    +0.018 A 
ATOM      6  C   UNL     1      -4.865   0.098   0.069  0.00  0.00    +0.112 A 
ATOM      7  C   UNL     1      -5.114  -1.269   0.090  0.00  0.00    +0.211 A 
ATOM      8  O   UNL     1      -6.379  -1.779   0.401  0.00  0.00    -0.285 OA
ATOM      9  C   UNL     1      -4.065  -2.104  -0.274  0.00  0.00    +0.043 A 
ATOM     10  C   UNL     1      -2.747  -1.679  -0.129  0.00  0.00    +0.002 A 
BRANCH   6  11
ATOM     11  N   UNL     1      -5.965   0.987   0.057  0.00  0.00    -0.168 NA
ATOM     12  C   UNL     1      -6.139   1.815  -1.081  0.00  0.00    +0.325 C 
ATOM     13  O   UNL     1      -5.143   2.408  -1.539  0.00  0.00    -0.263 OA
ENDBRANCH   6  11
ENDBRANCH   2   4
ENDBRANCH   1   2
BRANCH   1  14
ATOM     14  N   UNL     1       0.357   0.340  -1.465  0.00  0.00    -0.216 NA
BRANCH  14  15
ATOM     15  C   UNL     1       1.296   0.956  -0.351  0.00  0.00    +0.077 C 
ATOM     16  C   UNL     1       2.510   1.218  -1.438  0.00  0.00    +0.019 C 
BRANCH  15  17
ATOM     17  C   UNL     1       1.888  -0.530   0.054  0.00  0.00    +0.044 C 
BRANCH  17  21
ATOM     18  C   UNL     1       5.960   0.064   0.633  0.00  0.00    +0.139 A 
ATOM     19  C   UNL     1       5.571  -0.680  -0.446  0.00  0.00    +0.037 A 
ATOM     20  C   UNL     1       4.198  -0.842  -0.593  0.00  0.00    -0.001 A 
ATOM     21  C   UNL     1       3.320  -0.318   0.348  0.00  0.00    -0.021 A 
ATOM     22  C   UNL     1       3.749   0.726   1.161  0.00  0.00    -0.001 A 
ATOM     23  C   UNL     1       5.113   0.881   1.321  0.00  0.00    +0.037 A 
BRANCH  18  25
ATOM     24  C   UNL     1       7.585   0.059   1.006  0.00  0.00    +0.252 C 
ATOM     25  O   UNL     1       7.315   0.077   0.940  0.00  0.00    -0.471 OA
ENDBRANCH  18  25
ENDBRANCH  17  21
ENDBRANCH  15  17
ENDBRANCH  14  15
ENDBRANCH   1  14
TORSDOF 8
