REMARK  Name = 
REMARK  3 active torsions:
REMARK  status: ('A' for Active; 'I' for Inactive)
REMARK    1  A    between atoms: O_2  and  C_3
REMARK    2  A    between atoms: C_5  and  O_6
REMARK    3  A    between atoms: C_16  and  O_17
REMARK                            x       y       z     vdW  Elec       q    Type
REMARK                         _______ _______ _______ _____ _____    ______ ____
ROOT
ATOM      1  C   UNL     1       1.751  -1.119  -0.846  0.00  0.00    +0.148 A 
ATOM      2  C   UNL     1       0.760  -0.495  -0.097  0.00  0.00    +0.107 A 
ATOM      3  C   UNL     1      -0.637  -0.803   0.247  0.00  0.00    +0.222 C 
ATOM      4  C   UNL     1      -1.290   0.509   0.261  0.00  0.00    +0.237 C 
ATOM      5  C   UNL     1      -2.296   0.570   1.561  0.00  0.00    +0.059 C 
ATOM      6  C   UNL     1      -1.155  -0.080   2.566  0.00  0.00    +0.005 C 
ATOM      7  C   UNL     1      -2.948  -0.909   1.221  0.00  0.00    +0.074 C 
ATOM      8  C   UNL     1      -3.857  -0.623   0.063  0.00  0.00    +0.176 C 
ATOM      9  O   UNL     1      -4.591  -1.599  -0.256  0.00  0.00    -0.291 OA
ATOM     10  C   UNL     1      -3.225   0.079  -1.049  0.00  0.00    +0.074 C 
ATOM     11  C   UNL     1      -2.128   0.819  -0.886  0.00  0.00    +0.162 C 
ATOM     12  O   UNL     1      -0.265   1.423   0.538  0.00  0.00    -0.467 OA
ATOM     13  O   UNL     1      -1.076  -1.950  -0.079  0.00  0.00    -0.287 OA
ATOM     14  C   UNL     1       0.965   0.764   0.454  0.00  0.00    +0.159 A 
ATOM     15  C   UNL     1       2.288   1.116   0.686  0.00  0.00    +0.126 A 
ATOM     16 CL   UNL     1       2.661   2.732   1.256  0.00  0.00    -0.076 Cl
ATOM     17  C   UNL     1       3.331   0.301   0.262  0.00  0.00    +0.155 A 
ATOM     18  C   UNL     1       3.063  -0.716  -0.648  0.00  0.00    +0.075 A 
ENDROOT
BRANCH   1  20
ATOM     19  C   UNL     1       2.057  -2.761  -2.629  0.00  0.00    +0.252 C 
ATOM     20  O   UNL     1       1.352  -1.929  -1.893  0.00  0.00    -0.471 OA
ENDBRANCH   1  20
BRANCH  11  21
ATOM     21  O   UNL     1      -1.705   1.597  -1.967  0.00  0.00    -0.472 OA
ATOM     22  C   UNL     1      -2.128   2.946  -2.034  0.00  0.00    +0.252 C 
ENDBRANCH  11  21
BRANCH  17  23
ATOM     23  O   UNL     1       4.522   0.351   0.986  0.00  0.00    -0.470 OA
ATOM     24  C   UNL     1       4.551  -0.224   2.282  0.00  0.00    +0.253 C 
ENDBRANCH  17  23
TORSDOF 3
