REMARK  Name = 
REMARK  6 active torsions:
REMARK  status: ('A' for Active; 'I' for Inactive)
REMARK    1  A    between atoms: C_5  and  C_6
REMARK    2  A    between atoms: C_6  and  O_7
REMARK    3  A    between atoms: O_7  and  C_8
REMARK    4  A    between atoms: C_8  and  C_9
REMARK    5  A    between atoms: C_8  and  C_15
REMARK    6  A    between atoms: C_9  and  N_10
REMARK                            x       y       z     vdW  Elec       q    Type
REMARK                         _______ _______ _______ _____ _____    ______ ____
ROOT
ATOM      1  C   UNL     1      -0.524  -0.198  -0.139  0.00  0.00    +0.161 C 
ENDROOT
BRANCH   1   2
ATOM      2  C   UNL     1      -1.885   0.310  -0.895  0.00  0.00    +0.017 A 
ATOM      3  C   UNL     1      -1.557   1.494  -1.545  0.00  0.00    +0.057 A 
ATOM      4 CL   UNL     1      -0.286   1.376  -2.758  0.00  0.00    -0.082 Cl
ATOM      5  C   UNL     1      -2.426   2.567  -1.593  0.00  0.00    +0.023 A 
ATOM      6  C   UNL     1      -3.413   2.679  -0.638  0.00  0.00    +0.058 A 
ATOM      7 CL   UNL     1      -3.866   4.236   0.029  0.00  0.00    -0.082 Cl
ATOM      8  C   UNL     1      -3.769   1.519   0.035  0.00  0.00    +0.011 A 
ATOM      9  C   UNL     1      -2.969   0.385  -0.027  0.00  0.00    -0.000 A 
ENDBRANCH   1   2
BRANCH   1  10
ATOM     10  O   UNL     1       0.158  -0.529  -1.473  0.00  0.00    -0.345 OA
BRANCH  10  11
ATOM     11  C   UNL     1       1.207  -1.294  -0.989  0.00  0.00    +0.170 C 
BRANCH  11  17
ATOM     12 CL   UNL     1       6.329   1.201   0.690  0.00  0.00    -0.082 Cl
ATOM     13  C   UNL     1       4.796   0.467   0.327  0.00  0.00    +0.058 A 
ATOM     14  C   UNL     1       4.799  -0.726  -0.379  0.00  0.00    +0.023 A 
ATOM     15  C   UNL     1       3.634  -1.203  -0.909  0.00  0.00    +0.057 A 
ATOM     16 CL   UNL     1       3.641  -2.832  -1.550  0.00  0.00    -0.082 Cl
ATOM     17  C   UNL     1       2.439  -0.517  -0.724  0.00  0.00    +0.018 A 
ATOM     18  C   UNL     1       2.460   0.604   0.061  0.00  0.00    -0.000 A 
ATOM     19  C   UNL     1       3.600   1.060   0.701  0.00  0.00    +0.011 A 
ENDBRANCH  11  17
ENDBRANCH  10  11
ENDBRANCH   1  10
BRANCH   1  20
ATOM     20  C   UNL     1      -1.116  -1.749   0.003  0.00  0.00    +0.142 C 
BRANCH  20  21
ATOM     21  N   UNL     1      -1.804  -1.674   1.290  0.00  0.00    -0.305 N 
ATOM     22  C   UNL     1      -1.317  -1.120   2.413  0.00  0.00    +0.179 A 
ATOM     23  N   UNL     1      -2.207  -1.341   3.410  0.00  0.00    -0.222 NA
ATOM     24  C   UNL     1      -3.139  -2.206   2.981  0.00  0.00    +0.119 A 
ATOM     25  C   UNL     1      -2.785  -2.509   1.678  0.00  0.00    +0.098 A 
ENDBRANCH  20  21
ENDBRANCH   1  20
TORSDOF 6
