REMARK  Name = 
REMARK  2 active torsions:
REMARK  status: ('A' for Active; 'I' for Inactive)
REMARK    1  A    between atoms: O_2  and  C_3
REMARK    2  A    between atoms: C_3  and  C_5
REMARK                            x       y       z     vdW  Elec       q    Type
REMARK                         _______ _______ _______ _____ _____    ______ ____
ROOT
ATOM      1  C   UNL     1      -0.121   0.394  -0.509  0.00  0.00    +0.095 A 
ATOM      2  C   UNL     1      -0.786  -0.715  -1.009  0.00  0.00    +0.105 A 
ATOM      3  N   UNL     1      -2.025  -1.061  -0.598  0.00  0.00    -0.242 NA
ATOM      4  C   UNL     1      -2.661  -0.389   0.390  0.00  0.00    +0.099 A 
ATOM      5  C   UNL     1      -1.940   0.562   1.097  0.00  0.00    +0.021 A 
ATOM      6  C   UNL     1      -0.806   1.082   0.486  0.00  0.00    +0.010 A 
ENDROOT
BRANCH   1   7
ATOM      7  C   UNL     1       1.347   0.360  -0.435  0.00  0.00    +0.343 C 
ATOM      8  O   UNL     1       1.877   1.456  -0.077  0.00  0.00    -0.245 OA
BRANCH   7  10
ATOM      9  C   UNL     1       3.057  -0.891   0.836  0.00  0.00    +0.256 C 
ATOM     10  O   UNL     1       2.059  -0.798  -0.180  0.00  0.00    -0.441 OA
ENDBRANCH   7  10
ENDBRANCH   1   7
TORSDOF 2
