REMARK  Name = 
REMARK  9 active torsions:
REMARK  status: ('A' for Active; 'I' for Inactive)
REMARK    1  A    between atoms: C_2  and  C_3
REMARK    2  A    between atoms: C_3  and  O_5
REMARK    3  A    between atoms: O_5  and  C_6
REMARK    4  A    between atoms: C_6  and  C_7
REMARK    5  A    between atoms: C_6  and  C_14
REMARK    6  A    between atoms: C_6  and  C_20
REMARK    7  A    between atoms: C_7  and  C_8
REMARK    8  A    between atoms: C_20  and  C_22
REMARK    9  A    between atoms: C_22  and  N_23
REMARK                            x       y       z     vdW  Elec       q    Type
REMARK                         _______ _______ _______ _____ _____    ______ ____
ROOT
ATOM      1  C   UNL     1      -0.351  -0.014  -0.045  0.00  0.00    +0.160 C 
ENDROOT
BRANCH   1   2
ATOM      2  C   UNL     1       0.141   1.132  -0.798  0.00  0.00    +0.014 A 
ATOM      3  C   UNL     1      -0.119   1.320  -2.153  0.00  0.00    -0.001 A 
ATOM      4  C   UNL     1      -0.280   2.597  -2.670  0.00  0.00    -0.000 A 
ATOM      5  C   UNL     1       0.081   3.678  -1.879  0.00  0.00    -0.000 A 
ATOM      6  C   UNL     1       0.816   3.416  -0.729  0.00  0.00    -0.000 A 
ATOM      7  C   UNL     1       1.009   2.103  -0.313  0.00  0.00    -0.001 A 
ENDBRANCH   1   2
BRANCH   1   8
ATOM      8  C   UNL     1      -0.735  -1.107  -1.213  0.00  0.00    +0.057 C 
ATOM      9  C   UNL     1      -2.156  -0.366  -1.593  0.00  0.00    +0.005 C 
BRANCH   8  10
ATOM     10  C   UNL     1      -1.450  -2.111  -0.123  0.00  0.00    +0.076 C 
BRANCH  10  11
ATOM     11  N   UNL     1      -2.599  -2.652  -0.737  0.00  0.00    -0.270 NA
ATOM     12  C   UNL     1      -2.460  -3.138  -2.062  0.00  0.00    +0.090 C 
ATOM     13  C   UNL     1      -3.859  -2.109  -0.378  0.00  0.00    +0.090 C 
ENDBRANCH  10  11
ENDBRANCH   8  10
ENDBRANCH   1   8
BRANCH   1  14
ATOM     14  O   UNL     1      -1.538   0.198   0.668  0.00  0.00    -0.451 OA
BRANCH  14  15
ATOM     15  C   UNL     1      -1.440   0.589   1.998  0.00  0.00    +0.317 C 
ATOM     16  O   UNL     1      -0.859   1.715   2.080  0.00  0.00    -0.250 OA
BRANCH  15  18
ATOM     17  C   UNL     1      -3.007   1.194   3.709  0.00  0.00    +0.012 C 
ATOM     18  C   UNL     1      -2.459   0.165   3.010  0.00  0.00    +0.110 C 
ENDBRANCH  15  18
ENDBRANCH  14  15
ENDBRANCH   1  14
BRANCH   1  19
ATOM     19  C   UNL     1       0.661  -0.786   0.723  0.00  0.00    +0.071 C 
BRANCH  19  20
ATOM     20  C   UNL     1       2.071  -0.531   0.376  0.00  0.00    -0.018 A 
ATOM     21  C   UNL     1       2.644  -1.283  -0.644  0.00  0.00    -0.004 A 
ATOM     22  C   UNL     1       3.931  -1.798  -0.549  0.00  0.00    -0.000 A 
ATOM     23  C   UNL     1       4.783  -1.321   0.418  0.00  0.00    -0.000 A 
ATOM     24  C   UNL     1       4.255  -0.591   1.448  0.00  0.00    -0.000 A 
ATOM     25  C   UNL     1       2.918  -0.299   1.456  0.00  0.00    -0.004 A 
ENDBRANCH  19  20
ENDBRANCH   1  19
TORSDOF 9
