REMARK  Name = 
REMARK  20 active torsions:
REMARK  status: ('A' for Active; 'I' for Inactive)
REMARK    1  A    between atoms: C_2  and  C_4
REMARK    2  A    between atoms: C_4  and  N_5
REMARK    3  A    between atoms: N_5  and  C_6
REMARK    4  A    between atoms: N_5  and  C_17
REMARK    5  A    between atoms: C_6  and  C_7
REMARK    6  A    between atoms: C_7  and  N_8
REMARK    7  A    between atoms: N_8  and  C_9
REMARK    8  A    between atoms: N_8  and  C_13
REMARK    9  A    between atoms: C_9  and  C_10
REMARK   10  A    between atoms: C_13  and  C_14
REMARK   11  A    between atoms: C_17  and  C_18
REMARK   12  A    between atoms: C_18  and  N_19
REMARK   13  A    between atoms: N_19  and  C_20
REMARK   14  A    between atoms: N_19  and  C_24
REMARK   15  A    between atoms: C_20  and  C_21
REMARK   16  A    between atoms: C_24  and  C_25
REMARK   17  A    between atoms: C_24  and  C_34
REMARK   18  A    between atoms: C_25  and  O_26
REMARK   19  A    between atoms: O_26  and  C_27
REMARK   20  A    between atoms: C_27  and  C_28
REMARK                            x       y       z     vdW  Elec       q    Type
REMARK                         _______ _______ _______ _____ _____    ______ ____
ROOT
ATOM      1  C   UNL     1       0.278  -0.393   0.235  0.00  0.00    +0.091 C 
ENDROOT
BRANCH   1   2
ATOM      2  N   UNL     1       1.369  -0.514  -0.677  0.00  0.00    -0.252 NA
BRANCH   2   3
ATOM      3  C   UNL     1       2.654   0.030   0.117  0.00  0.00    +0.192 C 
BRANCH   3   4
ATOM      4  C   UNL     1       1.873   1.408   0.573  0.00  0.00    +0.381 C 
ATOM      5  O   UNL     1       2.724   2.526   0.550  0.00  0.00    -0.244 OA
ATOM      6  O   UNL     1       1.496   1.185   1.770  0.00  0.00    -0.244 OA
ENDBRANCH   3   4
BRANCH   3   7
ATOM      7  C   UNL     1       3.244   0.744  -1.282  0.00  0.00    +0.170 C 
BRANCH   7   8
ATOM      8  O   UNL     1       4.101  -0.220  -1.790  0.00  0.00    -0.347 OA
BRANCH   8   9
ATOM      9  C   UNL     1       4.800  -0.757  -0.723  0.00  0.00    +0.169 C 
BRANCH   9  10
ATOM     10  C   UNL     1       5.956   0.115  -0.405  0.00  0.00    +0.007 A 
ATOM     11  C   UNL     1       7.007  -0.466   0.276  0.00  0.00    -0.002 A 
ATOM     12  C   UNL     1       8.153   0.279   0.419  0.00  0.00    -0.000 A 
ATOM     13  C   UNL     1       8.114   1.657   0.297  0.00  0.00    -0.000 A 
ATOM     14  C   UNL     1       6.930   2.264  -0.081  0.00  0.00    -0.000 A 
ATOM     15  C   UNL     1       6.005   1.460  -0.717  0.00  0.00    -0.002 A 
ENDBRANCH   9  10
ENDBRANCH   8   9
ENDBRANCH   7   8
ENDBRANCH   3   7
ENDBRANCH   2   3
BRANCH   2  16
ATOM     16  C   UNL     1       1.698  -1.902  -0.933  0.00  0.00    +0.188 C 
BRANCH  16  17
ATOM     17  C   UNL     1       1.579  -2.757   0.265  0.00  0.00    +0.381 C 
ATOM     18  O   UNL     1       1.627  -4.139   0.063  0.00  0.00    -0.244 OA
ATOM     19  O   UNL     1       1.739  -2.312   1.442  0.00  0.00    -0.244 OA
ENDBRANCH  16  17
ENDBRANCH   2  16
ENDBRANCH   1   2
BRANCH   1  20
ATOM     20  C   UNL     1      -0.791   0.456  -0.441  0.00  0.00    +0.090 C 
BRANCH  20  21
ATOM     21  N   UNL     1      -2.043  -0.281  -0.570  0.00  0.00    -0.261 NA
BRANCH  21  22
ATOM     22  C   UNL     1      -2.216  -1.057   0.629  0.00  0.00    +0.188 C 
BRANCH  22  24
ATOM     23  O   UNL     1      -3.297  -2.999   0.935  0.00  0.00    -0.244 OA
ATOM     24  C   UNL     1      -2.551  -2.483   0.327  0.00  0.00    +0.381 C 
ATOM     25  O   UNL     1      -2.019  -3.091  -0.793  0.00  0.00    -0.244 OA
ENDBRANCH  22  24
ENDBRANCH  21  22
BRANCH  21  26
ATOM     26  C   UNL     1      -3.081   0.704  -0.755  0.00  0.00    +0.090 C 
BRANCH  26  27
ATOM     27  C   UNL     1      -3.647   1.186   0.559  0.00  0.00    +0.091 C 
BRANCH  27  28
ATOM     28  N   UNL     1      -5.058   0.831   0.647  0.00  0.00    -0.252 NA
BRANCH  28  29
ATOM     29  C   UNL     1      -5.878   1.999   0.847  0.00  0.00    +0.188 C 
BRANCH  29  30
ATOM     30  C   UNL     1      -5.394   3.177   0.069  0.00  0.00    +0.381 C 
ATOM     31  O   UNL     1      -6.371   4.071  -0.380  0.00  0.00    -0.244 OA
ATOM     32  O   UNL     1      -4.258   3.679   0.277  0.00  0.00    -0.244 OA
ENDBRANCH  29  30
ENDBRANCH  28  29
BRANCH  28  33
ATOM     33  C   UNL     1      -5.444   0.128  -0.552  0.00  0.00    +0.188 C 
BRANCH  33  34
ATOM     34  C   UNL     1      -6.305  -1.057  -0.265  0.00  0.00    +0.381 C 
ATOM     35  O   UNL     1      -5.741  -2.212   0.285  0.00  0.00    -0.244 OA
ATOM     36  O   UNL     1      -7.253  -1.259  -1.082  0.00  0.00    -0.244 OA
ENDBRANCH  33  34
ENDBRANCH  28  33
ENDBRANCH  27  28
ENDBRANCH  26  27
ENDBRANCH  21  26
ENDBRANCH  20  21
ENDBRANCH   1  20
TORSDOF 20
