REMARK  Name = 
REMARK  0 active torsions:
REMARK  status: ('A' for Active; 'I' for Inactive)
REMARK                            x       y       z     vdW  Elec       q    Type
REMARK                         _______ _______ _______ _____ _____    ______ ____
ROOT
ATOM      1  C   UNL     1       4.035   0.484   0.809  0.00  0.00    +0.090 C 
ATOM      2  N   UNL     1       2.597   0.800   0.592  0.00  0.00    -0.272 NA
ATOM      3  C   UNL     1       2.397   0.029  -0.767  0.00  0.00    +0.062 C 
ATOM      4  C   UNL     1       1.410  -1.250  -0.183  0.00  0.00    +0.023 C 
ATOM      5  C   UNL     1       0.115  -0.479   0.208  0.00  0.00    +0.068 C 
ATOM      6  C   UNL     1      -0.868  -1.554   0.930  0.00  0.00    +0.226 C 
ATOM      7  O   UNL     1      -2.147  -0.732   0.609  0.00  0.00    -0.469 OA
ATOM      8  C   UNL     1      -1.734   0.544   0.288  0.00  0.00    +0.173 A 
ATOM      9  C   UNL     1      -2.311   1.823   0.313  0.00  0.00    +0.229 A 
ATOM     10  C   UNL     1      -1.632   2.869  -0.323  0.00  0.00    +0.045 A 
ATOM     11  C   UNL     1      -0.472   2.633  -1.069  0.00  0.00    -0.001 A 
ATOM     12  C   UNL     1       0.162   1.406  -0.908  0.00  0.00    -0.022 A 
ATOM     13  O   UNL     1      -3.028   2.114   1.499  0.00  0.00    -0.283 OA
ATOM     14  C   UNL     1      -1.071  -2.513  -0.370  0.00  0.00    +0.191 C 
ATOM     15  O   UNL     1      -1.583  -3.539   0.107  0.00  0.00    -0.292 OA
ATOM     16  C   UNL     1       0.042  -2.803  -1.234  0.00  0.00    +0.068 C 
ATOM     17  C   UNL     1      -0.646   0.315  -0.573  0.00  0.00    +0.014 A 
ATOM     18  C   UNL     1       0.530   0.197   1.502  0.00  0.00    +0.025 C 
ATOM     19  C   UNL     1       0.904  -1.657  -1.684  0.00  0.00    +0.010 C 
ATOM     20  C   UNL     1       1.335   1.055  -1.385  0.00  0.00    +0.042 C 
ATOM     21  C   UNL     1       1.966   0.259   1.639  0.00  0.00    +0.073 C 
ENDROOT
TORSDOF 0
