REMARK  Name = 
REMARK  2 active torsions:
REMARK  status: ('A' for Active; 'I' for Inactive)
REMARK    1  A    between atoms: N_11  and  C1*_12
REMARK    2  A    between atoms: C4*_14  and  C5*_15
REMARK                            x       y       z     vdW  Elec       q    Type
REMARK                         _______ _______ _______ _____ _____    ______ ____
ROOT
ATOM      1  N   UNL     1      -4.452  -0.112  -0.240  0.00  0.00    -0.105 NA
ATOM      2  C   UNL     1      -3.197   0.369  -0.182  0.00  0.00    +0.194 A 
ATOM      3  C   UNL     1      -2.078  -0.427  -0.133  0.00  0.00    +0.152 A 
ATOM      4  N   UNL     1      -1.958  -1.768  -0.235  0.00  0.00    -0.219 NA
ATOM      5  C   UNL     1      -0.803  -2.007   0.379  0.00  0.00    +0.182 A 
ATOM      6  N   UNL     1       0.073  -0.969   0.235  0.00  0.00    -0.269 N 
ATOM      7  C   UNL     1      -0.779   0.059  -0.069  0.00  0.00    +0.171 A 
ATOM      8  N   UNL     1      -0.805   1.366   0.322  0.00  0.00    -0.182 NA
ATOM      9  C   UNL     1      -1.829   2.183   0.138  0.00  0.00    +0.313 A 
ATOM     10  F   UNL     1      -1.731   3.502   0.474  0.00  0.00    -0.161 F 
ATOM     11  N   UNL     1      -3.046   1.694  -0.092  0.00  0.00    -0.181 NA
ENDROOT
BRANCH   6  12
ATOM     12  C1* UNL     1       1.021  -0.676   1.512  0.00  0.00    +0.241 C 
ATOM     13  C2* UNL     1       2.272  -1.785   1.046  0.00  0.00    +0.234 C 
ATOM     14  O2* UNL     1       1.362  -2.926   0.674  0.00  0.00    -0.216 OA
ATOM     15  C3* UNL     1       2.301  -1.102  -0.517  0.00  0.00    +0.216 C 
ATOM     16  O3* UNL     1       3.690  -1.649  -0.775  0.00  0.00    -0.218 OA
ATOM     17  C4* UNL     1       2.984   0.178   0.435  0.00  0.00    +0.183 C 
ATOM     18  O4* UNL     1       1.604   0.555   0.849  0.00  0.00    -0.331 OA
BRANCH  17  19
ATOM     19  C5* UNL     1       2.961   1.166  -0.898  0.00  0.00    +0.214 C 
ATOM     20  O5* UNL     1       2.412   2.346  -0.535  0.00  0.00    -0.218 OA
ENDBRANCH  17  19
ENDBRANCH   6  12
TORSDOF 2
