REMARK  Name = 
REMARK  2 active torsions:
REMARK  status: ('A' for Active; 'I' for Inactive)
REMARK    1  A    between atoms: C_3  and  C_4
REMARK    2  A    between atoms: C_11  and  S_12
REMARK                            x       y       z     vdW  Elec       q    Type
REMARK                         _______ _______ _______ _____ _____    ______ ____
ROOT
ATOM      1  C   UNL     1       3.564   1.242   0.655  0.00  0.00    +0.117 C 
ATOM      2  N   UNL     1       2.884   1.063   0.408  0.00  0.00    -0.134 NA
ATOM      3  S   UNL     1       1.500   1.685  -0.325  0.00  0.00    +0.066 S 
ATOM      4  O   UNL     1       1.792   1.871  -1.801  0.00  0.00    -0.153 OA
ATOM      5  O   UNL     1       1.011   2.968   0.265  0.00  0.00    -0.153 OA
ATOM      6  C   UNL     1       0.214   0.511  -0.250  0.00  0.00    +0.138 A 
ATOM      7  C   UNL     1       0.606  -0.812  -0.430  0.00  0.00    +0.086 A 
ATOM      8  C   UNL     1      -0.312  -1.763  -0.728  0.00  0.00    +0.030 A 
ATOM      9  C   UNL     1      -1.669  -1.454  -0.646  0.00  0.00    +0.078 A 
ATOM     10  C   UNL     1      -2.036  -0.154  -0.346  0.00  0.00    +0.137 A 
ATOM     11 CL   UNL     1      -2.822  -2.756  -0.496  0.00  0.00    -0.081 Cl
ATOM     12  N   UNL     1       2.025  -0.976  -0.317  0.00  0.00    -0.219 NA
ATOM     13  C   UNL     1      -1.111   0.878  -0.414  0.00  0.00    +0.042 A 
ATOM     14  C   UNL     1       2.504  -0.344   1.089  0.00  0.00    +0.187 C 
ENDROOT
BRANCH  10  15
ATOM     15  S   UNL     1      -3.706   0.262  -0.030  0.00  0.00    +0.094 S 
ATOM     16  O   UNL     1      -4.031   1.351  -1.028  0.00  0.00    -0.150 OA
ATOM     17  O   UNL     1      -4.602  -0.921  -0.264  0.00  0.00    -0.150 OA
ATOM     18  N   UNL     1      -3.830   0.814   1.587  0.00  0.00    +0.039 NA
ENDBRANCH  10  15
BRANCH  14  19
ATOM     19  C   UNL     1       4.075  -0.898   0.864  0.00  0.00    +0.135 C 
ATOM     20 CL   UNL     1       3.944  -2.566   0.391  0.00  0.00    -0.110 Cl
ENDBRANCH  14  19
TORSDOF 2
