REMARK  Name = 
REMARK  9 active torsions:
REMARK  status: ('A' for Active; 'I' for Inactive)
REMARK    1  A    between atoms: O_2  and  C_3
REMARK    2  A    between atoms: C_5  and  C_6
REMARK    3  A    between atoms: C_6  and  N_7
REMARK    4  A    between atoms: C_8  and  C_10
REMARK    5  A    between atoms: C_10  and  C_11
REMARK    6  A    between atoms: C_11  and  C_12
REMARK    7  A    between atoms: C_12  and  C_13
REMARK    8  A    between atoms: C_13  and  C_14
REMARK    9  A    between atoms: C_15  and  C_16
REMARK                            x       y       z     vdW  Elec       q    Type
REMARK                         _______ _______ _______ _____ _____    ______ ____
ROOT
ATOM      1  N   UNL     1      -0.356  -0.862  -0.698  0.00  0.00    -0.201 NA
ATOM      2  C   UNL     1       0.316  -1.958  -0.064  0.00  0.00    +0.242 C 
ATOM      3  O   UNL     1      -0.457  -2.742   0.567  0.00  0.00    -0.273 OA
ENDROOT
BRANCH   2   4
ATOM      4  C   UNL     1       1.702  -2.369  -0.450  0.00  0.00    +0.087 C 
BRANCH   4   5
ATOM      5  C   UNL     1       2.484  -2.905   0.714  0.00  0.00    +0.010 C 
BRANCH   5   6
ATOM      6  C   UNL     1       3.418  -1.859   1.256  0.00  0.00    +0.005 C 
BRANCH   6   7
ATOM      7  C   UNL     1       4.724  -1.808   0.473  0.00  0.00    +0.026 C 
BRANCH   7   8
ATOM      8  C   UNL     1       5.332  -0.469   0.764  0.00  0.00    -0.031 C 
ATOM      9  C   UNL     1       5.578   0.422  -0.203  0.00  0.00    -0.031 C 
BRANCH   9  10
ATOM     10  C   UNL     1       5.303   1.873  -0.055  0.00  0.00    +0.022 C 
ATOM     11  C   UNL     1       3.849   2.140   0.314  0.00  0.00    +0.005 C 
ATOM     12  C   UNL     1       6.230   2.464   1.001  0.00  0.00    +0.005 C 
ENDBRANCH   9  10
ENDBRANCH   7   8
ENDBRANCH   6   7
ENDBRANCH   5   6
ENDBRANCH   4   5
ENDBRANCH   2   4
BRANCH   1  13
ATOM     13  C   UNL     1      -1.643  -1.008  -1.350  0.00  0.00    +0.142 C 
BRANCH  13  19
ATOM     14  C   UNL     1      -3.894   1.280   0.568  0.00  0.00    +0.177 A 
ATOM     15  C   UNL     1      -5.064   1.014  -0.131  0.00  0.00    +0.229 A 
ATOM     16  O   UNL     1      -6.083   1.953  -0.242  0.00  0.00    -0.283 OA
ATOM     17  C   UNL     1      -5.168  -0.206  -0.784  0.00  0.00    +0.045 A 
ATOM     18  C   UNL     1      -4.034  -1.010  -0.830  0.00  0.00    +0.001 A 
ATOM     19  C   UNL     1      -2.770  -0.503  -0.548  0.00  0.00    +0.003 A 
ATOM     20  C   UNL     1      -2.719   0.617   0.238  0.00  0.00    +0.038 A 
BRANCH  14  22
ATOM     21  C   UNL     1      -2.921   3.469   0.857  0.00  0.00    +0.253 C 
ATOM     22  O   UNL     1      -3.825   2.468   1.260  0.00  0.00    -0.468 OA
ENDBRANCH  14  22
ENDBRANCH  13  19
ENDBRANCH   1  13
TORSDOF 9
