REMARK  Name = 
REMARK  11 active torsions:
REMARK  status: ('A' for Active; 'I' for Inactive)
REMARK    1  A    between atoms: C_2  and  C_4
REMARK    2  A    between atoms: C_4  and  O_6
REMARK    3  A    between atoms: O_6  and  C_7
REMARK    4  A    between atoms: C_10  and  C_11
REMARK    5  A    between atoms: C_14  and  C_15
REMARK    6  A    between atoms: C_15  and  C_16
REMARK    7  A    between atoms: C_15  and  C_25
REMARK    8  A    between atoms: C_16  and  C_17
REMARK    9  A    between atoms: C_17  and  N_18
REMARK   10  A    between atoms: N_18  and  C_19
REMARK   11  A    between atoms: N_18  and  C_22
REMARK                            x       y       z     vdW  Elec       q    Type
REMARK                         _______ _______ _______ _____ _____    ______ ____
ROOT
ATOM      1  C   UNL     1      -0.019   1.530   0.134  0.00  0.00    +0.049 C 
ENDROOT
BRANCH   1   3
ATOM      2  C   UNL     1       1.648  -0.348  -0.365  0.00  0.00    +0.145 A 
ATOM      3  C   UNL     1       1.473   0.884   0.151  0.00  0.00    +0.016 A 
ATOM      4  C   UNL     1       2.481   1.835   0.268  0.00  0.00    -0.003 A 
ATOM      5  C   UNL     1       3.787   1.365   0.278  0.00  0.00    +0.010 A 
ATOM      6  C   UNL     1       4.025   0.165  -0.379  0.00  0.00    +0.001 A 
ATOM      7  C   UNL     1       2.968  -0.693  -0.650  0.00  0.00    +0.037 A 
BRANCH   5   8
ATOM      8  C   UNL     1       4.927   2.211   0.728  0.00  0.00    +0.209 C 
ATOM      9  O   UNL     1       5.786   1.440   1.527  0.00  0.00    -0.215 OA
ENDBRANCH   5   8
BRANCH   2  10
ATOM     10  O   UNL     1       0.736  -1.288   0.134  0.00  0.00    -0.424 OA
BRANCH  10  11
ATOM     11  C   UNL     1       1.166  -2.297   1.008  0.00  0.00    +0.321 C 
ATOM     12  O   UNL     1       1.842  -1.835   1.977  0.00  0.00    -0.250 OA
BRANCH  11  14
ATOM     13  C   UNL     1      -0.102  -4.188   1.907  0.00  0.00    +0.012 C 
ATOM     14  C   UNL     1       0.761  -3.711   0.888  0.00  0.00    +0.099 C 
ATOM     15  C   UNL     1       2.059  -4.513   0.884  0.00  0.00    +0.012 C 
ENDBRANCH  11  14
ENDBRANCH  10  11
ENDBRANCH   2  10
ENDBRANCH   1   3
BRANCH   1  16
ATOM     16  C   UNL     1      -0.120   1.478  -1.497  0.00  0.00    -0.018 A 
ATOM     17  C   UNL     1      -1.415   1.849  -1.843  0.00  0.00    -0.004 A 
ATOM     18  C   UNL     1      -1.684   2.821  -2.800  0.00  0.00    -0.000 A 
ATOM     19  C   UNL     1      -0.671   3.208  -3.638  0.00  0.00    -0.000 A 
ATOM     20  C   UNL     1       0.612   2.956  -3.231  0.00  0.00    -0.000 A 
ATOM     21  C   UNL     1       0.898   2.200  -2.108  0.00  0.00    -0.004 A 
ENDBRANCH   1  16
BRANCH   1  22
ATOM     22  C   UNL     1      -0.834   0.089   0.280  0.00  0.00    +0.026 C 
BRANCH  22  23
ATOM     23  C   UNL     1      -2.089   0.450   1.041  0.00  0.00    +0.073 C 
BRANCH  23  24
ATOM     24  N   UNL     1      -3.215  -0.154   0.335  0.00  0.00    -0.275 NA
BRANCH  24  25
ATOM     25  C   UNL     1      -2.989  -1.561   0.111  0.00  0.00    +0.058 C 
ATOM     26  C   UNL     1      -3.279  -2.368   1.365  0.00  0.00    +0.017 C 
ATOM     27  C   UNL     1      -3.769  -2.085  -1.062  0.00  0.00    +0.017 C 
ENDBRANCH  24  25
BRANCH  24  28
ATOM     28  C   UNL     1      -4.451   0.090   1.063  0.00  0.00    +0.058 C 
ATOM     29  C   UNL     1      -5.021   1.419   0.581  0.00  0.00    +0.017 C 
ATOM     30  C   UNL     1      -5.512  -0.948   0.724  0.00  0.00    +0.017 C 
ENDBRANCH  24  28
ENDBRANCH  23  24
ENDBRANCH  22  23
ENDBRANCH   1  22
TORSDOF 11
