REMARK  Name = 
REMARK  4 active torsions:
REMARK  status: ('A' for Active; 'I' for Inactive)
REMARK    1  A    between atoms: O_2  and  C_3
REMARK    2  A    between atoms: C_5  and  C_6
REMARK    3  A    between atoms: C_25  and  O_26
REMARK    4  A    between atoms: C_28  and  O_29
REMARK                            x       y       z     vdW  Elec       q    Type
REMARK                         _______ _______ _______ _____ _____    ______ ____
ROOT
ATOM      1  C   UNL     1      -0.183  -0.870   0.775  0.00  0.00    +0.055 C 
ATOM      2  C   UNL     1      -0.693  -2.107  -0.263  0.00  0.00    +0.113 C 
ATOM      3  C   UNL     1      -2.062  -2.315   0.675  0.00  0.00    +0.090 C 
ATOM      4  C   UNL     1      -2.182  -3.830   0.182  0.00  0.00    +0.212 C 
ATOM      5  O   UNL     1      -0.943  -4.230   0.766  0.00  0.00    -0.448 OA
ATOM      6  C   UNL     1      -3.010  -1.710  -0.598  0.00  0.00    +0.178 C 
ATOM      7  O   UNL     1      -4.141  -1.399   0.362  0.00  0.00    -0.218 OA
ATOM      8  C   UNL     1      -2.353  -0.249  -0.456  0.00  0.00    +0.007 A 
ATOM      9  C   UNL     1      -3.044   0.767  -1.107  0.00  0.00    +0.038 A 
ATOM     10  C   UNL     1      -2.892   2.094  -0.705  0.00  0.00    +0.176 A 
ATOM     11  O   UNL     1      -3.721   3.199  -0.876  0.00  0.00    -0.435 OA
ATOM     12  C   UNL     1      -3.989   3.829   0.366  0.00  0.00    +0.429 C 
ATOM     13  O   UNL     1      -2.973   3.329   1.214  0.00  0.00    -0.435 OA
ATOM     14  C   UNL     1      -2.345   2.262   0.562  0.00  0.00    +0.176 A 
ATOM     15  C   UNL     1      -1.429   1.317   1.008  0.00  0.00    +0.036 A 
ATOM     16  C   UNL     1       0.037  -3.254   0.540  0.00  0.00    +0.317 C 
ATOM     17  O   UNL     1       1.193  -3.670   0.216  0.00  0.00    -0.250 OA
ATOM     18  C   UNL     1      -1.447   0.045   0.444  0.00  0.00    -0.016 A 
ENDROOT
BRANCH   1  23
ATOM     19  C   UNL     1       2.986  -0.415  -1.021  0.00  0.00    +0.175 A 
ATOM     20  C   UNL     1       3.391   0.739  -0.360  0.00  0.00    +0.206 A 
ATOM     21  C   UNL     1       2.355   1.615  -0.051  0.00  0.00    +0.175 A 
ATOM     22  C   UNL     1       1.047   1.149  -0.040  0.00  0.00    +0.036 A 
ATOM     23  C   UNL     1       0.715  -0.163  -0.345  0.00  0.00    -0.012 A 
ATOM     24  C   UNL     1       1.696  -0.909  -0.937  0.00  0.00    +0.036 A 
BRANCH  19  26
ATOM     25  C   UNL     1       4.688  -1.159  -1.811  0.00  0.00    +0.253 C 
ATOM     26  O   UNL     1       4.013  -1.147  -1.621  0.00  0.00    -0.468 OA
ENDBRANCH  19  26
BRANCH  20  27
ATOM     27  O   UNL     1       4.601   0.841   0.295  0.00  0.00    -0.465 OA
ATOM     28  C   UNL     1       5.134  -0.186   1.126  0.00  0.00    +0.253 C 
ENDBRANCH  20  27
BRANCH  21  29
ATOM     29  O   UNL     1       2.692   2.929   0.194  0.00  0.00    -0.468 OA
ATOM     30  C   UNL     1       2.860   3.498   1.464  0.00  0.00    +0.253 C 
ENDBRANCH  21  29
ENDBRANCH   1  23
TORSDOF 4
