REMARK  Name = 
REMARK  14 active torsions:
REMARK  status: ('A' for Active; 'I' for Inactive)
REMARK    1  A    between atoms: C_2  and  C_3
REMARK    2  A    between atoms: C_3  and  C_4
REMARK    3  A    between atoms: C_4  and  C_5
REMARK    4  A    between atoms: C_5  and  C_6
REMARK    5  A    between atoms: C_6  and  C_7
REMARK    6  A    between atoms: C_7  and  N_8
REMARK    7  A    between atoms: N_8  and  C_9
REMARK    8  A    between atoms: N_8  and  C_11
REMARK    9  A    between atoms: C_11  and  C_12
REMARK   10  A    between atoms: C_12  and  C_13
REMARK   11  A    between atoms: C_13  and  C_14
REMARK   12  A    between atoms: C_14  and  C_16
REMARK   13  A    between atoms: C_19  and  N_20
REMARK   14  A    between atoms: N_20  and  S_21
REMARK                            x       y       z     vdW  Elec       q    Type
REMARK                         _______ _______ _______ _____ _____    ______ ____
ROOT
ATOM      1  C   UNL     1       0.080   1.999  -0.227  0.00  0.00    +0.039 C 
ENDROOT
BRANCH   1   2
ATOM      2  C   UNL     1      -1.324   2.369   0.568  0.00  0.00    +0.174 C 
ATOM      3  O   UNL     1      -1.299   3.800   0.050  0.00  0.00    -0.218 OA
BRANCH   2   4
ATOM      4  C   UNL     1      -2.275   1.841  -0.654  0.00  0.00    +0.008 A 
ATOM      5  C   UNL     1      -1.947   0.538  -1.029  0.00  0.00    -0.000 A 
ATOM      6  C   UNL     1      -2.853  -0.459  -1.236  0.00  0.00    +0.018 A 
ATOM      7  C   UNL     1      -4.182  -0.243  -0.903  0.00  0.00    +0.091 A 
ATOM      8  C   UNL     1      -4.571   1.001  -0.481  0.00  0.00    +0.018 A 
ATOM      9  C   UNL     1      -3.604   1.964  -0.255  0.00  0.00    -0.000 A 
BRANCH   7  10
ATOM     10  N   UNL     1      -5.023  -1.393  -0.743  0.00  0.00    -0.101 NA
BRANCH  10  11
ATOM     11  S   UNL     1      -6.053  -1.535   0.627  0.00  0.00    +0.075 S 
ATOM     12  O   UNL     1      -6.269  -2.997   0.831  0.00  0.00    -0.153 OA
ATOM     13  O   UNL     1      -7.310  -0.800   0.334  0.00  0.00    -0.153 OA
ATOM     14  C   UNL     1      -5.181  -0.909   2.021  0.00  0.00    +0.202 C 
ENDBRANCH  10  11
ENDBRANCH   7  10
ENDBRANCH   2   4
ENDBRANCH   1   2
BRANCH   1  15
ATOM     15  C   UNL     1       0.522   0.778   0.577  0.00  0.00    +0.020 C 
BRANCH  15  16
ATOM     16  C   UNL     1       1.315  -0.140  -0.303  0.00  0.00    +0.072 C 
BRANCH  16  17
ATOM     17  N   UNL     1       2.662  -0.339   0.057  0.00  0.00    -0.273 NA
BRANCH  17  18
ATOM     18  C   UNL     1       3.005  -1.722   0.082  0.00  0.00    +0.072 C 
ATOM     19  C   UNL     1       2.280  -2.357   1.254  0.00  0.00    +0.019 C 
ENDBRANCH  17  18
BRANCH  17  20
ATOM     20  C   UNL     1       3.152   0.424   1.167  0.00  0.00    +0.072 C 
BRANCH  20  21
ATOM     21  C   UNL     1       4.659   0.233   1.150  0.00  0.00    +0.017 C 
BRANCH  21  22
ATOM     22  C   UNL     1       5.287   0.636  -0.151  0.00  0.00    +0.001 C 
BRANCH  22  23
ATOM     23  C   UNL     1       6.711   1.143   0.025  0.00  0.00    +0.000 C 
BRANCH  23  24
ATOM     24  C   UNL     1       7.602  -0.029   0.374  0.00  0.00    +0.000 C 
BRANCH  24  26
ATOM     25  C   UNL     1       7.782  -2.485   0.494  0.00  0.00    +0.000 C 
ATOM     26  C   UNL     1       6.833  -1.318   0.383  0.00  0.00    +0.000 C 
ENDBRANCH  24  26
ENDBRANCH  23  24
ENDBRANCH  22  23
ENDBRANCH  21  22
ENDBRANCH  20  21
ENDBRANCH  17  20
ENDBRANCH  16  17
ENDBRANCH  15  16
ENDBRANCH   1  15
TORSDOF 14
