REMARK  Name = 
REMARK  4 active torsions:
REMARK  status: ('A' for Active; 'I' for Inactive)
REMARK    1  A    between atoms: C_2  and  N_4
REMARK    2  A    between atoms: N_4  and  C_5
REMARK    3  A    between atoms: C_5  and  C_6
REMARK    4  A    between atoms: C_6  and  C_8
REMARK                            x       y       z     vdW  Elec       q    Type
REMARK                         _______ _______ _______ _____ _____    ______ ____
ROOT
ATOM      1  C   UNL     1      -0.489  -0.350   0.002  0.00  0.00    +0.013 A 
ATOM      2  C   UNL     1      -1.381   0.559  -0.434  0.00  0.00    +0.044 A 
ATOM      3  C   UNL     1      -2.728   0.322  -0.328  0.00  0.00    +0.234 A 
ATOM      4  O   UNL     1      -3.601   1.293  -0.806  0.00  0.00    -0.283 OA
ATOM      5  C   UNL     1      -3.150  -0.782   0.393  0.00  0.00    +0.234 A 
ATOM      6  O   UNL     1      -4.483  -0.718   0.796  0.00  0.00    -0.283 OA
ATOM      7  C   UNL     1      -2.260  -1.258   1.348  0.00  0.00    +0.045 A 
ATOM      8  C   UNL     1      -0.904  -1.143   1.073  0.00  0.00    +0.002 A 
ENDROOT
BRANCH   1   9
ATOM      9  C   UNL     1       1.003   0.226   0.433  0.00  0.00    +0.192 C 
ATOM     10  O   UNL     1       0.930   1.472  -0.497  0.00  0.00    -0.217 OA
BRANCH   9  11
ATOM     11  C   UNL     1       1.721  -0.690  -0.790  0.00  0.00    +0.126 C 
BRANCH  11  12
ATOM     12  N   UNL     1       2.815   0.131  -1.237  0.00  0.00    -0.216 NA
BRANCH  12  14
ATOM     13  C   UNL     1       4.255   1.440  -0.010  0.00  0.00    +0.019 C 
ATOM     14  C   UNL     1       3.794   0.383  -0.219  0.00  0.00    +0.073 C 
ATOM     15  C   UNL     1       4.479  -0.885   0.188  0.00  0.00    +0.019 C 
ENDBRANCH  12  14
ENDBRANCH  11  12
ENDBRANCH   9  11
ENDBRANCH   1   9
TORSDOF 4
