REMARK  Name = 
REMARK  5 active torsions:
REMARK  status: ('A' for Active; 'I' for Inactive)
REMARK    1  A    between atoms: C_2  and  C_4
REMARK    2  A    between atoms: C_4  and  C_5
REMARK    3  A    between atoms: C_5  and  C_7
REMARK    4  A    between atoms: C_5  and  C_11
REMARK    5  A    between atoms: C_7  and  C_8
REMARK                            x       y       z     vdW  Elec       q    Type
REMARK                         _______ _______ _______ _____ _____    ______ ____
ROOT
ATOM      1  C   UNL     1      -0.123  -0.490   0.102  0.00  0.00    +0.240 C 
ATOM      2  O   UNL     1       0.028  -0.582  -1.263  0.00  0.00    -0.213 OA
ENDROOT
BRANCH   1   3
ATOM      3  C   UNL     1      -0.231  -1.889   0.627  0.00  0.00    +0.393 C 
ATOM      4  O   UNL     1      -1.111  -2.219   1.643  0.00  0.00    -0.243 OA
ATOM      5  O   UNL     1       0.628  -2.774   0.331  0.00  0.00    -0.243 OA
ENDBRANCH   1   3
BRANCH   1   6
ATOM      6  C   UNL     1      -1.375   0.233   0.518  0.00  0.00    +0.156 C 
BRANCH   6   8
ATOM      7  O   UNL     1      -1.272   1.519  -1.534  0.00  0.00    -0.246 OA
ATOM      8  C   UNL     1      -1.908   1.145  -0.510  0.00  0.00    +0.368 C 
ATOM      9  O   UNL     1      -2.917   2.019  -0.091  0.00  0.00    -0.246 OA
ENDBRANCH   6   8
ENDBRANCH   1   6
BRANCH   1  10
ATOM     10  C   UNL     1       1.050   0.127   0.814  0.00  0.00    +0.156 C 
BRANCH  10  11
ATOM     11  C   UNL     1       1.968   0.845  -0.089  0.00  0.00    +0.368 C 
ATOM     12  O   UNL     1       2.746   1.847   0.496  0.00  0.00    -0.246 OA
ATOM     13  O   UNL     1       2.517   0.219  -1.044  0.00  0.00    -0.246 OA
ENDBRANCH  10  11
ENDBRANCH   1  10
TORSDOF 5
