REMARK  Name = 
REMARK  3 active torsions:
REMARK  status: ('A' for Active; 'I' for Inactive)
REMARK    1  A    between atoms: C_7  and  C_8
REMARK    2  A    between atoms: N_10  and  C_11
REMARK    3  A    between atoms: C_14  and  C_15
REMARK                            x       y       z     vdW  Elec       q    Type
REMARK                         _______ _______ _______ _____ _____    ______ ____
ROOT
ATOM      1  C   UNL     1       2.074  -1.741   0.706  0.00  0.00    +0.073 A 
ATOM      2  C   UNL     1       1.040  -1.287   1.496  0.00  0.00    +0.012 A 
ATOM      3  C   UNL     1      -0.190  -0.954   0.942  0.00  0.00    -0.016 A 
ATOM      4  C   UNL     1      -1.247  -0.474   1.852  0.00  0.00    +0.031 C 
ATOM      5  C   UNL     1      -0.486  -1.288  -0.360  0.00  0.00    +0.050 A 
ATOM      6  C   UNL     1       0.415  -2.137  -0.990  0.00  0.00    +0.006 A 
ATOM      7  C   UNL     1       1.736  -2.188  -0.562  0.00  0.00    +0.017 A 
ENDROOT
BRANCH   5   8
ATOM      8  C   UNL     1      -1.759  -0.984  -0.970  0.00  0.00    +0.252 C 
ATOM      9  N   UNL     1      -2.970  -0.786  -0.232  0.00  0.00    -0.255 N 
ATOM     10  C   UNL     1      -3.496   0.520  -0.384  0.00  0.00    +0.053 A 
ATOM     11  C   UNL     1      -4.510   1.047   0.397  0.00  0.00    +0.022 A 
ATOM     12  C   UNL     1      -4.818   2.383   0.281  0.00  0.00    +0.011 A 
ATOM     13  C   UNL     1      -3.910   3.241  -0.315  0.00  0.00    +0.058 A 
ATOM     14  C   UNL     1      -2.795   2.691  -0.933  0.00  0.00    +0.013 A 
ATOM     15 CL   UNL     1      -4.402   4.878  -0.737  0.00  0.00    -0.082 Cl
ATOM     16  C   UNL     1      -5.983   0.285   0.344  0.00  0.00    +0.176 C 
ATOM     17  O   UNL     1      -6.468   1.059   1.603  0.00  0.00    -0.218 OA
ATOM     18  C   UNL     1      -5.406  -0.983   1.302  0.00  0.00    +0.039 C 
ATOM     19  C   UNL     1      -5.093  -1.967   0.180  0.00  0.00    +0.025 C 
ATOM     20  C   UNL     1      -2.769   1.336  -1.242  0.00  0.00    +0.016 A 
ATOM     21  C   UNL     1      -3.604  -2.058   0.069  0.00  0.00    +0.099 C 
ATOM     22  O   UNL     1      -1.923  -1.254  -2.198  0.00  0.00    -0.270 OA
ENDBRANCH   5   8
BRANCH   1  24
ATOM     23  C   UNL     1       4.296  -0.943   0.035  0.00  0.00    +0.269 C 
ATOM     24  N   UNL     1       3.414  -1.377   1.055  0.00  0.00    -0.175 NA
ATOM     25  O   UNL     1       4.178  -1.411  -1.117  0.00  0.00    -0.268 OA
BRANCH  23  28
ATOM     26  C   UNL     1       6.944  -1.686  -0.411  0.00  0.00    +0.031 C 
ATOM     27  C   UNL     1       6.648  -0.306   0.083  0.00  0.00    -0.017 A 
ATOM     28  C   UNL     1       5.336   0.029   0.379  0.00  0.00    +0.051 A 
ATOM     29  C   UNL     1       4.976   1.368   0.308  0.00  0.00    +0.004 A 
ATOM     30  C   UNL     1       5.904   2.357   0.007  0.00  0.00    +0.000 A 
ATOM     31  C   UNL     1       7.236   1.973   0.052  0.00  0.00    -0.000 A 
ATOM     32  C   UNL     1       7.633   0.656  -0.026  0.00  0.00    -0.004 A 
ENDBRANCH  23  28
ENDBRANCH   1  24
TORSDOF 3
