REMARK  Name = 
REMARK  2 active torsions:
REMARK  status: ('A' for Active; 'I' for Inactive)
REMARK    1  A    between atoms: C_9  and  O_10
REMARK    2  A    between atoms: O_10  and  S_11
REMARK                            x       y       z     vdW  Elec       q    Type
REMARK                         _______ _______ _______ _____ _____    ______ ____
ROOT
ATOM      1  C   UNL     1      -3.497   1.054   1.651  0.00  0.00    +0.007 C 
ATOM      2  C   UNL     1      -3.449  -0.350   1.355  0.00  0.00    +0.052 C 
ATOM      3  C   UNL     1      -4.796  -0.925   1.307  0.00  0.00    +0.150 C 
ATOM      4  O   UNL     1      -5.000  -2.139   1.321  0.00  0.00    -0.296 OA
ATOM      5  C   UNL     1      -5.508  -0.069   0.296  0.00  0.00    +0.064 C 
ATOM      6  C   UNL     1      -4.415   0.666  -0.476  0.00  0.00    +0.008 C 
ATOM      7  C   UNL     1      -3.255  -0.480  -0.274  0.00  0.00    +0.007 C 
ATOM      8  C   UNL     1      -1.985   0.660  -0.260  0.00  0.00    +0.005 C 
ATOM      9  C   UNL     1      -0.875  -0.592   0.109  0.00  0.00    +0.022 C 
ATOM     10  C   UNL     1       0.386   0.426   0.039  0.00  0.00    -0.026 A 
ATOM     11  C   UNL     1       0.699   0.646  -1.299  0.00  0.00    -0.023 A 
ATOM     12  C   UNL     1      -0.413   1.153  -2.163  0.00  0.00    +0.026 C 
ATOM     13  C   UNL     1       2.014   0.617  -1.754  0.00  0.00    +0.035 A 
ATOM     14  C   UNL     1       3.054   0.287  -0.904  0.00  0.00    +0.171 A 
ATOM     15  C   UNL     1       2.749   0.222   0.448  0.00  0.00    +0.039 A 
ATOM     16  C   UNL     1       1.433   0.085   0.876  0.00  0.00    -0.001 A 
ATOM     17  C   UNL     1      -1.077  -0.348   1.730  0.00  0.00    +0.005 C 
ATOM     18  C   UNL     1      -1.732   0.508  -1.844  0.00  0.00    +0.005 C 
ATOM     19  C   UNL     1      -2.366  -1.141   1.955  0.00  0.00    +0.007 C 
ENDROOT
BRANCH  14  20
ATOM     20  O   UNL     1       4.216  -0.347  -1.346  0.00  0.00    -0.359 OA
BRANCH  20  21
ATOM     21  S   UNL     1       5.619  -0.095  -0.416  0.00  0.00    +0.042 S 
ATOM     22  O   UNL     1       5.968  -1.389   0.580  0.00  0.00    -0.259 OA
ATOM     23  O   UNL     1       6.738   0.147  -1.395  0.00  0.00    -0.336 OA
ATOM     24  O   UNL     1       5.490   1.120   0.465  0.00  0.00    -0.336 OA
ENDBRANCH  20  21
ENDBRANCH  14  20
TORSDOF 2
