REMARK  Name = 
REMARK  5 active torsions:
REMARK  status: ('A' for Active; 'I' for Inactive)
REMARK    1  A    between atoms: O_2  and  C_3
REMARK    2  A    between atoms: C_8  and  O_9
REMARK    3  A    between atoms: O_9  and  C_10
REMARK    4  A    between atoms: C_10  and  C_11
REMARK    5  A    between atoms: C_11  and  C_13
REMARK                            x       y       z     vdW  Elec       q    Type
REMARK                         _______ _______ _______ _____ _____    ______ ____
ROOT
ATOM      1  C   UNL     1      -1.628   0.527   0.109  0.00  0.00    +0.172 A 
ATOM      2  C   UNL     1      -0.793  -0.455   0.622  0.00  0.00    +0.172 A 
ATOM      3  C   UNL     1      -1.302  -1.748   0.684  0.00  0.00    +0.040 A 
ATOM      4  C   UNL     1      -2.398  -2.140  -0.075  0.00  0.00    +0.003 A 
ATOM      5  C   UNL     1      -2.892  -1.234  -0.991  0.00  0.00    +0.003 A 
ATOM      6  C   UNL     1      -2.660   0.098  -0.709  0.00  0.00    +0.040 A 
ENDROOT
BRANCH   1   8
ATOM      7  C   UNL     1      -1.851   2.880   0.104  0.00  0.00    +0.253 C 
ATOM      8  O   UNL     1      -1.075   1.807  -0.002  0.00  0.00    -0.468 OA
ENDBRANCH   1   8
BRANCH   2   9
ATOM      9  O   UNL     1       0.494  -0.228   1.043  0.00  0.00    -0.470 OA
BRANCH   9  10
ATOM     10  C   UNL     1       1.456   0.539   0.322  0.00  0.00    +0.241 C 
BRANCH  10  11
ATOM     11  C   UNL     1       2.704  -0.558   0.228  0.00  0.00    +0.228 C 
ATOM     12  O   UNL     1       3.391   0.044   1.456  0.00  0.00    -0.216 OA
BRANCH  11  13
ATOM     13  C   UNL     1       3.578   0.418  -0.797  0.00  0.00    +0.219 C 
ATOM     14  O   UNL     1       2.976   0.051  -1.996  0.00  0.00    -0.217 OA
ENDBRANCH  11  13
ENDBRANCH  10  11
ENDBRANCH   9  10
ENDBRANCH   2   9
TORSDOF 5
