REMARK  Name = 
REMARK  6 active torsions:
REMARK  status: ('A' for Active; 'I' for Inactive)
REMARK    1  A    between atoms: O_2  and  C_3
REMARK    2  A    between atoms: C_5  and  C_6
REMARK    3  A    between atoms: C_6  and  C_7
REMARK    4  A    between atoms: C_7  and  C_9
REMARK    5  A    between atoms: C_20  and  O_21
REMARK    6  A    between atoms: C_37  and  O_38
REMARK                            x       y       z     vdW  Elec       q    Type
REMARK                         _______ _______ _______ _____ _____    ______ ____
ROOT
ATOM      1  C   UNL     1       2.008   0.857  -1.874  0.00  0.00    +0.176 C 
ATOM      2  O   UNL     1       3.026  -0.233  -2.103  0.00  0.00    -0.451 OA
ATOM      3  C   UNL     1       2.489  -1.491  -2.321  0.00  0.00    +0.335 C 
ATOM      4  O   UNL     1       1.846  -2.007  -3.196  0.00  0.00    -0.248 OA
ATOM      5  C   UNL     1       2.393  -2.043  -0.821  0.00  0.00    +0.175 C 
ATOM      6  N   UNL     1       2.919  -3.502  -1.103  0.00  0.00    -0.265 N 
ATOM      7  C   UNL     1       3.641  -3.896  -2.200  0.00  0.00    +0.094 C 
ATOM      8  C   UNL     1       4.713  -2.948  -2.608  0.00  0.00    +0.022 C 
ATOM      9  C   UNL     1       4.828  -1.895  -1.647  0.00  0.00    +0.004 C 
ATOM     10  C   UNL     1       3.282  -3.990   0.212  0.00  0.00    +0.289 C 
ATOM     11  O   UNL     1       4.315  -4.635   0.496  0.00  0.00    -0.267 OA
ATOM     12  C   UNL     1       2.197  -3.597   1.141  0.00  0.00    +0.279 C 
ATOM     13  O   UNL     1       2.633  -3.365   2.321  0.00  0.00    -0.281 OA
ATOM     14  C   UNL     1       0.929  -3.902   0.616  0.00  0.00    +0.279 C 
ATOM     15  O   UNL     1      -0.089  -3.222   0.169  0.00  0.00    -0.329 OA
ATOM     16  C   UNL     1      -0.924  -4.199  -0.655  0.00  0.00    +0.121 C 
ATOM     17  C   UNL     1      -1.591  -4.945   0.647  0.00  0.00    +0.030 C 
ATOM     18  C   UNL     1      -0.635  -5.509   1.492  0.00  0.00    +0.008 C 
ATOM     19  C   UNL     1      -2.156  -3.140  -0.839  0.00  0.00    +0.063 C 
ATOM     20  C   UNL     1      -3.344  -3.689   0.158  0.00  0.00    +0.136 C 
ATOM     21  C   UNL     1      -4.149  -2.276   0.236  0.00  0.00    -0.017 C 
ATOM     22  C   UNL     1      -3.297  -1.057   0.006  0.00  0.00    +0.029 C 
ATOM     23  C   UNL     1      -5.426  -2.338  -0.004  0.00  0.00    -0.006 C 
ATOM     24  C   UNL     1      -6.508  -2.694   0.855  0.00  0.00    -0.001 C 
ATOM     25  C   UNL     1      -6.394  -2.210   2.080  0.00  0.00    -0.000 C 
ATOM     26  C   UNL     1      -6.838  -0.853   2.436  0.00  0.00    -0.005 C 
ATOM     27  C   UNL     1      -6.394   0.049   1.628  0.00  0.00    -0.026 C 
ATOM     28  C   UNL     1      -7.057   1.503   1.644  0.00  0.00    +0.022 C 
ATOM     29  C   UNL     1      -6.778   1.690   3.246  0.00  0.00    +0.005 C 
ATOM     30  C   UNL     1      -5.655   2.245   1.249  0.00  0.00    +0.012 C 
ATOM     31  C   UNL     1      -6.133   3.228   0.031  0.00  0.00    +0.061 C 
ATOM     32  C   UNL     1      -7.372   3.858   0.896  0.00  0.00    +0.008 C 
ATOM     33  C   UNL     1      -5.106   4.382   0.424  0.00  0.00    +0.180 C 
ATOM     34  O   UNL     1      -5.179   5.010   1.382  0.00  0.00    -0.293 OA
ATOM     35  C   UNL     1      -4.090   4.766  -0.757  0.00  0.00    +0.206 C 
ATOM     36  C   UNL     1      -2.794   4.710   0.385  0.00  0.00    +0.204 C 
ATOM     37  O   UNL     1      -2.525   6.186   0.215  0.00  0.00    -0.216 OA
ATOM     38  C   UNL     1      -1.664   4.238  -0.675  0.00  0.00    -0.015 C 
ATOM     39  C   UNL     1      -1.531   5.136  -1.888  0.00  0.00    +0.029 C 
ATOM     40  C   UNL     1      -0.682   3.819   0.029  0.00  0.00    -0.025 C 
ATOM     41  C   UNL     1      -0.344   2.307   0.451  0.00  0.00    +0.079 C 
ATOM     42  C   UNL     1      -1.043   1.553  -0.827  0.00  0.00    +0.012 C 
ATOM     43  C   UNL     1       1.099   2.286  -0.270  0.00  0.00    +0.158 C 
ATOM     44  O   UNL     1       1.130   3.084  -1.199  0.00  0.00    -0.296 OA
ATOM     45  O   UNL     1       0.977  -5.113  -0.116  0.00  0.00    -0.187 OA
ATOM     46  C   UNL     1       0.282  -4.301   2.070  0.00  0.00    +0.062 C 
ATOM     47  C   UNL     1       1.376  -5.439   2.497  0.00  0.00    +0.006 C 
ATOM     48  C   UNL     1       3.973  -1.645  -0.496  0.00  0.00    +0.031 C 
ATOM     49  C   UNL     1       1.884   0.988  -0.247  0.00  0.00    +0.108 C 
ENDROOT
BRANCH   1  50
ATOM     50  C   UNL     1       3.118   2.193  -1.887  0.00  0.00    +0.041 C 
ATOM     51  C   UNL     1       3.882   1.709  -3.234  0.00  0.00    +0.004 C 
BRANCH  50  52
ATOM     52  C   UNL     1       4.296   1.634  -0.987  0.00  0.00    +0.004 C 
BRANCH  52  58
ATOM     53  C   UNL     1       6.399   2.652   1.721  0.00  0.00    +0.146 C 
ATOM     54  C   UNL     1       7.395   2.979   0.350  0.00  0.00    +0.179 C 
ATOM     55  O   UNL     1       7.901   4.271   0.979  0.00  0.00    -0.221 OA
ATOM     56  C   UNL     1       6.192   3.665  -0.531  0.00  0.00    +0.035 C 
ATOM     57  C   UNL     1       4.971   3.711   0.120  0.00  0.00    +0.003 C 
ATOM     58  C   UNL     1       4.223   2.316   0.478  0.00  0.00    +0.003 C 
ATOM     59  C   UNL     1       5.599   1.506   0.876  0.00  0.00    +0.032 C 
BRANCH  53  61
ATOM     60  C   UNL     1       7.954   2.329   3.272  0.00  0.00    +0.174 C 
ATOM     61  O   UNL     1       7.426   1.699   2.288  0.00  0.00    -0.351 OA
ENDBRANCH  53  61
ENDBRANCH  52  58
ENDBRANCH  50  52
ENDBRANCH   1  50
BRANCH  20  62
ATOM     62  O   UNL     1      -4.200  -4.264  -0.958  0.00  0.00    -0.349 OA
ATOM     63  C   UNL     1      -3.407  -4.670  -2.010  0.00  0.00    +0.174 C 
ENDBRANCH  20  62
BRANCH  35  64
ATOM     64  O   UNL     1      -3.864   3.336  -1.161  0.00  0.00    -0.343 OA
ATOM     65  C   UNL     1      -4.129   3.174  -2.479  0.00  0.00    +0.175 C 
ENDBRANCH  35  64
TORSDOF 6
