REMARK  Name = 
REMARK  4 active torsions:
REMARK  status: ('A' for Active; 'I' for Inactive)
REMARK    1  A    between atoms: C_2  and  C_3
REMARK    2  A    between atoms: C_3  and  C_4
REMARK    3  A    between atoms: C_4  and  C_5
REMARK    4  A    between atoms: C_5  and  C_6
REMARK                            x       y       z     vdW  Elec       q    Type
REMARK                         _______ _______ _______ _____ _____    ______ ____
ROOT
ATOM      1  C   UNL     1       1.814  -0.062   0.394  0.00  0.00    -0.016 A 
ATOM      2  C   UNL     1       0.880   0.875   0.639  0.00  0.00    +0.033 A 
ATOM      3  C   UNL     1      -0.414   0.551   0.510  0.00  0.00    +0.137 A 
ATOM      4  O   UNL     1      -1.491   1.482   0.741  0.00  0.00    -0.483 OA
ATOM      5  C   UNL     1      -2.838   1.160   0.409  0.00  0.00    +0.134 C 
ATOM      6  C   UNL     1      -3.335  -0.396   0.705  0.00  0.00    +0.045 C 
ATOM      7  C   UNL     1      -2.150  -1.525   0.039  0.00  0.00    +0.053 C 
ATOM      8  C   UNL     1      -2.416  -1.235  -1.509  0.00  0.00    -0.030 C 
ATOM      9  C   UNL     1      -1.961  -0.123  -1.320  0.00  0.00    -0.048 C 
ATOM     10  C   UNL     1      -1.545   0.636  -2.495  0.00  0.00    +0.026 C 
ATOM     11  C   UNL     1      -2.243  -0.116  -0.070  0.00  0.00    +0.022 C 
ATOM     12  C   UNL     1      -2.082  -0.351   1.490  0.00  0.00    +0.008 C 
ATOM     13  C   UNL     1      -3.772   1.988  -0.209  0.00  0.00    +0.044 C 
ATOM     14  C   UNL     1      -3.368   1.559   1.840  0.00  0.00    +0.044 C 
ATOM     15  C   UNL     1      -0.734  -0.810   0.348  0.00  0.00    +0.054 A 
ATOM     16  C   UNL     1       0.206  -1.802   0.458  0.00  0.00    +0.195 A 
ATOM     17  O   UNL     1      -0.044  -3.162   0.504  0.00  0.00    -0.287 OA
ATOM     18  C   UNL     1       1.513  -1.395   0.500  0.00  0.00    +0.038 A 
ENDROOT
BRANCH   1  19
ATOM     19  C   UNL     1       3.238   0.375   0.328  0.00  0.00    +0.027 C 
BRANCH  19  20
ATOM     20  C   UNL     1       3.724   0.121  -1.093  0.00  0.00    +0.005 C 
BRANCH  20  21
ATOM     21  C   UNL     1       5.173   0.488  -1.265  0.00  0.00    +0.000 C 
BRANCH  21  23
ATOM     22  C   UNL     1       5.974   0.976   0.499  0.00  0.00    +0.000 C 
ATOM     23  C   UNL     1       5.870   0.768   0.040  0.00  0.00    +0.000 C 
ENDBRANCH  21  23
ENDBRANCH  20  21
ENDBRANCH  19  20
ENDBRANCH   1  19
TORSDOF 4
