REMARK  Name = 
REMARK  2 active torsions:
REMARK  status: ('A' for Active; 'I' for Inactive)
REMARK    1  A    between atoms: C_7  and  O_8
REMARK    2  A    between atoms: O_8  and  C_9
REMARK                            x       y       z     vdW  Elec       q    Type
REMARK                         _______ _______ _______ _____ _____    ______ ____
ROOT
ATOM      1  N   UNL     1       5.103   0.572   0.947  0.00  0.00    -0.100 NA
ATOM      2  C   UNL     1       3.687   0.641   0.754  0.00  0.00    +0.201 A 
ATOM      3  S   UNL     1       2.396   0.685   1.889  0.00  0.00    -0.048 S 
ATOM      4  C   UNL     1       1.090   0.683   0.773  0.00  0.00    +0.053 A 
ATOM      5  C   UNL     1       1.792   0.496  -0.413  0.00  0.00    +0.090 A 
ATOM      6  C   UNL     1       1.029   0.261  -1.553  0.00  0.00    +0.023 A 
ATOM      7  C   UNL     1      -0.280  -0.185  -1.415  0.00  0.00    +0.039 A 
ATOM      8  C   UNL     1      -1.021   0.244  -0.339  0.00  0.00    +0.147 A 
ATOM      9  C   UNL     1      -0.297   0.598   0.795  0.00  0.00    +0.045 A 
ATOM     10  N   UNL     1       3.009   1.046  -0.349  0.00  0.00    -0.221 NA
ENDROOT
BRANCH   8  11
ATOM     11  O   UNL     1      -2.374   0.493  -0.367  0.00  0.00    -0.404 OA
BRANCH  11  12
ATOM     12  C   UNL     1      -3.305  -0.546  -0.202  0.00  0.00    +0.575 C 
ATOM     13  F   UNL     1      -2.710  -1.567   0.493  0.00  0.00    -0.133 F 
ATOM     14  F   UNL     1      -3.667  -0.977  -1.464  0.00  0.00    -0.133 F 
ATOM     15  F   UNL     1      -4.452  -0.157   0.450  0.00  0.00    -0.133 F 
ENDBRANCH  11  12
ENDBRANCH   8  11
TORSDOF 2
