REMARK  Name = 
REMARK  6 active torsions:
REMARK  status: ('A' for Active; 'I' for Inactive)
REMARK    1  A    between atoms: C_2  and  C_5
REMARK    2  A    between atoms: C_5  and  N_6
REMARK    3  A    between atoms: N_10  and  C_11
REMARK    4  A    between atoms: C_15  and  C_16
REMARK    5  A    between atoms: C_22  and  C_23
REMARK    6  A    between atoms: C_27  and  C_28
REMARK                            x       y       z     vdW  Elec       q    Type
REMARK                         _______ _______ _______ _____ _____    ______ ____
ROOT
ATOM      1  N   UNL     1      -0.397   3.305  -0.734  0.00  0.00    -0.201 NA
ATOM      2  C   UNL     1      -0.479   2.251   0.235  0.00  0.00    +0.240 A 
ATOM      3  N   UNL     1      -1.659   1.632   0.488  0.00  0.00    -0.192 NA
ATOM      4  C   UNL     1      -1.796   0.310   0.601  0.00  0.00    +0.186 A 
ATOM      5  N   UNL     1      -0.698  -0.397   0.924  0.00  0.00    -0.191 NA
ATOM      6  C   UNL     1       0.521   0.161   0.729  0.00  0.00    +0.245 A 
ATOM      7  N   UNL     1       1.707  -0.487   1.143  0.00  0.00    -0.177 NA
ATOM      8  N   UNL     1       0.601   1.430   0.260  0.00  0.00    -0.178 NA
ENDROOT
BRANCH   4   9
ATOM      9  C   UNL     1      -3.079  -0.347   0.312  0.00  0.00    +0.117 A 
ATOM     10  N   UNL     1      -3.259  -1.657   0.473  0.00  0.00    -0.238 NA
ATOM     11  C   UNL     1      -4.271  -2.236  -0.215  0.00  0.00    +0.153 A 
ATOM     12  C   UNL     1      -4.942  -1.569  -1.231  0.00  0.00    +0.023 A 
ATOM     13  C   UNL     1      -4.897  -0.181  -1.258  0.00  0.00    +0.003 A 
ATOM     14  C   UNL     1      -4.070   0.407  -0.307  0.00  0.00    +0.022 A 
BRANCH  11  15
ATOM     15  C   UNL     1      -4.790  -3.596   0.121  0.00  0.00    +0.435 C 
ATOM     16  F   UNL     1      -6.093  -3.446   0.571  0.00  0.00    -0.164 F 
ATOM     17  F   UNL     1      -4.859  -4.390  -1.012  0.00  0.00    -0.164 F 
ATOM     18  F   UNL     1      -4.029  -4.154   1.117  0.00  0.00    -0.164 F 
ENDBRANCH  11  15
ENDBRANCH   4   9
BRANCH   7  19
ATOM     19  C   UNL     1       2.952  -0.388   0.484  0.00  0.00    +0.077 A 
ATOM     20  C   UNL     1       3.721  -1.539   0.389  0.00  0.00    +0.040 A 
ATOM     21  C   UNL     1       4.943  -1.569  -0.247  0.00  0.00    +0.154 A 
ATOM     22  N   UNL     1       5.292  -0.512  -0.999  0.00  0.00    -0.240 NA
ATOM     23  C   UNL     1       4.439   0.509  -1.131  0.00  0.00    +0.100 A 
ATOM     24  C   UNL     1       3.286   0.646  -0.372  0.00  0.00    +0.037 A 
BRANCH  21  25
ATOM     25  C   UNL     1       5.870  -2.685   0.057  0.00  0.00    +0.435 C 
ATOM     26  F   UNL     1       6.232  -2.662   1.383  0.00  0.00    -0.164 F 
ATOM     27  F   UNL     1       7.001  -2.601  -0.713  0.00  0.00    -0.164 F 
ATOM     28  F   UNL     1       5.232  -3.873  -0.198  0.00  0.00    -0.164 F 
ENDBRANCH  21  25
ENDBRANCH   7  19
BRANCH   1  29
ATOM     29  C   UNL     1       0.379   4.495  -0.567  0.00  0.00    +0.146 C 
BRANCH  29  31
ATOM     30  C   UNL     1      -0.950   5.031   1.431  0.00  0.00    +0.035 C 
ATOM     31  C   UNL     1      -0.502   5.546   0.086  0.00  0.00    +0.147 C 
ATOM     32  O   UNL     1       0.262   6.684   0.315  0.00  0.00    -0.224 OA
ATOM     33  C   UNL     1      -1.665   5.879  -0.809  0.00  0.00    +0.035 C 
ENDBRANCH  29  31
ENDBRANCH   1  29
TORSDOF 6
