REMARK  Name = 
REMARK  15 active torsions:
REMARK  status: ('A' for Active; 'I' for Inactive)
REMARK    1  A    between atoms: C_8  and  O_9
REMARK    2  A    between atoms: O_9  and  C_10
REMARK    3  A    between atoms: C_10  and  C_11
REMARK    4  A    between atoms: N_13  and  C_14
REMARK    5  A    between atoms: C_14  and  C_15
REMARK    6  A    between atoms: C_14  and  C_22
REMARK    7  A    between atoms: C_15  and  C_16
REMARK    8  A    between atoms: C_22  and  C_24
REMARK    9  A    between atoms: C_24  and  C_25
REMARK   10  A    between atoms: C_25  and  C_26
REMARK   11  A    between atoms: C_25  and  N_33
REMARK   12  A    between atoms: C_26  and  C_27
REMARK   13  A    between atoms: C_34  and  C_36
REMARK   14  A    between atoms: C_36  and  C_37
REMARK   15  A    between atoms: C_36  and  N_40
REMARK                            x       y       z     vdW  Elec       q    Type
REMARK                         _______ _______ _______ _____ _____    ______ ____
ROOT
ATOM      1  C   UNL     1       1.135  -0.406   1.141  0.00  0.00    +0.174 C 
ATOM      2  O   UNL     1       0.528   0.426   2.244  0.00  0.00    -0.221 OA
ENDROOT
BRANCH   1   3
ATOM      3  C   UNL     1       1.436   1.009   0.213  0.00  0.00    +0.130 C 
BRANCH   3   5
ATOM      4  C   UNL     1       3.344   2.515   0.700  0.00  0.00    +0.286 C 
ATOM      5  N   UNL     1       2.752   1.276   1.006  0.00  0.00    -0.201 NA
ATOM      6  O   UNL     1       2.592   3.510   0.576  0.00  0.00    -0.269 OA
BRANCH   4   7
ATOM      7  C   UNL     1       4.788   2.777   0.973  0.00  0.00    +0.291 C 
BRANCH   7   8
ATOM      8  O   UNL     1       5.474   1.575   1.188  0.00  0.00    -0.466 OA
BRANCH   8  11
ATOM      9  C   UNL     1       5.514  -1.118   0.624  0.00  0.00    +0.034 C 
ATOM     10  C   UNL     1       6.316  -0.348   0.023  0.00  0.00    +0.012 A 
ATOM     11  C   UNL     1       6.382   1.017   0.284  0.00  0.00    +0.131 A 
ATOM     12  C   UNL     1       7.423   1.801  -0.199  0.00  0.00    +0.012 A 
ATOM     13  C   UNL     1       7.686   3.152   0.303  0.00  0.00    +0.034 C 
ATOM     14  C   UNL     1       8.374   1.242  -1.033  0.00  0.00    -0.001 A 
ATOM     15  C   UNL     1       8.166  -0.035  -1.519  0.00  0.00    -0.000 A 
ATOM     16  C   UNL     1       7.100  -0.775  -1.043  0.00  0.00    -0.001 A 
ENDBRANCH   8  11
ENDBRANCH   7   8
ENDBRANCH   4   7
ENDBRANCH   3   5
BRANCH   3  17
ATOM     17  C   UNL     1       2.205   0.273  -1.011  0.00  0.00    +0.051 C 
BRANCH  17  18
ATOM     18  C   UNL     1       2.154  -1.166  -0.914  0.00  0.00    -0.020 A 
ATOM     19  C   UNL     1       1.767  -1.891  -2.042  0.00  0.00    -0.004 A 
ATOM     20  C   UNL     1       1.833  -3.280  -2.052  0.00  0.00    -0.000 A 
ATOM     21  C   UNL     1       2.801  -3.853  -1.244  0.00  0.00    -0.000 A 
ATOM     22  C   UNL     1       3.655  -3.040  -0.509  0.00  0.00    -0.000 A 
ATOM     23  C   UNL     1       3.213  -1.758  -0.231  0.00  0.00    -0.004 A 
ENDBRANCH  17  18
ENDBRANCH   3  17
ENDBRANCH   1   3
BRANCH   1  24
ATOM     24  C   UNL     1      -0.220  -0.669   0.277  0.00  0.00    +0.057 C 
BRANCH  24  25
ATOM     25  C   UNL     1      -1.458  -0.217   1.233  0.00  0.00    +0.102 C 
BRANCH  25  26
ATOM     26  N   UNL     1      -2.321   0.229  -0.004  0.00  0.00    -0.205 NA
ATOM     27  C   UNL     1      -3.429   0.995   0.323  0.00  0.00    +0.259 C 
ATOM     28  O   UNL     1      -3.378   1.900   1.137  0.00  0.00    -0.272 OA
BRANCH  27  29
ATOM     29  C   UNL     1      -4.754   0.789  -0.567  0.00  0.00    +0.155 C 
BRANCH  29  30
ATOM     30  N   UNL     1      -5.673   0.774   0.707  0.00  0.00    -0.256 N 
ATOM     31  C   UNL     1      -6.551   1.810   0.958  0.00  0.00    +0.324 C 
ATOM     32  O   UNL     1      -6.093   2.955   0.770  0.00  0.00    -0.251 OA
ATOM     33  N   UNL     1      -7.718   1.525   1.735  0.00  0.00    -0.188 NA
ATOM     34  C   UNL     1      -8.434   0.312   1.346  0.00  0.00    +0.119 C 
ATOM     35  C   UNL     1      -7.588  -0.631   0.543  0.00  0.00    +0.045 C 
ATOM     36  C   UNL     1      -6.124  -0.594   0.954  0.00  0.00    +0.097 C 
ENDBRANCH  29  30
BRANCH  29  37
ATOM     37  C   UNL     1      -4.900   2.394  -0.903  0.00  0.00    +0.027 C 
ATOM     38  C   UNL     1      -5.717   2.298  -2.192  0.00  0.00    +0.002 C 
ATOM     39  C   UNL     1      -3.534   2.866  -1.312  0.00  0.00    +0.002 C 
ENDBRANCH  29  37
ENDBRANCH  27  29
ENDBRANCH  25  26
BRANCH  25  40
ATOM     40  C   UNL     1      -2.060  -1.733   1.282  0.00  0.00    +0.048 C 
BRANCH  40  41
ATOM     41  C   UNL     1      -2.477  -2.183  -0.019  0.00  0.00    -0.020 A 
ATOM     42  C   UNL     1      -3.233  -3.352   0.071  0.00  0.00    -0.004 A 
ATOM     43  C   UNL     1      -3.570  -4.083  -1.035  0.00  0.00    -0.000 A 
ATOM     44  C   UNL     1      -3.197  -3.666  -2.303  0.00  0.00    -0.000 A 
ATOM     45  C   UNL     1      -2.310  -2.603  -2.409  0.00  0.00    -0.000 A 
ATOM     46  C   UNL     1      -1.899  -2.018  -1.246  0.00  0.00    -0.004 A 
ENDBRANCH  40  41
ENDBRANCH  25  40
ENDBRANCH  24  25
ENDBRANCH   1  24
TORSDOF 15
