REMARK  Name = 
REMARK  1 active torsions:
REMARK  status: ('A' for Active; 'I' for Inactive)
REMARK    1  A    between atoms: O_2  and  C_3
REMARK                            x       y       z     vdW  Elec       q    Type
REMARK                         _______ _______ _______ _____ _____    ______ ____
ROOT
ATOM      1  C   UNL     1       2.581  -0.371  -0.619  0.00  0.00    +0.237 C 
ATOM      2  C   UNL     1       1.876   0.716  -1.723  0.00  0.00    +0.059 C 
ATOM      3  C   UNL     1       2.815   1.943  -1.210  0.00  0.00    +0.005 C 
ATOM      4  C   UNL     1       0.459   1.348  -1.084  0.00  0.00    +0.038 C 
ATOM      5  C   UNL     1      -0.349   0.062  -0.568  0.00  0.00    +0.178 C 
ATOM      6  C   UNL     1      -1.620   0.756   0.126  0.00  0.00    +0.033 C 
ATOM      7  C   UNL     1      -0.874   1.601   1.401  0.00  0.00    +0.003 C 
ATOM      8  C   UNL     1      -0.253   2.800   0.522  0.00  0.00    +0.000 C 
ATOM      9  C   UNL     1      -2.223   2.448   1.687  0.00  0.00    +0.000 C 
ATOM     10  C   UNL     1      -1.990  -0.287   1.300  0.00  0.00    +0.008 C 
ATOM     11  C   UNL     1      -2.146  -1.604   1.130  0.00  0.00    +0.059 C 
ATOM     12  C   UNL     1      -1.502  -2.011  -0.166  0.00  0.00    +0.221 C 
ATOM     13  O   UNL     1      -1.934  -1.176  -1.163  0.00  0.00    -0.197 OA
ATOM     14  C   UNL     1      -2.026  -3.398  -0.448  0.00  0.00    +0.064 C 
ATOM     15  O   UNL     1      -0.270  -2.139   0.164  0.00  0.00    -0.306 OA
ATOM     16  C   UNL     1       0.481  -0.834   0.454  0.00  0.00    +0.268 C 
ATOM     17  O   UNL     1      -0.806  -0.626  -1.603  0.00  0.00    -0.218 OA
ATOM     18  C   UNL     1       1.021   1.971   0.324  0.00  0.00    +0.003 C 
ATOM     19  O   UNL     1       1.384  -1.293  -0.695  0.00  0.00    -0.304 OA
ENDROOT
BRANCH   1  21
ATOM     20  C   UNL     1       3.111  -0.201   1.467  0.00  0.00    +0.177 C 
ATOM     21  O   UNL     1       2.266   0.295   0.703  0.00  0.00    -0.328 OA
ENDBRANCH   1  21
TORSDOF 1
