REMARK  Name = 
REMARK  14 active torsions:
REMARK  status: ('A' for Active; 'I' for Inactive)
REMARK    1  A    between atoms: C_2  and  C_3
REMARK    2  A    between atoms: C_3  and  C_4
REMARK    3  A    between atoms: C_4  and  C_5
REMARK    4  A    between atoms: C_5  and  C_8
REMARK    5  A    between atoms: C_8  and  C_9
REMARK    6  A    between atoms: C_10  and  C_11
REMARK    7  A    between atoms: C_17  and  C_18
REMARK    8  A    between atoms: C_18  and  C_19
REMARK    9  A    between atoms: C_19  and  C_20
REMARK   10  A    between atoms: C_20  and  C_21
REMARK   11  A    between atoms: C_21  and  C_22
REMARK   12  A    between atoms: C_22  and  C_23
REMARK   13  A    between atoms: C_23  and  C_24
REMARK   14  A    between atoms: C_24  and  O_26
REMARK                            x       y       z     vdW  Elec       q    Type
REMARK                         _______ _______ _______ _____ _____    ______ ____
ROOT
ATOM      1  C   UNL     1       0.104  -0.650  -0.960  0.00  0.00    +0.059 C 
ATOM      2  C   UNL     1       0.165   0.453   0.337  0.00  0.00    +0.064 C 
ATOM      3  C   UNL     1       0.571   1.761  -0.505  0.00  0.00    +0.153 C 
ATOM      4  O   UNL     1       0.848   2.651   0.255  0.00  0.00    -0.296 OA
ATOM      5  C   UNL     1      -0.420   1.683  -1.477  0.00  0.00    +0.098 C 
ATOM      6  C   UNL     1       0.394   0.449  -2.255  0.00  0.00    +0.164 C 
ATOM      7  O   UNL     1       1.824   0.803  -1.778  0.00  0.00    -0.222 OA
ENDROOT
BRANCH   1   9
ATOM      8  C   UNL     1      -2.282  -0.302  -0.213  0.00  0.00    -0.028 C 
ATOM      9  C   UNL     1      -1.470  -0.510  -1.193  0.00  0.00    -0.028 C 
BRANCH   8  10
ATOM     10  C   UNL     1      -3.608   0.368  -0.451  0.00  0.00    +0.056 C 
BRANCH  10  11
ATOM     11  C   UNL     1      -4.315   0.329   0.898  0.00  0.00    +0.131 C 
ATOM     12  O   UNL     1      -4.941   1.529   1.200  0.00  0.00    -0.225 OA
ATOM     13  C   UNL     1      -3.378   0.002   2.029  0.00  0.00    +0.033 C 
BRANCH  11  14
ATOM     14  C   UNL     1      -5.391  -0.741   0.735  0.00  0.00    +0.031 C 
BRANCH  14  15
ATOM     15  C   UNL     1      -6.099  -0.347  -0.558  0.00  0.00    +0.003 C 
BRANCH  15  17
ATOM     16  C   UNL     1      -7.927  -0.955   0.870  0.00  0.00    +0.000 C 
ATOM     17  C   UNL     1      -7.494   0.067  -0.107  0.00  0.00    +0.000 C 
ENDBRANCH  15  17
ENDBRANCH  14  15
ENDBRANCH  11  14
ENDBRANCH  10  11
ENDBRANCH   8  10
ENDBRANCH   1   9
BRANCH   2  18
ATOM     18  C   UNL     1       1.758   0.094   0.649  0.00  0.00    +0.008 C 
BRANCH  18  19
ATOM     19  C   UNL     1       1.694  -1.223   1.414  0.00  0.00    +0.000 C 
BRANCH  19  20
ATOM     20  C   UNL     1       2.053  -2.388   0.498  0.00  0.00    +0.000 C 
BRANCH  20  21
ATOM     21  C   UNL     1       3.196  -2.008  -0.406  0.00  0.00    +0.001 C 
BRANCH  21  22
ATOM     22  C   UNL     1       4.504  -2.258   0.281  0.00  0.00    +0.012 C 
BRANCH  22  23
ATOM     23  C   UNL     1       4.899  -1.055   1.129  0.00  0.00    +0.110 C 
BRANCH  23  24
ATOM     24  C   UNL     1       5.708  -0.135   0.281  0.00  0.00    +0.317 C 
ATOM     25  O   UNL     1       6.481  -0.643  -0.583  0.00  0.00    -0.250 OA
BRANCH  24  26
ATOM     26  O   UNL     1       5.990   1.150   0.732  0.00  0.00    -0.444 OA
ATOM     27  C   UNL     1       7.136   1.875   0.356  0.00  0.00    +0.256 C 
ENDBRANCH  24  26
ENDBRANCH  23  24
ENDBRANCH  22  23
ENDBRANCH  21  22
ENDBRANCH  20  21
ENDBRANCH  19  20
ENDBRANCH  18  19
ENDBRANCH   2  18
TORSDOF 14
