REMARK  Name = 
REMARK  8 active torsions:
REMARK  status: ('A' for Active; 'I' for Inactive)
REMARK    1  A    between atoms: C_2  and  C_3
REMARK    2  A    between atoms: C_2  and  N_11
REMARK    3  A    between atoms: C_3  and  C_4
REMARK    4  A    between atoms: C_4  and  C_5
REMARK    5  A    between atoms: N_11  and  C_12
REMARK    6  A    between atoms: C_12  and  C_13
REMARK    7  A    between atoms: C_13  and  C_15
REMARK    8  A    between atoms: C_20  and  C_21
REMARK                            x       y       z     vdW  Elec       q    Type
REMARK                         _______ _______ _______ _____ _____    ______ ____
ROOT
ATOM      1  C   UNL     1      -0.389  -0.957   1.073  0.00  0.00    +0.126 C 
ENDROOT
BRANCH   1   2
ATOM      2  C   UNL     1      -1.102  -2.207   0.235  0.00  0.00    +0.192 C 
ATOM      3  O   UNL     1      -1.944  -2.599   1.452  0.00  0.00    -0.217 OA
BRANCH   2   4
ATOM      4  C   UNL     1      -2.297  -1.283  -0.380  0.00  0.00    +0.009 A 
ATOM      5  C   UNL     1      -2.718  -0.239   0.377  0.00  0.00    +0.006 A 
ATOM      6  C   UNL     1      -3.896   0.401   0.031  0.00  0.00    +0.095 A 
ATOM      7  C   UNL     1      -4.883  -0.349  -0.550  0.00  0.00    +0.200 A 
ATOM      8  O   UNL     1      -6.203  -0.039  -0.214  0.00  0.00    -0.286 OA
ATOM      9  C   UNL     1      -4.568  -1.515  -1.202  0.00  0.00    +0.042 A 
ATOM     10  C   UNL     1      -3.309  -2.051  -0.952  0.00  0.00    +0.001 A 
BRANCH   6  11
ATOM     11  C   UNL     1      -4.071   1.825   0.224  0.00  0.00    +0.287 C 
ATOM     12  O   UNL     1      -3.955   2.573  -0.791  0.00  0.00    -0.267 OA
ATOM     13  N   UNL     1      -4.750   2.359   1.339  0.00  0.00    -0.084 NA
ENDBRANCH   6  11
ENDBRANCH   2   4
ENDBRANCH   1   2
BRANCH   1  14
ATOM     14  N   UNL     1       0.432  -0.334   0.062  0.00  0.00    -0.216 NA
BRANCH  14  16
ATOM     15  C   UNL     1       1.895  -1.050  -1.597  0.00  0.00    +0.019 C 
ATOM     16  C   UNL     1       1.580  -1.416  -0.022  0.00  0.00    +0.073 C 
BRANCH  16  17
ATOM     17  C   UNL     1       2.707  -0.344   0.522  0.00  0.00    +0.022 C 
BRANCH  17  18
ATOM     18  C   UNL     1       4.006  -0.983   0.087  0.00  0.00    +0.028 C 
BRANCH  18  19
ATOM     19  C   UNL     1       4.990   0.133  -0.078  0.00  0.00    -0.022 A 
ATOM     20  C   UNL     1       4.704   1.029  -1.101  0.00  0.00    -0.004 A 
ATOM     21  C   UNL     1       5.520   2.118  -1.226  0.00  0.00    -0.000 A 
ATOM     22  C   UNL     1       6.376   2.453  -0.225  0.00  0.00    -0.000 A 
ATOM     23  C   UNL     1       6.362   1.775   0.954  0.00  0.00    -0.000 A 
ATOM     24  C   UNL     1       5.512   0.700   1.078  0.00  0.00    -0.004 A 
ENDBRANCH  18  19
ENDBRANCH  17  18
ENDBRANCH  16  17
ENDBRANCH  14  16
ENDBRANCH   1  14
TORSDOF 8
