REMARK  Name = 
REMARK  6 active torsions:
REMARK  status: ('A' for Active; 'I' for Inactive)
REMARK    1  A    between atoms: O_2  and  C_3
REMARK    2  A    between atoms: C_3  and  C_5
REMARK    3  A    between atoms: C_11  and  C_12
REMARK    4  A    between atoms: N_19  and  C_20
REMARK    5  A    between atoms: C_20  and  C_21
REMARK    6  A    between atoms: C_21  and  C_22
REMARK                            x       y       z     vdW  Elec       q    Type
REMARK                         _______ _______ _______ _____ _____    ______ ____
ROOT
ATOM      1  C   UNL     1      -0.884  -0.776   0.848  0.00  0.00    +0.118 C 
ATOM      2  C   UNL     1       0.499  -0.196   1.663  0.00  0.00    +0.036 C 
ATOM      3  C   UNL     1       0.411   1.324   1.007  0.00  0.00    +0.021 C 
ATOM      4  C   UNL     1      -0.817   0.624   0.187  0.00  0.00    +0.058 C 
ATOM      5  N   UNL     1      -1.906   1.525   0.604  0.00  0.00    -0.275 NA
ATOM      6  C   UNL     1      -0.664   1.339  -1.343  0.00  0.00    +0.017 C 
ATOM      7  C   UNL     1      -1.675   0.214  -1.389  0.00  0.00    +0.018 C 
ATOM      8  C   UNL     1      -0.795   0.647  -0.079  0.00  0.00    +0.068 C 
ENDROOT
BRANCH   2   9
ATOM      9  C   UNL     1       1.669  -0.685   0.715  0.00  0.00    -0.022 A 
ATOM     10  C   UNL     1       1.987  -0.117  -0.453  0.00  0.00    -0.004 A 
ATOM     11  C   UNL     1       3.278  -0.167  -0.981  0.00  0.00    +0.005 A 
ATOM     12  C   UNL     1       4.264   0.060  -0.024  0.00  0.00    +0.030 A 
ATOM     13  I   UNL     1       5.863   1.400  -0.368  0.00  0.00    -0.043 I 
ATOM     14  C   UNL     1       4.032  -0.479   1.232  0.00  0.00    +0.005 A 
ATOM     15  C   UNL     1       2.767  -0.976   1.539  0.00  0.00    -0.004 A 
ENDBRANCH   2   9
BRANCH   1  16
ATOM     16  C   UNL     1      -0.218  -1.683  -0.261  0.00  0.00    +0.318 C 
ATOM     17  O   UNL     1      -1.152  -2.051  -1.053  0.00  0.00    -0.250 OA
BRANCH  16  19
ATOM     18  C   UNL     1       0.553  -3.544  -0.553  0.00  0.00    +0.256 C 
ATOM     19  O   UNL     1       0.420  -2.840   0.223  0.00  0.00    -0.444 OA
ENDBRANCH  16  19
ENDBRANCH   1  16
BRANCH   5  20
ATOM     20  C   UNL     1      -3.118   0.927   0.130  0.00  0.00    +0.075 C 
BRANCH  20  21
ATOM     21  C   UNL     1      -3.687   1.901  -0.864  0.00  0.00    +0.055 C 
BRANCH  21  22
ATOM     22  C   UNL     1      -5.073   2.264  -0.460  0.00  0.00    +0.195 C 
ATOM     23  F   UNL     1      -5.753   1.291   0.218  0.00  0.00    -0.234 F 
ENDBRANCH  21  22
ENDBRANCH  20  21
ENDBRANCH   5  20
TORSDOF 6
