REMARK  Name = 
REMARK  2 active torsions:
REMARK  status: ('A' for Active; 'I' for Inactive)
REMARK    1  A    between atoms: N_5  and  S_6
REMARK    2  A    between atoms: S_6  and  C_9
REMARK                            x       y       z     vdW  Elec       q    Type
REMARK                         _______ _______ _______ _____ _____    ______ ____
ROOT
ATOM      1  S   UNL     1      -0.159  -1.134   0.316  0.00  0.00    +0.094 S 
ATOM      2  O   UNL     1      -0.344  -2.614   0.441  0.00  0.00    -0.148 OA
ATOM      3  O   UNL     1       0.504  -0.602   1.566  0.00  0.00    -0.148 OA
ENDROOT
BRANCH   1   9
ATOM      4  C   UNL     1       5.012   1.840  -0.210  0.00  0.00    +0.075 C 
ATOM      5  C   UNL     1       4.050   0.728  -0.333  0.00  0.00    +0.156 A 
ATOM      6  O   UNL     1       4.025  -0.286   0.511  0.00  0.00    -0.356 OA
ATOM      7  N   UNL     1       2.973  -1.032   0.278  0.00  0.00    -0.059 NA
ATOM      8  C   UNL     1       2.309  -0.546  -0.799  0.00  0.00    +0.213 A 
ATOM      9  N   UNL     1       0.908  -0.767  -1.003  0.00  0.00    -0.074 NA
ATOM     10  C   UNL     1       3.040   0.541  -1.263  0.00  0.00    +0.077 A 
ENDBRANCH   1   9
BRANCH   1  11
ATOM     11  C   UNL     1      -1.673  -0.305   0.115  0.00  0.00    +0.127 A 
ATOM     12  C   UNL     1      -2.493  -0.654  -0.944  0.00  0.00    +0.022 A 
ATOM     13  C   UNL     1      -3.675   0.039  -1.119  0.00  0.00    +0.019 A 
ATOM     14  C   UNL     1      -4.018   1.099  -0.290  0.00  0.00    +0.089 A 
ATOM     15  N   UNL     1      -4.734   2.240  -0.774  0.00  0.00    -0.128 NA
ATOM     16  C   UNL     1      -3.417   1.121   0.962  0.00  0.00    +0.019 A 
ATOM     17  C   UNL     1      -2.308   0.334   1.174  0.00  0.00    +0.022 A 
ENDBRANCH   1  11
TORSDOF 2
