REMARK  Name = 
REMARK  5 active torsions:
REMARK  status: ('A' for Active; 'I' for Inactive)
REMARK    1  A    between atoms: C_2  and  C_3
REMARK    2  A    between atoms: C_3  and  C_4
REMARK    3  A    between atoms: C_4  and  C_5
REMARK    4  A    between atoms: C_5  and  P_7
REMARK    5  A    between atoms: C_5  and  P_11
REMARK                            x       y       z     vdW  Elec       q    Type
REMARK                         _______ _______ _______ _____ _____    ______ ____
ROOT
ATOM      1  C   UNL     1      -0.113   0.352  -0.122  0.00  0.00    +0.216 C 
ATOM      2  O   UNL     1       0.283   1.646  -0.479  0.00  0.00    -0.211 OA
ENDROOT
BRANCH   1   3
ATOM      3  P   UNL     1      -0.879   0.502   1.528  0.00  0.00    +0.151 P 
ATOM      4  O   UNL     1      -2.248   1.486   1.304  0.00  0.00    -0.355 OA
ATOM      5  O   UNL     1      -1.373  -1.061   1.968  0.00  0.00    -0.355 OA
ATOM      6  O   UNL     1       0.088   1.090   2.513  0.00  0.00    -0.457 OA
ENDBRANCH   1   3
BRANCH   1   7
ATOM      7  P   UNL     1      -1.472  -0.235  -1.181  0.00  0.00    +0.151 P 
ATOM      8  O   UNL     1      -2.587   1.048  -1.263  0.00  0.00    -0.355 OA
ATOM      9  O   UNL     1      -0.945  -0.725  -2.688  0.00  0.00    -0.355 OA
ATOM     10  O   UNL     1      -2.161  -1.341  -0.402  0.00  0.00    -0.457 OA
ENDBRANCH   1   7
BRANCH   1  11
ATOM     11  C   UNL     1       1.044  -0.603  -0.097  0.00  0.00    +0.046 C 
BRANCH  11  12
ATOM     12  C   UNL     1       2.278   0.031  -0.682  0.00  0.00    +0.024 C 
BRANCH  12  14
ATOM     13  N   UNL     1       4.598   0.024   0.004  0.00  0.00    -0.131 NA
ATOM     14  C   UNL     1       3.488  -0.813  -0.402  0.00  0.00    +0.109 C 
ENDBRANCH  12  14
ENDBRANCH  11  12
ENDBRANCH   1  11
TORSDOF 5
