REMARK  Name = 
REMARK  6 active torsions:
REMARK  status: ('A' for Active; 'I' for Inactive)
REMARK    1  A    between atoms: C_3  and  O_4
REMARK    2  A    between atoms: O_4  and  C_5
REMARK    3  A    between atoms: C_5  and  C_6
REMARK    4  A    between atoms: C_13  and  C_14
REMARK    5  A    between atoms: C_14  and  S_15
REMARK    6  A    between atoms: S_15  and  C_17
REMARK                            x       y       z     vdW  Elec       q    Type
REMARK                         _______ _______ _______ _____ _____    ______ ____
ROOT
ATOM      1  C   UNL     1      -2.055  -0.192   2.542  0.00  0.00    +0.035 C 
ATOM      2  C   UNL     1      -1.726  -0.160   1.258  0.00  0.00    +0.027 A 
ATOM      3  C   UNL     1      -0.516   0.360   0.811  0.00  0.00    +0.072 A 
ATOM      4  N   UNL     1      -0.147   0.243  -0.487  0.00  0.00    -0.247 NA
ATOM      5  C   UNL     1      -1.015  -0.124  -1.443  0.00  0.00    +0.102 A 
ATOM      6  C   UNL     1      -2.318  -0.402  -1.056  0.00  0.00    +0.057 A 
ATOM      7  C   UNL     1      -2.633  -0.567   0.287  0.00  0.00    +0.138 A 
ENDROOT
BRANCH   3   8
ATOM      8  C   UNL     1       0.210   1.267   1.754  0.00  0.00    +0.145 C 
BRANCH   8   9
ATOM      9  S   UNL     1       1.431   2.262   0.802  0.00  0.00    +0.107 S 
ATOM     10  O   UNL     1       0.565   2.630  -0.438  0.00  0.00    -0.248 OA
BRANCH   9  11
ATOM     11  C   UNL     1       2.458   0.951   0.087  0.00  0.00    +0.221 A 
ATOM     12  N   UNL     1       3.467   1.250  -0.767  0.00  0.00    -0.218 NA
ATOM     13  C   UNL     1       4.515   0.445  -0.567  0.00  0.00    +0.101 A 
ATOM     14  C   UNL     1       4.072  -0.559   0.262  0.00  0.00    +0.101 A 
ATOM     15  C   UNL     1       4.954  -1.467   0.834  0.00  0.00    +0.021 A 
ATOM     16  C   UNL     1       6.314  -1.250   0.652  0.00  0.00    +0.002 A 
ATOM     17  C   UNL     1       6.773  -0.171  -0.093  0.00  0.00    +0.002 A 
ATOM     18  C   UNL     1       5.844   0.399  -0.954  0.00  0.00    +0.021 A 
ATOM     19  N   UNL     1       2.846  -0.183   0.682  0.00  0.00    -0.218 NA
ENDBRANCH   9  11
ENDBRANCH   8   9
ENDBRANCH   3   8
BRANCH   7  20
ATOM     20  O   UNL     1      -3.955  -0.824   0.662  0.00  0.00    -0.467 OA
BRANCH  20  21
ATOM     21  C   UNL     1      -4.993  -0.005   0.177  0.00  0.00    +0.308 C 
BRANCH  21  22
ATOM     22  C   UNL     1      -5.827  -0.794  -0.808  0.00  0.00    +0.438 C 
ATOM     23  F   UNL     1      -6.884  -1.328  -0.110  0.00  0.00    -0.166 F 
ATOM     24  F   UNL     1      -6.292   0.046  -1.788  0.00  0.00    -0.166 F 
ATOM     25  F   UNL     1      -5.087  -1.829  -1.330  0.00  0.00    -0.166 F 
ENDBRANCH  21  22
ENDBRANCH  20  21
ENDBRANCH   7  20
TORSDOF 6
