REMARK  Name = 
REMARK  0 active torsions:
REMARK  status: ('A' for Active; 'I' for Inactive)
REMARK                            x       y       z     vdW  Elec       q    Type
REMARK                         _______ _______ _______ _____ _____    ______ ____
ROOT
ATOM      1  C   UNL     1       0.973  -0.285  -0.094  0.00  0.00    +0.000 C 
ATOM      2  C   UNL     1       0.919  -0.087   0.351  0.00  0.00    +0.007 C 
ATOM      3  C   UNL     1      -0.025   0.734  -0.291  0.00  0.00    +0.052 C 
ATOM      4  C   UNL     1      -0.845  -0.353  -0.933  0.00  0.00    +0.150 C 
ATOM      5  C   UNL     1      -0.896  -1.512  -0.042  0.00  0.00    +0.064 C 
ATOM      6  O   UNL     1      -0.821  -0.479  -2.161  0.00  0.00    -0.296 OA
ATOM      7  C   UNL     1       0.417   1.793  -1.202  0.00  0.00    +0.007 C 
ATOM      8  C   UNL     1      -0.848   1.251   0.829  0.00  0.00    +0.007 C 
ATOM      9  C   UNL     1      -1.113   0.113   1.680  0.00  0.00    +0.001 C 
ATOM     10  C   UNL     1      -0.029  -1.036   1.259  0.00  0.00    +0.008 C 
ATOM     11  C   UNL     1       2.268  -0.140   0.605  0.00  0.00    +0.000 C 
ENDROOT
TORSDOF 0
