REMARK  Name = 
REMARK  7 active torsions:
REMARK  status: ('A' for Active; 'I' for Inactive)
REMARK    1  A    between atoms: C_4  and  C_5
REMARK    2  A    between atoms: C_9  and  C_10
REMARK    3  A    between atoms: C_10  and  O_12
REMARK    4  A    between atoms: O_12  and  C_13
REMARK    5  A    between atoms: C_13  and  C_14
REMARK    6  A    between atoms: C_18  and  O_19
REMARK    7  A    between atoms: O_19  and  C_20
REMARK                            x       y       z     vdW  Elec       q    Type
REMARK                         _______ _______ _______ _____ _____    ______ ____
ROOT
ATOM      1  C   UNL     1       0.455  -1.888   1.369  0.00  0.00    +0.235 C 
ENDROOT
BRANCH   1   2
ATOM      2  C   UNL     1      -0.683  -1.342   0.563  0.00  0.00    +0.024 A 
ATOM      3  C   UNL     1      -1.808  -0.924   1.303  0.00  0.00    +0.037 A 
ATOM      4  C   UNL     1      -3.044  -0.889   0.674  0.00  0.00    +0.145 A 
ATOM      5  C   UNL     1      -3.098  -0.936  -0.715  0.00  0.00    +0.037 A 
ATOM      6  C   UNL     1      -2.021  -1.312  -1.473  0.00  0.00    +0.003 A 
ATOM      7  C   UNL     1      -1.015  -1.902  -0.679  0.00  0.00    -0.000 A 
BRANCH   4   8
ATOM      8  O   UNL     1      -4.177  -0.494   1.367  0.00  0.00    -0.454 OA
BRANCH   8   9
ATOM      9  C   UNL     1      -4.961   0.447   0.711  0.00  0.00    +0.145 A 
ATOM     10  C   UNL     1      -4.581   1.778   0.618  0.00  0.00    +0.037 A 
ATOM     11  C   UNL     1      -5.569   2.611   0.108  0.00  0.00    +0.003 A 
ATOM     12  C   UNL     1      -6.385   2.170  -0.924  0.00  0.00    +0.000 A 
ATOM     13  C   UNL     1      -6.354   0.821  -1.193  0.00  0.00    +0.003 A 
ATOM     14  C   UNL     1      -5.633  -0.037  -0.415  0.00  0.00    +0.037 A 
ENDBRANCH   8   9
ENDBRANCH   4   8
ENDBRANCH   1   2
BRANCH   1  15
ATOM     15  O   UNL     1       1.701  -1.252   1.077  0.00  0.00    -0.443 OA
BRANCH  15  16
ATOM     16  C   UNL     1       1.848  -1.035  -0.211  0.00  0.00    +0.317 C 
ATOM     17  O   UNL     1       1.076  -0.062  -0.543  0.00  0.00    -0.250 OA
BRANCH  16  20
ATOM     18  C   UNL     1       4.053  -2.291   0.440  0.00  0.00    +0.001 C 
ATOM     19  C   UNL     1       4.419  -1.155  -0.262  0.00  0.00    +0.015 C 
ATOM     20  C   UNL     1       3.098  -0.288  -0.924  0.00  0.00    +0.103 C 
ATOM     21  C   UNL     1       3.895   0.289   0.495  0.00  0.00    +0.035 C 
ATOM     22  C   UNL     1       5.472  -1.041  -1.227  0.00  0.00    +0.001 C 
BRANCH  21  23
ATOM     23  C   UNL     1       4.831   1.302  -0.357  0.00  0.00    -0.003 C 
ATOM     24  C   UNL     1       5.694   2.045   0.281  0.00  0.00    +0.111 C 
ATOM     25 CL   UNL     1       5.396   3.748  -0.142  0.00  0.00    -0.070 Cl
ATOM     26 CL   UNL     1       7.390   1.638  -0.051  0.00  0.00    -0.070 Cl
ENDBRANCH  21  23
ENDBRANCH  16  20
ENDBRANCH  15  16
ENDBRANCH   1  15
TORSDOF 7
