REMARK  Name = 
REMARK  5 active torsions:
REMARK  status: ('A' for Active; 'I' for Inactive)
REMARK    1  A    between atoms: N_2  and  C_3
REMARK    2  A    between atoms: N_2  and  C_12
REMARK    3  A    between atoms: C_3  and  C_4
REMARK    4  A    between atoms: C_5  and  C_6
REMARK    5  A    between atoms: C_12  and  C_13
REMARK                            x       y       z     vdW  Elec       q    Type
REMARK                         _______ _______ _______ _____ _____    ______ ____
ROOT
ATOM      1  C   UNL     1       0.296   2.174   1.945  0.00  0.00    +0.090 C 
ATOM      2  N   UNL     1      -0.383   0.985   1.449  0.00  0.00    -0.264 NA
ENDROOT
BRANCH   2   3
ATOM      3  C   UNL     1      -0.625   1.033   0.031  0.00  0.00    +0.099 C 
BRANCH   3   4
ATOM      4  C   UNL     1      -1.512  -0.094  -0.318  0.00  0.00    -0.006 A 
ATOM      5  C   UNL     1      -2.865   0.127  -0.423  0.00  0.00    -0.003 A 
ATOM      6  C   UNL     1      -3.682  -0.983  -0.379  0.00  0.00    -0.000 A 
ATOM      7  C   UNL     1      -5.051  -0.793  -0.246  0.00  0.00    -0.000 A 
ATOM      8  C   UNL     1      -5.605   0.464  -0.455  0.00  0.00    -0.000 A 
ATOM      9  C   UNL     1      -4.787   1.553  -0.724  0.00  0.00    -0.000 A 
ATOM     10  C   UNL     1      -3.132  -2.203  -0.733  0.00  0.00    -0.000 A 
ATOM     11  C   UNL     1      -1.848  -2.240  -1.260  0.00  0.00    -0.000 A 
ATOM     12  C   UNL     1      -3.439   1.385  -0.431  0.00  0.00    -0.000 A 
ATOM     13  C   UNL     1      -0.988  -1.178  -1.011  0.00  0.00    -0.003 A 
ENDBRANCH   3   4
ENDBRANCH   2   3
BRANCH   2  14
ATOM     14  C   UNL     1       0.426  -0.154   1.823  0.00  0.00    +0.099 C 
BRANCH  14  15
ATOM     15  C   UNL     1       1.866   0.114   1.612  0.00  0.00    -0.009 C 
ATOM     16  C   UNL     1       2.269   0.763   0.521  0.00  0.00    -0.003 C 
BRANCH  16  17
ATOM     17  C   UNL     1       3.609   0.560  -0.043  0.00  0.00    -0.000 A 
ATOM     18  C   UNL     1       3.801  -0.343  -1.069  0.00  0.00    -0.000 A 
ATOM     19  C   UNL     1       4.942  -1.113  -1.144  0.00  0.00    -0.000 A 
ATOM     20  C   UNL     1       6.012  -0.862  -0.297  0.00  0.00    -0.000 A 
ATOM     21  C   UNL     1       5.954   0.286   0.482  0.00  0.00    -0.000 A 
ATOM     22  C   UNL     1       4.741   0.936   0.670  0.00  0.00    -0.000 A 
ENDBRANCH  16  17
ENDBRANCH  14  15
ENDBRANCH   2  14
TORSDOF 5
