REMARK  Name = 
REMARK  12 active torsions:
REMARK  status: ('A' for Active; 'I' for Inactive)
REMARK    1  A    between atoms: C_2  and  C_4
REMARK    2  A    between atoms: C_5  and  C_6
REMARK    3  A    between atoms: N_8  and  C_9
REMARK    4  A    between atoms: C_15  and  C_16
REMARK    5  A    between atoms: C_22  and  C_23
REMARK    6  A    between atoms: N_30  and  C_31
REMARK    7  A    between atoms: C_31  and  C_32
REMARK    8  A    between atoms: C_32  and  C_33
REMARK    9  A    between atoms: C_33  and  C_35
REMARK   10  A    between atoms: C_35  and  C_36
REMARK   11  A    between atoms: C_36  and  C_38
REMARK   12  A    between atoms: C_38  and  C_39
REMARK                            x       y       z     vdW  Elec       q    Type
REMARK                         _______ _______ _______ _____ _____    ______ ____
ROOT
ATOM      1  C   UNL     1      -0.119   0.768   0.250  0.00  0.00    +0.041 A 
ATOM      2  N   UNL     1       0.442  -0.446   0.475  0.00  0.00    -0.330 N 
ATOM      3  C   UNL     1      -0.330  -1.395  -0.112  0.00  0.00    +0.060 A 
ATOM      4  C   UNL     1      -1.620  -0.876  -0.084  0.00  0.00    +0.021 A 
ATOM      5  C   UNL     1      -1.448   0.502  -0.056  0.00  0.00    +0.068 A 
ENDROOT
BRANCH   3   6
ATOM      6  C   UNL     1      -0.011  -2.785  -0.397  0.00  0.00    +0.016 A 
ATOM      7  C   UNL     1      -0.033  -3.305  -1.687  0.00  0.00    +0.004 A 
ATOM      8  C   UNL     1      -0.108  -4.683  -1.858  0.00  0.00    +0.030 A 
ATOM      9  C   UNL     1      -0.135  -5.532  -0.758  0.00  0.00    +0.140 A 
ATOM     10  F   UNL     1      -0.911  -6.655  -0.738  0.00  0.00    -0.204 F 
ATOM     11  C   UNL     1       0.458  -5.027   0.393  0.00  0.00    +0.030 A 
ATOM     12  C   UNL     1       0.523  -3.647   0.554  0.00  0.00    +0.004 A 
ENDBRANCH   3   6
BRANCH   4  13
ATOM     13  C   UNL     1      -2.880  -1.588   0.167  0.00  0.00    +0.002 A 
ATOM     14  C   UNL     1      -3.924  -1.014   0.884  0.00  0.00    +0.000 A 
ATOM     15  C   UNL     1      -4.636  -1.667   1.847  0.00  0.00    +0.000 A 
ATOM     16  C   UNL     1      -4.437  -3.005   2.048  0.00  0.00    +0.000 A 
ATOM     17  C   UNL     1      -3.635  -3.676   1.166  0.00  0.00    +0.000 A 
ATOM     18  C   UNL     1      -2.841  -2.971   0.306  0.00  0.00    +0.000 A 
ENDBRANCH   4  13
BRANCH   1  20
ATOM     19  C   UNL     1       0.558   2.814  -0.196  0.00  0.00    +0.006 C 
ATOM     20  C   UNL     1       0.488   2.096   0.461  0.00  0.00    +0.038 C 
ATOM     21  C   UNL     1       0.332   2.585   1.896  0.00  0.00    +0.006 C 
ENDBRANCH   1  20
BRANCH   5  22
ATOM     22  C   UNL     1      -2.375   1.416  -0.735  0.00  0.00    +0.270 C 
ATOM     23  N   UNL     1      -3.534   1.943  -0.125  0.00  0.00    -0.175 NA
ATOM     24  O   UNL     1      -1.875   2.130  -1.658  0.00  0.00    -0.268 OA
BRANCH  23  25
ATOM     25  C   UNL     1      -4.086   3.210  -0.385  0.00  0.00    +0.074 A 
ATOM     26  C   UNL     1      -5.300   3.533   0.164  0.00  0.00    +0.017 A 
ATOM     27  C   UNL     1      -5.608   4.862   0.428  0.00  0.00    +0.001 A 
ATOM     28  C   UNL     1      -4.650   5.854   0.267  0.00  0.00    +0.000 A 
ATOM     29  C   UNL     1      -3.511   5.533  -0.414  0.00  0.00    +0.001 A 
ATOM     30  C   UNL     1      -3.318   4.242  -0.868  0.00  0.00    +0.017 A 
ENDBRANCH  23  25
ENDBRANCH   5  22
BRANCH   2  31
ATOM     31  C   UNL     1       1.766  -0.663   1.044  0.00  0.00    +0.108 C 
BRANCH  31  32
ATOM     32  C   UNL     1       2.720   0.114   0.145  0.00  0.00    +0.057 C 
BRANCH  32  33
ATOM     33  C   UNL     1       3.979  -0.928  -0.100  0.00  0.00    +0.156 C 
ATOM     34  O   UNL     1       4.385  -0.846   1.363  0.00  0.00    -0.223 OA
BRANCH  33  35
ATOM     35  C   UNL     1       4.992   0.307  -0.519  0.00  0.00    +0.066 C 
BRANCH  35  36
ATOM     36  C   UNL     1       6.405  -0.280   0.103  0.00  0.00    +0.166 C 
ATOM     37  O   UNL     1       6.354   0.680   1.283  0.00  0.00    -0.222 OA
BRANCH  36  38
ATOM     38  C   UNL     1       7.314   0.733  -0.822  0.00  0.00    +0.147 C 
BRANCH  38  39
ATOM     39  C   UNL     1       6.952   2.099  -0.548  0.00  0.00    +0.367 C 
ATOM     40  O   UNL     1       5.808   2.620  -0.005  0.00  0.00    -0.246 OA
ATOM     41  O   UNL     1       7.851   2.949  -0.831  0.00  0.00    -0.246 OA
ENDBRANCH  38  39
ENDBRANCH  36  38
ENDBRANCH  35  36
ENDBRANCH  33  35
ENDBRANCH  32  33
ENDBRANCH  31  32
ENDBRANCH   2  31
TORSDOF 12
