REMARK  Name = 
REMARK  3 active torsions:
REMARK  status: ('A' for Active; 'I' for Inactive)
REMARK    1  A    between atoms: C_17  and  O_18
REMARK    2  A    between atoms: O_18  and  C_19
REMARK    3  A    between atoms: C_32  and  C_33
REMARK                            x       y       z     vdW  Elec       q    Type
REMARK                         _______ _______ _______ _____ _____    ______ ____
ROOT
ATOM      1  C   UNL     1       6.719  -4.891   1.069  0.00  0.00    +0.007 C 
ATOM      2  C   UNL     1       6.440  -3.406   0.485  0.00  0.00    +0.053 C 
ATOM      3  C   UNL     1       7.721  -3.604  -0.638  0.00  0.00    +0.159 C 
ATOM      4  O   UNL     1       8.742  -3.440   0.450  0.00  0.00    -0.223 OA
ATOM      5  C   UNL     1       7.574  -1.982  -1.112  0.00  0.00    +0.071 C 
ATOM      6  C   UNL     1       8.982  -1.972  -1.884  0.00  0.00    +0.006 C 
ATOM      7  C   UNL     1       8.007  -1.236   0.368  0.00  0.00    +0.171 C 
ATOM      8  C   UNL     1       9.653  -1.254   0.197  0.00  0.00    +0.047 C 
ATOM      9  O   UNL     1       7.936   0.007  -0.491  0.00  0.00    -0.452 OA
ATOM     10  C   UNL     1       7.959   1.151   0.253  0.00  0.00    +0.319 C 
ATOM     11  O   UNL     1       8.253   1.764  -0.798  0.00  0.00    -0.250 OA
ATOM     12  C   UNL     1       6.710   1.461   0.962  0.00  0.00    +0.142 C 
ATOM     13  C   UNL     1       6.960   3.114   0.956  0.00  0.00    +0.166 C 
ATOM     14  O   UNL     1       7.199   3.277  -0.537  0.00  0.00    -0.222 OA
ATOM     15  C   UNL     1       5.379   3.486   0.655  0.00  0.00    +0.066 C 
ATOM     16  C   UNL     1       5.596   4.530  -0.627  0.00  0.00    +0.157 C 
ATOM     17  O   UNL     1       4.639   3.726  -1.490  0.00  0.00    -0.223 OA
ATOM     18  C   UNL     1       4.475   5.583  -0.072  0.00  0.00    +0.066 C 
ATOM     19  C   UNL     1       3.235   4.545   0.252  0.00  0.00    +0.155 C 
ATOM     20  O   UNL     1       2.885   5.327   1.506  0.00  0.00    -0.223 OA
ATOM     21  C   UNL     1       2.281   5.410  -0.771  0.00  0.00    +0.036 C 
ATOM     22  C   UNL     1       2.044   6.735  -0.176  0.00  0.00    +0.038 C 
ATOM     23  C   UNL     1       0.418   7.004  -0.120  0.00  0.00    +0.183 C 
ATOM     24  O   UNL     1       0.346   6.925  -1.634  0.00  0.00    -0.220 OA
ATOM     25  C   UNL     1       0.053   5.304   0.030  0.00  0.00    +0.189 C 
ATOM     26  O   UNL     1      -0.487   5.552   1.430  0.00  0.00    -0.220 OA
ATOM     27  C   UNL     1      -1.403   5.539  -0.697  0.00  0.00    +0.100 C 
ATOM     28  C   UNL     1      -2.453   5.032   0.139  0.00  0.00    +0.156 C 
ATOM     29  O   UNL     1      -3.404   5.785   0.343  0.00  0.00    -0.296 OA
ATOM     30  C   UNL     1      -2.283   3.809   0.908  0.00  0.00    +0.098 C 
ATOM     31  C   UNL     1      -2.796   2.570  -0.051  0.00  0.00    +0.172 C 
ATOM     32  O   UNL     1      -2.748   1.654   1.157  0.00  0.00    -0.222 OA
ATOM     33  C   UNL     1      -4.428   3.091   0.105  0.00  0.00    +0.164 C 
ATOM     34  C   UNL     1      -5.005   1.700   0.919  0.00  0.00    +0.168 C 
ATOM     35  O   UNL     1      -6.412   1.964   0.425  0.00  0.00    -0.222 OA
ATOM     36  C   UNL     1      -4.627   0.673  -0.305  0.00  0.00    +0.068 C 
ATOM     37  C   UNL     1      -4.790  -0.708   0.591  0.00  0.00    +0.142 C 
ATOM     38  C   UNL     1      -3.721  -1.488  -0.363  0.00  0.00    +0.003 C 
ATOM     39  C   UNL     1      -3.857  -2.709  -0.612  0.00  0.00    -0.002 C 
ATOM     40  C   UNL     1      -3.445  -3.593   0.462  0.00  0.00    -0.000 C 
ATOM     41  C   UNL     1      -2.155  -3.804   0.452  0.00  0.00    -0.000 C 
ATOM     42  C   UNL     1      -2.043  -5.283   0.323  0.00  0.00    -0.000 C 
ATOM     43  C   UNL     1      -1.920  -5.634  -0.934  0.00  0.00    -0.000 C 
ATOM     44  C   UNL     1      -0.607  -6.236  -1.239  0.00  0.00    -0.005 C 
ATOM     45  C   UNL     1       0.367  -6.225  -0.339  0.00  0.00    -0.026 C 
ATOM     46  C   UNL     1       1.517  -7.133  -0.361  0.00  0.00    +0.031 C 
ATOM     47  C   UNL     1       2.491  -6.741   0.719  0.00  0.00    +0.031 C 
ATOM     48  C   UNL     1       3.306  -5.574   0.337  0.00  0.00    -0.026 C 
ATOM     49  C   UNL     1       3.823  -5.578  -0.893  0.00  0.00    -0.005 C 
ATOM     50  C   UNL     1       5.203  -5.079  -0.956  0.00  0.00    -0.005 C 
ATOM     51  C   UNL     1       5.369  -3.862  -0.596  0.00  0.00    -0.024 C 
ENDROOT
BRANCH  33  52
ATOM     52  C   UNL     1      -4.786   2.689  -1.385  0.00  0.00    +0.369 C 
ATOM     53  O   UNL     1      -6.052   2.298  -1.732  0.00  0.00    -0.245 OA
ATOM     54  O   UNL     1      -4.391   3.460  -2.302  0.00  0.00    -0.245 OA
ENDBRANCH  33  52
BRANCH  37  55
ATOM     55  O   UNL     1      -5.980  -1.098  -0.262  0.00  0.00    -0.327 OA
BRANCH  55  56
ATOM     56  C   UNL     1      -7.023  -0.963   0.863  0.00  0.00    +0.268 C 
ATOM     57  C   UNL     1      -8.442  -1.046  -0.154  0.00  0.00    +0.228 C 
ATOM     58  O   UNL     1      -8.007  -1.975  -1.283  0.00  0.00    -0.216 OA
ATOM     59  C   UNL     1      -9.266  -2.134   0.861  0.00  0.00    +0.160 C 
ATOM     60  N   UNL     1     -10.496  -2.032  -0.058  0.00  0.00    -0.127 NA
ATOM     61  C   UNL     1      -8.785  -3.567   0.133  0.00  0.00    +0.199 C 
ATOM     62  O   UNL     1      -8.324  -4.258   1.374  0.00  0.00    -0.219 OA
ATOM     63  C   UNL     1      -7.239  -2.834  -0.089  0.00  0.00    +0.150 C 
ATOM     64  C   UNL     1      -7.955  -1.401  -0.309  0.00  0.00    +0.035 C 
ATOM     65  O   UNL     1      -6.953  -2.423   1.320  0.00  0.00    -0.328 OA
ENDBRANCH  55  56
ENDBRANCH  37  55
TORSDOF 3
