REMARK  Name = 
REMARK  7 active torsions:
REMARK  status: ('A' for Active; 'I' for Inactive)
REMARK    1  A    between atoms: N_10  and  C_11
REMARK    2  A    between atoms: N_14  and  C_15
REMARK    3  A    between atoms: C_15  and  C_16
REMARK    4  A    between atoms: C_16  and  C_17
REMARK    5  A    between atoms: C_17  and  C_18
REMARK    6  A    between atoms: C_18  and  C_19
REMARK    7  A    between atoms: C_18  and  C_26
REMARK                            x       y       z     vdW  Elec       q    Type
REMARK                         _______ _______ _______ _____ _____    ______ ____
ROOT
ATOM      1  C   UNL     1      -0.958   0.217  -0.477  0.00  0.00    +0.072 C 
ENDROOT
BRANCH   1   5
ATOM      2  C   UNL     1       3.098   0.466   0.435  0.00  0.00    +0.093 C 
ATOM      3  C   UNL     1       2.683  -0.177  -0.868  0.00  0.00    +0.040 C 
ATOM      4  C   UNL     1       1.258  -0.676  -0.661  0.00  0.00    +0.074 C 
ATOM      5  N   UNL     1       0.452   0.511  -0.391  0.00  0.00    -0.273 NA
ATOM      6  C   UNL     1       0.792   1.076   0.907  0.00  0.00    +0.074 C 
ATOM      7  C   UNL     1       2.211   1.611   0.835  0.00  0.00    +0.040 C 
BRANCH   2  10
ATOM      8  O   UNL     1       4.408   2.264  -1.550  0.00  0.00    -0.244 OA
ATOM      9  C   UNL     1       5.069   1.550  -0.545  0.00  0.00    +0.350 A 
ATOM     10  N   UNL     1       4.499   0.800   0.426  0.00  0.00    -0.280 N 
ATOM     11  C   UNL     1       5.455  -0.071   0.830  0.00  0.00    +0.082 A 
ATOM     12  C   UNL     1       6.641   0.331   0.275  0.00  0.00    +0.102 A 
ATOM     13  C   UNL     1       7.782  -0.428   0.481  0.00  0.00    +0.021 A 
ATOM     14  C   UNL     1       7.679  -1.733   0.933  0.00  0.00    +0.002 A 
ATOM     15  C   UNL     1       6.473  -2.196   1.414  0.00  0.00    +0.002 A 
ATOM     16  C   UNL     1       5.439  -1.278   1.516  0.00  0.00    +0.019 A 
ATOM     17  N   UNL     1       6.396   1.331  -0.578  0.00  0.00    -0.191 NA
ENDBRANCH   2  10
ENDBRANCH   1   5
BRANCH   1  18
ATOM     18  C   UNL     1      -1.134  -1.112  -1.155  0.00  0.00    +0.018 C 
BRANCH  18  19
ATOM     19  C   UNL     1      -2.319  -1.164  -2.074  0.00  0.00    +0.010 C 
BRANCH  19  20
ATOM     20  C   UNL     1      -3.640  -1.046  -1.386  0.00  0.00    +0.045 C 
BRANCH  20  21
ATOM     21  C   UNL     1      -4.284   0.270  -1.541  0.00  0.00    -0.018 A 
ATOM     22  C   UNL     1      -3.660   1.397  -2.011  0.00  0.00    -0.002 A 
ATOM     23  C   UNL     1      -4.272   2.625  -1.940  0.00  0.00    +0.029 A 
ATOM     24  C   UNL     1      -5.570   2.741  -1.467  0.00  0.00    +0.140 A 
ATOM     25  F   UNL     1      -6.065   3.935  -1.044  0.00  0.00    -0.204 F 
ATOM     26  C   UNL     1      -6.287   1.577  -1.340  0.00  0.00    +0.029 A 
ATOM     27  C   UNL     1      -5.662   0.348  -1.385  0.00  0.00    -0.002 A 
ENDBRANCH  20  21
BRANCH  20  28
ATOM     28  C   UNL     1      -3.628  -1.397   0.041  0.00  0.00    -0.018 A 
ATOM     29  C   UNL     1      -4.726  -0.998   0.796  0.00  0.00    -0.002 A 
ATOM     30  C   UNL     1      -4.912  -1.422   2.085  0.00  0.00    +0.029 A 
ATOM     31  C   UNL     1      -3.841  -2.015   2.733  0.00  0.00    +0.140 A 
ATOM     32  F   UNL     1      -3.899  -2.156   4.074  0.00  0.00    -0.204 F 
ATOM     33  C   UNL     1      -2.679  -2.252   2.008  0.00  0.00    +0.029 A 
ATOM     34  C   UNL     1      -2.799  -2.321   0.625  0.00  0.00    -0.002 A 
ENDBRANCH  20  28
ENDBRANCH  19  20
ENDBRANCH  18  19
ENDBRANCH   1  18
TORSDOF 7
