REMARK  Name = 
REMARK  9 active torsions:
REMARK  status: ('A' for Active; 'I' for Inactive)
REMARK    1  A    between atoms: O_2  and  C_3
REMARK    2  A    between atoms: C_5  and  C_6
REMARK    3  A    between atoms: C_6  and  C_7
REMARK    4  A    between atoms: C_7  and  C_9
REMARK    5  A    between atoms: C_20  and  O_21
REMARK    6  A    between atoms: C_37  and  O_38
REMARK    7  A    between atoms: C_64  and  O_65
REMARK    8  A    between atoms: O_65  and  C_66
REMARK    9  A    between atoms: C_66  and  C_67
REMARK                            x       y       z     vdW  Elec       q    Type
REMARK                         _______ _______ _______ _____ _____    ______ ____
ROOT
ATOM      1  C   UNL     1       2.624  -0.402  -0.224  0.00  0.00    +0.176 C 
ATOM      2  O   UNL     1       2.207  -1.551   0.691  0.00  0.00    -0.451 OA
ATOM      3  C   UNL     1       2.522  -2.838   0.197  0.00  0.00    +0.335 C 
ATOM      4  O   UNL     1       2.649  -3.640   1.129  0.00  0.00    -0.248 OA
ATOM      5  C   UNL     1       1.175  -2.972  -0.703  0.00  0.00    +0.175 C 
ATOM      6  N   UNL     1       1.222  -4.510  -1.043  0.00  0.00    -0.265 N 
ATOM      7  C   UNL     1       2.348  -5.249  -1.329  0.00  0.00    +0.094 C 
ATOM      8  C   UNL     1       3.649  -4.557  -1.582  0.00  0.00    +0.022 C 
ATOM      9  C   UNL     1       3.250  -3.301  -2.179  0.00  0.00    +0.004 C 
ATOM     10  C   UNL     1       0.059  -4.586  -1.905  0.00  0.00    +0.289 C 
ATOM     11  O   UNL     1       0.029  -5.238  -2.998  0.00  0.00    -0.267 OA
ATOM     12  C   UNL     1      -1.144  -3.897  -1.367  0.00  0.00    +0.279 C 
ATOM     13  O   UNL     1      -2.197  -4.222  -2.030  0.00  0.00    -0.281 OA
ATOM     14  C   UNL     1      -1.308  -3.913   0.048  0.00  0.00    +0.279 C 
ATOM     15  O   UNL     1      -2.585  -3.322   0.302  0.00  0.00    -0.329 OA
ATOM     16  C   UNL     1      -2.650  -3.252   1.827  0.00  0.00    +0.121 C 
ATOM     17  C   UNL     1      -3.270  -4.769   1.947  0.00  0.00    +0.030 C 
ATOM     18  C   UNL     1      -3.080  -5.523   0.778  0.00  0.00    +0.008 C 
ATOM     19  C   UNL     1      -4.082  -2.466   1.899  0.00  0.00    +0.063 C 
ATOM     20  C   UNL     1      -5.119  -3.417   1.055  0.00  0.00    +0.136 C 
ATOM     21  C   UNL     1      -6.308  -2.450   1.579  0.00  0.00    -0.017 C 
ATOM     22  C   UNL     1      -6.546  -2.883   3.005  0.00  0.00    +0.029 C 
ATOM     23  C   UNL     1      -7.144  -1.909   0.804  0.00  0.00    -0.006 C 
ATOM     24  C   UNL     1      -7.198  -0.505   0.366  0.00  0.00    -0.001 C 
ATOM     25  C   UNL     1      -6.045   0.049   0.163  0.00  0.00    -0.000 C 
ATOM     26  C   UNL     1      -6.028   1.061  -0.905  0.00  0.00    -0.005 C 
ATOM     27  C   UNL     1      -6.738   2.137  -0.623  0.00  0.00    -0.026 C 
ATOM     28  C   UNL     1      -6.639   2.589   0.914  0.00  0.00    +0.022 C 
ATOM     29  C   UNL     1      -8.225   2.980   0.978  0.00  0.00    +0.005 C 
ATOM     30  C   UNL     1      -6.202   4.114   0.544  0.00  0.00    +0.012 C 
ATOM     31  C   UNL     1      -4.658   3.907   0.043  0.00  0.00    +0.061 C 
ATOM     32  C   UNL     1      -4.224   3.072   1.383  0.00  0.00    +0.008 C 
ATOM     33  C   UNL     1      -4.192   5.307   0.649  0.00  0.00    +0.180 C 
ATOM     34  O   UNL     1      -4.490   5.596   1.757  0.00  0.00    -0.293 OA
ATOM     35  C   UNL     1      -2.773   5.822   0.102  0.00  0.00    +0.206 C 
ATOM     36  C   UNL     1      -2.004   4.305   0.386  0.00  0.00    +0.204 C 
ATOM     37  O   UNL     1      -1.655   4.703   1.801  0.00  0.00    -0.216 OA
ATOM     38  C   UNL     1      -0.588   4.809  -0.195  0.00  0.00    -0.015 C 
ATOM     39  C   UNL     1      -0.132   6.156   0.180  0.00  0.00    +0.029 C 
ATOM     40  C   UNL     1       0.332   3.861  -0.390  0.00  0.00    -0.025 C 
ATOM     41  C   UNL     1      -0.174   2.348  -0.158  0.00  0.00    +0.079 C 
ATOM     42  C   UNL     1      -0.807   2.264  -1.668  0.00  0.00    +0.012 C 
ATOM     43  C   UNL     1       1.214   1.659  -0.589  0.00  0.00    +0.158 C 
ATOM     44  O   UNL     1       1.792   2.054  -1.530  0.00  0.00    -0.296 OA
ATOM     45  O   UNL     1      -0.659  -3.498   1.097  0.00  0.00    -0.187 OA
ATOM     46  C   UNL     1      -1.575  -5.541   0.183  0.00  0.00    +0.062 C 
ATOM     47  C   UNL     1      -0.893  -5.762   1.651  0.00  0.00    +0.006 C 
ATOM     48  C   UNL     1       2.048  -2.605  -2.049  0.00  0.00    +0.031 C 
ATOM     49  C   UNL     1       1.491   0.610   0.377  0.00  0.00    +0.108 C 
ENDROOT
BRANCH  35  50
ATOM     50  O   UNL     1      -3.060   5.457  -1.336  0.00  0.00    -0.343 OA
ATOM     51  C   UNL     1      -2.868   6.671  -2.025  0.00  0.00    +0.175 C 
ENDBRANCH  35  50
BRANCH   1  52
ATOM     52  C   UNL     1       3.725   0.096   1.000  0.00  0.00    +0.041 C 
ATOM     53  C   UNL     1       4.758  -1.092   0.609  0.00  0.00    +0.004 C 
BRANCH  52  54
ATOM     54  C   UNL     1       4.320   1.298   0.105  0.00  0.00    +0.004 C 
BRANCH  54  59
ATOM     55  C   UNL     1       7.576   1.653  -1.535  0.00  0.00    +0.142 C 
ATOM     56  C   UNL     1       8.513   2.319  -0.251  0.00  0.00    +0.142 C 
ATOM     57  C   UNL     1       7.340   2.454   0.868  0.00  0.00    +0.032 C 
ATOM     58  C   UNL     1       6.520   1.319   1.042  0.00  0.00    +0.003 C 
ATOM     59  C   UNL     1       5.805   0.825  -0.331  0.00  0.00    +0.003 C 
ATOM     60  C   UNL     1       6.122   2.250  -1.071  0.00  0.00    +0.032 C 
BRANCH  55  62
ATOM     61  C   UNL     1       7.232   3.220  -2.546  0.00  0.00    +0.174 C 
ATOM     62  O   UNL     1       7.863   2.853  -2.400  0.00  0.00    -0.351 OA
ENDBRANCH  55  62
BRANCH  56  63
ATOM     63  O   UNL     1       8.905   0.931   0.188  0.00  0.00    -0.351 OA
BRANCH  63  64
ATOM     64  C   UNL     1       9.118   0.933   1.526  0.00  0.00    +0.178 C 
BRANCH  64  65
ATOM     65  C   UNL     1      10.064   1.934   2.061  0.00  0.00    +0.214 C 
ATOM     66  O   UNL     1      11.090   2.301   1.212  0.00  0.00    -0.218 OA
ENDBRANCH  64  65
ENDBRANCH  63  64
ENDBRANCH  56  63
ENDBRANCH  54  59
ENDBRANCH  52  54
ENDBRANCH   1  52
BRANCH  20  67
ATOM     67  O   UNL     1      -4.902  -2.636  -0.230  0.00  0.00    -0.349 OA
ATOM     68  C   UNL     1      -5.398  -3.409  -1.253  0.00  0.00    +0.174 C 
ENDBRANCH  20  67
TORSDOF 9
