REMARK  Name = 
REMARK  3 active torsions:
REMARK  status: ('A' for Active; 'I' for Inactive)
REMARK    1  A    between atoms: CG_2  and  CB_4
REMARK    2  A    between atoms: CB_4  and  CA_5
REMARK    3  A    between atoms: CA_5  and  C_7
REMARK                            x       y       z     vdW  Elec       q    Type
REMARK                         _______ _______ _______ _____ _____    ______ ____
ROOT
ATOM      1  CA  LEU A   1      -0.374   0.380  -0.840  0.00  0.00    +0.194 C 
ATOM      2  N   LEU A   1      -1.073   1.784  -0.672  0.00  0.00    -0.121 NA
ENDROOT
BRANCH   1   3
ATOM      3  C   LEU A   1      -1.464  -0.359   0.087  0.00  0.00    +0.382 C 
ATOM      4  OXT LEU A   1      -1.782   0.182   1.292  0.00  0.00    -0.244 OA
ATOM      5  O   LEU A   1      -2.288  -1.041  -0.569  0.00  0.00    -0.244 OA
ENDBRANCH   1   3
BRANCH   1   6
ATOM      6  CB  LEU A   1       0.646   0.676   0.419  0.00  0.00    +0.031 C 
BRANCH   6   8
ATOM      7  CD1 LEU A   1       1.462  -1.506  -0.279  0.00  0.00    +0.000 C 
ATOM      8  CG  LEU A   1       1.752  -0.253   0.108  0.00  0.00    +0.002 C 
ATOM      9  CD2 LEU A   1       3.120   0.137   0.455  0.00  0.00    +0.000 C 
ENDBRANCH   6   8
ENDBRANCH   1   6
TORSDOF 3
