REMARK  Name = 
REMARK  8 active torsions:
REMARK  status: ('A' for Active; 'I' for Inactive)
REMARK    1  A    between atoms: O_2  and  C_3
REMARK    2  A    between atoms: C_3  and  N_4
REMARK    3  A    between atoms: C_5  and  C_7
REMARK    4  A    between atoms: C_7  and  C_8
REMARK    5  A    between atoms: C_16  and  C_17
REMARK    6  A    between atoms: C_20  and  C_21
REMARK    7  A    between atoms: C_21  and  O_22
REMARK    8  A    between atoms: O_22  and  C_23
REMARK                            x       y       z     vdW  Elec       q    Type
REMARK                         _______ _______ _______ _____ _____    ______ ____
ROOT
ATOM      1  C   UNL     1       1.098  -1.055  -0.296  0.00  0.00    +0.268 C 
ATOM      2  C   UNL     1      -0.021  -0.414   0.638  0.00  0.00    +0.181 C 
ATOM      3  N   UNL     1      -1.018  -0.917  -0.401  0.00  0.00    -0.238 N 
ATOM      4  C   UNL     1      -2.342  -0.426  -0.179  0.00  0.00    +0.131 C 
ATOM      5  C   UNL     1      -2.593   0.706   0.480  0.00  0.00    +0.030 C 
ATOM      6  C   UNL     1      -1.726   1.879   0.131  0.00  0.00    +0.086 C 
ATOM      7  S   UNL     1       0.007   1.355  -0.112  0.00  0.00    -0.112 S 
ATOM      8  C   UNL     1       0.074  -0.958  -1.337  0.00  0.00    +0.277 C 
ATOM      9  O   UNL     1       0.048  -1.448  -2.509  0.00  0.00    -0.270 OA
ENDROOT
BRANCH   4  10
ATOM     10  C   UNL     1      -3.364  -1.308  -0.700  0.00  0.00    +0.401 C 
ATOM     11  O   UNL     1      -3.901  -1.255  -1.962  0.00  0.00    -0.239 OA
ATOM     12  O   UNL     1      -3.691  -2.297   0.025  0.00  0.00    -0.239 OA
ENDBRANCH   4  10
BRANCH   1  13
ATOM     13  N   UNL     1       2.253  -0.239  -0.335  0.00  0.00    -0.171 NA
ATOM     14  C   UNL     1       2.894   0.280   0.840  0.00  0.00    +0.249 C 
ATOM     15  O   UNL     1       2.152   0.279   1.872  0.00  0.00    -0.273 OA
BRANCH  14  16
ATOM     16  C   UNL     1       4.320  -0.001   1.178  0.00  0.00    +0.120 C 
BRANCH  16  17
ATOM     17  C   UNL     1       5.273   0.767   0.334  0.00  0.00    +0.016 A 
ATOM     18  S   UNL     1       6.334   0.004  -0.781  0.00  0.00    -0.090 S 
ATOM     19  C   UNL     1       7.649   1.109  -0.718  0.00  0.00    +0.035 A 
ATOM     20  C   UNL     1       7.317   1.785   0.451  0.00  0.00    +0.007 A 
ATOM     21  C   UNL     1       5.966   1.921   0.590  0.00  0.00    +0.003 A 
ENDBRANCH  16  17
ENDBRANCH  14  16
ENDBRANCH   1  13
BRANCH   1  23
ATOM     22  C   UNL     1       0.930  -2.886  -0.122  0.00  0.00    +0.177 C 
ATOM     23  O   UNL     1       1.277  -2.405   0.036  0.00  0.00    -0.328 OA
ENDBRANCH   1  23
BRANCH   5  24
ATOM     24  C   UNL     1      -3.957   0.928   0.981  0.00  0.00    +0.235 C 
BRANCH  24  25
ATOM     25  O   UNL     1      -4.949   0.584   0.036  0.00  0.00    -0.428 OA
BRANCH  25  26
ATOM     26  C   UNL     1      -6.262   0.506   0.507  0.00  0.00    +0.441 C 
ATOM     27  O   UNL     1      -6.563   0.747   1.700  0.00  0.00    -0.223 OA
ATOM     28  N   UNL     1      -7.204  -0.143  -0.345  0.00  0.00    -0.048 NA
ENDBRANCH  25  26
ENDBRANCH  24  25
ENDBRANCH   5  24
TORSDOF 8
