REMARK  Name = 
REMARK  1 active torsions:
REMARK  status: ('A' for Active; 'I' for Inactive)
REMARK    1  A    between atoms: C_4  and  C_5
REMARK                            x       y       z     vdW  Elec       q    Type
REMARK                         _______ _______ _______ _____ _____    ______ ____
ROOT
ATOM      1  C   UNL     1      -0.113  -0.376  -0.164  0.00  0.00    -0.021 A 
ATOM      2  C   UNL     1      -0.679   0.436  -1.092  0.00  0.00    -0.004 A 
ATOM      3  C   UNL     1      -2.045   0.658  -0.950  0.00  0.00    -0.000 A 
ATOM      4  C   UNL     1      -2.656   0.249   0.230  0.00  0.00    -0.000 A 
ATOM      5  C   UNL     1      -2.192  -0.986   0.671  0.00  0.00    -0.000 A 
ATOM      6  C   UNL     1      -0.841  -1.294   0.525  0.00  0.00    -0.004 A 
ENDROOT
BRANCH   1   9
ATOM      7  N   UNL     1       3.412   0.838  -0.250  0.00  0.00    -0.133 NA
ATOM      8  C   UNL     1       1.858   1.058  -0.045  0.00  0.00    +0.096 C 
ATOM      9  C   UNL     1       1.481  -0.610  -0.245  0.00  0.00    +0.041 C 
ATOM     10  C   UNL     1       1.776   0.026   1.321  0.00  0.00    +0.025 C 
ENDBRANCH   1   9
TORSDOF 1
