REMARK  Name = 
REMARK  12 active torsions:
REMARK  status: ('A' for Active; 'I' for Inactive)
REMARK    1  A    between atoms: C_2  and  C_4
REMARK    2  A    between atoms: C_5  and  C_6
REMARK    3  A    between atoms: N_8  and  C_9
REMARK    4  A    between atoms: C_15  and  C_16
REMARK    5  A    between atoms: C_22  and  C_23
REMARK    6  A    between atoms: N_30  and  C_31
REMARK    7  A    between atoms: C_31  and  C_32
REMARK    8  A    between atoms: C_32  and  C_33
REMARK    9  A    between atoms: C_33  and  C_35
REMARK   10  A    between atoms: C_35  and  C_36
REMARK   11  A    between atoms: C_36  and  C_38
REMARK   12  A    between atoms: C_38  and  C_39
REMARK                            x       y       z     vdW  Elec       q    Type
REMARK                         _______ _______ _______ _____ _____    ______ ____
ROOT
ATOM      1  C   UNL     1      -0.086   0.877   0.054  0.00  0.00    +0.041 A 
ATOM      2  N   UNL     1       0.627  -0.232  -0.256  0.00  0.00    -0.330 N 
ATOM      3  C   UNL     1      -0.179  -1.293  -0.078  0.00  0.00    +0.060 A 
ATOM      4  C   UNL     1      -1.336  -0.907   0.588  0.00  0.00    +0.021 A 
ATOM      5  C   UNL     1      -1.312   0.478   0.564  0.00  0.00    +0.068 A 
ENDROOT
BRANCH   3   6
ATOM      6  C   UNL     1       0.050  -2.601  -0.702  0.00  0.00    +0.016 A 
ATOM      7  C   UNL     1      -0.537  -3.762  -0.232  0.00  0.00    +0.004 A 
ATOM      8  C   UNL     1      -0.948  -4.771  -1.094  0.00  0.00    +0.030 A 
ATOM      9  C   UNL     1      -0.915  -4.561  -2.466  0.00  0.00    +0.140 A 
ATOM     10  F   UNL     1      -1.862  -5.037  -3.303  0.00  0.00    -0.204 F 
ATOM     11  C   UNL     1      -0.015  -3.600  -2.906  0.00  0.00    +0.030 A 
ATOM     12  C   UNL     1       0.466  -2.637  -2.028  0.00  0.00    +0.004 A 
ENDBRANCH   3   6
BRANCH   4  13
ATOM     13  C   UNL     1      -2.024  -1.754   1.535  0.00  0.00    +0.002 A 
ATOM     14  C   UNL     1      -3.204  -2.430   1.255  0.00  0.00    +0.000 A 
ATOM     15  C   UNL     1      -3.699  -3.338   2.161  0.00  0.00    +0.000 A 
ATOM     16  C   UNL     1      -3.433  -3.185   3.516  0.00  0.00    +0.000 A 
ATOM     17  C   UNL     1      -2.559  -2.170   3.861  0.00  0.00    +0.000 A 
ATOM     18  C   UNL     1      -1.707  -1.686   2.887  0.00  0.00    +0.000 A 
ENDBRANCH   4  13
BRANCH   1  20
ATOM     19  C   UNL     1       0.246   2.348  -0.563  0.00  0.00    +0.006 C 
ATOM     20  C   UNL     1       0.223   2.295  -0.223  0.00  0.00    +0.038 C 
ATOM     21  C   UNL     1       0.336   3.092   1.065  0.00  0.00    +0.006 C 
ENDBRANCH   1  20
BRANCH   5  22
ATOM     22  C   UNL     1      -2.542   1.260   0.725  0.00  0.00    +0.270 C 
ATOM     23  N   UNL     1      -2.655   2.419  -0.105  0.00  0.00    -0.175 NA
ATOM     24  O   UNL     1      -3.127   1.344   1.843  0.00  0.00    -0.268 OA
BRANCH  23  25
ATOM     25  C   UNL     1      -3.945   3.015  -0.286  0.00  0.00    +0.074 A 
ATOM     26  C   UNL     1      -5.079   2.404   0.194  0.00  0.00    +0.017 A 
ATOM     27  C   UNL     1      -6.274   2.563  -0.491  0.00  0.00    +0.001 A 
ATOM     28  C   UNL     1      -6.333   3.153  -1.747  0.00  0.00    +0.000 A 
ATOM     29  C   UNL     1      -5.260   3.944  -2.104  0.00  0.00    +0.001 A 
ATOM     30  C   UNL     1      -4.095   3.902  -1.346  0.00  0.00    +0.017 A 
ENDBRANCH  23  25
ENDBRANCH   5  22
BRANCH   2  31
ATOM     31  C   UNL     1       2.057  -0.215  -0.531  0.00  0.00    +0.108 C 
BRANCH  31  32
ATOM     32  C   UNL     1       2.783   0.622   0.498  0.00  0.00    +0.057 C 
BRANCH  32  33
ATOM     33  C   UNL     1       3.948   1.421  -0.402  0.00  0.00    +0.156 C 
ATOM     34  O   UNL     1       3.923   2.618   0.571  0.00  0.00    -0.223 OA
BRANCH  33  35
ATOM     35  C   UNL     1       5.190   0.675   0.442  0.00  0.00    +0.066 C 
BRANCH  35  36
ATOM     36  C   UNL     1       5.893  -0.052  -0.896  0.00  0.00    +0.166 C 
ATOM     37  O   UNL     1       6.201   1.320  -1.531  0.00  0.00    -0.222 OA
BRANCH  36  38
ATOM     38  C   UNL     1       7.387  -0.145  -0.145  0.00  0.00    +0.147 C 
BRANCH  38  39
ATOM     39  C   UNL     1       7.665   1.200   0.351  0.00  0.00    +0.367 C 
ATOM     40  O   UNL     1       8.859   1.750  -0.127  0.00  0.00    -0.246 OA
ATOM     41  O   UNL     1       7.277   1.681   1.451  0.00  0.00    -0.246 OA
ENDBRANCH  38  39
ENDBRANCH  36  38
ENDBRANCH  35  36
ENDBRANCH  33  35
ENDBRANCH  32  33
ENDBRANCH  31  32
ENDBRANCH   2  31
TORSDOF 12
