REMARK  Name = 
REMARK  2 active torsions:
REMARK  status: ('A' for Active; 'I' for Inactive)
REMARK    1  A    between atoms: C_20  and  C_21
REMARK    2  A    between atoms: C_30  and  C_31
REMARK                            x       y       z     vdW  Elec       q    Type
REMARK                         _______ _______ _______ _____ _____    ______ ____
ROOT
ATOM      1  C   UNL     1      -4.752  -2.423   0.734  0.00  0.00    +0.032 C 
ATOM      2  C   UNL     1      -3.848  -2.630  -0.262  0.00  0.00    -0.005 C 
ATOM      3  C   UNL     1      -2.673  -2.016  -0.128  0.00  0.00    +0.124 C 
ATOM      4  C   UNL     1      -2.400  -0.921   0.804  0.00  0.00    +0.280 C 
ATOM      5  O   UNL     1      -3.160  -0.934   1.827  0.00  0.00    -0.267 OA
ATOM      6  N   UNL     1      -1.664   0.045   0.237  0.00  0.00    -0.191 NA
ATOM      7  C   UNL     1      -1.679   0.533  -1.250  0.00  0.00    +0.194 C 
ATOM      8  C   UNL     1      -1.710   2.076  -0.783  0.00  0.00    +0.337 C 
ATOM      9  O   UNL     1      -2.556   2.839  -1.323  0.00  0.00    -0.248 OA
ATOM     10  O   UNL     1      -0.464   2.687  -0.993  0.00  0.00    -0.446 OA
ATOM     11  C   UNL     1       0.565   2.050  -0.046  0.00  0.00    +0.200 C 
ATOM     12  C   UNL     1       1.795   2.857  -0.798  0.00  0.00    +0.135 C 
ATOM     13  C   UNL     1       1.960   1.992  -2.002  0.00  0.00    +0.246 C 
ATOM     14  N   UNL     1       2.885   0.921  -1.926  0.00  0.00    -0.198 NA
ATOM     15  C   UNL     1       3.008   0.301  -0.483  0.00  0.00    +0.173 C 
ATOM     16  C   UNL     1       1.950  -0.892  -0.781  0.00  0.00    +0.262 C 
ATOM     17  N   UNL     1       1.606  -1.496   0.426  0.00  0.00    -0.195 NA
ATOM     18  C   UNL     1       0.120  -1.592   0.961  0.00  0.00    +0.185 C 
ATOM     19  C   UNL     1       0.453  -2.967   1.810  0.00  0.00    +0.100 C 
ATOM     20  S   UNL     1       1.540  -2.203   3.074  0.00  0.00    -0.080 S 
ATOM     21  S   UNL     1       0.550  -0.628   4.109  0.00  0.00    -0.082 S 
ATOM     22  C   UNL     1       1.334   0.988   3.778  0.00  0.00    +0.073 C 
ATOM     23  C   UNL     1       0.439   1.694   2.818  0.00  0.00    +0.038 C 
ATOM     24  C   UNL     1       1.019   2.873   2.162  0.00  0.00    -0.026 C 
ATOM     25  C   UNL     1      -0.413  -2.328  -0.346  0.00  0.00    +0.266 C 
ATOM     26  O   UNL     1       0.357  -3.237  -0.794  0.00  0.00    -0.271 OA
ATOM     27  O   UNL     1       2.278  -1.474  -1.871  0.00  0.00    -0.271 OA
ATOM     28  O   UNL     1       1.485   2.362  -3.115  0.00  0.00    -0.273 OA
ATOM     29  C   UNL     1       0.395   3.250   1.033  0.00  0.00    +0.013 C 
ATOM     30  N   UNL     1      -1.569  -2.080  -1.041  0.00  0.00    -0.173 NA
ENDROOT
BRANCH   7  31
ATOM     31  C   UNL     1      -3.314   0.445  -1.457  0.00  0.00    +0.031 C 
ATOM     32  C   UNL     1      -3.957   1.113  -0.306  0.00  0.00    +0.002 C 
ATOM     33  C   UNL     1      -3.585   1.063  -2.792  0.00  0.00    +0.002 C 
ENDBRANCH   7  31
BRANCH  15  34
ATOM     34  C   UNL     1       4.329  -0.589  -0.893  0.00  0.00    +0.029 C 
ATOM     35  C   UNL     1       4.172  -1.834  -0.029  0.00  0.00    +0.002 C 
ATOM     36  C   UNL     1       5.504   0.159  -0.355  0.00  0.00    +0.002 C 
ENDBRANCH  15  34
TORSDOF 2
