REMARK  Name = 
REMARK  6 active torsions:
REMARK  status: ('A' for Active; 'I' for Inactive)
REMARK    1  A    between atoms: C_9  and  C_10
REMARK    2  A    between atoms: C_10  and  O_12
REMARK    3  A    between atoms: O_12  and  C_13
REMARK    4  A    between atoms: C_13  and  C_14
REMARK    5  A    between atoms: C_14  and  N_15
REMARK    6  A    between atoms: C_23  and  C_24
REMARK                            x       y       z     vdW  Elec       q    Type
REMARK                         _______ _______ _______ _____ _____    ______ ____
ROOT
ATOM      1  C   UNL     1      -4.714   1.535  -0.876  0.00  0.00    +0.038 C 
ATOM      2  C   UNL     1      -3.332   1.305  -0.415  0.00  0.00    +0.052 A 
ATOM      3  C   UNL     1      -2.822   0.024  -0.592  0.00  0.00    +0.144 A 
ATOM      4  O   UNL     1      -1.520  -0.093  -0.407  0.00  0.00    -0.453 OA
ATOM      5  C   UNL     1      -0.840   0.869   0.192  0.00  0.00    +0.154 A 
ATOM      6  C   UNL     1      -1.462   1.912   0.860  0.00  0.00    +0.073 A 
ATOM      7  C   UNL     1      -0.953   2.408   2.047  0.00  0.00    +0.006 A 
ATOM      8  C   UNL     1       0.332   2.027   2.416  0.00  0.00    +0.001 A 
ATOM      9  C   UNL     1       1.092   1.313   1.498  0.00  0.00    +0.010 A 
ATOM     10  C   UNL     1       0.508   0.642   0.437  0.00  0.00    +0.110 A 
ATOM     11  C   UNL     1      -2.749   2.221   0.438  0.00  0.00    +0.197 A 
ATOM     12  O   UNL     1      -3.312   3.242   0.877  0.00  0.00    -0.287 OA
ENDROOT
BRANCH   3  13
ATOM     13  C   UNL     1      -3.679  -1.167  -0.532  0.00  0.00    +0.034 A 
ATOM     14  C   UNL     1      -5.036  -1.030  -0.689  0.00  0.00    +0.003 A 
ATOM     15  C   UNL     1      -5.957  -1.848  -0.046  0.00  0.00    +0.000 A 
ATOM     16  C   UNL     1      -5.490  -2.812   0.835  0.00  0.00    +0.000 A 
ATOM     17  C   UNL     1      -4.162  -3.185   0.671  0.00  0.00    +0.000 A 
ATOM     18  C   UNL     1      -3.243  -2.356   0.038  0.00  0.00    +0.003 A 
ENDBRANCH   3  13
BRANCH  10  19
ATOM     19  C   UNL     1       1.296   0.033  -0.638  0.00  0.00    +0.344 C 
ATOM     20  O   UNL     1       1.892   0.810  -1.442  0.00  0.00    -0.245 OA
BRANCH  19  21
ATOM     21  O   UNL     1       1.795  -1.246  -0.526  0.00  0.00    -0.444 OA
BRANCH  21  22
ATOM     22  C   UNL     1       3.018  -1.598  -1.146  0.00  0.00    +0.226 C 
BRANCH  22  23
ATOM     23  C   UNL     1       4.063  -0.508  -1.000  0.00  0.00    +0.120 C 
BRANCH  23  24
ATOM     24  N   UNL     1       4.504  -0.439   0.390  0.00  0.00    -0.270 NA
ATOM     25  C   UNL     1       5.206   0.804   0.581  0.00  0.00    +0.072 C 
ATOM     26  C   UNL     1       6.695   0.600   0.538  0.00  0.00    +0.017 C 
ATOM     27  C   UNL     1       6.997  -0.245  -0.681  0.00  0.00    +0.003 C 
ATOM     28  C   UNL     1       6.478  -1.650  -0.446  0.00  0.00    +0.017 C 
ATOM     29  C   UNL     1       5.397  -1.567   0.595  0.00  0.00    +0.072 C 
ENDBRANCH  23  24
ENDBRANCH  22  23
ENDBRANCH  21  22
ENDBRANCH  19  21
ENDBRANCH  10  19
TORSDOF 6
