REMARK  Name = 
REMARK  20 active torsions:
REMARK  status: ('A' for Active; 'I' for Inactive)
REMARK    1  A    between atoms: C_2  and  C_3
REMARK    2  A    between atoms: C_3  and  C_4
REMARK    3  A    between atoms: C_4  and  C_5
REMARK    4  A    between atoms: C_5  and  C_6
REMARK    5  A    between atoms: C_6  and  C_7
REMARK    6  A    between atoms: C_7  and  C_8
REMARK    7  A    between atoms: C_8  and  C_9
REMARK    8  A    between atoms: C_9  and  C_10
REMARK    9  A    between atoms: C_10  and  C_11
REMARK   10  A    between atoms: C_11  and  C_12
REMARK   11  A    between atoms: C_12  and  C_13
REMARK   12  A    between atoms: C_13  and  C_14
REMARK   13  A    between atoms: C_14  and  C_15
REMARK   14  A    between atoms: C_15  and  C_16
REMARK   15  A    between atoms: C_16  and  O_17
REMARK   16  A    between atoms: O_17  and  P_18
REMARK   17  A    between atoms: P_18  and  O_21
REMARK   18  A    between atoms: O_21  and  C_22
REMARK   19  A    between atoms: C_22  and  C_23
REMARK   20  A    between atoms: C_23  and  N_24
REMARK                            x       y       z     vdW  Elec       q    Type
REMARK                         _______ _______ _______ _____ _____    ______ ____
ROOT
ATOM      1  C   UNL     1      -0.166  -1.732   0.547  0.00  0.00    +0.003 C 
ENDROOT
BRANCH   1   2
ATOM      2  C   UNL     1       0.420  -1.836  -0.837  0.00  0.00    +0.000 C 
BRANCH   2   3
ATOM      3  C   UNL     1       1.372  -3.011  -0.834  0.00  0.00    +0.000 C 
BRANCH   3   4
ATOM      4  C   UNL     1       2.335  -2.808   0.311  0.00  0.00    +0.000 C 
BRANCH   4   5
ATOM      5  C   UNL     1       2.735  -1.349   0.325  0.00  0.00    +0.000 C 
BRANCH   5   6
ATOM      6  C   UNL     1       3.917  -1.186  -0.610  0.00  0.00    +0.000 C 
BRANCH   6   7
ATOM      7  C   UNL     1       4.018   0.244  -1.081  0.00  0.00    +0.000 C 
BRANCH   7   8
ATOM      8  C   UNL     1       5.338   0.829  -0.654  0.00  0.00    +0.000 C 
BRANCH   8   9
ATOM      9  C   UNL     1       6.061  -0.116   0.273  0.00  0.00    +0.000 C 
BRANCH   9  10
ATOM     10  C   UNL     1       7.566   0.069   0.139  0.00  0.00    +0.000 C 
BRANCH  10  11
ATOM     11  C   UNL     1       7.958   1.403   0.743  0.00  0.00    +0.000 C 
BRANCH  11  12
ATOM     12  C   UNL     1       8.841   2.124  -0.247  0.00  0.00    +0.000 C 
BRANCH  12  14
ATOM     13  C   UNL     1       7.545   4.185  -0.121  0.00  0.00    +0.000 C 
ATOM     14  C   UNL     1       8.851   3.602   0.046  0.00  0.00    +0.000 C 
ENDBRANCH  12  14
ENDBRANCH  11  12
ENDBRANCH  10  11
ENDBRANCH   9  10
ENDBRANCH   8   9
ENDBRANCH   7   8
ENDBRANCH   6   7
ENDBRANCH   5   6
ENDBRANCH   4   5
ENDBRANCH   3   4
ENDBRANCH   2   3
ENDBRANCH   1   2
BRANCH   1  15
ATOM     15  C   UNL     1      -0.917  -0.416   0.641  0.00  0.00    +0.033 C 
BRANCH  15  16
ATOM     16  C   UNL     1      -2.292  -0.558   0.029  0.00  0.00    +0.149 C 
BRANCH  16  17
ATOM     17  O   UNL     1      -3.053  -1.417   0.809  0.00  0.00    -0.314 OA
BRANCH  17  18
ATOM     18  P   UNL     1      -4.411  -1.919  -0.059  0.00  0.00    +0.214 P 
ATOM     19  O   UNL     1      -4.851  -3.483   0.407  0.00  0.00    -0.437 OA
ATOM     20  O   UNL     1      -4.120  -1.948  -1.548  0.00  0.00    -0.517 OA
BRANCH  18  21
ATOM     21  O   UNL     1      -5.698  -0.856   0.208  0.00  0.00    -0.308 OA
BRANCH  21  22
ATOM     22  C   UNL     1      -6.023  -0.135  -0.944  0.00  0.00    +0.210 C 
BRANCH  22  23
ATOM     23  C   UNL     1      -7.281   0.632  -0.650  0.00  0.00    +0.142 C 
BRANCH  23  24
ATOM     24  N   UNL     1      -7.051   2.044  -0.431  0.00  0.00    +0.313 N 
ATOM     25  C   UNL     1      -6.614   2.710  -1.638  0.00  0.00    +0.171 C 
ATOM     26  C   UNL     1      -6.133   2.306   0.649  0.00  0.00    +0.171 C 
ATOM     27  C   UNL     1      -8.345   2.623  -0.081  0.00  0.00    +0.171 C 
ENDBRANCH  23  24
ENDBRANCH  22  23
ENDBRANCH  21  22
ENDBRANCH  18  21
ENDBRANCH  17  18
ENDBRANCH  16  17
ENDBRANCH  15  16
ENDBRANCH   1  15
TORSDOF 20
