REMARK  Name = 
REMARK  0 active torsions:
REMARK  status: ('A' for Active; 'I' for Inactive)
REMARK                            x       y       z     vdW  Elec       q    Type
REMARK                         _______ _______ _______ _____ _____    ______ ____
ROOT
ATOM      1  C   UNL     1       0.055   2.784   0.231  0.00  0.00    +0.137 C 
ATOM      2  N   UNL     1      -0.116   1.339   0.174  0.00  0.00    -0.263 N 
ATOM      3  C   UNL     1      -1.286   0.811  -0.262  0.00  0.00    +0.335 A 
ATOM      4  O   UNL     1      -2.254   1.530  -0.599  0.00  0.00    -0.246 OA
ATOM      5  N   UNL     1      -1.504  -0.511  -0.059  0.00  0.00    -0.245 N 
ATOM      6  C   UNL     1      -2.781  -1.129  -0.408  0.00  0.00    +0.138 C 
ATOM      7  C   UNL     1      -0.474  -1.234   0.444  0.00  0.00    +0.285 A 
ATOM      8  O   UNL     1      -0.638  -2.443   0.732  0.00  0.00    -0.265 OA
ATOM      9  C   UNL     1       0.815  -0.775   0.264  0.00  0.00    +0.173 A 
ATOM     10  N   UNL     1       2.025  -1.329   0.037  0.00  0.00    -0.216 NA
ATOM     11  C   UNL     1       2.854  -0.411  -0.521  0.00  0.00    +0.200 A 
ATOM     12  N   UNL     1       2.284   0.769  -0.238  0.00  0.00    -0.205 NA
ATOM     13  C   UNL     1       1.020   0.599   0.206  0.00  0.00    +0.172 A 
ENDROOT
TORSDOF 0
