REMARK  Name = 
REMARK  4 active torsions:
REMARK  status: ('A' for Active; 'I' for Inactive)
REMARK    1  A    between atoms: N_4  and  C_5
REMARK    2  A    between atoms: C_5  and  C_6
REMARK    3  A    between atoms: C_6  and  C_7
REMARK    4  A    between atoms: C_7  and  S_8
REMARK                            x       y       z     vdW  Elec       q    Type
REMARK                         _______ _______ _______ _____ _____    ______ ____
ROOT
ATOM      1  C   UNL     1       0.226  -0.238   0.759  0.00  0.00    +0.047 C 
ENDROOT
BRANCH   1   2
ATOM      2  C   UNL     1      -1.076  -0.867   0.294  0.00  0.00    +0.117 C 
BRANCH   2   5
ATOM      3  C   UNL     1      -3.866   1.470  -0.702  0.00  0.00    +0.096 C 
ATOM      4  C   UNL     1      -3.203   0.191  -0.309  0.00  0.00    +0.242 C 
ATOM      5  N   UNL     1      -1.795   0.081  -0.552  0.00  0.00    -0.205 NA
ATOM      6  O   UNL     1      -3.843  -0.900  -0.365  0.00  0.00    -0.273 OA
ENDBRANCH   2   5
ENDBRANCH   1   2
BRANCH   1   7
ATOM      7  C   UNL     1       1.092  -0.097  -0.485  0.00  0.00    +0.128 C 
BRANCH   7   8
ATOM      8  S   UNL     1       2.787   0.023   0.053  0.00  0.00    -0.107 S 
ATOM      9  O   UNL     1       2.961   1.440   0.945  0.00  0.00    -0.291 OA
ATOM     10  O   UNL     1       3.085  -1.178   0.878  0.00  0.00    -0.371 OA
ATOM     11  O   UNL     1       3.632   0.075  -1.197  0.00  0.00    -0.371 OA
ENDBRANCH   7   8
ENDBRANCH   1   7
TORSDOF 4
