REMARK  Name = 
REMARK  10 active torsions:
REMARK  status: ('A' for Active; 'I' for Inactive)
REMARK    1  A    between atoms: O_2  and  C_3
REMARK    2  A    between atoms: C_3  and  C_4
REMARK    3  A    between atoms: C_4  and  C_5
REMARK    4  A    between atoms: C_5  and  C_6
REMARK    5  A    between atoms: C_6  and  C_7
REMARK    6  A    between atoms: C_7  and  C_13
REMARK    7  A    between atoms: N_8  and  O_9
REMARK    8  A    between atoms: O_9  and  C_10
REMARK    9  A    between atoms: C_10  and  C_11
REMARK   10  A    between atoms: C_16  and  C_17
REMARK                            x       y       z     vdW  Elec       q    Type
REMARK                         _______ _______ _______ _____ _____    ______ ____
ROOT
ATOM      1  C   UNL     1      -0.565   1.356  -0.171  0.00  0.00    +0.097 C 
ATOM      2  N   UNL     1       0.056   2.322  -0.783  0.00  0.00    -0.087 NA
ENDROOT
BRANCH   1   3
ATOM      3  C   UNL     1       0.284   0.251   0.289  0.00  0.00    +0.017 A 
ATOM      4  C   UNL     1       1.542   0.536   0.772  0.00  0.00    +0.001 A 
ATOM      5  C   UNL     1       2.541  -0.425   0.883  0.00  0.00    +0.004 A 
ATOM      6  C   UNL     1       2.308  -1.598   0.174  0.00  0.00    +0.071 A 
ATOM      7  C   UNL     1       0.989  -2.028   0.097  0.00  0.00    +0.004 A 
ATOM      8  C   UNL     1      -0.015  -1.071   0.060  0.00  0.00    +0.001 A 
BRANCH   6   9
ATOM      9  C   UNL     1       3.454  -2.411  -0.281  0.00  0.00    +0.419 C 
ATOM     10  F   UNL     1       4.277  -2.636   0.818  0.00  0.00    -0.166 F 
ATOM     11  F   UNL     1       4.246  -1.750  -1.208  0.00  0.00    -0.166 F 
ATOM     12  F   UNL     1       3.019  -3.582  -0.846  0.00  0.00    -0.166 F 
ENDBRANCH   6   9
ENDBRANCH   1   3
BRANCH   1  13
ATOM     13  C   UNL     1      -1.961   1.135  -0.604  0.00  0.00    +0.049 C 
BRANCH  13  14
ATOM     14  C   UNL     1      -2.850   0.619   0.493  0.00  0.00    +0.009 C 
BRANCH  14  15
ATOM     15  C   UNL     1      -3.349  -0.739   0.086  0.00  0.00    +0.032 C 
BRANCH  15  16
ATOM     16  C   UNL     1      -4.554  -1.191   0.871  0.00  0.00    +0.142 C 
BRANCH  16  18
ATOM     17  C   UNL     1      -5.860  -3.050   1.247  0.00  0.00    +0.174 C 
ATOM     18  O   UNL     1      -4.770  -2.534   0.559  0.00  0.00    -0.351 OA
ENDBRANCH  16  18
ENDBRANCH  15  16
ENDBRANCH  14  15
ENDBRANCH  13  14
ENDBRANCH   1  13
BRANCH   2  19
ATOM     19  O   UNL     1       1.214   2.856  -0.245  0.00  0.00    -0.376 OA
BRANCH  19  20
ATOM     20  C   UNL     1       1.169   4.221   0.114  0.00  0.00    +0.259 C 
BRANCH  20  21
ATOM     21  C   UNL     1       0.007   4.934  -0.553  0.00  0.00    +0.159 C 
ATOM     22  N   UNL     1      -1.180   4.785   0.267  0.00  0.00    -0.127 NA
ENDBRANCH  20  21
ENDBRANCH  19  20
ENDBRANCH   2  19
TORSDOF 10
