REMARK  Name = 
REMARK  20 active torsions:
REMARK  status: ('A' for Active; 'I' for Inactive)
REMARK    1  A    between atoms: C_2  and  C_4
REMARK    2  A    between atoms: C_6  and  C_7
REMARK    3  A    between atoms: C_7  and  N_8
REMARK    4  A    between atoms: N_12  and  C_13
REMARK    5  A    between atoms: C_13  and  C_14
REMARK    6  A    between atoms: C_13  and  C_22
REMARK    7  A    between atoms: C_14  and  C_15
REMARK    8  A    between atoms: C_15  and  N_16
REMARK    9  A    between atoms: N_24  and  C_25
REMARK   10  A    between atoms: C_25  and  C_26
REMARK   11  A    between atoms: C_25  and  C_46
REMARK   12  A    between atoms: C_26  and  C_27
REMARK   13  A    between atoms: C_27  and  C_28
REMARK   14  A    between atoms: C_28  and  C_29
REMARK   15  A    between atoms: C_28  and  N_36
REMARK   16  A    between atoms: C_29  and  C_30
REMARK   17  A    between atoms: C_37  and  O_39
REMARK   18  A    between atoms: O_39  and  C_40
REMARK   19  A    between atoms: C_40  and  C_41
REMARK   20  A    between atoms: C_46  and  C_47
REMARK                            x       y       z     vdW  Elec       q    Type
REMARK                         _______ _______ _______ _____ _____    ______ ____
ROOT
ATOM      1  C   UNL     1       1.472  -0.792   0.592  0.00  0.00    +0.100 C 
ENDROOT
BRANCH   1   3
ATOM      2  C   UNL     1      -0.686   0.543   0.501  0.00  0.00    +0.261 C 
ATOM      3  N   UNL     1      -0.026  -0.596   0.137  0.00  0.00    -0.205 NA
ATOM      4  O   UNL     1      -0.056   1.538   0.978  0.00  0.00    -0.271 OA
BRANCH   2   5
ATOM      5  C   UNL     1      -2.180   0.506   1.131  0.00  0.00    +0.176 C 
BRANCH   5   8
ATOM      6  N   UNL     1      -4.738   2.117  -1.184  0.00  0.00    -0.255 N 
ATOM      7  C   UNL     1      -3.779   2.020  -0.123  0.00  0.00    +0.324 C 
ATOM      8  N   UNL     1      -2.825   0.989  -0.237  0.00  0.00    -0.181 NA
ATOM      9  O   UNL     1      -4.072   2.563   0.964  0.00  0.00    -0.251 OA
ATOM     10  C   UNL     1      -5.201   3.442  -1.535  0.00  0.00    +0.117 C 
BRANCH   6  11
ATOM     11  C   UNL     1      -5.602   0.995  -1.456  0.00  0.00    +0.141 C 
BRANCH  11  15
ATOM     12  C   UNL     1      -8.681   2.401  -0.176  0.00  0.00    +0.088 A 
ATOM     13  S   UNL     1      -8.985   0.806   0.389  0.00  0.00    -0.071 S 
ATOM     14  C   UNL     1      -7.502   0.093  -0.109  0.00  0.00    +0.053 A 
ATOM     15  C   UNL     1      -6.954   1.153  -0.828  0.00  0.00    +0.086 A 
ATOM     16  N   UNL     1      -7.334   2.329  -0.301  0.00  0.00    -0.245 NA
BRANCH  12  18
ATOM     17  C   UNL     1      -9.864   3.628   0.294  0.00  0.00    +0.007 C 
ATOM     18  C   UNL     1      -9.486   3.627   0.127  0.00  0.00    +0.047 C 
ATOM     19  C   UNL     1      -8.642   4.851  -0.204  0.00  0.00    +0.007 C 
ENDBRANCH  12  18
ENDBRANCH  11  15
ENDBRANCH   6  11
ENDBRANCH   5   8
BRANCH   5  20
ATOM     20  C   UNL     1      -2.467  -1.095   0.835  0.00  0.00    +0.048 C 
BRANCH  20  21
ATOM     21  C   UNL     1      -2.442  -1.323  -0.618  0.00  0.00    +0.075 C 
BRANCH  21  22
ATOM     22  N   UNL     1      -2.835  -2.609  -0.931  0.00  0.00    -0.268 NA
ATOM     23  C   UNL     1      -1.886  -3.646  -1.022  0.00  0.00    +0.105 C 
ATOM     24  C   UNL     1      -2.401  -4.866  -0.269  0.00  0.00    +0.159 C 
ATOM     25  O   UNL     1      -3.713  -5.161  -0.584  0.00  0.00    -0.351 OA
ATOM     26  C   UNL     1      -4.585  -4.093  -0.368  0.00  0.00    +0.159 C 
ATOM     27  C   UNL     1      -4.177  -2.905  -1.232  0.00  0.00    +0.105 C 
ENDBRANCH  21  22
ENDBRANCH  20  21
ENDBRANCH   5  20
ENDBRANCH   2   5
ENDBRANCH   1   3
BRANCH   1  28
ATOM     28  C   UNL     1       1.921   0.658  -0.054  0.00  0.00    +0.024 C 
BRANCH  28  29
ATOM     29  C   UNL     1       3.103   0.937   0.870  0.00  0.00    +0.024 C 
BRANCH  29  30
ATOM     30  C   UNL     1       4.312   0.098   0.126  0.00  0.00    +0.103 C 
BRANCH  30  31
ATOM     31  N   UNL     1       5.296   1.330   0.225  0.00  0.00    -0.170 NA
ATOM     32  C   UNL     1       5.307   2.007  -1.037  0.00  0.00    +0.421 C 
ATOM     33  O   UNL     1       5.535   1.367  -2.108  0.00  0.00    -0.225 OA
BRANCH  32  34
ATOM     34  O   UNL     1       5.402   3.390  -1.164  0.00  0.00    -0.428 OA
BRANCH  34  35
ATOM     35  C   UNL     1       6.431   4.005  -1.939  0.00  0.00    +0.245 C 
BRANCH  35  36
ATOM     36  C   UNL     1       7.337   4.659  -0.943  0.00  0.00    +0.071 A 
ATOM     37  S   UNL     1       8.401   5.998  -1.090  0.00  0.00    -0.065 S 
ATOM     38  C   UNL     1       9.061   5.961   0.496  0.00  0.00    +0.134 A 
ATOM     39  N   UNL     1       8.190   5.108   1.091  0.00  0.00    -0.235 NA
ATOM     40  C   UNL     1       7.806   4.138   0.259  0.00  0.00    +0.105 A 
ENDBRANCH  35  36
ENDBRANCH  34  35
ENDBRANCH  32  34
ENDBRANCH  30  31
BRANCH  30  41
ATOM     41  C   UNL     1       4.841  -0.525   1.559  0.00  0.00    +0.048 C 
BRANCH  41  42
ATOM     42  C   UNL     1       5.151  -1.946   1.275  0.00  0.00    -0.020 A 
ATOM     43  C   UNL     1       6.101  -2.201   0.311  0.00  0.00    -0.004 A 
ATOM     44  C   UNL     1       6.300  -3.477  -0.172  0.00  0.00    -0.000 A 
ATOM     45  C   UNL     1       5.463  -4.482   0.226  0.00  0.00    -0.000 A 
ATOM     46  C   UNL     1       4.484  -4.242   1.166  0.00  0.00    -0.000 A 
ATOM     47  C   UNL     1       4.454  -3.010   1.780  0.00  0.00    -0.004 A 
ENDBRANCH  41  42
ENDBRANCH  30  41
ENDBRANCH  29  30
ENDBRANCH  28  29
ENDBRANCH   1  28
BRANCH   1  48
ATOM     48  C   UNL     1       1.855  -1.593  -0.799  0.00  0.00    +0.048 C 
BRANCH  48  49
ATOM     49  C   UNL     1       1.187  -2.905  -0.628  0.00  0.00    -0.020 A 
ATOM     50  C   UNL     1       0.815  -3.402   0.613  0.00  0.00    -0.004 A 
ATOM     51  C   UNL     1      -0.050  -4.479   0.732  0.00  0.00    -0.000 A 
ATOM     52  C   UNL     1      -0.239  -5.289  -0.358  0.00  0.00    -0.000 A 
ATOM     53  C   UNL     1       0.402  -4.972  -1.543  0.00  0.00    -0.000 A 
ATOM     54  C   UNL     1       0.779  -3.651  -1.722  0.00  0.00    -0.004 A 
ENDBRANCH  48  49
ENDBRANCH   1  48
TORSDOF 20
