REMARK  Name = 
REMARK  3 active torsions:
REMARK  status: ('A' for Active; 'I' for Inactive)
REMARK    1  A    between atoms: C_5  and  S_6
REMARK    2  A    between atoms: S_6  and  C_7
REMARK    3  A    between atoms: C_12  and  N_13
REMARK                            x       y       z     vdW  Elec       q    Type
REMARK                         _______ _______ _______ _____ _____    ______ ____
ROOT
ATOM      1  C   UNL     1       0.551   0.720  -0.681  0.00  0.00    +0.043 A 
ATOM      2  C   UNL     1       1.708   0.841   0.079  0.00  0.00    +0.054 A 
ATOM      3  C   UNL     1       2.638   1.796  -0.315  0.00  0.00    +0.015 A 
ATOM      4  C   UNL     1       2.186   2.848  -1.087  0.00  0.00    +0.001 A 
ATOM      5  C   UNL     1       0.822   2.998  -1.302  0.00  0.00    +0.001 A 
ATOM      6  C   UNL     1       0.059   1.838  -1.343  0.00  0.00    +0.008 A 
ENDROOT
BRANCH   2   7
ATOM      7  N   UNL     1       2.240  -0.394   0.575  0.00  0.00    -0.304 N 
ATOM      8  C   UNL     1       2.778  -0.542   1.903  0.00  0.00    +0.110 C 
ATOM      9  C   UNL     1       4.183  -1.082   1.881  0.00  0.00    +0.110 C 
ATOM     10  N   UNL     1       4.623  -1.498   0.578  0.00  0.00    -0.214 NA
ATOM     11  C   UNL     1       3.642  -2.252  -0.158  0.00  0.00    +0.110 C 
ATOM     12  C   UNL     1       2.355  -1.491  -0.374  0.00  0.00    +0.110 C 
ENDBRANCH   2   7
BRANCH   1  13
ATOM     13  S   UNL     1      -0.295  -0.857  -0.842  0.00  0.00    -0.086 S 
BRANCH  13  19
ATOM     14  C   UNL     1      -5.765   0.410   1.258  0.00  0.00    +0.031 C 
ATOM     15  C   UNL     1      -4.406   0.084   0.737  0.00  0.00    -0.022 A 
ATOM     16  C   UNL     1      -4.237  -0.755  -0.328  0.00  0.00    -0.008 A 
ATOM     17  C   UNL     1      -3.001  -0.828  -0.915  0.00  0.00    -0.016 A 
ATOM     18  C   UNL     1      -2.836  -1.716  -2.105  0.00  0.00    +0.032 C 
ATOM     19  C   UNL     1      -1.909  -0.668  -0.077  0.00  0.00    +0.026 A 
ATOM     20  C   UNL     1      -2.040   0.227   0.979  0.00  0.00    +0.006 A 
ATOM     21  C   UNL     1      -3.297   0.320   1.536  0.00  0.00    -0.004 A 
ENDBRANCH  13  19
ENDBRANCH   1  13
TORSDOF 3
