REMARK  Name = 
REMARK  9 active torsions:
REMARK  status: ('A' for Active; 'I' for Inactive)
REMARK    1  A    between atoms: C_2  and  O_3
REMARK    2  A    between atoms: O_3  and  C_4
REMARK    3  A    between atoms: C_4  and  O_6
REMARK    4  A    between atoms: O_6  and  C_7
REMARK    5  A    between atoms: C_7  and  C_8
REMARK    6  A    between atoms: C_8  and  C_10
REMARK    7  A    between atoms: C_10  and  O_11
REMARK    8  A    between atoms: O_11  and  C_12
REMARK    9  A    between atoms: C_12  and  C_14
REMARK                            x       y       z     vdW  Elec       q    Type
REMARK                         _______ _______ _______ _____ _____    ______ ____
ROOT
ATOM      1  C   UNL     1       1.467  -0.566  -0.492  0.00  0.00    +0.193 C 
ATOM      2  C   UNL     1       0.228   0.204  -0.275  0.00  0.00    +0.043 C 
ATOM      3  C   UNL     1      -0.455  -0.937   0.684  0.00  0.00    +0.004 C 
ATOM      4  C   UNL     1      -1.527   0.237   1.313  0.00  0.00    +0.003 C 
ATOM      5  C   UNL     1      -2.640  -0.234   0.138  0.00  0.00    +0.038 C 
ATOM      6  C   UNL     1      -2.133   0.880  -1.092  0.00  0.00    +0.153 C 
ATOM      7  O   UNL     1      -1.609   1.961  -0.136  0.00  0.00    -0.223 OA
ATOM      8  C   UNL     1      -3.858   0.681   0.668  0.00  0.00    +0.036 C 
ATOM      9  C   UNL     1      -4.418  -0.284   1.671  0.00  0.00    -0.038 C 
ATOM     10  C   UNL     1      -5.714  -0.441   1.751  0.00  0.00    +0.034 C 
ATOM     11  C   UNL     1      -6.543  -0.320   0.544  0.00  0.00    +0.195 C 
ATOM     12  C   UNL     1      -5.976   0.410  -0.570  0.00  0.00    +0.038 C 
ATOM     13  O   UNL     1      -7.683  -0.874   0.486  0.00  0.00    -0.287 OA
ATOM     14  C   UNL     1      -3.440  -1.162   2.298  0.00  0.00    +0.022 C 
ATOM     15  C   UNL     1      -3.429   1.824   1.462  0.00  0.00    +0.009 C 
ATOM     16  C   UNL     1      -4.754   0.929  -0.459  0.00  0.00    -0.020 C 
ATOM     17  C   UNL     1      -2.072  -0.806   2.407  0.00  0.00    +0.004 C 
ATOM     18  C   UNL     1       0.740  -0.698   1.779  0.00  0.00    +0.004 C 
ATOM     19  C   UNL     1       0.576   1.345   0.583  0.00  0.00    +0.004 C 
ATOM     20  C   UNL     1      -0.651   0.172  -1.341  0.00  0.00    +0.037 C 
ATOM     21  C   UNL     1       1.700  -1.376   0.785  0.00  0.00    +0.048 C 
ENDROOT
BRANCH   1  22
ATOM     22  C   UNL     1       2.743   0.221  -0.530  0.00  0.00    +0.230 C 
ATOM     23  O   UNL     1       3.688  -0.452  -0.956  0.00  0.00    -0.288 OA
BRANCH  22  24
ATOM     24  C   UNL     1       3.201   1.050   0.636  0.00  0.00    +0.276 C 
BRANCH  24  25
ATOM     25  O   UNL     1       4.098   0.364   1.471  0.00  0.00    -0.440 OA
BRANCH  25  26
ATOM     26  C   UNL     1       5.481   0.530   1.421  0.00  0.00    +0.317 C 
ATOM     27  O   UNL     1       5.937   0.911   0.301  0.00  0.00    -0.250 OA
BRANCH  26  28
ATOM     28  C   UNL     1       6.328   0.793   2.596  0.00  0.00    +0.110 C 
ATOM     29  C   UNL     1       6.064  -0.099   3.767  0.00  0.00    +0.012 C 
ENDBRANCH  26  28
ENDBRANCH  25  26
ENDBRANCH  24  25
ENDBRANCH  22  24
ENDBRANCH   1  22
BRANCH   1  30
ATOM     30  O   UNL     1       1.405  -1.350  -1.650  0.00  0.00    -0.418 OA
BRANCH  30  31
ATOM     31  C   UNL     1       1.785  -0.772  -2.867  0.00  0.00    +0.512 C 
ATOM     32  O   UNL     1       1.920   0.478  -3.013  0.00  0.00    -0.203 OA
BRANCH  31  33
ATOM     33  O   UNL     1       2.276  -1.521  -3.938  0.00  0.00    -0.418 OA
BRANCH  33  35
ATOM     34  C   UNL     1       4.186  -0.177  -4.493  0.00  0.00    +0.051 C 
ATOM     35  C   UNL     1       3.079  -0.953  -4.952  0.00  0.00    +0.212 C 
ENDBRANCH  33  35
ENDBRANCH  31  33
ENDBRANCH  30  31
ENDBRANCH   1  30
TORSDOF 9
