REMARK  Name = 
REMARK  6 active torsions:
REMARK  status: ('A' for Active; 'I' for Inactive)
REMARK    1  A    between atoms: C_5  and  C_6
REMARK    2  A    between atoms: C_6  and  C_14
REMARK    3  A    between atoms: C_7  and  C_8
REMARK    4  A    between atoms: C_8  and  N_9
REMARK    5  A    between atoms: C_18  and  C_19
REMARK    6  A    between atoms: C_20  and  C_21
REMARK                            x       y       z     vdW  Elec       q    Type
REMARK                         _______ _______ _______ _____ _____    ______ ____
ROOT
ATOM      1  C   UNL     1      -0.809   0.317  -0.019  0.00  0.00    +0.015 C 
ATOM      2  C   UNL     1      -1.700  -0.674   0.035  0.00  0.00    -0.007 C 
ENDROOT
BRANCH   1   7
ATOM      3  C   UNL     1      -3.654   5.047   0.341  0.00  0.00    +0.031 C 
ATOM      4  C   UNL     1      -2.683   4.119  -0.318  0.00  0.00    -0.022 A 
ATOM      5  C   UNL     1      -1.365   4.015   0.111  0.00  0.00    -0.004 A 
ATOM      6  C   UNL     1      -0.679   2.811   0.018  0.00  0.00    -0.000 A 
ATOM      7  C   UNL     1      -1.372   1.644  -0.281  0.00  0.00    +0.001 A 
ATOM      8  C   UNL     1      -2.518   1.822  -1.045  0.00  0.00    -0.000 A 
ATOM      9  C   UNL     1      -3.129   3.068  -1.110  0.00  0.00    -0.004 A 
ENDBRANCH   1   7
BRANCH   1  10
ATOM     10  C   UNL     1       0.556  -0.049  -0.419  0.00  0.00    +0.081 A 
ATOM     11  N   UNL     1       1.318  -0.863   0.347  0.00  0.00    -0.245 NA
ATOM     12  C   UNL     1       2.634  -1.035   0.161  0.00  0.00    +0.082 A 
ATOM     13  C   UNL     1       3.309   0.007  -0.465  0.00  0.00    +0.019 A 
ATOM     14  C   UNL     1       2.631   1.017  -1.105  0.00  0.00    +0.003 A 
ATOM     15  C   UNL     1       1.251   0.873  -1.193  0.00  0.00    +0.019 A 
BRANCH  12  16
ATOM     16  C   UNL     1       3.390  -2.077   0.863  0.00  0.00    +0.026 C 
ATOM     17  C   UNL     1       4.696  -2.115   0.743  0.00  0.00    +0.088 C 
BRANCH  17  18
ATOM     18  C   UNL     1       5.441  -1.279  -0.207  0.00  0.00    +0.388 C 
ATOM     19  O   UNL     1       5.639  -1.843  -1.471  0.00  0.00    -0.241 OA
ATOM     20  O   UNL     1       6.352  -0.491   0.178  0.00  0.00    -0.241 OA
ENDBRANCH  17  18
ENDBRANCH  12  16
ENDBRANCH   1  10
BRANCH   2  21
ATOM     21  C   UNL     1      -1.298  -2.028   0.469  0.00  0.00    +0.099 C 
BRANCH  21  22
ATOM     22  N   UNL     1      -2.473  -2.888   0.381  0.00  0.00    -0.269 NA
ATOM     23  C   UNL     1      -3.196  -2.972   1.621  0.00  0.00    +0.072 C 
ATOM     24  C   UNL     1      -4.581  -2.429   1.382  0.00  0.00    +0.019 C 
ATOM     25  C   UNL     1      -4.382  -1.593   0.142  0.00  0.00    +0.019 C 
ATOM     26  C   UNL     1      -3.379  -2.404  -0.630  0.00  0.00    +0.072 C 
ENDBRANCH  21  22
ENDBRANCH   2  21
TORSDOF 6
