REMARK  Name = 
REMARK  1 active torsions:
REMARK  status: ('A' for Active; 'I' for Inactive)
REMARK    1  A    between atoms: C_5  and  C_6
REMARK                            x       y       z     vdW  Elec       q    Type
REMARK                         _______ _______ _______ _____ _____    ______ ____
ROOT
ATOM      1  C   UNL     1       0.399  -1.583   1.094  0.00  0.00    +0.062 C 
ATOM      2  C   UNL     1      -0.425  -0.373   0.367  0.00  0.00    -0.017 A 
ATOM      3  C   UNL     1      -1.298  -0.526  -0.664  0.00  0.00    -0.010 A 
ATOM      4  C   UNL     1      -2.054   0.596  -0.982  0.00  0.00    +0.096 A 
ATOM      5  C   UNL     1      -2.340   1.511   0.024  0.00  0.00    +0.244 A 
ATOM      6  C   UNL     1      -1.947   1.224   1.325  0.00  0.00    +0.235 A 
ATOM      7  O   UNL     1      -2.724   1.676   2.388  0.00  0.00    -0.283 OA
ATOM      8  O   UNL     1      -3.136   2.613  -0.190  0.00  0.00    -0.282 OA
ATOM      9 CL   UNL     1      -2.581   0.909  -2.622  0.00  0.00    -0.079 Cl
ATOM     10  C   UNL     1      -0.943  -1.306  -1.893  0.00  0.00    +0.046 C 
ATOM     11  C   UNL     1      -1.421  -2.728  -1.644  0.00  0.00    +0.093 C 
ATOM     12  N   UNL     1      -0.925  -3.088  -0.317  0.00  0.00    -0.217 NA
ATOM     13  C   UNL     1      -0.928   0.293   1.483  0.00  0.00    +0.041 A 
ATOM     14  C   UNL     1       0.442  -2.578  -0.251  0.00  0.00    +0.097 C 
ENDROOT
BRANCH   1  19
ATOM     15  O   UNL     1       3.941   2.414  -0.430  0.00  0.00    -0.287 OA
ATOM     16  C   UNL     1       3.444   1.238  -0.012  0.00  0.00    +0.196 A 
ATOM     17  C   UNL     1       3.177   0.177  -0.870  0.00  0.00    +0.042 A 
ATOM     18  C   UNL     1       2.026  -0.541  -0.565  0.00  0.00    -0.001 A 
ATOM     19  C   UNL     1       1.845  -0.907   0.732  0.00  0.00    -0.017 A 
ATOM     20  C   UNL     1       2.261   0.006   1.699  0.00  0.00    -0.001 A 
ATOM     21  C   UNL     1       3.187   0.975   1.329  0.00  0.00    +0.042 A 
ENDBRANCH   1  19
TORSDOF 1
