REMARK  Name = 
REMARK  2 active torsions:
REMARK  status: ('A' for Active; 'I' for Inactive)
REMARK    1  A    between atoms: C_5  and  N_6
REMARK    2  A    between atoms: C_11  and  C_12
REMARK                            x       y       z     vdW  Elec       q    Type
REMARK                         _______ _______ _______ _____ _____    ______ ____
ROOT
ATOM      1  C   UNL     1      -1.843   0.733   0.361  0.00  0.00    +0.251 C 
ATOM      2  N   UNL     1      -1.011  -0.056  -0.453  0.00  0.00    -0.276 N 
ATOM      3  C   UNL     1      -0.856   0.548  -1.909  0.00  0.00    +0.077 C 
ATOM      4  C   UNL     1      -0.680  -0.953  -2.594  0.00  0.00    +0.022 C 
ATOM      5  C   UNL     1       0.789   0.732  -1.791  0.00  0.00    +0.041 C 
ATOM      6  C   UNL     1       1.011   1.643  -0.623  0.00  0.00    +0.097 C 
ATOM      7  N   UNL     1       1.566   0.836   0.463  0.00  0.00    -0.262 N 
ATOM      8  C   UNL     1       2.951   0.500   0.319  0.00  0.00    +0.292 A 
ATOM      9  O   UNL     1       3.356  -0.744   0.131  0.00  0.00    -0.424 OA
ATOM     10  C   UNL     1       4.657  -0.786   0.122  0.00  0.00    +0.166 A 
ATOM     11  C   UNL     1       5.103   0.524   0.071  0.00  0.00    +0.121 A 
ATOM     12  C   UNL     1       6.452   0.717  -0.060  0.00  0.00    +0.034 A 
ATOM     13  C   UNL     1       7.320  -0.367   0.035  0.00  0.00    +0.059 A 
ATOM     14  C   UNL     1       6.853  -1.665   0.024  0.00  0.00    +0.015 A 
ATOM     15 CL   UNL     1       9.045  -0.097   0.246  0.00  0.00    -0.082 Cl
ATOM     16  C   UNL     1       5.511  -1.850   0.206  0.00  0.00    +0.040 A 
ATOM     17  N   UNL     1       3.995   1.304   0.048  0.00  0.00    -0.195 NA
ATOM     18  C   UNL     1       0.797  -0.197   1.153  0.00  0.00    +0.117 C 
ATOM     19  C   UNL     1      -0.105  -0.955   0.185  0.00  0.00    +0.115 C 
ATOM     20  O   UNL     1      -1.295   1.244   1.387  0.00  0.00    -0.270 OA
ENDROOT
BRANCH   1  24
ATOM     21  C   UNL     1      -5.886   3.096   1.831  0.00  0.00    +0.031 C 
ATOM     22  C   UNL     1      -5.206   2.292   0.815  0.00  0.00    -0.022 A 
ATOM     23  C   UNL     1      -3.828   2.130   0.765  0.00  0.00    +0.002 A 
ATOM     24  C   UNL     1      -3.236   1.031   0.151  0.00  0.00    +0.073 A 
ATOM     25  C   UNL     1      -4.121   0.121  -0.399  0.00  0.00    +0.107 A 
ATOM     26  C   UNL     1      -5.368   0.582  -0.807  0.00  0.00    +0.021 A 
ATOM     27  C   UNL     1      -5.982   1.573  -0.087  0.00  0.00    -0.003 A 
BRANCH  25  28
ATOM     28  N   UNL     1      -3.758  -1.264  -0.495  0.00  0.00    -0.148 N 
ATOM     29  N   UNL     1      -4.167  -1.918  -1.586  0.00  0.00    -0.145 NA
ATOM     30  C   UNL     1      -3.956  -3.242  -1.386  0.00  0.00    +0.145 A 
ATOM     31  C   UNL     1      -4.167  -3.374  -0.019  0.00  0.00    +0.145 A 
ATOM     32  N   UNL     1      -3.940  -2.141   0.493  0.00  0.00    -0.145 NA
ENDBRANCH  25  28
ENDBRANCH   1  24
TORSDOF 2
