REMARK  Name = 
REMARK  1 active torsions:
REMARK  status: ('A' for Active; 'I' for Inactive)
REMARK    1  A    between atoms: C_6  and  C_7
REMARK                            x       y       z     vdW  Elec       q    Type
REMARK                         _______ _______ _______ _____ _____    ______ ____
ROOT
ATOM      1  C   UNL     1      -1.409   1.688  -1.027  0.00  0.00    +0.090 C 
ATOM      2  N   UNL     1      -1.352   0.368  -0.888  0.00  0.00    -0.269 NA
ATOM      3  C   UNL     1      -0.972   0.288   0.663  0.00  0.00    +0.082 C 
ATOM      4  C   UNL     1      -1.562  -1.270   0.767  0.00  0.00    +0.022 C 
ATOM      5  C   UNL     1      -2.967  -0.824   0.403  0.00  0.00    +0.019 C 
ATOM      6  C   UNL     1      -2.709  -0.070  -0.851  0.00  0.00    +0.072 C 
ENDROOT
BRANCH   3   7
ATOM      7  C   UNL     1       0.543  -0.264   0.424  0.00  0.00    +0.011 A 
ATOM      8  C   UNL     1       1.368   0.251   1.391  0.00  0.00    +0.096 A 
ATOM      9  N   UNL     1       2.647   0.558   1.073  0.00  0.00    -0.243 NA
ATOM     10  C   UNL     1       3.048   0.386  -0.211  0.00  0.00    +0.099 A 
ATOM     11  C   UNL     1       2.375  -0.585  -0.944  0.00  0.00    +0.020 A 
ATOM     12  C   UNL     1       0.989  -0.526  -0.801  0.00  0.00    +0.000 A 
ENDBRANCH   3   7
TORSDOF 1
