REMARK  Name = 
REMARK  11 active torsions:
REMARK  status: ('A' for Active; 'I' for Inactive)
REMARK    1  A    between atoms: C_2  and  C_3
REMARK    2  A    between atoms: C_13  and  O_14
REMARK    3  A    between atoms: O_14  and  C_15
REMARK    4  A    between atoms: C_20  and  N_21
REMARK    5  A    between atoms: C_26  and  O_28
REMARK    6  A    between atoms: N_38  and  C_39
REMARK    7  A    between atoms: C_39  and  C_40
REMARK    8  A    between atoms: C_40  and  C_41
REMARK    9  A    between atoms: C_41  and  C_42
REMARK   10  A    between atoms: C_42  and  N_43
REMARK   11  A    between atoms: C_46  and  C_47
REMARK                            x       y       z     vdW  Elec       q    Type
REMARK                         _______ _______ _______ _____ _____    ______ ____
ROOT
ATOM      1  C   UNL     1      -0.188   0.149  -0.114  0.00  0.00    +0.207 C 
ATOM      2  C   UNL     1       0.581  -0.620   1.091  0.00  0.00    +0.191 C 
ATOM      3  C   UNL     1       1.086  -2.060   0.531  0.00  0.00    +0.125 C 
ATOM      4  N   UNL     1       2.423  -1.524  -0.083  0.00  0.00    -0.244 N 
ATOM      5  C   UNL     1       2.154  -0.149  -0.287  0.00  0.00    +0.405 C 
ATOM      6  O   UNL     1       2.594   0.495  -1.293  0.00  0.00    -0.226 OA
ATOM      7  C   UNL     1       0.208  -2.092  -0.932  0.00  0.00    +0.079 C 
ATOM      8  C   UNL     1       1.329  -2.937  -1.758  0.00  0.00    +0.010 C 
ATOM      9  C   UNL     1      -0.641  -3.405  -0.591  0.00  0.00    +0.152 C 
ATOM     10  O   UNL     1      -0.874  -4.077  -1.549  0.00  0.00    -0.296 OA
ATOM     11  C   UNL     1      -1.872  -3.090   0.393  0.00  0.00    +0.060 C 
ATOM     12  C   UNL     1      -2.555  -4.563   0.196  0.00  0.00    +0.008 C 
ATOM     13  C   UNL     1      -2.807  -2.464  -0.788  0.00  0.00    +0.037 C 
ATOM     14  C   UNL     1      -4.138  -2.116  -0.229  0.00  0.00    +0.119 C 
ATOM     15  C   UNL     1      -5.115  -2.666  -1.273  0.00  0.00    +0.032 C 
ATOM     16  C   UNL     1      -4.338  -0.494  -0.209  0.00  0.00    +0.149 C 
ATOM     17  C   UNL     1      -4.336  -0.443  -1.936  0.00  0.00    +0.088 C 
ATOM     18  C   UNL     1      -4.879   1.080  -2.069  0.00  0.00    +0.010 C 
ATOM     19  C   UNL     1      -2.822  -0.155  -2.129  0.00  0.00    +0.163 C 
ATOM     20  O   UNL     1      -2.529  -0.549  -3.266  0.00  0.00    -0.295 OA
ATOM     21  C   UNL     1      -1.836   1.048  -1.878  0.00  0.00    +0.156 C 
ATOM     22  C   UNL     1      -2.736   2.288  -2.490  0.00  0.00    +0.020 C 
ATOM     23  C   UNL     1      -2.217   1.260  -0.326  0.00  0.00    +0.324 C 
ATOM     24  O   UNL     1      -3.049   2.141  -0.026  0.00  0.00    -0.250 OA
ATOM     25  C   UNL     1      -0.159  -0.729   2.300  0.00  0.00    +0.049 C 
ATOM     26  O   UNL     1       1.770   0.137   1.031  0.00  0.00    -0.436 OA
ATOM     27  O   UNL     1      -1.563   0.386   0.552  0.00  0.00    -0.448 OA
ENDROOT
BRANCH  14  28
ATOM     28  O   UNL     1      -4.426  -2.606   1.023  0.00  0.00    -0.353 OA
ATOM     29  C   UNL     1      -5.575  -3.402   0.923  0.00  0.00    +0.174 C 
ENDBRANCH  14  28
BRANCH   1  31
ATOM     30  C   UNL     1       0.055   1.709   1.442  0.00  0.00    +0.004 C 
ATOM     31  C   UNL     1       0.278   1.637   0.461  0.00  0.00    +0.047 C 
ENDBRANCH   1  31
BRANCH  16  32
ATOM     32  O   UNL     1      -5.820  -0.636  -0.177  0.00  0.00    -0.328 OA
BRANCH  32  33
ATOM     33  C   UNL     1      -6.318  -0.001   1.111  0.00  0.00    +0.268 C 
ATOM     34  C   UNL     1      -5.330   1.394   0.907  0.00  0.00    +0.222 C 
ATOM     35  O   UNL     1      -4.338   0.852   1.905  0.00  0.00    -0.216 OA
ATOM     36  C   UNL     1      -6.138   2.346   2.058  0.00  0.00    +0.096 C 
ATOM     37  C   UNL     1      -7.280   2.681   0.952  0.00  0.00    +0.048 C 
ATOM     38  C   UNL     1      -8.271   1.406   1.227  0.00  0.00    +0.119 C 
ATOM     39  C   UNL     1      -9.171   1.916  -0.078  0.00  0.00    +0.032 C 
ATOM     40  O   UNL     1      -7.486   0.530   0.302  0.00  0.00    -0.331 OA
BRANCH  36  41
ATOM     41  N   UNL     1      -5.352   3.639   1.694  0.00  0.00    -0.269 NA
ATOM     42  C   UNL     1      -3.925   3.353   1.885  0.00  0.00    +0.090 C 
ATOM     43  C   UNL     1      -5.569   4.056   0.357  0.00  0.00    +0.090 C 
ENDBRANCH  36  41
ENDBRANCH  32  33
ENDBRANCH  16  32
BRANCH   4  44
ATOM     44  C   UNL     1       3.578  -2.325  -0.454  0.00  0.00    +0.097 C 
BRANCH  44  45
ATOM     45  C   UNL     1       4.895  -1.760   0.105  0.00  0.00    +0.024 C 
BRANCH  45  46
ATOM     46  C   UNL     1       4.756  -0.329   0.307  0.00  0.00    +0.026 C 
BRANCH  46  47
ATOM     47  C   UNL     1       5.221   0.333   1.535  0.00  0.00    +0.108 C 
BRANCH  47  48
ATOM     48  N   UNL     1       6.682   0.326   1.403  0.00  0.00    -0.308 N 
ATOM     49  C   UNL     1       7.259   0.773   0.255  0.00  0.00    +0.096 A 
ATOM     50  C   UNL     1       8.552   0.264   0.171  0.00  0.00    +0.102 A 
ATOM     51  N   UNL     1       8.588  -0.647   1.176  0.00  0.00    -0.224 NA
ATOM     52  C   UNL     1       7.327  -0.852   1.641  0.00  0.00    +0.179 A 
BRANCH  50  53
ATOM     53  C   UNL     1       9.642   1.012  -0.441  0.00  0.00    +0.038 A 
ATOM     54  C   UNL     1      10.758   0.401  -1.003  0.00  0.00    +0.100 A 
ATOM     55  N   UNL     1      11.890   1.151  -0.974  0.00  0.00    -0.242 NA
ATOM     56  C   UNL     1      11.852   2.442  -0.553  0.00  0.00    +0.099 A 
ATOM     57  C   UNL     1      10.643   3.122  -0.418  0.00  0.00    +0.021 A 
ATOM     58  C   UNL     1       9.533   2.360  -0.790  0.00  0.00    +0.005 A 
ENDBRANCH  50  53
ENDBRANCH  47  48
ENDBRANCH  46  47
ENDBRANCH  45  46
ENDBRANCH  44  45
ENDBRANCH   4  44
TORSDOF 11
