REMARK  Name = 
REMARK  8 active torsions:
REMARK  status: ('A' for Active; 'I' for Inactive)
REMARK    1  A    between atoms: C_2  and  O_4
REMARK    2  A    between atoms: O_4  and  C_5
REMARK    3  A    between atoms: C_5  and  C_6
REMARK    4  A    between atoms: C_8  and  N_9
REMARK    5  A    between atoms: C_17  and  O_18
REMARK    6  A    between atoms: O_18  and  C_19
REMARK    7  A    between atoms: C_22  and  O_23
REMARK    8  A    between atoms: O_23  and  C_24
REMARK                            x       y       z     vdW  Elec       q    Type
REMARK                         _______ _______ _______ _____ _____    ______ ____
ROOT
ATOM      1  C   UNL     1      -1.592   0.270  -0.300  0.00  0.00    +0.204 C 
ATOM      2  C   UNL     1      -0.893  -0.125   1.234  0.00  0.00    +0.244 C 
ATOM      3  C   UNL     1       0.274  -1.074   0.428  0.00  0.00    +0.260 C 
ATOM      4  C   UNL     1       0.447  -0.024  -0.956  0.00  0.00    +0.253 C 
ATOM      5  O   UNL     1      -0.340   1.149  -0.359  0.00  0.00    -0.327 OA
ENDROOT
BRANCH   4   6
ATOM      6  N   UNL     1       1.833   0.621  -0.428  0.00  0.00    -0.253 N 
ATOM      7  C   UNL     1       2.686  -0.262   0.071  0.00  0.00    +0.355 A 
ATOM      8  O   UNL     1       2.233  -1.050   0.927  0.00  0.00    -0.244 OA
ATOM      9  N   UNL     1       3.950   0.165   0.305  0.00  0.00    -0.153 NA
ATOM     10  C   UNL     1       4.439   1.033  -0.604  0.00  0.00    +0.285 A 
ATOM     11  O   UNL     1       5.681   1.243  -0.613  0.00  0.00    -0.265 OA
ATOM     12  C   UNL     1       3.644   1.610  -1.537  0.00  0.00    +0.081 A 
ATOM     13  C   UNL     1       2.277   1.394  -1.454  0.00  0.00    +0.087 A 
ENDBRANCH   4   6
BRANCH   1  14
ATOM     14  C   UNL     1      -2.471   1.496   0.422  0.00  0.00    +0.242 C 
BRANCH  14  15
ATOM     15  O   UNL     1      -3.135   1.996  -0.737  0.00  0.00    -0.446 OA
BRANCH  15  17
ATOM     16  C   UNL     1      -3.716   4.007  -1.497  0.00  0.00    +0.121 C 
ATOM     17  C   UNL     1      -3.715   3.268  -0.759  0.00  0.00    +0.318 C 
ATOM     18  O   UNL     1      -4.124   3.680   0.356  0.00  0.00    -0.250 OA
ENDBRANCH  15  17
ENDBRANCH  14  15
ENDBRANCH   1  14
BRANCH   3  19
ATOM     19  O   UNL     1      -0.751  -1.913  -0.347  0.00  0.00    -0.444 OA
BRANCH  19  20
ATOM     20  C   UNL     1      -0.261  -2.661  -1.391  0.00  0.00    +0.318 C 
ATOM     21  O   UNL     1       0.855  -3.230  -1.194  0.00  0.00    -0.250 OA
ATOM     22  C   UNL     1      -1.254  -3.532  -2.099  0.00  0.00    +0.121 C 
ENDBRANCH  19  20
ENDBRANCH   3  19
BRANCH   2  23
ATOM     23  O   UNL     1      -1.881  -1.269   1.532  0.00  0.00    -0.446 OA
BRANCH  23  24
ATOM     24  C   UNL     1      -1.412  -2.009   2.602  0.00  0.00    +0.318 C 
ATOM     25  O   UNL     1      -0.845  -1.414   3.554  0.00  0.00    -0.250 OA
ATOM     26  C   UNL     1      -1.931  -3.368   2.843  0.00  0.00    +0.121 C 
ENDBRANCH  23  24
ENDBRANCH   2  23
TORSDOF 8
