REMARK  Name = 
REMARK  10 active torsions:
REMARK  status: ('A' for Active; 'I' for Inactive)
REMARK    1  A    between atoms: C_2  and  O_3
REMARK    2  A    between atoms: O_3  and  C_4
REMARK    3  A    between atoms: C_4  and  C_6
REMARK    4  A    between atoms: C_6  and  C_7
REMARK    5  A    between atoms: C_6  and  N_15
REMARK    6  A    between atoms: C_7  and  C_8
REMARK    7  A    between atoms: C_8  and  C_9
REMARK    8  A    between atoms: N_15  and  CA_16
REMARK    9  A    between atoms: CA_16  and  C_18
REMARK   10  A    between atoms: C_29  and  C_30
REMARK                            x       y       z     vdW  Elec       q    Type
REMARK                         _______ _______ _______ _____ _____    ______ ____
ROOT
ATOM      1  CA  ALA A   1      -0.117  -0.284  -0.545  0.00  0.00    +0.149 C 
ATOM      2  CB  ALA A   1      -0.246  -1.149   0.860  0.00  0.00    +0.029 C 
ENDROOT
BRANCH   1   3
ATOM      3  C   ALA A   1      -1.662   0.187  -0.462  0.00  0.00    +0.242 C 
ATOM      4  N   UNK A   2      -2.495  -0.921  -0.400  0.00  0.00    -0.266 N 
ATOM      5  C   UNK A   2      -3.690  -1.080  -1.415  0.00  0.00    +0.184 C 
ATOM      6  C   UNK A   2      -4.282   0.416  -1.033  0.00  0.00    +0.058 C 
ATOM      7  C   UNK A   2      -4.743   0.306   0.366  0.00  0.00    -0.022 A 
ATOM      8  C   UNK A   2      -3.863  -0.150   1.340  0.00  0.00    -0.006 A 
ATOM      9  C   UNK A   2      -3.895   0.371   2.616  0.00  0.00    -0.003 A 
ATOM     10  C   UNK A   2      -5.072   1.019   2.972  0.00  0.00    -0.000 A 
ATOM     11  C   UNK A   2      -6.181   0.997   2.133  0.00  0.00    -0.000 A 
ATOM     12  C   UNK A   2      -5.984   0.779   0.776  0.00  0.00    -0.004 A 
ATOM     13  C   UNK A   2      -2.969  -1.280   0.938  0.00  0.00    +0.120 C 
ATOM     14  O   ALA A   1      -1.921   1.351  -0.751  0.00  0.00    -0.273 OA
BRANCH   5  15
ATOM     15  C   UNK A   2      -2.817  -0.589  -2.690  0.00  0.00    +0.383 C 
ATOM     16  O   UNK A   2      -2.948  -1.616  -3.645  0.00  0.00    -0.244 OA
ATOM     17  O   UNK A   2      -3.112   0.511  -3.196  0.00  0.00    -0.244 OA
ENDBRANCH   5  15
ENDBRANCH   1   3
BRANCH   1  18
ATOM     18  N   ALA A   1       0.400   1.005   0.192  0.00  0.00    -0.201 NA
BRANCH  18  19
ATOM     19  C   UNK A   0       1.966   0.955  -0.006  0.00  0.00    +0.172 C 
BRANCH  19  20
ATOM     20  C   UNK A   0       1.987  -0.085  -1.255  0.00  0.00    +0.333 C 
ATOM     21  O   UNK A   0       1.567   0.567  -2.266  0.00  0.00    -0.249 OA
BRANCH  20  22
ATOM     22  O   UNK A   0       3.286  -0.543  -1.514  0.00  0.00    -0.448 OA
BRANCH  22  24
ATOM     23  C   UNK A   0       3.152  -1.611  -3.205  0.00  0.00    +0.051 C 
ATOM     24  C   UNK A   0       3.402  -1.532  -2.506  0.00  0.00    +0.209 C 
ENDBRANCH  22  24
ENDBRANCH  20  22
ENDBRANCH  19  20
BRANCH  19  25
ATOM     25  C   UNK A   0       2.136  -0.220   1.137  0.00  0.00    +0.033 C 
BRANCH  25  26
ATOM     26  C   UNK A   0       3.410  -0.903   0.964  0.00  0.00    +0.028 C 
BRANCH  26  27
ATOM     27  C   UNK A   0       4.489  -0.204   1.707  0.00  0.00    -0.022 A 
ATOM     28  C   UNK A   0       5.533  -0.963   2.226  0.00  0.00    -0.004 A 
ATOM     29  C   UNK A   0       6.818  -0.433   2.225  0.00  0.00    -0.000 A 
ATOM     30  C   UNK A   0       7.090   0.807   1.681  0.00  0.00    -0.000 A 
ATOM     31  C   UNK A   0       6.027   1.604   1.272  0.00  0.00    -0.000 A 
ATOM     32  C   UNK A   0       4.734   1.137   1.484  0.00  0.00    -0.004 A 
ENDBRANCH  26  27
ENDBRANCH  25  26
ENDBRANCH  19  25
ENDBRANCH  18  19
ENDBRANCH   1  18
TORSDOF 10
