REMARK  Name = 
REMARK  3 active torsions:
REMARK  status: ('A' for Active; 'I' for Inactive)
REMARK    1  A    between atoms: C_2  and  C_3
REMARK    2  A    between atoms: C_11  and  C_12
REMARK    3  A    between atoms: C_12  and  N_13
REMARK                            x       y       z     vdW  Elec       q    Type
REMARK                         _______ _______ _______ _____ _____    ______ ____
ROOT
ATOM      1  C   UNL     1      -3.071   0.620   0.490  0.00  0.00    -0.005 A 
ATOM      2  C   UNL     1      -1.856  -0.032   0.669  0.00  0.00    +0.045 A 
ATOM      3  C   UNL     1      -0.570   0.589   0.920  0.00  0.00    +0.175 C 
ATOM      4  C   UNL     1       0.691  -0.444   0.930  0.00  0.00    +0.078 C 
ATOM      5  C   UNL     1       0.405  -0.882  -0.648  0.00  0.00    +0.015 C 
ATOM      6  C   UNL     1      -0.682  -1.928  -0.412  0.00  0.00    +0.046 C 
ATOM      7  O   UNL     1      -0.509   1.457   1.821  0.00  0.00    -0.291 OA
ATOM      8  C   UNL     1      -1.930  -1.261   0.062  0.00  0.00    +0.061 A 
ATOM      9  N   UNL     1      -3.255  -1.504  -0.061  0.00  0.00    -0.254 NA
ATOM     10  C   UNL     1      -3.942  -0.341   0.005  0.00  0.00    +0.055 A 
ATOM     11  C   UNL     1      -5.344  -0.121  -0.449  0.00  0.00    +0.052 C 
ENDROOT
BRANCH   1  13
ATOM     12  C   UNL     1      -2.733   2.725  -0.075  0.00  0.00    +0.005 C 
ATOM     13  C   UNL     1      -3.334   2.080   0.650  0.00  0.00    +0.028 C 
ENDBRANCH   1  13
BRANCH   4  14
ATOM     14  C   UNL     1       1.734   0.763   0.470  0.00  0.00    +0.080 C 
BRANCH  14  15
ATOM     15  N   UNL     1       2.676   0.111  -0.402  0.00  0.00    -0.268 NA
ATOM     16  C   UNL     1       3.048  -1.209   0.028  0.00  0.00    +0.105 C 
ATOM     17  C   UNL     1       4.383  -1.230   0.704  0.00  0.00    +0.159 C 
ATOM     18  O   UNL     1       5.418  -0.717  -0.043  0.00  0.00    -0.351 OA
ATOM     19  C   UNL     1       5.079   0.318  -0.882  0.00  0.00    +0.159 C 
ATOM     20  C   UNL     1       3.793   1.005  -0.531  0.00  0.00    +0.105 C 
ENDBRANCH  14  15
ENDBRANCH   4  14
TORSDOF 3
