REMARK  Name = 
REMARK  2 active torsions:
REMARK  status: ('A' for Active; 'I' for Inactive)
REMARK    1  A    between atoms: N1_5  and  C1*_6
REMARK    2  A    between atoms: C4*_8  and  C5*_9
REMARK                            x       y       z     vdW  Elec       q    Type
REMARK                         _______ _______ _______ _____ _____    ______ ____
ROOT
ATOM      1  C1*   C A   1      -0.652  -0.953   0.091  0.00  0.00    +0.242 C 
ATOM      2  C2*   C A   1      -1.217  -0.010   1.407  0.00  0.00    +0.234 C 
ATOM      3  O2*   C A   1      -0.996   1.374   0.881  0.00  0.00    -0.216 OA
ATOM      4  C3*   C A   1      -2.785  -0.048   0.780  0.00  0.00    +0.216 C 
ATOM      5  O3*   C A   1      -2.776  -1.554   0.754  0.00  0.00    -0.218 OA
ATOM      6  C4*   C A   1      -2.406   0.024  -0.878  0.00  0.00    +0.183 C 
ATOM      7  O4*   C A   1      -0.930   0.230  -0.787  0.00  0.00    -0.330 OA
ENDROOT
BRANCH   1  13
ATOM      8  N4    C A   1       4.318   1.001  -1.071  0.00  0.00    -0.107 NA
ATOM      9  C4    C A   1       3.295   0.349  -0.377  0.00  0.00    +0.176 A 
ATOM     10  N3    C A   1       2.976  -0.959  -0.536  0.00  0.00    -0.174 NA
ATOM     11  C2    C A   1       1.700  -1.389  -0.372  0.00  0.00    +0.353 A 
ATOM     12  O2    C A   1       1.507  -2.628  -0.360  0.00  0.00    -0.244 OA
ATOM     13  N1    C A   1       0.859  -0.586   0.327  0.00  0.00    -0.254 N 
ATOM     14  C6    C A   1       1.223   0.620   0.604  0.00  0.00    +0.085 A 
ATOM     15  C5    C A   1       2.533   1.004   0.585  0.00  0.00    +0.057 A 
ENDBRANCH   1  13
BRANCH   6  16
ATOM     16  C5*   C A   1      -2.666   1.651  -0.936  0.00  0.00    +0.214 C 
ATOM     17  O5*   C A   1      -3.983   1.873  -0.694  0.00  0.00    -0.218 OA
ENDBRANCH   6  16
TORSDOF 2
