REMARK  Name = 
REMARK  5 active torsions:
REMARK  status: ('A' for Active; 'I' for Inactive)
REMARK    1  A    between atoms: C_2  and  C_3
REMARK    2  A    between atoms: C_2  and  O_14
REMARK    3  A    between atoms: C_3  and  N_4
REMARK    4  A    between atoms: O_14  and  C_15
REMARK    5  A    between atoms: C_15  and  P_16
REMARK                            x       y       z     vdW  Elec       q    Type
REMARK                         _______ _______ _______ _____ _____    ______ ____
ROOT
ATOM      1  N   UNL     1      -0.884  -1.032  -0.422  0.00  0.00    -0.292 N 
ATOM      2  C   UNL     1      -2.050  -0.344  -0.388  0.00  0.00    +0.167 A 
ATOM      3  N   UNL     1      -2.763   0.313  -1.309  0.00  0.00    -0.205 NA
ATOM      4  C   UNL     1      -3.909   0.934  -0.935  0.00  0.00    +0.202 A 
ATOM      5  N   UNL     1      -3.924   1.481   0.305  0.00  0.00    -0.204 NA
ATOM      6  C   UNL     1      -3.233   0.899   1.307  0.00  0.00    +0.192 A 
ATOM      7  N   UNL     1      -3.112   1.429   2.604  0.00  0.00    -0.105 NA
ATOM      8  C   UNL     1      -2.390  -0.144   0.940  0.00  0.00    +0.152 A 
ATOM      9  N   UNL     1      -1.763  -1.139   1.607  0.00  0.00    -0.219 NA
ATOM     10  C   UNL     1      -0.837  -1.664   0.767  0.00  0.00    +0.180 A 
ENDROOT
BRANCH   1  11
ATOM     11  C   UNL     1       0.170  -0.895  -1.422  0.00  0.00    +0.138 C 
BRANCH  11  13
ATOM     12  C   UNL     1       1.677  -2.752  -1.194  0.00  0.00    +0.034 C 
ATOM     13  C   UNL     1       1.567  -1.207  -0.539  0.00  0.00    +0.138 C 
BRANCH  13  14
ATOM     14  O   UNL     1       2.454  -0.619  -1.662  0.00  0.00    -0.346 OA
BRANCH  14  15
ATOM     15  C   UNL     1       2.594   0.686  -1.229  0.00  0.00    +0.200 C 
BRANCH  15  16
ATOM     16  P   UNL     1       3.837   0.924   0.035  0.00  0.00    +0.147 P 
ATOM     17  O   UNL     1       3.664  -0.127   1.347  0.00  0.00    -0.355 OA
ATOM     18  O   UNL     1       3.652   2.487   0.662  0.00  0.00    -0.355 OA
ATOM     19  O   UNL     1       5.250   0.769  -0.474  0.00  0.00    -0.458 OA
ENDBRANCH  15  16
ENDBRANCH  14  15
ENDBRANCH  13  14
ENDBRANCH  11  13
ENDBRANCH   1  11
TORSDOF 5
