REMARK  Name = 
REMARK  13 active torsions:
REMARK  status: ('A' for Active; 'I' for Inactive)
REMARK    1  A    between atoms: C_6  and  C_7
REMARK    2  A    between atoms: C_7  and  N_8
REMARK    3  A    between atoms: N_11  and  C_12
REMARK    4  A    between atoms: C_15  and  C_16
REMARK    5  A    between atoms: N_18  and  S_19
REMARK    6  A    between atoms: S_19  and  C_22
REMARK    7  A    between atoms: C_25  and  N_26
REMARK    8  A    between atoms: N_26  and  C_27
REMARK    9  A    between atoms: C_27  and  C_28
REMARK   10  A    between atoms: C_34  and  N_35
REMARK   11  A    between atoms: C_39  and  O_40
REMARK   12  A    between atoms: O_40  and  C_41
REMARK   13  A    between atoms: C_53  and  C_54
REMARK                            x       y       z     vdW  Elec       q    Type
REMARK                         _______ _______ _______ _____ _____    ______ ____
ROOT
ATOM      1  C   UNL     1       1.947  -0.507  -0.707  0.00  0.00    +0.051 A 
ATOM      2  C   UNL     1       1.302   0.359   0.167  0.00  0.00    +0.052 A 
ATOM      3  C   UNL     1      -0.009   0.746  -0.079  0.00  0.00    +0.151 A 
ATOM      4  C   UNL     1      -0.692   0.320  -1.212  0.00  0.00    +0.091 A 
ATOM      5  C   UNL     1       0.110  -0.176  -2.233  0.00  0.00    +0.009 A 
ATOM      6  C   UNL     1       1.429  -0.540  -1.996  0.00  0.00    +0.015 A 
ENDROOT
BRANCH   1  10
ATOM      7  N   UNL     1       5.387  -0.558   0.023  0.00  0.00    -0.266 NA
ATOM      8  C   UNL     1       4.859  -0.892  -1.272  0.00  0.00    +0.094 C 
ATOM      9  C   UNL     1       3.813  -1.994  -1.214  0.00  0.00    +0.108 C 
ATOM     10  N   UNL     1       2.819  -1.545  -0.241  0.00  0.00    -0.305 N 
ATOM     11  C   UNL     1       3.334  -1.369   1.115  0.00  0.00    +0.108 C 
ATOM     12  C   UNL     1       4.384  -0.274   1.012  0.00  0.00    +0.094 C 
BRANCH   7  13
ATOM     13  C   UNL     1       6.346  -1.512   0.521  0.00  0.00    +0.095 C 
BRANCH  13  18
ATOM     14  C   UNL     1      10.699  -4.133  -0.592  0.00  0.00    +0.000 C 
ATOM     15  C   UNL     1       9.322  -3.893  -1.164  0.00  0.00    +0.004 C 
ATOM     16  C   UNL     1       9.162  -2.514  -1.740  0.00  0.00    +0.026 C 
ATOM     17  C   UNL     1       8.182  -1.684  -1.010  0.00  0.00    -0.029 C 
ATOM     18  C   UNL     1       7.041  -2.224  -0.581  0.00  0.00    -0.032 C 
ATOM     19  C   UNL     1       6.959  -3.718  -0.564  0.00  0.00    +0.023 C 
ATOM     20  C   UNL     1       8.305  -4.220  -0.105  0.00  0.00    +0.005 C 
ATOM     21  C   UNL     1       9.117  -4.883  -2.300  0.00  0.00    +0.000 C 
BRANCH  17  22
ATOM     22  C   UNL     1       8.671  -0.418  -0.449  0.00  0.00    -0.004 A 
ATOM     23  C   UNL     1       8.354   0.808  -0.972  0.00  0.00    +0.001 A 
ATOM     24  C   UNL     1       8.323   1.924  -0.146  0.00  0.00    +0.011 A 
ATOM     25  C   UNL     1       8.550   1.779   1.217  0.00  0.00    +0.058 A 
ATOM     26 CL   UNL     1       8.266   3.081   2.352  0.00  0.00    -0.082 Cl
ATOM     27  C   UNL     1       9.328   0.685   1.574  0.00  0.00    +0.011 A 
ATOM     28  C   UNL     1       9.317  -0.445   0.765  0.00  0.00    +0.001 A 
ENDBRANCH  17  22
ENDBRANCH  13  18
ENDBRANCH   7  13
ENDBRANCH   1  10
BRANCH   4  29
ATOM     29  C   UNL     1      -2.116  -0.040  -1.169  0.00  0.00    +0.289 C 
ATOM     30  N   UNL     1      -2.447  -1.271  -0.515  0.00  0.00    -0.055 NA
ATOM     31  O   UNL     1      -2.752   0.177  -2.245  0.00  0.00    -0.267 OA
BRANCH  30  32
ATOM     32  S   UNL     1      -3.913  -2.119  -0.803  0.00  0.00    +0.096 S 
ATOM     33  O   UNL     1      -3.837  -2.980  -2.020  0.00  0.00    -0.148 OA
ATOM     34  O   UNL     1      -4.178  -2.998   0.386  0.00  0.00    -0.148 OA
BRANCH  32  35
ATOM     35  C   UNL     1      -5.202  -0.955  -0.884  0.00  0.00    +0.133 A 
ATOM     36  C   UNL     1      -5.237   0.022   0.102  0.00  0.00    +0.097 A 
ATOM     37  C   UNL     1      -6.349   0.799   0.284  0.00  0.00    +0.306 A 
ATOM     38  C   UNL     1      -7.375   0.727  -0.648  0.00  0.00    +0.135 A 
ATOM     39  C   UNL     1      -7.164  -0.032  -1.784  0.00  0.00    +0.024 A 
ATOM     40  C   UNL     1      -6.008  -0.773  -1.979  0.00  0.00    +0.022 A 
BRANCH  37  41
ATOM     41  N   UNL     1      -6.532   1.628   1.437  0.00  0.00    +0.082 N 
ATOM     42  O   UNL     1      -7.797   1.821   1.958  0.00  0.00    -0.576 OA
ATOM     43  O   UNL     1      -5.588   1.665   2.265  0.00  0.00    +0.042 OA
ENDBRANCH  37  41
BRANCH  38  44
ATOM     44  N   UNL     1      -8.722   1.054  -0.289  0.00  0.00    -0.232 NA
BRANCH  44  45
ATOM     45  C   UNL     1      -9.790   0.078  -0.476  0.00  0.00    +0.113 C 
BRANCH  45  46
ATOM     46  C   UNL     1      -9.240  -1.328  -0.412  0.00  0.00    +0.027 C 
ATOM     47  C   UNL     1      -9.712  -2.142  -1.584  0.00  0.00    +0.034 C 
ATOM     48  C   UNL     1     -10.724  -3.195  -1.185  0.00  0.00    +0.142 C 
ATOM     49  O   UNL     1     -11.535  -2.652  -0.186  0.00  0.00    -0.354 OA
ATOM     50  C   UNL     1     -10.866  -2.595   1.024  0.00  0.00    +0.142 C 
ATOM     51  C   UNL     1      -9.495  -1.986   0.915  0.00  0.00    +0.034 C 
ENDBRANCH  45  46
ENDBRANCH  44  45
ENDBRANCH  38  44
ENDBRANCH  32  35
ENDBRANCH  30  32
ENDBRANCH   4  29
BRANCH   3  52
ATOM     52  O   UNL     1      -0.811   1.282   0.933  0.00  0.00    -0.452 OA
BRANCH  52  53
ATOM     53  C   UNL     1      -0.799   2.618   1.278  0.00  0.00    +0.164 A 
ATOM     54  C   UNL     1       0.135   3.518   0.787  0.00  0.00    +0.042 A 
ATOM     55  C   UNL     1      -0.098   4.869   0.998  0.00  0.00    +0.040 A 
ATOM     56  C   UNL     1      -1.310   5.306   1.508  0.00  0.00    +0.163 A 
ATOM     57  N   UNL     1      -1.444   6.629   1.254  0.00  0.00    -0.225 NA
ATOM     58  C   UNL     1      -0.260   7.130   0.848  0.00  0.00    +0.101 A 
ATOM     59  N   UNL     1      -2.118   4.408   2.103  0.00  0.00    -0.222 NA
ATOM     60  C   UNL     1       0.565   6.035   0.635  0.00  0.00    +0.024 A 
ATOM     61  C   UNL     1      -1.908   3.096   1.965  0.00  0.00    +0.138 A 
ENDBRANCH  52  53
ENDBRANCH   3  52
TORSDOF 13
