REMARK  Name = 
REMARK  3 active torsions:
REMARK  status: ('A' for Active; 'I' for Inactive)
REMARK    1  A    between atoms: C_5  and  C_6
REMARK    2  A    between atoms: C_6  and  C_7
REMARK    3  A    between atoms: C_6  and  C_14
REMARK                            x       y       z     vdW  Elec       q    Type
REMARK                         _______ _______ _______ _____ _____    ______ ____
ROOT
ATOM      1  C   UNL     1      -0.464   1.081  -0.761  0.00  0.00    +0.076 C 
ENDROOT
BRANCH   1   6
ATOM      2 CL   UNL     1       4.853  -0.763   1.042  0.00  0.00    -0.082 Cl
ATOM      3  C   UNL     1       3.469  -0.428   0.008  0.00  0.00    +0.058 A 
ATOM      4  C   UNL     1       2.428  -1.340  -0.134  0.00  0.00    +0.011 A 
ATOM      5  C   UNL     1       1.159  -0.775  -0.070  0.00  0.00    -0.003 A 
ATOM      6  C   UNL     1       0.966   0.309  -0.869  0.00  0.00    -0.016 A 
ATOM      7  C   UNL     1       2.027   1.217  -0.834  0.00  0.00    -0.003 A 
ATOM      8  C   UNL     1       3.338   0.762  -0.698  0.00  0.00    +0.011 A 
ENDBRANCH   1   6
BRANCH   1   9
ATOM      9  C   UNL     1      -1.304  -0.232  -0.276  0.00  0.00    -0.005 A 
ATOM     10  C   UNL     1      -2.563   0.058   0.196  0.00  0.00    +0.054 A 
ATOM     11 CL   UNL     1      -3.235   1.652   0.332  0.00  0.00    -0.083 Cl
ATOM     12  C   UNL     1      -3.342  -1.044   0.527  0.00  0.00    +0.011 A 
ATOM     13  C   UNL     1      -3.041  -2.293   0.004  0.00  0.00    +0.001 A 
ATOM     14  C   UNL     1      -1.948  -2.408  -0.845  0.00  0.00    -0.000 A 
ATOM     15  C   UNL     1      -1.239  -1.269  -1.205  0.00  0.00    -0.003 A 
ENDBRANCH   1   9
BRANCH   1  16
ATOM     16  C   UNL     1      -0.121   1.614   0.767  0.00  0.00    +0.167 C 
ATOM     17 CL   UNL     1      -0.530   0.552   1.976  0.00  0.00    -0.096 Cl
ATOM     18 CL   UNL     1      -0.452   3.305   0.841  0.00  0.00    -0.096 Cl
ENDBRANCH   1  16
TORSDOF 3
