REMARK  Name = 
REMARK  4 active torsions:
REMARK  status: ('A' for Active; 'I' for Inactive)
REMARK    1  A    between atoms: O_2  and  C_3
REMARK    2  A    between atoms: C_6  and  C_7
REMARK    3  A    between atoms: C_12  and  C_13
REMARK    4  A    between atoms: C_21  and  C_22
REMARK                            x       y       z     vdW  Elec       q    Type
REMARK                         _______ _______ _______ _____ _____    ______ ____
ROOT
ATOM      1  C   UNL     1      -2.385  -1.656   1.085  0.00  0.00    +0.135 A 
ATOM      2  C   UNL     1      -2.266  -0.367   0.579  0.00  0.00    +0.011 A 
ATOM      3  C   UNL     1      -1.004   0.117   0.257  0.00  0.00    -0.001 A 
ATOM      4  C   UNL     1       0.127  -0.545   0.717  0.00  0.00    -0.000 A 
ATOM      5  C   UNL     1      -0.091  -1.511   1.691  0.00  0.00    +0.003 A 
ATOM      6  C   UNL     1      -1.331  -2.113   1.868  0.00  0.00    +0.037 A 
ENDROOT
BRANCH   2   7
ATOM      7  C   UNL     1      -3.521   0.278   0.144  0.00  0.00    +0.022 C 
ATOM      8  C   UNL     1      -3.334   1.673  -0.371  0.00  0.00    +0.004 C 
ATOM      9  C   UNL     1      -4.712   2.188  -0.770  0.00  0.00    +0.000 C 
ATOM     10  C   UNL     1      -5.368   1.268  -1.785  0.00  0.00    +0.000 C 
ATOM     11  C   UNL     1      -5.560  -0.123  -1.229  0.00  0.00    +0.000 C 
ATOM     12  C   UNL     1      -6.404  -0.084   0.016  0.00  0.00    +0.000 C 
ATOM     13  C   UNL     1      -5.793   0.868   1.021  0.00  0.00    +0.000 C 
ATOM     14  C   UNL     1      -5.641   2.242   0.428  0.00  0.00    +0.000 C 
ATOM     15  C   UNL     1      -4.195  -0.642  -0.835  0.00  0.00    +0.004 C 
ATOM     16  C   UNL     1      -4.416   0.369   1.374  0.00  0.00    +0.004 C 
ENDBRANCH   2   7
BRANCH   4  17
ATOM     17  C   UNL     1       1.419  -0.457   0.028  0.00  0.00    -0.000 A 
ATOM     18  C   UNL     1       2.081   0.752  -0.141  0.00  0.00    -0.000 A 
ATOM     19  C   UNL     1       3.446   0.765  -0.399  0.00  0.00    +0.000 A 
ATOM     20  C   UNL     1       4.160  -0.399  -0.149  0.00  0.00    +0.000 A 
ATOM     21  C   UNL     1       5.508  -0.262   0.105  0.00  0.00    +0.007 A 
ATOM     22  C   UNL     1       6.203   0.878  -0.277  0.00  0.00    +0.080 A 
ATOM     23  C   UNL     1       5.495   1.871  -0.945  0.00  0.00    +0.007 A 
ATOM     24  C   UNL     1       3.530  -1.615  -0.301  0.00  0.00    +0.000 A 
ATOM     25  C   UNL     1       4.112   1.901  -0.819  0.00  0.00    +0.000 A 
ATOM     26  C   UNL     1       2.140  -1.594  -0.315  0.00  0.00    -0.000 A 
BRANCH  22  27
ATOM     27  C   UNL     1       7.669   0.818  -0.310  0.00  0.00    +0.388 C 
ATOM     28  O   UNL     1       8.453   1.960  -0.170  0.00  0.00    -0.241 OA
ATOM     29  O   UNL     1       8.278  -0.291  -0.296  0.00  0.00    -0.241 OA
ENDBRANCH  22  27
ENDBRANCH   4  17
BRANCH   1  31
ATOM     30  C   UNL     1      -3.185  -3.779   0.115  0.00  0.00    +0.252 C 
ATOM     31  O   UNL     1      -3.416  -2.509   0.680  0.00  0.00    -0.472 OA
ENDBRANCH   1  31
TORSDOF 4
