REMARK  Name = 
REMARK  7 active torsions:
REMARK  status: ('A' for Active; 'I' for Inactive)
REMARK    1  A    between atoms: C_2  and  C_3
REMARK    2  A    between atoms: C_3  and  C_4
REMARK    3  A    between atoms: C_4  and  C_5
REMARK    4  A    between atoms: C_5  and  C_6
REMARK    5  A    between atoms: C_6  and  O_8
REMARK    6  A    between atoms: O_8  and  C_9
REMARK    7  A    between atoms: C_9  and  C_10
REMARK                            x       y       z     vdW  Elec       q    Type
REMARK                         _______ _______ _______ _____ _____    ______ ____
ROOT
ATOM      1  C   UNL     1      -1.436  -1.929  -0.141  0.00  0.00    +0.186 C 
ATOM      2  C   UNL     1      -0.023  -1.526  -0.330  0.00  0.00    +0.040 C 
ATOM      3  C   UNL     1      -0.185  -0.133   0.524  0.00  0.00    +0.004 C 
ATOM      4  C   UNL     1       1.490  -0.024   0.840  0.00  0.00    +0.001 C 
ATOM      5  C   UNL     1       1.728   0.865  -0.599  0.00  0.00    +0.003 C 
ATOM      6  C   UNL     1       1.796  -0.503  -1.514  0.00  0.00    +0.000 C 
ATOM      7  C   UNL     1       3.349   0.948  -0.388  0.00  0.00    +0.016 C 
ATOM      8  C   UNL     1       3.550   1.385   1.021  0.00  0.00    -0.042 C 
ATOM      9  C   UNL     1       4.844   1.463   1.335  0.00  0.00    +0.029 C 
ATOM     10  C   UNL     1       5.755   1.547   0.184  0.00  0.00    +0.173 C 
ATOM     11  C   UNL     1       5.237   2.356  -0.965  0.00  0.00    +0.069 C 
ATOM     12  O   UNL     1       6.997   1.444   0.286  0.00  0.00    -0.291 OA
ATOM     13  C   UNL     1       2.515   2.078   1.801  0.00  0.00    +0.022 C 
ATOM     14  C   UNL     1       3.990  -0.342  -0.572  0.00  0.00    +0.004 C 
ATOM     15  C   UNL     1       3.802   2.062  -1.279  0.00  0.00    +0.012 C 
ATOM     16  C   UNL     1       1.252   1.301   1.726  0.00  0.00    +0.004 C 
ATOM     17  C   UNL     1      -0.459  -1.004   1.889  0.00  0.00    +0.004 C 
ATOM     18  C   UNL     1       0.908  -2.399   0.399  0.00  0.00    +0.004 C 
ATOM     19  C   UNL     1       0.383  -0.997  -1.640  0.00  0.00    +0.004 C 
ATOM     20  C   UNL     1      -1.598  -1.879   1.375  0.00  0.00    +0.047 C 
ENDROOT
BRANCH   1  21
ATOM     21  C   UNL     1      -1.789  -3.265  -0.679  0.00  0.00    +0.187 C 
ATOM     22  O   UNL     1      -2.075  -3.321  -1.874  0.00  0.00    -0.292 OA
ATOM     23  C   UNL     1      -2.583  -4.154   0.232  0.00  0.00    +0.076 C 
ENDBRANCH   1  21
BRANCH   1  24
ATOM     24  O   UNL     1      -2.268  -0.978  -0.784  0.00  0.00    -0.449 OA
BRANCH  24  25
ATOM     25  C   UNL     1      -3.387  -0.519  -0.112  0.00  0.00    +0.317 C 
ATOM     26  O   UNL     1      -3.447  -0.521   1.139  0.00  0.00    -0.250 OA
BRANCH  25  27
ATOM     27  C   UNL     1      -4.404   0.230  -0.912  0.00  0.00    +0.110 C 
BRANCH  27  28
ATOM     28  C   UNL     1      -5.755   0.190  -0.225  0.00  0.00    +0.012 C 
BRANCH  28  29
ATOM     29  C   UNL     1      -6.552   1.373  -0.717  0.00  0.00    +0.001 C 
BRANCH  29  31
ATOM     30  C   UNL     1      -6.068   3.784  -0.559  0.00  0.00    +0.000 C 
ATOM     31  C   UNL     1      -5.565   2.469  -1.069  0.00  0.00    +0.000 C 
ENDBRANCH  29  31
ENDBRANCH  28  29
ENDBRANCH  27  28
ENDBRANCH  25  27
ENDBRANCH  24  25
ENDBRANCH   1  24
TORSDOF 7
