REMARK  Name = 
REMARK  1 active torsions:
REMARK  status: ('A' for Active; 'I' for Inactive)
REMARK    1  A    between atoms: C_8  and  N_9
REMARK                            x       y       z     vdW  Elec       q    Type
REMARK                         _______ _______ _______ _____ _____    ______ ____
ROOT
ATOM      1  C   UNL     1      -1.104   2.251  -0.538  0.00  0.00    +0.131 C 
ATOM      2  N   UNL     1      -1.018   0.820  -0.290  0.00  0.00    -0.323 N 
ATOM      3  C   UNL     1       0.153   0.355   0.389  0.00  0.00    +0.083 A 
ATOM      4  C   UNL     1       1.319   0.969   0.326  0.00  0.00    +0.162 C 
ATOM      5  C   UNL     1       0.164  -1.028   0.872  0.00  0.00    +0.019 A 
ATOM      6  C   UNL     1      -0.898  -1.786   0.623  0.00  0.00    +0.003 A 
ATOM      7  C   UNL     1      -1.934  -1.348  -0.294  0.00  0.00    +0.019 A 
ATOM      8  C   UNL     1      -2.044  -0.087  -0.716  0.00  0.00    +0.076 A 
ENDROOT
BRANCH   4   9
ATOM      9  N   UNL     1       2.563   0.256   0.338  0.00  0.00    -0.026 NA
ATOM     10  O   UNL     1       2.799  -0.401  -0.709  0.00  0.00    -0.143 OA
ENDBRANCH   4   9
TORSDOF 1
