REMARK  Name = 
REMARK  8 active torsions:
REMARK  status: ('A' for Active; 'I' for Inactive)
REMARK    1  A    between atoms: C_5  and  C_6
REMARK    2  A    between atoms: N_9  and  C_10
REMARK    3  A    between atoms: N_17  and  C_18
REMARK    4  A    between atoms: C_18  and  C_19
REMARK    5  A    between atoms: C_19  and  C_20
REMARK    6  A    between atoms: C_20  and  N_21
REMARK    7  A    between atoms: C_20  and  C_32
REMARK    8  A    between atoms: C_22  and  C_24
REMARK                            x       y       z     vdW  Elec       q    Type
REMARK                         _______ _______ _______ _____ _____    ______ ____
ROOT
ATOM      1  C   UNL     1      -1.169  -0.515  -1.845  0.00  0.00    +0.043 C 
ENDROOT
BRANCH   1   2
ATOM      2  C   UNL     1      -0.296  -0.606  -0.647  0.00  0.00    +0.074 C 
BRANCH   2   6
ATOM      3  C   UNL     1       3.259   1.145  -0.926  0.00  0.00    +0.090 C 
ATOM      4  C   UNL     1       2.701   1.324   0.307  0.00  0.00    +0.039 C 
ATOM      5  C   UNL     1       1.299   0.561   0.689  0.00  0.00    +0.059 C 
ATOM      6  N   UNL     1       0.963   0.042  -0.745  0.00  0.00    -0.275 NA
ATOM      7  C   UNL     1       2.054  -1.033  -1.020  0.00  0.00    +0.059 C 
ATOM      8  C   UNL     1       2.979  -0.810   0.313  0.00  0.00    +0.017 C 
ATOM      9  C   UNL     1       1.920  -0.888   1.201  0.00  0.00    +0.017 C 
ATOM     10  C   UNL     1       2.911   0.062  -1.903  0.00  0.00    +0.039 C 
BRANCH   3  13
ATOM     11  C   UNL     1       4.860   1.131  -3.235  0.00  0.00    +0.074 C 
ATOM     12  C   UNL     1       5.371   1.326  -2.077  0.00  0.00    +0.143 A 
ATOM     13  N   UNL     1       4.688   1.241  -0.914  0.00  0.00    -0.304 N 
ATOM     14  C   UNL     1       5.598   1.459   0.028  0.00  0.00    +0.142 A 
ATOM     15  N   UNL     1       6.768   0.949  -0.445  0.00  0.00    -0.134 NA
ATOM     16  N   UNL     1       6.673   1.152  -1.759  0.00  0.00    -0.134 NA
BRANCH  14  17
ATOM     17  C   UNL     1       5.329   1.833   1.427  0.00  0.00    +0.059 C 
ATOM     18  C   UNL     1       4.841   3.244   1.610  0.00  0.00    +0.008 C 
ATOM     19  C   UNL     1       6.677   1.837   2.152  0.00  0.00    +0.008 C 
ENDBRANCH  14  17
ENDBRANCH   3  13
ENDBRANCH   2   6
ENDBRANCH   1   2
BRANCH   1  20
ATOM     20  C   UNL     1      -2.656  -0.999  -1.321  0.00  0.00    +0.119 C 
BRANCH  20  21
ATOM     21  C   UNL     1      -2.109  -2.300  -0.508  0.00  0.00    -0.003 A 
ATOM     22  C   UNL     1      -1.255  -2.992  -1.380  0.00  0.00    -0.003 A 
ATOM     23  C   UNL     1      -0.844  -4.293  -1.142  0.00  0.00    -0.000 A 
ATOM     24  C   UNL     1      -1.494  -4.942  -0.126  0.00  0.00    -0.000 A 
ATOM     25  C   UNL     1      -2.766  -4.472   0.162  0.00  0.00    -0.000 A 
ATOM     26  C   UNL     1      -3.156  -3.226  -0.329  0.00  0.00    -0.003 A 
ENDBRANCH  20  21
BRANCH  20  27
ATOM     27  N   UNL     1      -2.629   0.036  -0.128  0.00  0.00    -0.203 NA
ATOM     28  C   UNL     1      -3.319  -0.447   1.034  0.00  0.00    +0.241 C 
ATOM     29  O   UNL     1      -2.467  -1.177   1.576  0.00  0.00    -0.273 OA
BRANCH  28  30
ATOM     30  C   UNL     1      -4.138   0.492   1.858  0.00  0.00    +0.079 C 
ATOM     31  C   UNL     1      -4.021   1.898   1.350  0.00  0.00    +0.015 C 
ATOM     32  C   UNL     1      -4.784   2.158   0.084  0.00  0.00    +0.067 C 
ATOM     33  C   UNL     1      -6.223   1.808   0.349  0.00  0.00    +0.264 C 
ATOM     34  F   UNL     1      -6.726   2.564   1.365  0.00  0.00    -0.204 F 
ATOM     35  F   UNL     1      -6.946   2.090  -0.781  0.00  0.00    -0.204 F 
ATOM     36  C   UNL     1      -6.307   0.325   0.600  0.00  0.00    +0.067 C 
ATOM     37  C   UNL     1      -5.585   0.020   1.907  0.00  0.00    +0.015 C 
ENDBRANCH  28  30
ENDBRANCH  20  27
ENDBRANCH   1  20
TORSDOF 8
