REMARK  Name = 
REMARK  2 active torsions:
REMARK  status: ('A' for Active; 'I' for Inactive)
REMARK    1  A    between atoms: C_2  and  C_3
REMARK    2  A    between atoms: C_2  and  N_12
REMARK                            x       y       z     vdW  Elec       q    Type
REMARK                         _______ _______ _______ _____ _____    ______ ____
ROOT
ATOM      1  C   UNL     1       0.355  -0.734   0.088  0.00  0.00    +0.026 A 
ATOM      2  S   UNL     1      -0.148   0.544   1.122  0.00  0.00    -0.090 S 
ATOM      3  C   UNL     1      -1.861   0.425   0.984  0.00  0.00    +0.029 A 
ATOM      4  C   UNL     1      -1.968  -0.612   0.067  0.00  0.00    +0.006 A 
ATOM      5  C   UNL     1      -3.252  -0.717  -0.477  0.00  0.00    +0.001 A 
ATOM      6  C   UNL     1      -3.924   0.460  -0.797  0.00  0.00    +0.000 A 
ATOM      7  C   UNL     1      -3.889   1.445   0.186  0.00  0.00    +0.001 A 
ATOM      8  C   UNL     1      -2.927   1.310   1.186  0.00  0.00    +0.006 A 
ATOM      9  C   UNL     1      -0.851  -1.293  -0.177  0.00  0.00    +0.004 A 
ENDROOT
BRANCH   1  11
ATOM     10  C   UNL     1       1.420  -2.060  -1.582  0.00  0.00    +0.027 C 
ATOM     11  C   UNL     1       1.389  -0.447  -1.161  0.00  0.00    +0.109 C 
BRANCH  11  12
ATOM     12  N   UNL     1       2.681  -0.600  -0.232  0.00  0.00    -0.264 N 
ATOM     13  C   UNL     1       2.872   0.669   0.422  0.00  0.00    +0.188 C 
ATOM     14  O   UNL     1       2.700   1.726  -0.236  0.00  0.00    -0.524 OA
ATOM     15  N   UNL     1       3.638   0.786   1.613  0.00  0.00    -0.102 NA
ATOM     16  O   UNL     1       3.767  -0.903  -1.006  0.00  0.00    -0.418 OA
ENDBRANCH  11  12
ENDBRANCH   1  11
TORSDOF 2
