REMARK  Name = 
REMARK  1 active torsions:
REMARK  status: ('A' for Active; 'I' for Inactive)
REMARK    1  A    between atoms: C_10  and  C_11
REMARK                            x       y       z     vdW  Elec       q    Type
REMARK                         _______ _______ _______ _____ _____    ______ ____
ROOT
ATOM      1  C   UNL     1       4.133  -2.496   0.126  0.00  0.00    +0.090 C 
ATOM      2  N   UNL     1       3.843  -1.091   0.284  0.00  0.00    -0.271 NA
ATOM      3  C   UNL     1       2.763  -0.817   1.184  0.00  0.00    +0.077 C 
ATOM      4  C   UNL     1       1.495  -1.307   0.521  0.00  0.00    +0.039 C 
ATOM      5  C   UNL     1       1.343  -0.492  -0.725  0.00  0.00    -0.039 C 
ATOM      6  C   UNL     1       0.162   0.118  -0.852  0.00  0.00    +0.026 C 
ATOM      7  C   UNL     1       0.050   1.482  -0.312  0.00  0.00    -0.002 A 
ATOM      8  C   UNL     1      -1.013   2.109   0.328  0.00  0.00    -0.020 A 
ATOM      9  C   UNL     1      -0.923   3.431   0.724  0.00  0.00    -0.004 A 
ATOM     10  C   UNL     1       0.329   4.028   0.777  0.00  0.00    -0.000 A 
ATOM     11  C   UNL     1       1.390   3.356   0.190  0.00  0.00    -0.000 A 
ATOM     12  C   UNL     1      -2.210   1.427   0.916  0.00  0.00    +0.051 C 
ATOM     13  C   UNL     1      -2.931   0.600  -0.107  0.00  0.00    +0.112 C 
ATOM     14  N   UNL     1      -2.261  -0.626  -0.448  0.00  0.00    -0.308 N 
ATOM     15  C   UNL     1      -2.782  -1.829  -0.102  0.00  0.00    +0.123 A 
ATOM     16  C   UNL     1      -1.976  -2.738  -0.778  0.00  0.00    +0.121 A 
ATOM     17  N   UNL     1      -0.944  -2.057  -1.336  0.00  0.00    -0.225 NA
ATOM     18  C   UNL     1       1.293   2.048  -0.251  0.00  0.00    -0.000 A 
ATOM     19  C   UNL     1      -0.994  -0.790  -0.906  0.00  0.00    +0.143 A 
ATOM     20  C   UNL     1       2.499  -0.070  -1.527  0.00  0.00    +0.039 C 
ATOM     21  C   UNL     1       3.829  -0.352  -0.934  0.00  0.00    +0.077 C 
ENDROOT
BRANCH  15  22
ATOM     22  C   UNL     1      -3.666  -2.150   1.023  0.00  0.00    +0.253 C 
ATOM     23  O   UNL     1      -3.428  -1.784   2.205  0.00  0.00    -0.281 OA
ENDBRANCH  15  22
TORSDOF 1
