REMARK  Name = 
REMARK  2 active torsions:
REMARK  status: ('A' for Active; 'I' for Inactive)
REMARK    1  A    between atoms: C_4  and  C_5
REMARK    2  A    between atoms: N_7  and  C_8
REMARK                            x       y       z     vdW  Elec       q    Type
REMARK                         _______ _______ _______ _____ _____    ______ ____
ROOT
ATOM      1  C   UNL     1       0.425  -0.256   0.060  0.00  0.00    +0.284 C 
ATOM      2  N   UNL     1      -0.639  -0.298  -0.879  0.00  0.00    -0.202 NA
ATOM      3  O   UNL     1       0.098  -0.069   1.272  0.00  0.00    -0.267 OA
ENDROOT
BRANCH   1  11
ATOM      4  C   UNL     1       3.933   2.825  -0.249  0.00  0.00    +0.154 C 
ATOM      5  N   UNL     1       3.381   1.732  -0.260  0.00  0.00    -0.249 N 
ATOM      6  C   UNL     1       3.925   0.525   0.032  0.00  0.00    +0.080 A 
ATOM      7  C   UNL     1       2.893  -0.397   0.177  0.00  0.00    +0.041 A 
ATOM      8  C   UNL     1       3.160  -1.740   0.354  0.00  0.00    +0.003 A 
ATOM      9  C   UNL     1       4.440  -2.161   0.625  0.00  0.00    +0.000 A 
ATOM     10  C   UNL     1       5.421  -1.196   0.687  0.00  0.00    +0.002 A 
ATOM     11  C   UNL     1       1.763   0.230  -0.315  0.00  0.00    +0.157 A 
ATOM     12  C   UNL     1       5.199   0.103   0.296  0.00  0.00    +0.019 A 
ATOM     13  N   UNL     1       2.136   1.471  -0.639  0.00  0.00    -0.165 NA
ENDBRANCH   1  11
BRANCH   2  14
ATOM     14  C   UNL     1      -1.985   0.080  -0.585  0.00  0.00    +0.098 C 
ATOM     15  C   UNL     1      -2.073   0.920   0.585  0.00  0.00    +0.038 C 
ATOM     16  C   UNL     1      -3.544   0.735   1.312  0.00  0.00    +0.059 C 
ATOM     17  N   UNL     1      -4.321   0.804  -0.003  0.00  0.00    -0.274 NA
ATOM     18  C   UNL     1      -4.398  -0.373  -0.977  0.00  0.00    +0.059 C 
ATOM     19  C   UNL     1      -5.214  -1.351   0.066  0.00  0.00    +0.016 C 
ATOM     20  C   UNL     1      -4.473  -1.629   1.244  0.00  0.00    +0.003 C 
ATOM     21  C   UNL     1      -3.892   1.965  -0.733  0.00  0.00    +0.090 C 
ATOM     22  C   UNL     1      -3.327  -0.872   1.564  0.00  0.00    +0.016 C 
ATOM     23  C   UNL     1      -2.908  -1.047  -0.761  0.00  0.00    +0.038 C 
ENDBRANCH   2  14
TORSDOF 2
