REMARK  Name = 
REMARK  6 active torsions:
REMARK  status: ('A' for Active; 'I' for Inactive)
REMARK    1  A    between atoms: O_2  and  C_3
REMARK    2  A    between atoms: C_5  and  C_6
REMARK    3  A    between atoms: C_13  and  O_14
REMARK    4  A    between atoms: O_14  and  C_15
REMARK    5  A    between atoms: C_20  and  C_21
REMARK    6  A    between atoms: C_42  and  O_43
REMARK                            x       y       z     vdW  Elec       q    Type
REMARK                         _______ _______ _______ _____ _____    ______ ____
ROOT
ATOM      1  C   UNL     1      -2.371   0.518   1.784  0.00  0.00    +0.055 C 
ATOM      2  C   UNL     1      -1.887  -1.111   2.155  0.00  0.00    +0.113 C 
ATOM      3  C   UNL     1      -0.234  -0.935   1.740  0.00  0.00    +0.086 C 
ATOM      4  C   UNL     1      -0.653   0.486   1.470  0.00  0.00    +0.212 C 
ATOM      5  O   UNL     1      -1.425  -0.530   0.956  0.00  0.00    -0.448 OA
ATOM      6  C   UNL     1      -0.224  -1.095   0.016  0.00  0.00    +0.144 C 
ATOM      7  C   UNL     1      -1.123   0.198  -0.470  0.00  0.00    +0.004 A 
ATOM      8  C   UNL     1      -1.153   0.308  -1.815  0.00  0.00    +0.038 A 
ATOM      9  C   UNL     1      -2.343   0.374  -2.540  0.00  0.00    +0.176 A 
ATOM     10  O   UNL     1      -2.731  -0.030  -3.820  0.00  0.00    -0.435 OA
ATOM     11  C   UNL     1      -3.981  -0.671  -3.768  0.00  0.00    +0.429 C 
ATOM     12  O   UNL     1      -4.494  -0.397  -2.498  0.00  0.00    -0.435 OA
ATOM     13  C   UNL     1      -3.542   0.382  -1.836  0.00  0.00    +0.176 A 
ATOM     14  C   UNL     1      -3.438   0.777  -0.539  0.00  0.00    +0.036 A 
ATOM     15  C   UNL     1      -2.130  -1.511   0.739  0.00  0.00    +0.317 C 
ATOM     16  O   UNL     1      -2.159  -2.600   0.204  0.00  0.00    -0.250 OA
ATOM     17  C   UNL     1      -2.378   0.459   0.150  0.00  0.00    -0.016 A 
ENDROOT
BRANCH   1  23
ATOM     18  C   UNL     1      -5.550   2.143   2.002  0.00  0.00    +0.180 A 
ATOM     19  C   UNL     1      -6.484   1.275   1.446  0.00  0.00    +0.263 A 
ATOM     20  O   UNL     1      -7.228   1.842   0.397  0.00  0.00    -0.280 OA
ATOM     21  C   UNL     1      -6.064  -0.044   1.295  0.00  0.00    +0.180 A 
ATOM     22  C   UNL     1      -4.735  -0.441   1.423  0.00  0.00    +0.036 A 
ATOM     23  C   UNL     1      -3.904   0.344   2.064  0.00  0.00    -0.012 A 
ATOM     24  C   UNL     1      -4.279   1.675   2.309  0.00  0.00    +0.036 A 
BRANCH  21  25
ATOM     25  O   UNL     1      -6.958  -0.833   0.586  0.00  0.00    -0.468 OA
ATOM     26  C   UNL     1      -6.656  -1.647  -0.497  0.00  0.00    +0.253 C 
ENDBRANCH  21  25
BRANCH  18  28
ATOM     27  C   UNL     1      -5.553   4.360   0.989  0.00  0.00    +0.253 C 
ATOM     28  O   UNL     1      -5.869   3.505   2.065  0.00  0.00    -0.468 OA
ENDBRANCH  18  28
ENDBRANCH   1  23
BRANCH   6  29
ATOM     29  O   UNL     1       1.003  -0.224  -0.048  0.00  0.00    -0.326 OA
BRANCH  29  30
ATOM     30  C   UNL     1       2.120  -1.222  -0.302  0.00  0.00    +0.270 C 
ATOM     31  C   UNL     1       2.676  -0.230  -1.609  0.00  0.00    +0.240 C 
ATOM     32  O   UNL     1       1.984  -1.106  -2.601  0.00  0.00    -0.215 OA
ATOM     33  C   UNL     1       4.118  -1.132  -1.804  0.00  0.00    +0.217 C 
ATOM     34  O   UNL     1       4.572  -0.188  -2.884  0.00  0.00    -0.218 OA
ATOM     35  C   UNL     1       4.843  -0.161  -0.599  0.00  0.00    +0.181 C 
ATOM     36  C   UNL     1       4.263  -1.278   0.569  0.00  0.00    +0.177 C 
ATOM     37  C   UNL     1       5.022  -0.445   1.761  0.00  0.00    +0.177 C 
ATOM     38  O   UNL     1       6.361  -0.836   1.557  0.00  0.00    -0.324 OA
ATOM     39  C   UNL     1       6.673   0.147   0.417  0.00  0.00    +0.266 C 
ATOM     40  O   UNL     1       6.162  -0.873  -0.621  0.00  0.00    -0.324 OA
ATOM     41  O   UNL     1       3.001  -0.462   0.691  0.00  0.00    -0.326 OA
BRANCH  39  42
ATOM     42  C   UNL     1       8.218  -0.396   0.288  0.00  0.00    +0.063 A 
ATOM     43  S   UNL     1       8.914  -0.185  -1.267  0.00  0.00    -0.086 S 
ATOM     44  C   UNL     1      10.388   0.579  -0.829  0.00  0.00    +0.035 A 
ATOM     45  C   UNL     1      10.184   0.794   0.490  0.00  0.00    +0.007 A 
ATOM     46  C   UNL     1       9.041   0.419   1.034  0.00  0.00    +0.008 A 
ENDBRANCH  39  42
ENDBRANCH  29  30
ENDBRANCH   6  29
TORSDOF 6
