REMARK  Name = 
REMARK  3 active torsions:
REMARK  status: ('A' for Active; 'I' for Inactive)
REMARK    1  A    between atoms: C_2  and  C_4
REMARK    2  A    between atoms: N_6  and  C_7
REMARK    3  A    between atoms: C_7  and  C_8
REMARK                            x       y       z     vdW  Elec       q    Type
REMARK                         _______ _______ _______ _____ _____    ______ ____
ROOT
ATOM      1  C   UNL     1       0.979  -0.231   0.053  0.00  0.00    +0.252 C 
ATOM      2  N   UNL     1      -0.330  -0.208   0.636  0.00  0.00    -0.192 NA
ATOM      3  O   UNL     1       1.149  -0.263  -1.172  0.00  0.00    -0.272 OA
ENDROOT
BRANCH   1   5
ATOM      4  C   UNL     1       2.435   1.592   0.146  0.00  0.00    +0.022 C 
ATOM      5  C   UNL     1       2.139   0.262   0.988  0.00  0.00    +0.136 C 
ATOM      6  S   UNL     1       3.517  -0.761   0.122  0.00  0.00    -0.073 S 
ENDBRANCH   1   5
BRANCH   2   7
ATOM      7  C   UNL     1      -1.347  -0.996  -0.031  0.00  0.00    +0.228 C 
BRANCH   7   8
ATOM      8  C   UNL     1      -2.568  -0.146  -0.161  0.00  0.00    +0.387 C 
ATOM      9  O   UNL     1      -3.074   0.182  -1.411  0.00  0.00    -0.244 OA
ATOM     10  O   UNL     1      -2.898   0.569   0.830  0.00  0.00    -0.244 OA
ENDBRANCH   7   8
ENDBRANCH   2   7
TORSDOF 3
