REMARK  Name = 
REMARK  12 active torsions:
REMARK  status: ('A' for Active; 'I' for Inactive)
REMARK    1  A    between atoms: N_2  and  C_3
REMARK    2  A    between atoms: C_6  and  C_7
REMARK    3  A    between atoms: C_8  and  C_9
REMARK    4  A    between atoms: C_12  and  O_13
REMARK    5  A    between atoms: O_13  and  C_14
REMARK    6  A    between atoms: C_14  and  C_15
REMARK    7  A    between atoms: C_15  and  O_16
REMARK    8  A    between atoms: O_16  and  C_17
REMARK    9  A    between atoms: C_17  and  C_18
REMARK   10  A    between atoms: C_18  and  O_19
REMARK   11  A    between atoms: O_19  and  C_20
REMARK   12  A    between atoms: C_20  and  C_21
REMARK                            x       y       z     vdW  Elec       q    Type
REMARK                         _______ _______ _______ _____ _____    ______ ____
ROOT
ATOM      1  C   UNL     1      -0.918   0.454   0.459  0.00  0.00    +0.000 A 
ATOM      2  C   UNL     1      -0.543  -0.168  -0.725  0.00  0.00    +0.003 A 
ATOM      3  C   UNL     1       0.689   0.073  -1.282  0.00  0.00    +0.037 A 
ATOM      4  C   UNL     1       1.490   1.114  -0.830  0.00  0.00    +0.139 A 
ATOM      5  C   UNL     1       0.866   2.017   0.022  0.00  0.00    +0.037 A 
ATOM      6  C   UNL     1      -0.268   1.649   0.736  0.00  0.00    +0.003 A 
ENDROOT
BRANCH   1   8
ATOM      7  C   UNL     1      -3.221   1.137   0.873  0.00  0.00    +0.000 C 
ATOM      8  C   UNL     1      -2.291   0.193   0.906  0.00  0.00    +0.000 C 
BRANCH   7  12
ATOM      9  C   UNL     1      -6.941  -0.524   0.189  0.00  0.00    +0.065 A 
ATOM     10  C   UNL     1      -6.026  -0.467  -0.855  0.00  0.00    +0.016 A 
ATOM     11  C   UNL     1      -4.912   0.362  -0.791  0.00  0.00    +0.001 A 
ATOM     12  C   UNL     1      -4.588   0.815   0.482  0.00  0.00    +0.000 A 
ATOM     13  C   UNL     1      -5.657   1.208   1.268  0.00  0.00    +0.001 A 
ATOM     14  C   UNL     1      -6.846   0.514   1.111  0.00  0.00    +0.016 A 
BRANCH   9  16
ATOM     15  C   UNL     1      -7.967  -2.754  -0.202  0.00  0.00    +0.135 C 
ATOM     16  N   UNL     1      -8.110  -1.329   0.080  0.00  0.00    -0.236 NA
ENDBRANCH   9  16
ENDBRANCH   7  12
ENDBRANCH   1   8
BRANCH   4  17
ATOM     17  O   UNL     1       2.868   0.986  -0.908  0.00  0.00    -0.473 OA
BRANCH  17  18
ATOM     18  C   UNL     1       3.777   1.752  -0.157  0.00  0.00    +0.237 C 
BRANCH  18  19
ATOM     19  C   UNL     1       4.323   1.031   1.043  0.00  0.00    +0.189 C 
BRANCH  19  20
ATOM     20  O   UNL     1       3.960  -0.311   1.090  0.00  0.00    -0.347 OA
BRANCH  20  21
ATOM     21  C   UNL     1       4.253  -0.988  -0.079  0.00  0.00    +0.174 C 
BRANCH  21  22
ATOM     22  C   UNL     1       5.146  -2.178   0.116  0.00  0.00    +0.174 C 
BRANCH  22  23
ATOM     23  O   UNL     1       6.459  -1.821   0.358  0.00  0.00    -0.348 OA
BRANCH  23  24
ATOM     24  C   UNL     1       7.027  -1.077  -0.662  0.00  0.00    +0.180 C 
BRANCH  24  25
ATOM     25  C   UNL     1       8.246  -0.388  -0.083  0.00  0.00    +0.225 C 
ATOM     26  F   UNL     1       9.185  -1.298   0.351  0.00  0.00    -0.232 F 
ENDBRANCH  24  25
ENDBRANCH  23  24
ENDBRANCH  22  23
ENDBRANCH  21  22
ENDBRANCH  20  21
ENDBRANCH  19  20
ENDBRANCH  18  19
ENDBRANCH  17  18
ENDBRANCH   4  17
TORSDOF 12
