REMARK  Name = 
REMARK  2 active torsions:
REMARK  status: ('A' for Active; 'I' for Inactive)
REMARK    1  A    between atoms: C_2  and  N_4
REMARK    2  A    between atoms: N_10  and  C_11
REMARK                            x       y       z     vdW  Elec       q    Type
REMARK                         _______ _______ _______ _____ _____    ______ ____
ROOT
ATOM      1  N   UNL     1       2.100   0.326  -1.163  0.00  0.00    -0.093 NA
ATOM      2  C   UNL     1       1.364   0.188   0.066  0.00  0.00    +0.505 C 
ATOM      3  N   UNL     1       1.100   1.380   0.838  0.00  0.00    +0.011 NA
ATOM      4  C   UNL     1       0.270   1.140   1.982  0.00  0.00    +0.510 C 
ATOM      5  N   UNL     1      -0.402   0.030   1.875  0.00  0.00    -0.063 NA
ATOM      6  N   UNL     1       0.296   1.948   3.164  0.00  0.00    +0.133 NA
ATOM      7  N   UNL     1       1.870  -0.733   0.849  0.00  0.00    +0.132 NA
ENDROOT
BRANCH   5   8
ATOM      8  C   UNL     1      -1.049  -0.125   0.590  0.00  0.00    +0.159 A 
ATOM      9  C   UNL     1      -1.797   0.916   0.036  0.00  0.00    +0.038 A 
ATOM     10  C   UNL     1      -2.633   0.715  -1.051  0.00  0.00    +0.014 A 
ATOM     11  C   UNL     1      -3.316  -0.484  -1.053  0.00  0.00    +0.058 A 
ATOM     12 CL   UNL     1      -4.371  -0.782  -2.430  0.00  0.00    -0.082 Cl
ATOM     13  C   UNL     1      -2.888  -1.510  -0.224  0.00  0.00    +0.014 A 
ATOM     14  C   UNL     1      -1.746  -1.331   0.501  0.00  0.00    +0.038 A 
ENDBRANCH   5   8
BRANCH   1  16
ATOM     15  C   UNL     1       3.696  -1.388  -0.398  0.00  0.00    +0.047 C 
ATOM     16  C   UNL     1       3.170  -0.566  -1.542  0.00  0.00    +0.181 C 
ATOM     17  C   UNL     1       4.337   0.279  -2.040  0.00  0.00    +0.047 C 
ENDBRANCH   1  16
TORSDOF 2
