REMARK  Name = 
REMARK  1 active torsions:
REMARK  status: ('A' for Active; 'I' for Inactive)
REMARK    1  A    between atoms: N_9  and  C_10
REMARK                            x       y       z     vdW  Elec       q    Type
REMARK                         _______ _______ _______ _____ _____    ______ ____
ROOT
ATOM      1  N   UNL     1      -3.692  -0.941   1.975  0.00  0.00    -0.128 NA
ATOM      2  C   UNL     1      -3.416  -0.167   0.824  0.00  0.00    +0.087 A 
ATOM      3  C   UNL     1      -2.115  -0.041   0.364  0.00  0.00    +0.019 A 
ATOM      4  C   UNL     1      -0.794  -0.138   1.044  0.00  0.00    +0.122 C 
ATOM      5  N   UNL     1       0.169  -0.425  -0.004  0.00  0.00    -0.265 N 
ATOM      6  C   UNL     1      -0.515  -0.115  -1.226  0.00  0.00    +0.249 C 
ATOM      7  O   UNL     1       0.013  -0.259  -2.356  0.00  0.00    -0.270 OA
ATOM      8  C   UNL     1      -1.916   0.188  -0.988  0.00  0.00    +0.053 A 
ATOM      9  C   UNL     1      -2.911   0.831  -1.720  0.00  0.00    +0.004 A 
ATOM     10  C   UNL     1      -4.085   1.170  -1.060  0.00  0.00    +0.002 A 
ATOM     11  C   UNL     1      -4.413   0.410   0.048  0.00  0.00    +0.018 A 
ENDROOT
BRANCH   5  12
ATOM     12  C   UNL     1       1.543   0.366   0.207  0.00  0.00    +0.155 C 
ATOM     13  C   UNL     1       2.403  -0.647  -0.750  0.00  0.00    +0.266 C 
ATOM     14  O   UNL     1       2.071  -1.852  -0.682  0.00  0.00    -0.271 OA
ATOM     15  N   UNL     1       3.758  -0.242  -0.468  0.00  0.00    -0.143 NA
ATOM     16  C   UNL     1       4.032   0.560   0.694  0.00  0.00    +0.248 C 
ATOM     17  O   UNL     1       4.639   1.671   0.615  0.00  0.00    -0.273 OA
ATOM     18  C   UNL     1       3.279   0.144   1.918  0.00  0.00    +0.089 C 
ATOM     19  C   UNL     1       1.950  -0.513   1.563  0.00  0.00    +0.039 C 
ENDBRANCH   5  12
TORSDOF 1
