REMARK  Name = 
REMARK  3 active torsions:
REMARK  status: ('A' for Active; 'I' for Inactive)
REMARK    1  A    between atoms: C_6  and  N_7
REMARK    2  A    between atoms: N_7  and  C_8
REMARK    3  A    between atoms: C_13  and  C_14
REMARK                            x       y       z     vdW  Elec       q    Type
REMARK                         _______ _______ _______ _____ _____    ______ ____
ROOT
ATOM      1  N   UNL     1      -0.024   0.488  -0.045  0.00  0.00    -0.213 NA
ENDROOT
BRANCH   1   6
ATOM      2  C   UNL     1       4.845   0.929  -0.798  0.00  0.00    +0.031 C 
ATOM      3  C   UNL     1       3.647   0.185  -0.313  0.00  0.00    -0.025 A 
ATOM      4  C   UNL     1       2.380   0.740  -0.363  0.00  0.00    -0.011 A 
ATOM      5  C   UNL     1       2.264   2.222  -0.406  0.00  0.00    +0.032 C 
ATOM      6  C   UNL     1       1.275  -0.046  -0.208  0.00  0.00    +0.066 A 
ATOM      7  C   UNL     1       1.442  -1.409  -0.380  0.00  0.00    +0.016 A 
ATOM      8  C   UNL     1       2.618  -1.952   0.074  0.00  0.00    +0.001 A 
ATOM      9  C   UNL     1       3.732  -1.130   0.108  0.00  0.00    -0.004 A 
ENDBRANCH   1   6
BRANCH   1  10
ATOM     10  C   UNL     1      -1.177  -0.307   0.080  0.00  0.00    +0.077 A 
ATOM     11  C   UNL     1      -2.417   0.317   0.005  0.00  0.00    +0.095 A 
ATOM     12  C   UNL     1      -3.548  -0.456  -0.229  0.00  0.00    +0.008 A 
ATOM     13  C   UNL     1      -3.482  -1.833  -0.384  0.00  0.00    +0.000 A 
ATOM     14  C   UNL     1      -2.207  -2.379  -0.367  0.00  0.00    +0.001 A 
ATOM     15  C   UNL     1      -1.190  -1.672   0.263  0.00  0.00    +0.017 A 
BRANCH  11  16
ATOM     16  C   UNL     1      -2.576   1.680   0.525  0.00  0.00    +0.389 C 
ATOM     17  O   UNL     1      -3.735   2.000   1.197  0.00  0.00    -0.241 OA
ATOM     18  O   UNL     1      -1.846   2.622   0.133  0.00  0.00    -0.241 OA
ENDBRANCH  11  16
ENDBRANCH   1  10
TORSDOF 3
