REMARK  Name = 
REMARK  7 active torsions:
REMARK  status: ('A' for Active; 'I' for Inactive)
REMARK    1  A    between atoms: C_4  and  C_5
REMARK    2  A    between atoms: C_9  and  C_10
REMARK    3  A    between atoms: C_10  and  O_12
REMARK    4  A    between atoms: O_12  and  C_13
REMARK    5  A    between atoms: C_13  and  C_14
REMARK    6  A    between atoms: C_18  and  O_19
REMARK    7  A    between atoms: O_19  and  C_20
REMARK                            x       y       z     vdW  Elec       q    Type
REMARK                         _______ _______ _______ _____ _____    ______ ____
ROOT
ATOM      1  C   UNL     1       0.190   0.729   1.267  0.00  0.00    +0.235 C 
ENDROOT
BRANCH   1   2
ATOM      2  C   UNL     1      -0.825   0.019   0.456  0.00  0.00    +0.024 A 
ATOM      3  C   UNL     1      -1.827   0.729  -0.181  0.00  0.00    +0.037 A 
ATOM      4  C   UNL     1      -2.633   0.042  -1.078  0.00  0.00    +0.145 A 
ATOM      5  C   UNL     1      -2.285  -1.238  -1.487  0.00  0.00    +0.037 A 
ATOM      6  C   UNL     1      -1.318  -1.931  -0.804  0.00  0.00    +0.003 A 
ATOM      7  C   UNL     1      -0.498  -1.277   0.074  0.00  0.00    -0.000 A 
BRANCH   4   8
ATOM      8  O   UNL     1      -3.886   0.497  -1.455  0.00  0.00    -0.454 OA
BRANCH   8   9
ATOM      9  C   UNL     1      -5.008   0.287  -0.673  0.00  0.00    +0.145 A 
ATOM     10  C   UNL     1      -5.384  -0.933  -0.176  0.00  0.00    +0.037 A 
ATOM     11  C   UNL     1      -6.646  -1.079   0.380  0.00  0.00    +0.003 A 
ATOM     12  C   UNL     1      -7.447   0.008   0.689  0.00  0.00    +0.000 A 
ATOM     13  C   UNL     1      -7.024   1.247   0.264  0.00  0.00    +0.003 A 
ATOM     14  C   UNL     1      -5.840   1.371  -0.433  0.00  0.00    +0.037 A 
ENDBRANCH   8   9
ENDBRANCH   4   8
ENDBRANCH   1   2
BRANCH   1  15
ATOM     15  O   UNL     1       1.410   0.784   0.535  0.00  0.00    -0.443 OA
BRANCH  15  16
ATOM     16  C   UNL     1       2.650   0.582   1.158  0.00  0.00    +0.317 C 
ATOM     17  O   UNL     1       2.652   0.188   2.342  0.00  0.00    -0.250 OA
BRANCH  16  20
ATOM     18  C   UNL     1       4.317   1.448  -0.816  0.00  0.00    +0.001 C 
ATOM     19  C   UNL     1       4.300   1.346  -0.641  0.00  0.00    +0.015 C 
ATOM     20  C   UNL     1       3.678   1.814   0.889  0.00  0.00    +0.103 C 
ATOM     21  C   UNL     1       5.200   0.991   0.778  0.00  0.00    +0.035 C 
ATOM     22  C   UNL     1       3.671   0.245  -1.284  0.00  0.00    +0.001 C 
BRANCH  21  23
ATOM     23  C   UNL     1       4.761  -0.561   1.013  0.00  0.00    -0.003 C 
ATOM     24  C   UNL     1       5.578  -1.389   0.336  0.00  0.00    +0.111 C 
ATOM     25 CL   UNL     1       4.938  -2.880  -0.304  0.00  0.00    -0.070 Cl
ATOM     26 CL   UNL     1       7.277  -1.040   0.245  0.00  0.00    -0.070 Cl
ENDBRANCH  21  23
ENDBRANCH  16  20
ENDBRANCH  15  16
ENDBRANCH   1  15
TORSDOF 7
