REMARK  Name = 
REMARK  4 active torsions:
REMARK  status: ('A' for Active; 'I' for Inactive)
REMARK    1  A    between atoms: O_2  and  C_3
REMARK    2  A    between atoms: C_4  and  N_5
REMARK    3  A    between atoms: C_20  and  C_21
REMARK    4  A    between atoms: N_25  and  C_26
REMARK                            x       y       z     vdW  Elec       q    Type
REMARK                         _______ _______ _______ _____ _____    ______ ____
ROOT
ATOM      1  C   UNL     1      -0.043   1.029   0.207  0.00  0.00    +0.170 A 
ATOM      2  C   UNL     1      -1.329   0.623   0.547  0.00  0.00    +0.099 A 
ATOM      3  C   UNL     1      -1.512  -0.528   1.303  0.00  0.00    +0.060 A 
ATOM      4  C   UNL     1      -2.718  -1.217   1.218  0.00  0.00    +0.205 A 
ATOM      5  C   UNL     1      -3.526  -0.995   0.107  0.00  0.00    +0.136 A 
ATOM      6  C   UNL     1      -3.460   0.280  -0.436  0.00  0.00    +0.086 A 
ATOM      7  O   UNL     1      -2.774  -2.382   1.716  0.00  0.00    -0.286 OA
ATOM      8  C   UNL     1      -0.355  -1.084   1.837  0.00  0.00    +0.036 A 
ATOM      9  C   UNL     1       0.891  -0.907   1.235  0.00  0.00    +0.157 A 
ATOM     10  F   UNL     1       1.608  -2.050   0.987  0.00  0.00    -0.203 F 
ATOM     11  N   UNL     1      -2.411   1.067  -0.141  0.00  0.00    -0.325 N 
ATOM     12  C   UNL     1       1.060   0.202   0.406  0.00  0.00    +0.112 A 
ENDROOT
BRANCH  12  13
ATOM     13  N   UNL     1       2.104   0.268  -0.577  0.00  0.00    -0.302 N 
ATOM     14  C   UNL     1       2.870   1.404  -0.987  0.00  0.00    +0.108 C 
ATOM     15  C   UNL     1       4.397   0.894  -0.754  0.00  0.00    +0.094 C 
ATOM     16  C   UNL     1       4.096  -0.470  -1.727  0.00  0.00    +0.038 C 
ATOM     17  C   UNL     1       5.035  -1.488  -0.882  0.00  0.00    +0.005 C 
ATOM     18  C   UNL     1       6.072  -0.714  -0.153  0.00  0.00    +0.019 C 
ATOM     19  C   UNL     1       5.391  -0.176   1.104  0.00  0.00    +0.089 C 
ATOM     20  N   UNL     1       4.073   0.216   0.616  0.00  0.00    -0.218 NA
ATOM     21  C   UNL     1       2.771  -0.925  -0.941  0.00  0.00    +0.092 C 
ENDBRANCH  12  13
BRANCH   5  22
ATOM     22  C   UNL     1      -4.376  -2.047  -0.409  0.00  0.00    +0.392 C 
ATOM     23  O   UNL     1      -3.754  -3.191  -0.920  0.00  0.00    -0.240 OA
ATOM     24  O   UNL     1      -5.462  -2.233   0.218  0.00  0.00    -0.240 OA
ENDBRANCH   5  22
BRANCH  11  25
ATOM     25  C   UNL     1      -2.370   2.494  -0.444  0.00  0.00    +0.086 C 
ATOM     26  C   UNL     1      -3.175   3.274   0.636  0.00  0.00    +0.024 C 
ATOM     27  C   UNL     1      -3.786   3.065  -0.716  0.00  0.00    +0.024 C 
ENDBRANCH  11  25
BRANCH   1  29
ATOM     28  C   UNL     1       0.605   3.302   0.168  0.00  0.00    +0.253 C 
ATOM     29  O   UNL     1       0.078   2.287  -0.340  0.00  0.00    -0.469 OA
ENDBRANCH   1  29
TORSDOF 4
