REMARK  Name = 
REMARK  4 active torsions:
REMARK  status: ('A' for Active; 'I' for Inactive)
REMARK    1  A    between atoms: N_2  and  C_4
REMARK    2  A    between atoms: C_4  and  C_5
REMARK    3  A    between atoms: C_5  and  C_6
REMARK    4  A    between atoms: C_6  and  N_7
REMARK                            x       y       z     vdW  Elec       q    Type
REMARK                         _______ _______ _______ _____ _____    ______ ____
ROOT
ATOM      1  N   UNL     1      -0.175  -0.115  -0.052  0.00  0.00    -0.286 N 
ATOM      2  C   UNL     1      -1.029   1.002  -0.131  0.00  0.00    +0.058 A 
ATOM      3  C   UNL     1      -2.380   0.994   0.082  0.00  0.00    +0.043 A 
ATOM      4  C   UNL     1      -3.054   2.080   0.576  0.00  0.00    +0.009 A 
ATOM      5  C   UNL     1      -2.396   3.301   0.485  0.00  0.00    +0.012 A 
ATOM      6  C   UNL     1      -1.202   3.417  -0.216  0.00  0.00    +0.059 A 
ATOM      7 CL   UNL     1      -0.689   4.940  -0.894  0.00  0.00    -0.082 Cl
ATOM      8  S   UNL     1      -3.210  -0.581  -0.151  0.00  0.00    -0.084 S 
ATOM      9  C   UNL     1      -1.954  -1.814   0.151  0.00  0.00    +0.043 A 
ATOM     10  C   UNL     1      -2.259  -3.057   0.621  0.00  0.00    +0.008 A 
ATOM     11  C   UNL     1      -1.377  -4.079   0.288  0.00  0.00    +0.001 A 
ATOM     12  C   UNL     1      -0.115  -3.792  -0.219  0.00  0.00    +0.001 A 
ATOM     13  C   UNL     1       0.271  -2.457  -0.230  0.00  0.00    +0.015 A 
ATOM     14  C   UNL     1      -0.451   2.252  -0.325  0.00  0.00    +0.027 A 
ATOM     15  C   UNL     1      -0.653  -1.435  -0.041  0.00  0.00    +0.058 A 
ENDROOT
BRANCH   1  16
ATOM     16  C   UNL     1       1.218   0.124   0.326  0.00  0.00    +0.097 C 
BRANCH  16  17
ATOM     17  C   UNL     1       2.162  -0.051  -0.825  0.00  0.00    +0.039 C 
BRANCH  17  18
ATOM     18  C   UNL     1       3.337  -0.884  -0.366  0.00  0.00    +0.074 C 
BRANCH  18  20
ATOM     19  C   UNL     1       4.556   1.160   0.030  0.00  0.00    +0.090 C 
ATOM     20  N   UNL     1       4.133  -0.117   0.558  0.00  0.00    -0.270 NA
ATOM     21  C   UNL     1       5.267  -0.889   1.000  0.00  0.00    +0.090 C 
ENDBRANCH  18  20
ENDBRANCH  17  18
ENDBRANCH  16  17
ENDBRANCH   1  16
TORSDOF 4
