REMARK  Name = 
REMARK  5 active torsions:
REMARK  status: ('A' for Active; 'I' for Inactive)
REMARK    1  A    between atoms: C_2  and  O_3
REMARK    2  A    between atoms: O_3  and  C_4
REMARK    3  A    between atoms: C_13  and  C_14
REMARK    4  A    between atoms: N_16  and  CA_17
REMARK    5  A    between atoms: CA_26  and  C_27
REMARK                            x       y       z     vdW  Elec       q    Type
REMARK                         _______ _______ _______ _____ _____    ______ ____
ROOT
ATOM      1  C   UNL     1      -0.929  -0.148   0.567  0.00  0.00    +0.268 C 
ATOM      2  N   UNL     1       0.225  -0.487  -0.180  0.00  0.00    -0.191 NA
ATOM      3  O   UNL     1      -0.638   0.539   1.595  0.00  0.00    -0.268 OA
ENDROOT
BRANCH   1   5
ATOM      4  C   UNL     1      -3.034  -1.313  -0.052  0.00  0.00    +0.143 A 
ATOM      5  C   UNL     1      -2.304  -0.159   0.047  0.00  0.00    +0.089 A 
ATOM      6  C   UNL     1      -2.988   1.032  -0.185  0.00  0.00    +0.007 A 
ATOM      7  C   UNL     1      -4.348   1.146  -0.113  0.00  0.00    +0.000 A 
ATOM      8  C   UNL     1      -4.894   2.397  -0.148  0.00  0.00    +0.000 A 
ATOM      9  C   UNL     1      -4.134   3.457  -0.626  0.00  0.00    +0.000 A 
ATOM     10  C   UNL     1      -2.748   3.373  -0.625  0.00  0.00    +0.000 A 
ATOM     11  C   UNL     1      -5.044  -0.007   0.202  0.00  0.00    +0.003 A 
ATOM     12  C   UNL     1      -2.180   2.140  -0.406  0.00  0.00    +0.000 A 
ATOM     13  C   UNL     1      -4.409  -1.239   0.089  0.00  0.00    +0.037 A 
BRANCH   4  14
ATOM     14  O   UNL     1      -2.348  -2.500  -0.296  0.00  0.00    -0.475 OA
BRANCH  14  16
ATOM     15  C   UNL     1      -3.678  -3.438  -0.703  0.00  0.00    +0.051 C 
ATOM     16  C   UNL     1      -3.201  -3.562  -0.717  0.00  0.00    +0.206 C 
ENDBRANCH  14  16
ENDBRANCH   4  14
ENDBRANCH   1   5
BRANCH   2  17
ATOM     17  CA  UNL     1       1.122   0.742  -0.646  0.00  0.00    +0.200 C 
ATOM     18  C   UNL     1       2.488   0.369   0.264  0.00  0.00    +0.153 C 
ATOM     19  S   UNL     1       2.482  -1.546   0.191  0.00  0.00    -0.118 S 
ATOM     20  C   UNL     1       4.213  -1.390   0.184  0.00  0.00    +0.068 C 
ATOM     21  CA  UNL     1       4.573  -0.164  -0.869  0.00  0.00    +0.189 C 
ATOM     22  C   UNL     1       4.834  -2.631  -0.445  0.00  0.00    +0.013 C 
ATOM     23  C   UNL     1       4.896  -1.142   1.464  0.00  0.00    +0.013 C 
ATOM     24  N   UNL     1       3.091   0.311  -1.121  0.00  0.00    -0.259 N 
ATOM     25  C   UNL     1       1.888  -0.093  -1.800  0.00  0.00    +0.249 C 
ATOM     26  O   UNL     1       1.548   0.210  -2.990  0.00  0.00    -0.273 OA
BRANCH  21  27
ATOM     27  C   UNL     1       4.840   0.974   0.279  0.00  0.00    +0.383 C 
ATOM     28  OXT UNL     1       4.585   2.273  -0.198  0.00  0.00    -0.244 OA
ATOM     29  O   UNL     1       6.093   0.856   0.496  0.00  0.00    -0.244 OA
ENDBRANCH  21  27
ENDBRANCH   2  17
TORSDOF 5
