REMARK  Name = 
REMARK  0 active torsions:
REMARK  status: ('A' for Active; 'I' for Inactive)
REMARK                            x       y       z     vdW  Elec       q    Type
REMARK                         _______ _______ _______ _____ _____    ______ ____
ROOT
ATOM      1  C   UNL     1      -3.594   0.554  -0.086  0.00  0.00    +0.044 C 
ATOM      2  C   UNL     1      -2.328  -0.263  -0.647  0.00  0.00    +0.163 C 
ATOM      3  S   UNL     1      -2.253  -1.433   0.877  0.00  0.00    -0.109 S 
ATOM      4  C   UNL     1      -0.526  -1.025   1.308  0.00  0.00    +0.088 C 
ATOM      5  C   UNL     1      -0.230  -0.086   0.143  0.00  0.00    +0.118 C 
ATOM      6  C   UNL     1       0.805   0.895   0.679  0.00  0.00    +0.030 C 
ATOM      7  C   UNL     1       1.988   0.097   1.192  0.00  0.00    +0.020 C 
ATOM      8  C   UNL     1       2.457  -0.758   0.025  0.00  0.00    +0.072 C 
ATOM      9  N   UNL     1       1.710  -0.505  -1.180  0.00  0.00    -0.271 NA
ATOM     10  C   UNL     1       1.816   0.887  -1.591  0.00  0.00    +0.072 C 
ATOM     11  C   UNL     1       1.206   1.763  -0.503  0.00  0.00    +0.020 C 
ATOM     12  C   UNL     1       0.300  -0.800  -1.057  0.00  0.00    +0.100 C 
ATOM     13  O   UNL     1      -1.351   0.674  -0.068  0.00  0.00    -0.348 OA
ENDROOT
TORSDOF 0
