REMARK  Name = 
REMARK  6 active torsions:
REMARK  status: ('A' for Active; 'I' for Inactive)
REMARK    1  A    between atoms: C_2  and  C_3
REMARK    2  A    between atoms: C_8  and  C_9
REMARK    3  A    between atoms: C_12  and  N_13
REMARK    4  A    between atoms: N_13  and  C_14
REMARK    5  A    between atoms: C_14  and  C_15
REMARK    6  A    between atoms: C_15  and  C_17
REMARK                            x       y       z     vdW  Elec       q    Type
REMARK                         _______ _______ _______ _____ _____    ______ ____
ROOT
ATOM      1  C   UNL     1      -0.781  -0.325  -0.596  0.00  0.00    +0.126 C 
ENDROOT
BRANCH   1   2
ATOM      2  C   UNL     1      -1.548   0.720  -1.672  0.00  0.00    +0.192 C 
ATOM      3  O   UNL     1      -0.457   1.815  -1.533  0.00  0.00    -0.217 OA
BRANCH   2   4
ATOM      4  C   UNL     1      -2.457   1.377  -0.451  0.00  0.00    +0.011 A 
ATOM      5  C   UNL     1      -3.428   0.469  -0.041  0.00  0.00    +0.020 A 
ATOM      6  C   UNL     1      -4.775   0.798   0.056  0.00  0.00    +0.123 A 
ATOM      7  N   UNL     1      -5.730  -0.161   0.164  0.00  0.00    -0.205 NA
ATOM      8  C   UNL     1      -5.363  -1.461   0.072  0.00  0.00    +0.279 A 
ATOM      9  C   UNL     1      -4.084  -1.758   0.509  0.00  0.00    +0.063 A 
ATOM     10  O   UNL     1      -6.128  -2.329  -0.446  0.00  0.00    -0.265 OA
ATOM     11  C   UNL     1      -5.197   2.073  -0.301  0.00  0.00    +0.213 A 
ATOM     12  O   UNL     1      -6.468   2.271  -0.852  0.00  0.00    -0.285 OA
ATOM     13  C   UNL     1      -4.200   3.010  -0.507  0.00  0.00    +0.043 A 
ATOM     14  C   UNL     1      -3.097  -0.839   0.182  0.00  0.00    +0.006 A 
ATOM     15  C   UNL     1      -2.898   2.635  -0.811  0.00  0.00    +0.002 A 
ENDBRANCH   2   4
ENDBRANCH   1   2
BRANCH   1  16
ATOM     16  N   UNL     1      -0.222   0.510   0.417  0.00  0.00    -0.216 NA
BRANCH  16  22
ATOM     17  C   UNL     1       5.308  -1.145  -0.181  0.00  0.00    -0.026 A 
ATOM     18  C   UNL     1       5.366  -0.334   0.945  0.00  0.00    -0.026 A 
ATOM     19  C   UNL     1       4.231  -0.349   1.746  0.00  0.00    -0.009 A 
ATOM     20  C   UNL     1       3.024  -0.871   1.290  0.00  0.00    -0.025 A 
ATOM     21  C   UNL     1       1.655  -0.430   1.706  0.00  0.00    +0.044 C 
ATOM     22  C   UNL     1       1.215   0.257   0.418  0.00  0.00    +0.082 C 
ATOM     23  C   UNL     1       1.586  -0.831  -0.584  0.00  0.00    +0.044 C 
ATOM     24  C   UNL     1       2.908  -1.273  -0.038  0.00  0.00    -0.025 A 
ATOM     25  C   UNL     1       4.101  -1.659  -0.637  0.00  0.00    -0.009 A 
BRANCH  18  26
ATOM     26  C   UNL     1       6.616   0.327   1.352  0.00  0.00    +0.026 C 
ATOM     27  C   UNL     1       7.324   1.019   0.199  0.00  0.00    +0.005 C 
ENDBRANCH  18  26
BRANCH  17  29
ATOM     28  C   UNL     1       6.922  -1.822  -0.653  0.00  0.00    +0.005 C 
ATOM     29  C   UNL     1       6.579  -1.696  -0.740  0.00  0.00    +0.026 C 
ENDBRANCH  17  29
ENDBRANCH  16  22
ENDBRANCH   1  16
TORSDOF 6
