REMARK  Name = 
REMARK  15 active torsions:
REMARK  status: ('A' for Active; 'I' for Inactive)
REMARK    1  A    between atoms: N_2  and  C_3
REMARK    2  A    between atoms: C_3  and  C_4
REMARK    3  A    between atoms: C_4  and  O_6
REMARK    4  A    between atoms: O_6  and  C_7
REMARK    5  A    between atoms: C_7  and  C_8
REMARK    6  A    between atoms: C_16  and  O_18
REMARK    7  A    between atoms: O_18  and  C_19
REMARK    8  A    between atoms: C_19  and  N_21
REMARK    9  A    between atoms: N_24  and  C_25
REMARK   10  A    between atoms: C_25  and  C_26
REMARK   11  A    between atoms: C_26  and  C_28
REMARK   12  A    between atoms: C_26  and  C_36
REMARK   13  A    between atoms: C_36  and  C_38
REMARK   14  A    between atoms: C_40  and  C_41
REMARK   15  A    between atoms: C_44  and  C_45
REMARK                            x       y       z     vdW  Elec       q    Type
REMARK                         _______ _______ _______ _____ _____    ______ ____
ROOT
ATOM      1  C   UNL     1      -2.087  -0.913  -0.674  0.00  0.00    +0.169 C 
ENDROOT
BRANCH   1   4
ATOM      2  N   UNL     1       1.424  -0.909   0.148  0.00  0.00    -0.091 N 
ATOM      3  C   UNL     1       0.377  -1.487  -0.493  0.00  0.00    +0.402 A 
ATOM      4  N   UNL     1      -0.667  -0.620  -0.474  0.00  0.00    -0.181 N 
ATOM      5  N   UNL     1      -0.121   0.504  -0.003  0.00  0.00    -0.092 NA
ATOM      6  C   UNL     1       0.915   0.105   0.783  0.00  0.00    +0.423 A 
BRANCH   2   7
ATOM      7  C   UNL     1       2.555  -1.893   0.641  0.00  0.00    +0.437 C 
ATOM      8  C   UNL     1       2.208  -1.685   2.248  0.00  0.00    +0.141 C 
BRANCH   7   9
ATOM      9  O   UNL     1       3.620  -0.768   0.671  0.00  0.00    -0.375 OA
BRANCH   9  13
ATOM     10  C   UNL     1       7.616   0.033  -0.370  0.00  0.00    +0.053 A 
ATOM     11  C   UNL     1       6.481  -0.771  -0.341  0.00  0.00    +0.139 A 
ATOM     12  N   UNL     1       5.346  -0.338  -1.064  0.00  0.00    -0.208 N 
ATOM     13  C   UNL     1       4.017  -0.396  -0.594  0.00  0.00    +0.414 C 
ATOM     14  O   UNL     1       3.093  -0.016  -1.358  0.00  0.00    -0.226 OA
ATOM     15  C   UNL     1       5.622   0.353  -2.322  0.00  0.00    +0.125 C 
ATOM     16  N   UNL     1       6.495  -1.850   0.465  0.00  0.00    -0.229 NA
ATOM     17  C   UNL     1       7.501  -1.962   1.362  0.00  0.00    +0.100 A 
ATOM     18  C   UNL     1       8.253  -0.848   1.703  0.00  0.00    +0.021 A 
ATOM     19  C   UNL     1       8.494   0.066   0.693  0.00  0.00    +0.004 A 
BRANCH  10  20
ATOM     20  C   UNL     1       7.793   0.896  -1.579  0.00  0.00    +0.238 C 
BRANCH  20  21
ATOM     21  O   UNL     1       8.688   1.956  -1.321  0.00  0.00    -0.442 OA
BRANCH  21  22
ATOM     22  C   UNL     1       8.207   3.200  -0.973  0.00  0.00    +0.335 C 
ATOM     23  O   UNL     1       7.098   3.242  -0.374  0.00  0.00    -0.248 OA
BRANCH  22  24
ATOM     24  C   UNL     1       8.851   4.481  -1.316  0.00  0.00    +0.198 C 
BRANCH  24  26
ATOM     25  C   UNL     1       8.490   5.311   0.528  0.00  0.00    +0.108 C 
ATOM     26  N   UNL     1       8.601   5.426  -0.233  0.00  0.00    -0.205 NA
ENDBRANCH  24  26
ENDBRANCH  22  24
ENDBRANCH  21  22
ENDBRANCH  20  21
ENDBRANCH  10  20
ENDBRANCH   9  13
ENDBRANCH   7   9
ENDBRANCH   2   7
ENDBRANCH   1   4
BRANCH   1  27
ATOM     27  C   UNL     1      -2.622  -1.818   0.291  0.00  0.00    +0.176 C 
ATOM     28  O   UNL     1      -1.629  -2.078   1.253  0.00  0.00    -0.219 OA
BRANCH  27  29
ATOM     29  C   UNL     1      -3.224  -3.086  -0.087  0.00  0.00    +0.037 A 
ATOM     30  C   UNL     1      -2.565  -3.882  -1.018  0.00  0.00    +0.139 A 
ATOM     31  F   UNL     1      -2.329  -3.238  -2.198  0.00  0.00    -0.204 F 
ATOM     32  C   UNL     1      -2.584  -5.270  -0.920  0.00  0.00    +0.032 A 
ATOM     33  C   UNL     1      -3.038  -5.878   0.245  0.00  0.00    +0.032 A 
ATOM     34  C   UNL     1      -3.967  -5.148   0.976  0.00  0.00    +0.140 A 
ATOM     35  F   UNL     1      -5.065  -5.740   1.532  0.00  0.00    -0.204 F 
ATOM     36  C   UNL     1      -3.952  -3.784   0.872  0.00  0.00    +0.030 A 
ENDBRANCH  27  29
BRANCH  27  37
ATOM     37  C   UNL     1      -3.764  -1.154   1.242  0.00  0.00    +0.080 C 
ATOM     38  C   UNL     1      -3.000   0.292   1.317  0.00  0.00    +0.010 C 
BRANCH  37  39
ATOM     39  C   UNL     1      -4.704  -0.673   0.033  0.00  0.00    +0.091 A 
ATOM     40  S   UNL     1      -5.590  -1.605  -1.060  0.00  0.00    -0.070 S 
ATOM     41  C   UNL     1      -6.857  -0.476  -1.354  0.00  0.00    +0.056 A 
ATOM     42  C   UNL     1      -6.552   0.512  -0.422  0.00  0.00    +0.088 A 
ATOM     43  N   UNL     1      -5.750   0.043   0.535  0.00  0.00    -0.243 NA
BRANCH  42  44
ATOM     44  C   UNL     1      -7.115   1.870  -0.332  0.00  0.00    +0.018 A 
ATOM     45  C   UNL     1      -8.304   2.131   0.338  0.00  0.00    +0.002 A 
ATOM     46  C   UNL     1      -8.711   3.450   0.514  0.00  0.00    +0.010 A 
ATOM     47  C   UNL     1      -7.894   4.472   0.055  0.00  0.00    +0.068 A 
ATOM     48  C   UNL     1      -6.567   4.231  -0.284  0.00  0.00    +0.010 A 
ATOM     49  C   UNL     1      -6.201   2.918  -0.291  0.00  0.00    +0.002 A 
BRANCH  47  50
ATOM     50  C   UNL     1      -8.334   5.830  -0.019  0.00  0.00    +0.100 C 
ATOM     51  N   UNL     1      -8.552   6.966  -0.069  0.00  0.00    -0.191 NA
ENDBRANCH  47  50
ENDBRANCH  42  44
ENDBRANCH  37  39
ENDBRANCH  27  37
ENDBRANCH   1  27
TORSDOF 15
