REMARK  Name = 
REMARK  5 active torsions:
REMARK  status: ('A' for Active; 'I' for Inactive)
REMARK    1  A    between atoms: N_2  and  C_4
REMARK    2  A    between atoms: C_4  and  C_5
REMARK    3  A    between atoms: C_5  and  C_6
REMARK    4  A    between atoms: C_6  and  C_7
REMARK    5  A    between atoms: C_6  and  C_14
REMARK                            x       y       z     vdW  Elec       q    Type
REMARK                         _______ _______ _______ _____ _____    ______ ____
ROOT
ATOM      1  C   UNL     1       0.639  -0.459  -0.888  0.00  0.00    +0.064 C 
ENDROOT
BRANCH   1   2
ATOM      2  C   UNL     1      -0.336   0.817  -0.735  0.00  0.00    -0.017 A 
ATOM      3  C   UNL     1       0.213   1.977  -1.273  0.00  0.00    -0.003 A 
ATOM      4  C   UNL     1      -0.297   3.195  -0.835  0.00  0.00    +0.006 A 
ATOM      5  C   UNL     1      -1.407   3.237  -0.014  0.00  0.00    +0.035 A 
ATOM      6 BR   UNL     1      -2.087   4.870   0.719  0.00  0.00    -0.049 Br
ATOM      7  C   UNL     1      -1.909   2.042   0.485  0.00  0.00    +0.006 A 
ATOM      8  C   UNL     1      -1.055   0.954   0.398  0.00  0.00    -0.003 A 
ENDBRANCH   1   2
BRANCH   1   9
ATOM      9  C   UNL     1      -0.495  -1.517  -0.473  0.00  0.00    +0.063 A 
ATOM     10  N   UNL     1      -0.973  -1.587   0.735  0.00  0.00    -0.248 NA
ATOM     11  C   UNL     1      -2.177  -2.190   0.900  0.00  0.00    +0.098 A 
ATOM     12  C   UNL     1      -2.752  -2.883  -0.160  0.00  0.00    +0.021 A 
ATOM     13  C   UNL     1      -1.836  -3.309  -1.116  0.00  0.00    +0.003 A 
ATOM     14  C   UNL     1      -0.642  -2.613  -1.291  0.00  0.00    +0.015 A 
ENDBRANCH   1   9
BRANCH   1  15
ATOM     15  C   UNL     1       1.252  -0.304   0.635  0.00  0.00    +0.028 C 
BRANCH  15  16
ATOM     16  C   UNL     1       2.346  -1.364   0.620  0.00  0.00    +0.073 C 
BRANCH  16  18
ATOM     17  C   UNL     1       3.603   0.254   1.834  0.00  0.00    +0.090 C 
ATOM     18  N   UNL     1       3.652  -0.793   0.847  0.00  0.00    -0.270 NA
ATOM     19  C   UNL     1       4.262  -0.328  -0.386  0.00  0.00    +0.090 C 
ENDBRANCH  16  18
ENDBRANCH  15  16
ENDBRANCH   1  15
TORSDOF 5
