REMARK  Name = 
REMARK  5 active torsions:
REMARK  status: ('A' for Active; 'I' for Inactive)
REMARK    1  A    between atoms: N_2  and  C_4
REMARK    2  A    between atoms: C_4  and  C_5
REMARK    3  A    between atoms: C_5  and  C_6
REMARK    4  A    between atoms: C_12  and  C_13
REMARK    5  A    between atoms: C_13  and  N_14
REMARK                            x       y       z     vdW  Elec       q    Type
REMARK                         _______ _______ _______ _____ _____    ______ ____
ROOT
ATOM      1  C   UNL     1       2.089  -0.089   0.243  0.00  0.00    -0.000 A 
ATOM      2  C   UNL     1       0.734  -0.376   0.287  0.00  0.00    +0.015 A 
ATOM      3  C   UNL     1       0.264   0.255   1.432  0.00  0.00    +0.081 A 
ATOM      4  C   UNL     1      -1.064   0.632   1.578  0.00  0.00    +0.019 A 
ATOM      5  C   UNL     1      -1.901   0.343   0.511  0.00  0.00    -0.001 A 
ATOM      6  C   UNL     1      -1.535  -0.655  -0.384  0.00  0.00    +0.002 A 
ATOM      7  N   UNL     1       1.305   0.253   2.297  0.00  0.00    -0.244 NA
ATOM      8  C   UNL     1      -0.186  -0.857  -0.628  0.00  0.00    -0.001 A 
ATOM      9  C   UNL     1       2.418   0.172   1.564  0.00  0.00    +0.095 A 
ENDROOT
BRANCH   1  10
ATOM     10  C   UNL     1       2.939  -0.125  -0.962  0.00  0.00    +0.045 C 
BRANCH  10  11
ATOM     11  C   UNL     1       4.314  -0.608  -0.608  0.00  0.00    +0.077 C 
BRANCH  11  13
ATOM     12  C   UNL     1       6.546   0.301  -0.636  0.00  0.00    +0.090 C 
ATOM     13  N   UNL     1       5.198   0.422  -0.138  0.00  0.00    -0.270 NA
ATOM     14  C   UNL     1       4.669   1.753  -0.250  0.00  0.00    +0.090 C 
ENDBRANCH  11  13
ENDBRANCH  10  11
ENDBRANCH   1  10
BRANCH   6  15
ATOM     15  C   UNL     1      -2.593  -1.441  -1.088  0.00  0.00    +0.156 C 
BRANCH  15  16
ATOM     16  N   UNL     1      -3.868  -0.803  -0.866  0.00  0.00    -0.226 N 
ATOM     17  N   UNL     1      -4.507  -0.730   0.299  0.00  0.00    -0.145 NA
ATOM     18  C   UNL     1      -5.318   0.356   0.312  0.00  0.00    +0.221 A 
ATOM     19  N   UNL     1      -5.157   0.991  -0.873  0.00  0.00    -0.201 NA
ATOM     20  C   UNL     1      -4.350   0.208  -1.625  0.00  0.00    +0.198 A 
ENDBRANCH  15  16
ENDBRANCH   6  15
TORSDOF 5
