REMARK  Name = 
REMARK  3 active torsions:
REMARK  status: ('A' for Active; 'I' for Inactive)
REMARK    1  A    between atoms: N_2  and  C_4
REMARK    2  A    between atoms: C_4  and  C_5
REMARK    3  A    between atoms: C_5  and  C_6
REMARK                            x       y       z     vdW  Elec       q    Type
REMARK                         _______ _______ _______ _____ _____    ______ ____
ROOT
ATOM      1  C   UNL     1       1.017  -0.611   0.721  0.00  0.00    -0.025 C 
ATOM      2  C   UNL     1      -0.217  -0.210   0.483  0.00  0.00    -0.005 C 
ATOM      3  C   UNL     1      -1.240  -1.261   0.399  0.00  0.00    -0.004 A 
ATOM      4  C   UNL     1      -2.585  -1.038   0.128  0.00  0.00    -0.022 A 
ATOM      5  C   UNL     1      -3.310  -2.165  -0.240  0.00  0.00    -0.004 A 
ATOM      6  C   UNL     1      -2.688  -3.292  -0.764  0.00  0.00    -0.000 A 
ATOM      7  C   UNL     1      -1.308  -3.409  -0.702  0.00  0.00    -0.000 A 
ATOM      8  C   UNL     1      -3.310   0.207  -0.262  0.00  0.00    +0.031 C 
ATOM      9  C   UNL     1      -2.917   1.396   0.565  0.00  0.00    +0.031 C 
ATOM     10  C   UNL     1      -1.566   1.910   0.187  0.00  0.00    -0.022 A 
ATOM     11  C   UNL     1      -1.617   3.123  -0.488  0.00  0.00    -0.004 A 
ATOM     12  C   UNL     1      -0.491   3.576  -1.161  0.00  0.00    -0.000 A 
ATOM     13  C   UNL     1       0.741   3.031  -0.823  0.00  0.00    -0.000 A 
ATOM     14  C   UNL     1       0.807   1.849  -0.094  0.00  0.00    -0.000 A 
ATOM     15  C   UNL     1      -0.670  -2.497   0.131  0.00  0.00    -0.000 A 
ATOM     16  C   UNL     1      -0.358   1.247   0.365  0.00  0.00    -0.004 A 
ENDROOT
BRANCH   1  17
ATOM     17  C   UNL     1       2.226   0.028   0.164  0.00  0.00    +0.043 C 
BRANCH  17  18
ATOM     18  C   UNL     1       3.223  -1.051  -0.146  0.00  0.00    +0.077 C 
BRANCH  18  20
ATOM     19  C   UNL     1       4.888  -0.828   1.583  0.00  0.00    +0.090 C 
ATOM     20  N   UNL     1       4.581  -0.694   0.167  0.00  0.00    -0.270 NA
ATOM     21  C   UNL     1       4.795   0.688  -0.214  0.00  0.00    +0.090 C 
ENDBRANCH  18  20
ENDBRANCH  17  18
ENDBRANCH   1  17
TORSDOF 3
