REMARK  Name = 
REMARK  5 active torsions:
REMARK  status: ('A' for Active; 'I' for Inactive)
REMARK    1  A    between atoms: C_5  and  N_6
REMARK    2  A    between atoms: C_7  and  C_9
REMARK    3  A    between atoms: C_9  and  C_10
REMARK    4  A    between atoms: C_24  and  C_25
REMARK    5  A    between atoms: C_29  and  C_30
REMARK                            x       y       z     vdW  Elec       q    Type
REMARK                         _______ _______ _______ _____ _____    ______ ____
ROOT
ATOM      1  N   UNL     1      -0.155   0.584  -0.716  0.00  0.00    -0.160 NA
ATOM      2  C   UNL     1      -0.575   0.965   0.593  0.00  0.00    +0.250 C 
ATOM      3  O   UNL     1       0.366   1.145   1.425  0.00  0.00    -0.273 OA
ENDROOT
BRANCH   1   8
ATOM      4  C   UNL     1       3.167  -3.532   0.785  0.00  0.00    +0.033 C 
ATOM      5  C   UNL     1       2.408  -2.419   0.135  0.00  0.00    -0.004 A 
ATOM      6  C   UNL     1       2.897  -1.118   0.151  0.00  0.00    +0.079 A 
ATOM      7  N   UNL     1       2.146  -0.110  -0.306  0.00  0.00    -0.229 NA
ATOM      8  C   UNL     1       0.962  -0.288  -0.938  0.00  0.00    +0.154 A 
ATOM      9  C   UNL     1       0.656  -1.604  -1.262  0.00  0.00    +0.036 A 
ATOM     10  C   UNL     1       1.336  -2.682  -0.708  0.00  0.00    +0.000 A 
BRANCH   6  11
ATOM     11  C   UNL     1       4.312  -0.894   0.468  0.00  0.00    +0.018 A 
ATOM     12  C   UNL     1       4.912   0.322   0.219  0.00  0.00    +0.008 A 
ATOM     13  C   UNL     1       6.268   0.477   0.024  0.00  0.00    +0.080 A 
ATOM     14  C   UNL     1       6.988  -0.680  -0.231  0.00  0.00    +0.007 A 
ATOM     15  C   UNL     1       6.498  -1.913   0.178  0.00  0.00    +0.000 A 
ATOM     16  C   UNL     1       5.182  -1.967   0.623  0.00  0.00    +0.001 A 
BRANCH  13  17
ATOM     17  C   UNL     1       6.973   1.734   0.272  0.00  0.00    +0.388 C 
ATOM     18  O   UNL     1       8.035   1.806   1.178  0.00  0.00    -0.241 OA
ATOM     19  O   UNL     1       6.866   2.728  -0.508  0.00  0.00    -0.241 OA
ENDBRANCH  13  17
ENDBRANCH   6  11
ENDBRANCH   1   8
BRANCH   2  20
ATOM     20  C   UNL     1      -1.966   0.740   1.095  0.00  0.00    +0.090 C 
ATOM     21  C   UNL     1      -2.180  -0.618   1.822  0.00  0.00    +0.014 C 
ATOM     22  C   UNL     1      -2.118   0.643   2.606  0.00  0.00    +0.014 C 
BRANCH  20  23
ATOM     23  C   UNL     1      -3.110   1.202   0.289  0.00  0.00    -0.011 A 
ATOM     24  C   UNL     1      -3.781   0.365  -0.592  0.00  0.00    +0.037 A 
ATOM     25  C   UNL     1      -5.144   0.504  -0.825  0.00  0.00    +0.181 A 
ATOM     26  O   UNL     1      -6.104  -0.340  -1.388  0.00  0.00    -0.395 OA
ATOM     27  C   UNL     1      -7.274  -0.351  -0.572  0.00  0.00    +0.589 C 
ATOM     28  O   UNL     1      -7.157   0.902   0.074  0.00  0.00    -0.395 OA
ATOM     29  F   UNL     1      -7.138  -1.409   0.311  0.00  0.00    -0.125 F 
ATOM     30  F   UNL     1      -8.420  -0.450  -1.332  0.00  0.00    -0.125 F 
ATOM     31  C   UNL     1      -5.889   1.439  -0.120  0.00  0.00    +0.182 A 
ATOM     32  C   UNL     1      -5.164   2.475   0.450  0.00  0.00    +0.040 A 
ATOM     33  C   UNL     1      -3.801   2.344   0.675  0.00  0.00    -0.001 A 
ENDBRANCH  20  23
ENDBRANCH   2  20
TORSDOF 5
