REMARK  Name = 
REMARK  6 active torsions:
REMARK  status: ('A' for Active; 'I' for Inactive)
REMARK    1  A    between atoms: C_2  and  C_4
REMARK    2  A    between atoms: C_4  and  O_6
REMARK    3  A    between atoms: O_6  and  C_7
REMARK    4  A    between atoms: C_7  and  C_8
REMARK    5  A    between atoms: C_8  and  C_10
REMARK    6  A    between atoms: C_12  and  C_13
REMARK                            x       y       z     vdW  Elec       q    Type
REMARK                         _______ _______ _______ _____ _____    ______ ____
ROOT
ATOM      1  C   UNL     1      -1.419  -0.350   0.703  0.00  0.00    +0.174 C 
ATOM      2  C   UNL     1      -0.035  -0.187   0.702  0.00  0.00    +0.034 C 
ATOM      3  C   UNL     1       0.480  -1.108  -0.526  0.00  0.00    +0.005 C 
ATOM      4  C   UNL     1       1.851  -0.140  -0.640  0.00  0.00    +0.004 C 
ATOM      5  C   UNL     1       2.727  -1.116   0.403  0.00  0.00    +0.038 C 
ATOM      6  C   UNL     1       2.277  -0.344   1.866  0.00  0.00    +0.153 C 
ATOM      7  O   UNL     1       2.220   1.064   1.313  0.00  0.00    -0.223 OA
ATOM      8  C   UNL     1       4.093  -0.317   0.277  0.00  0.00    +0.036 C 
ATOM      9  C   UNL     1       4.107   0.615  -0.858  0.00  0.00    -0.038 C 
ATOM     10  C   UNL     1       5.217   1.364  -0.801  0.00  0.00    +0.034 C 
ATOM     11  C   UNL     1       6.447   0.827  -0.182  0.00  0.00    +0.195 C 
ATOM     12  C   UNL     1       6.375  -0.645  -0.132  0.00  0.00    +0.038 C 
ATOM     13  O   UNL     1       7.489   1.485  -0.027  0.00  0.00    -0.287 OA
ATOM     14  C   UNL     1       3.619   0.079  -2.177  0.00  0.00    +0.022 C 
ATOM     15  C   UNL     1       4.573   0.244   1.561  0.00  0.00    +0.009 C 
ATOM     16  C   UNL     1       5.189  -1.274  -0.102  0.00  0.00    -0.020 C 
ATOM     17  C   UNL     1       2.463  -0.885  -1.923  0.00  0.00    +0.004 C 
ATOM     18  C   UNL     1      -0.404  -0.223  -1.528  0.00  0.00    +0.033 C 
ATOM     19  C   UNL     1       0.139   1.262   0.224  0.00  0.00    +0.003 C 
ATOM     20  C   UNL     1       0.681  -0.651   1.796  0.00  0.00    +0.036 C 
ATOM     21  C   UNL     1      -1.900  -0.430  -0.858  0.00  0.00    +0.149 C 
ATOM     22  O   UNL     1      -1.869  -1.930  -0.999  0.00  0.00    -0.330 OA
ATOM     23  C   UNL     1      -1.477  -2.399   0.388  0.00  0.00    +0.235 C 
ATOM     24  O   UNL     1      -2.237  -1.294   1.114  0.00  0.00    -0.326 OA
ENDROOT
BRANCH  23  25
ATOM     25  C   UNL     1      -2.780  -3.425   0.517  0.00  0.00    +0.057 C 
ATOM     26  C   UNL     1      -2.387  -4.656  -0.204  0.00  0.00    +0.005 C 
ATOM     27  C   UNL     1      -3.541  -5.508  -0.505  0.00  0.00    +0.000 C 
ATOM     28  C   UNL     1      -4.898  -5.024  -0.274  0.00  0.00    +0.000 C 
ATOM     29  C   UNL     1      -5.121  -3.593  -0.006  0.00  0.00    +0.000 C 
ATOM     30  C   UNL     1      -3.949  -2.697  -0.027  0.00  0.00    +0.005 C 
ENDBRANCH  23  25
BRANCH   1  31
ATOM     31  C   UNL     1      -2.090   0.880   1.276  0.00  0.00    +0.221 C 
ATOM     32  O   UNL     1      -2.360   0.882   2.467  0.00  0.00    -0.290 OA
BRANCH  31  33
ATOM     33  C   UNL     1      -2.282   2.019   0.465  0.00  0.00    +0.275 C 
BRANCH  33  34
ATOM     34  O   UNL     1      -3.304   2.903   0.589  0.00  0.00    -0.440 OA
BRANCH  34  35
ATOM     35  C   UNL     1      -3.207   3.976  -0.310  0.00  0.00    +0.317 C 
ATOM     36  O   UNL     1      -2.320   4.027  -1.212  0.00  0.00    -0.250 OA
BRANCH  35  38
ATOM     37  C   UNL     1      -4.971   5.071  -0.810  0.00  0.00    +0.012 C 
ATOM     38  C   UNL     1      -4.119   5.130  -0.207  0.00  0.00    +0.099 C 
ATOM     39  C   UNL     1      -3.279   6.370  -0.031  0.00  0.00    +0.012 C 
ENDBRANCH  35  38
ENDBRANCH  34  35
ENDBRANCH  33  34
ENDBRANCH  31  33
ENDBRANCH   1  31
TORSDOF 6
