REMARK  Name = 
REMARK  4 active torsions:
REMARK  status: ('A' for Active; 'I' for Inactive)
REMARK    1  A    between atoms: C_2  and  C_3
REMARK    2  A    between atoms: C_3  and  N_4
REMARK    3  A    between atoms: C_3  and  C_14
REMARK    4  A    between atoms: N_25  and  C_26
REMARK                            x       y       z     vdW  Elec       q    Type
REMARK                         _______ _______ _______ _____ _____    ______ ____
ROOT
ATOM      1  C   UNL     1      -0.195   0.090  -0.088  0.00  0.00    +0.146 A 
ATOM      2  N   UNL     1      -1.224   0.545   0.675  0.00  0.00    -0.261 N 
ATOM      3  C   UNL     1      -2.072  -0.370   1.212  0.00  0.00    +0.269 A 
ATOM      4  O   UNL     1      -3.001   0.014   1.986  0.00  0.00    -0.266 OA
ATOM      5  C   UNL     1      -2.190  -1.655   0.690  0.00  0.00    +0.102 A 
ATOM      6  C   UNL     1      -1.430  -1.928  -0.414  0.00  0.00    +0.089 A 
ATOM      7  C   UNL     1      -1.859  -2.817  -1.395  0.00  0.00    +0.019 A 
ATOM      8  C   UNL     1      -3.063  -3.463  -1.260  0.00  0.00    +0.004 A 
ATOM      9  C   UNL     1      -3.689  -3.432  -0.024  0.00  0.00    +0.030 A 
ATOM     10  C   UNL     1      -3.342  -2.415   0.850  0.00  0.00    +0.146 A 
ATOM     11  F   UNL     1      -4.014  -2.237   2.007  0.00  0.00    -0.204 F 
ATOM     12  N   UNL     1      -0.450  -1.063  -0.714  0.00  0.00    -0.230 NA
ENDROOT
BRANCH   2  13
ATOM     13  C   UNL     1      -1.648   1.902   0.713  0.00  0.00    +0.068 A 
ATOM     14  C   UNL     1      -0.942   2.962   0.219  0.00  0.00    +0.018 A 
ATOM     15  C   UNL     1      -1.499   4.058  -0.379  0.00  0.00    +0.001 A 
ATOM     16  C   UNL     1      -2.842   4.278  -0.210  0.00  0.00    +0.000 A 
ATOM     17  C   UNL     1      -3.583   3.354   0.489  0.00  0.00    +0.001 A 
ATOM     18  C   UNL     1      -2.966   2.236   1.012  0.00  0.00    +0.018 A 
ENDBRANCH   2  13
BRANCH   1  19
ATOM     19  C   UNL     1       0.375   1.295  -1.041  0.00  0.00    +0.151 C 
BRANCH  19  20
ATOM     20  N   UNL     1       1.728   1.445  -0.210  0.00  0.00    -0.213 NA
ATOM     21  C   UNL     1       2.412   0.272   0.111  0.00  0.00    +0.170 A 
ATOM     22  C   UNL     1       3.609  -0.019  -0.528  0.00  0.00    +0.152 A 
ATOM     23  C   UNL     1       4.564  -0.770   0.147  0.00  0.00    +0.186 A 
ATOM     24  N   UNL     1       5.597  -0.985  -0.699  0.00  0.00    -0.203 NA
ATOM     25  C   UNL     1       5.235  -0.435  -1.883  0.00  0.00    +0.200 A 
ATOM     26  N   UNL     1       4.593  -0.765   1.503  0.00  0.00    -0.203 NA
ATOM     27  C   UNL     1       3.392  -0.583   2.097  0.00  0.00    +0.202 A 
ATOM     28  N   UNL     1       4.267   0.472  -1.606  0.00  0.00    -0.218 NA
ATOM     29  N   UNL     1       2.308  -0.208   1.375  0.00  0.00    -0.206 NA
ENDBRANCH  19  20
BRANCH  19  31
ATOM     30  C   UNL     1       0.809  -0.074  -2.482  0.00  0.00    +0.002 C 
ATOM     31  C   UNL     1       1.119   0.297  -2.155  0.00  0.00    +0.029 C 
ENDBRANCH  19  31
ENDBRANCH   1  19
TORSDOF 4
