REMARK  Name = 
REMARK  13 active torsions:
REMARK  status: ('A' for Active; 'I' for Inactive)
REMARK    1  A    between atoms: C_2  and  C_3
REMARK    2  A    between atoms: C_3  and  C_4
REMARK    3  A    between atoms: C_4  and  C_5
REMARK    4  A    between atoms: C_5  and  C_6
REMARK    5  A    between atoms: C_6  and  C_7
REMARK    6  A    between atoms: C_7  and  C_8
REMARK    7  A    between atoms: C_8  and  C_9
REMARK    8  A    between atoms: C_9  and  C_10
REMARK    9  A    between atoms: C_10  and  C_11
REMARK   10  A    between atoms: C_11  and  C_12
REMARK   11  A    between atoms: C_12  and  O_13
REMARK   12  A    between atoms: O_13  and  C_14
REMARK   13  A    between atoms: C_14  and  C_15
REMARK                            x       y       z     vdW  Elec       q    Type
REMARK                         _______ _______ _______ _____ _____    ______ ____
ROOT
ATOM      1  C   UNL     1       0.366   0.318   0.457  0.00  0.00    +0.000 C 
ENDROOT
BRANCH   1   2
ATOM      2  C   UNL     1       1.871   0.410   0.321  0.00  0.00    +0.000 C 
BRANCH   2   3
ATOM      3  C   UNL     1       2.582  -0.469   1.321  0.00  0.00    +0.000 C 
BRANCH   3   4
ATOM      4  C   UNL     1       2.986  -1.758   0.615  0.00  0.00    +0.000 C 
BRANCH   4   5
ATOM      5  C   UNL     1       4.506  -1.744   0.566  0.00  0.00    +0.000 C 
BRANCH   5   6
ATOM      6  C   UNL     1       4.901  -0.643  -0.412  0.00  0.00    +0.000 C 
BRANCH   6   8
ATOM      7  C   UNL     1       5.487   1.778  -0.094  0.00  0.00    +0.000 C 
ATOM      8  C   UNL     1       5.819   0.350   0.291  0.00  0.00    +0.000 C 
ENDBRANCH   6   8
ENDBRANCH   5   6
ENDBRANCH   4   5
ENDBRANCH   3   4
ENDBRANCH   2   3
ENDBRANCH   1   2
BRANCH   1   9
ATOM      9  C   UNL     1      -0.149  -0.328  -0.824  0.00  0.00    +0.000 C 
BRANCH   9  10
ATOM     10  C   UNL     1      -1.663  -0.411  -0.670  0.00  0.00    +0.003 C 
BRANCH  10  11
ATOM     11  C   UNL     1      -2.121   0.742   0.198  0.00  0.00    +0.032 C 
BRANCH  11  12
ATOM     12  C   UNL     1      -3.290   1.481  -0.396  0.00  0.00    +0.142 C 
BRANCH  12  13
ATOM     13  O   UNL     1      -4.193   0.640  -1.030  0.00  0.00    -0.351 OA
BRANCH  13  14
ATOM     14  C   UNL     1      -5.440   0.728  -0.437  0.00  0.00    +0.178 C 
BRANCH  14  15
ATOM     15  C   UNL     1      -5.712  -0.623   0.214  0.00  0.00    +0.214 C 
ATOM     16  O   UNL     1      -5.951  -0.472   1.579  0.00  0.00    -0.218 OA
ENDBRANCH  14  15
ENDBRANCH  13  14
ENDBRANCH  12  13
ENDBRANCH  11  12
ENDBRANCH  10  11
ENDBRANCH   9  10
ENDBRANCH   1   9
TORSDOF 13
