REMARK  Name = 
REMARK  5 active torsions:
REMARK  status: ('A' for Active; 'I' for Inactive)
REMARK    1  A    between atoms: C_2  and  C_3
REMARK    2  A    between atoms: C_5  and  N_6
REMARK    3  A    between atoms: C_7  and  C_9
REMARK    4  A    between atoms: C_14  and  N_15
REMARK    5  A    between atoms: C_16  and  C_18
REMARK                            x       y       z     vdW  Elec       q    Type
REMARK                         _______ _______ _______ _____ _____    ______ ____
ROOT
ATOM      1  C   UNL     1       0.191  -0.840   2.298  0.00  0.00    +0.071 A 
ATOM      2  C   UNL     1       1.098  -1.121   1.296  0.00  0.00    +0.028 A 
ATOM      3  C   UNL     1       0.982  -0.495   0.075  0.00  0.00    +0.086 A 
ATOM      4  C   UNL     1      -0.159   0.249  -0.208  0.00  0.00    +0.088 A 
ATOM      5 CL   UNL     1      -0.430   0.774  -1.862  0.00  0.00    -0.080 Cl
ATOM      6  C   UNL     1      -1.131   0.480   0.759  0.00  0.00    +0.086 A 
ATOM      7  C   UNL     1      -0.806   0.067   2.045  0.00  0.00    +0.028 A 
ENDROOT
BRANCH   3   8
ATOM      8  N   UNL     1       2.131  -0.395  -0.776  0.00  0.00    -0.169 NA
ATOM      9  C   UNL     1       2.877   0.813  -0.845  0.00  0.00    +0.349 C 
ATOM     10  O   UNL     1       2.265   1.909  -0.667  0.00  0.00    -0.261 OA
BRANCH   9  11
ATOM     11  C   UNL     1       4.341   0.839  -0.925  0.00  0.00    +0.442 C 
ATOM     12  O   UNL     1       5.152  -0.062  -0.268  0.00  0.00    -0.235 OA
ATOM     13  O   UNL     1       4.857   1.654  -1.738  0.00  0.00    -0.235 OA
ENDBRANCH   9  11
ENDBRANCH   3   8
BRANCH   6  14
ATOM     14  N   UNL     1      -2.486   0.648   0.330  0.00  0.00    -0.169 NA
ATOM     15  C   UNL     1      -3.037  -0.123  -0.741  0.00  0.00    +0.349 C 
ATOM     16  O   UNL     1      -2.590  -1.286  -0.892  0.00  0.00    -0.261 OA
BRANCH  15  17
ATOM     17  C   UNL     1      -4.168   0.352  -1.546  0.00  0.00    +0.442 C 
ATOM     18  O   UNL     1      -3.998   0.792  -2.860  0.00  0.00    -0.235 OA
ATOM     19  O   UNL     1      -5.281  -0.200  -1.300  0.00  0.00    -0.235 OA
ENDBRANCH  15  17
ENDBRANCH   6  14
BRANCH   1  21
ATOM     20  N   UNL     1      -0.031  -2.354   4.378  0.00  0.00    -0.191 NA
ATOM     21  C   UNL     1       0.223  -1.699   3.451  0.00  0.00    +0.100 C 
ENDBRANCH   1  21
TORSDOF 5
