REMARK  Name = 
REMARK  6 active torsions:
REMARK  status: ('A' for Active; 'I' for Inactive)
REMARK    1  A    between atoms: N_4  and  C_5
REMARK    2  A    between atoms: C_7  and  N_8
REMARK    3  A    between atoms: C_9  and  C_11
REMARK    4  A    between atoms: C_16  and  N_17
REMARK    5  A    between atoms: C_22  and  C_23
REMARK    6  A    between atoms: C_32  and  C_33
REMARK                            x       y       z     vdW  Elec       q    Type
REMARK                         _______ _______ _______ _____ _____    ______ ____
ROOT
ATOM      1  C   UNL     1      -0.416  -0.513  -1.720  0.00  0.00    +0.057 A 
ATOM      2  C   UNL     1       0.644   0.282  -2.138  0.00  0.00    +0.021 A 
ATOM      3  C   UNL     1       1.944  -0.206  -2.115  0.00  0.00    +0.070 A 
ATOM      4  C   UNL     1       2.182  -1.523  -1.750  0.00  0.00    -0.006 A 
ATOM      5  C   UNL     1       3.237  -2.335  -2.423  0.00  0.00    +0.032 C 
ATOM      6  C   UNL     1       1.240  -2.086  -0.902  0.00  0.00    -0.003 A 
ATOM      7  C   UNL     1      -0.056  -1.589  -0.918  0.00  0.00    +0.004 A 
ENDROOT
BRANCH   3   8
ATOM      8  N   UNL     1       2.992   0.532  -2.711  0.00  0.00    -0.178 NA
ATOM      9  C   UNL     1       4.361   0.353  -2.420  0.00  0.00    +0.241 A 
ATOM     10  N   UNL     1       4.847   0.161  -1.173  0.00  0.00    -0.212 NA
ATOM     11  C   UNL     1       6.168  -0.105  -1.049  0.00  0.00    +0.087 A 
ATOM     12  C   UNL     1       6.835  -0.627  -2.150  0.00  0.00    +0.040 A 
ATOM     13  C   UNL     1       6.399  -0.261  -3.417  0.00  0.00    +0.103 A 
ATOM     14  N   UNL     1       5.224   0.409  -3.462  0.00  0.00    -0.211 NA
BRANCH  11  15
ATOM     15  C   UNL     1       6.721  -0.196   0.308  0.00  0.00    +0.037 A 
ATOM     16  C   UNL     1       7.698  -1.120   0.635  0.00  0.00    +0.100 A 
ATOM     17  N   UNL     1       8.478  -0.955   1.729  0.00  0.00    -0.242 NA
ATOM     18  C   UNL     1       8.666   0.297   2.211  0.00  0.00    +0.099 A 
ATOM     19  C   UNL     1       7.599   1.180   2.098  0.00  0.00    +0.021 A 
ATOM     20  C   UNL     1       6.643   0.922   1.125  0.00  0.00    +0.005 A 
ENDBRANCH  11  15
ENDBRANCH   3   8
BRANCH   1  22
ATOM     21  N   UNL     1      -2.121   1.118  -0.786  0.00  0.00    -0.175 NA
ATOM     22  C   UNL     1      -1.773  -0.004  -1.577  0.00  0.00    +0.269 C 
ATOM     23  O   UNL     1      -2.705  -0.833  -1.809  0.00  0.00    -0.268 OA
BRANCH  21  28
ATOM     24  C   UNL     1      -5.359   0.480   0.899  0.00  0.00    +0.067 A 
ATOM     25  C   UNL     1      -4.832  -0.127   2.027  0.00  0.00    +0.022 A 
ATOM     26  C   UNL     1      -3.544   0.165   2.458  0.00  0.00    +0.074 A 
ATOM     27  C   UNL     1      -2.742   0.835   1.554  0.00  0.00    +0.021 A 
ATOM     28  C   UNL     1      -3.120   1.068   0.241  0.00  0.00    +0.075 A 
ATOM     29  C   UNL     1      -4.459   0.912  -0.054  0.00  0.00    +0.034 A 
BRANCH  24  34
ATOM     30  C   UNL     1      -9.892   0.601  -1.187  0.00  0.00    +0.054 C 
ATOM     31  C   UNL     1      -8.783   0.648  -0.190  0.00  0.00    +0.079 A 
ATOM     32  N   UNL     1      -8.933   0.449   1.142  0.00  0.00    -0.228 NA
ATOM     33  C   UNL     1      -7.685   0.430   1.670  0.00  0.00    +0.182 A 
ATOM     34  N   UNL     1      -6.760   0.476   0.705  0.00  0.00    -0.287 N 
ATOM     35  C   UNL     1      -7.418   0.676  -0.450  0.00  0.00    +0.096 A 
ENDBRANCH  24  34
BRANCH  26  36
ATOM     36  C   UNL     1      -2.984  -0.530   3.658  0.00  0.00    +0.419 C 
ATOM     37  F   UNL     1      -2.848  -1.880   3.346  0.00  0.00    -0.166 F 
ATOM     38  F   UNL     1      -3.749  -0.329   4.781  0.00  0.00    -0.166 F 
ATOM     39  F   UNL     1      -1.694  -0.030   3.811  0.00  0.00    -0.166 F 
ENDBRANCH  26  36
ENDBRANCH  21  28
ENDBRANCH   1  22
TORSDOF 6
