REMARK  Name = 
REMARK  3 active torsions:
REMARK  status: ('A' for Active; 'I' for Inactive)
REMARK    1  A    between atoms: CA_2  and  CB_3
REMARK    2  A    between atoms: CA_2  and  C_13
REMARK    3  A    between atoms: CB_3  and  CG_4
REMARK                            x       y       z     vdW  Elec       q    Type
REMARK                         _______ _______ _______ _____ _____    ______ ____
ROOT
ATOM      1  CG  TRP A   1       0.006  -0.340   0.238  0.00  0.00    +0.000 A 
ATOM      2  CD2 TRP A   1      -1.310   0.101   0.151  0.00  0.00    +0.015 A 
ATOM      3  CE2 TRP A   1      -2.102  -1.014   0.235  0.00  0.00    +0.081 A 
ATOM      4  CZ2 TRP A   1      -3.437  -0.912   0.021  0.00  0.00    +0.019 A 
ATOM      5  CH2 TRP A   1      -4.014   0.265  -0.346  0.00  0.00    +0.002 A 
ATOM      6  CZ3 TRP A   1      -3.286   1.443  -0.320  0.00  0.00    +0.000 A 
ATOM      7  NE1 TRP A   1      -1.327  -2.092   0.367  0.00  0.00    -0.244 NA
ATOM      8  CE3 TRP A   1      -1.912   1.295  -0.182  0.00  0.00    +0.001 A 
ATOM      9  CD1 TRP A   1      -0.101  -1.632   0.623  0.00  0.00    +0.095 A 
ENDROOT
BRANCH   1  10
ATOM     10  CB  TRP A   1       1.137   0.558  -0.053  0.00  0.00    +0.059 C 
BRANCH  10  12
ATOM     11  N   TRP A   1       2.450   0.012   1.802  0.00  0.00    -0.120 NA
ATOM     12  CA  TRP A   1       2.419  -0.451   0.277  0.00  0.00    +0.199 C 
BRANCH  12  13
ATOM     13  C   TRP A   1       3.529   0.665  -0.144  0.00  0.00    +0.382 C 
ATOM     14  OXT TRP A   1       3.297   1.954   0.184  0.00  0.00    -0.244 OA
ATOM     15  O   TRP A   1       4.650   0.149  -0.435  0.00  0.00    -0.244 OA
ENDBRANCH  12  13
ENDBRANCH  10  12
ENDBRANCH   1  10
TORSDOF 3
