REMARK  Name = 
REMARK  13 active torsions:
REMARK  status: ('A' for Active; 'I' for Inactive)
REMARK    1  A    between atoms: C_3  and  C_4
REMARK    2  A    between atoms: C_4  and  C_5
REMARK    3  A    between atoms: C_5  and  C_7
REMARK    4  A    between atoms: C_7  and  C_9
REMARK    5  A    between atoms: C_10  and  C_11
REMARK    6  A    between atoms: C_15  and  C_16
REMARK    7  A    between atoms: C_16  and  C_17
REMARK    8  A    between atoms: C_17  and  C_18
REMARK    9  A    between atoms: C_18  and  C_19
REMARK   10  A    between atoms: C_19  and  O_21
REMARK   11  A    between atoms: O_21  and  C_22
REMARK   12  A    between atoms: C_22  and  C_23
REMARK   13  A    between atoms: C_23  and  C_25
REMARK                            x       y       z     vdW  Elec       q    Type
REMARK                         _______ _______ _______ _____ _____    ______ ____
ROOT
ATOM      1  C   UNL     1      -2.752  -1.005   1.928  0.00  0.00    +0.052 C 
ATOM      2  C   UNL     1      -2.894   0.614   2.420  0.00  0.00    +0.156 C 
ATOM      3  O   UNL     1      -1.405   0.741   2.678  0.00  0.00    -0.223 OA
ATOM      4  C   UNL     1      -2.961   1.311   0.929  0.00  0.00    +0.034 C 
ATOM      5  C   UNL     1      -1.578   0.630   0.556  0.00  0.00    +0.007 C 
ATOM      6  C   UNL     1      -1.586   0.715  -1.081  0.00  0.00    +0.022 C 
ATOM      7  C   UNL     1      -0.531  -0.405  -0.981  0.00  0.00    -0.048 C 
ATOM      8  C   UNL     1       0.819  -0.268  -0.952  0.00  0.00    -0.035 C 
ATOM      9  C   UNL     1      -1.011  -1.386   0.097  0.00  0.00    +0.022 C 
ATOM     10  C   UNL     1      -2.501  -0.756   0.300  0.00  0.00    +0.011 C 
ENDROOT
BRANCH   1  12
ATOM     11  C   UNL     1      -4.942  -0.473   0.881  0.00  0.00    +0.002 C 
ATOM     12  C   UNL     1      -4.365  -1.025   1.873  0.00  0.00    -0.026 C 
BRANCH  11  13
ATOM     13  C   UNL     1      -6.239   0.472   0.961  0.00  0.00    +0.175 C 
ATOM     14  O   UNL     1      -6.131   0.671   2.458  0.00  0.00    -0.218 OA
BRANCH  13  15
ATOM     15  C   UNL     1      -7.266  -0.897   0.980  0.00  0.00    +0.048 C 
ATOM     16  C   UNL     1      -7.875  -0.760   2.468  0.00  0.00    +0.004 C 
BRANCH  15  17
ATOM     17  C   UNL     1      -8.443  -0.003   0.306  0.00  0.00    +0.079 C 
BRANCH  17  20
ATOM     18  C   UNL     1      -7.028  -0.461  -3.473  0.00  0.00    +0.090 C 
ATOM     19  C   UNL     1      -7.870  -0.122  -2.325  0.00  0.00    -0.090 C 
ATOM     20  C   UNL     1      -8.133   0.005  -1.141  0.00  0.00    -0.091 C 
ENDBRANCH  17  20
ENDBRANCH  15  17
ENDBRANCH  13  15
ENDBRANCH  11  13
ENDBRANCH   1  12
BRANCH   8  21
ATOM     21  C   UNL     1       1.547   0.391   0.188  0.00  0.00    +0.026 C 
BRANCH  21  22
ATOM     22  C   UNL     1       1.823  -0.821   1.078  0.00  0.00    +0.016 C 
BRANCH  22  23
ATOM     23  C   UNL     1       2.863  -1.406   0.090  0.00  0.00    +0.110 C 
BRANCH  23  24
ATOM     24  C   UNL     1       3.791  -0.303  -0.311  0.00  0.00    +0.317 C 
ATOM     25  O   UNL     1       3.977   0.516   0.654  0.00  0.00    -0.250 OA
BRANCH  24  26
ATOM     26  O   UNL     1       3.718   0.438  -1.497  0.00  0.00    -0.440 OA
BRANCH  26  27
ATOM     27  C   UNL     1       4.841   1.288  -1.801  0.00  0.00    +0.277 C 
BRANCH  27  28
ATOM     28  C   UNL     1       5.976   0.324  -1.922  0.00  0.00    +0.217 C 
ATOM     29  O   UNL     1       5.695  -0.639  -2.718  0.00  0.00    -0.287 OA
BRANCH  28  30
ATOM     30  C   UNL     1       7.184   0.455  -1.154  0.00  0.00    +0.038 A 
ATOM     31  C   UNL     1       8.386   0.337  -1.817  0.00  0.00    +0.003 A 
ATOM     32  C   UNL     1       9.596   0.264  -1.108  0.00  0.00    +0.000 A 
ATOM     33  C   UNL     1       9.591   0.193   0.278  0.00  0.00    +0.000 A 
ATOM     34  C   UNL     1       8.421   0.452   0.950  0.00  0.00    +0.000 A 
ATOM     35  C   UNL     1       7.282   0.347   0.207  0.00  0.00    +0.003 A 
ENDBRANCH  28  30
ENDBRANCH  27  28
ENDBRANCH  26  27
ENDBRANCH  24  26
ENDBRANCH  23  24
ENDBRANCH  22  23
ENDBRANCH  21  22
ENDBRANCH   8  21
TORSDOF 13
