REMARK  Name = 
REMARK  12 active torsions:
REMARK  status: ('A' for Active; 'I' for Inactive)
REMARK    1  A    between atoms: O_2  and  C_3
REMARK    2  A    between atoms: N_5  and  C_6
REMARK    3  A    between atoms: C_6  and  C_7
REMARK    4  A    between atoms: C_6  and  C_63
REMARK    5  A    between atoms: C_15  and  C_16
REMARK    6  A    between atoms: C_19  and  C_20
REMARK    7  A    between atoms: C_31  and  C_32
REMARK    8  A    between atoms: C_37  and  C_38
REMARK    9  A    between atoms: C_45  and  C_47
REMARK   10  A    between atoms: C_47  and  N_48
REMARK   11  A    between atoms: C_47  and  C_53
REMARK   12  A    between atoms: C_49  and  O_51
REMARK                            x       y       z     vdW  Elec       q    Type
REMARK                         _______ _______ _______ _____ _____    ______ ____
ROOT
ATOM      1  C   UNL     1       3.607  -1.208   0.794  0.00  0.00    +0.019 A 
ATOM      2  C   UNL     1       2.637  -2.087   0.328  0.00  0.00    +0.003 A 
ATOM      3  C   UNL     1       1.327  -1.688   0.067  0.00  0.00    +0.042 A 
ATOM      4  C   UNL     1       0.330  -2.196  -0.929  0.00  0.00    +0.301 C 
ATOM      5  C   UNL     1      -0.237  -0.978  -1.594  0.00  0.00    +0.042 A 
ATOM      6  C   UNL     1       0.178   0.119  -0.849  0.00  0.00    +0.001 A 
ATOM      7  C   UNL     1      -0.288   1.372  -1.229  0.00  0.00    -0.000 A 
ATOM      8  C   UNL     1      -1.383   1.440  -2.082  0.00  0.00    -0.000 A 
ATOM      9  C   UNL     1      -2.154   0.320  -2.380  0.00  0.00    -0.000 A 
ATOM     10  C   UNL     1      -1.475  -0.882  -2.223  0.00  0.00    +0.001 A 
ATOM     11  F   UNL     1      -0.634  -2.955  -0.320  0.00  0.00    -0.195 F 
ATOM     12  F   UNL     1       0.943  -2.967  -1.896  0.00  0.00    -0.195 F 
ATOM     13  C   UNL     1       0.950  -0.371   0.304  0.00  0.00    +0.001 A 
ATOM     14  C   UNL     1       1.759   0.294   1.220  0.00  0.00    -0.000 A 
ATOM     15  C   UNL     1       3.077  -0.097   1.444  0.00  0.00    +0.002 A 
ENDROOT
BRANCH   9  16
ATOM     16  C   UNL     1      -3.618   0.334  -2.163  0.00  0.00    +0.002 A 
ATOM     17  C   UNL     1      -4.205  -0.489  -1.204  0.00  0.00    +0.021 A 
ATOM     18  C   UNL     1      -5.004  -0.008  -0.194  0.00  0.00    +0.100 A 
ATOM     19  C   UNL     1      -5.739   1.127  -0.521  0.00  0.00    +0.100 A 
ATOM     20  N   UNL     1      -6.476   1.352   0.566  0.00  0.00    -0.228 NA
ATOM     21  C   UNL     1      -6.479   0.232   1.343  0.00  0.00    +0.157 A 
ATOM     22  C   UNL     1      -5.451   1.851  -1.671  0.00  0.00    +0.021 A 
ATOM     23  N   UNL     1      -5.263  -0.310   1.097  0.00  0.00    -0.228 NA
ATOM     24  C   UNL     1      -4.311   1.516  -2.393  0.00  0.00    +0.002 A 
BRANCH  21  25
ATOM     25  C   UNL     1      -6.835   0.716   2.837  0.00  0.00    +0.134 C 
ATOM     26  N   UNL     1      -8.366   0.782   2.606  0.00  0.00    -0.275 N 
ATOM     27  C   UNL     1      -9.084   0.073   1.591  0.00  0.00    +0.246 C 
ATOM     28  O   UNL     1      -8.688  -1.055   1.334  0.00  0.00    -0.273 OA
ATOM     29  C   UNL     1      -8.801   0.536   4.103  0.00  0.00    +0.076 C 
ATOM     30  C   UNL     1      -8.383  -1.009   3.843  0.00  0.00    +0.022 C 
ATOM     31  C   UNL     1      -7.416   0.969   4.877  0.00  0.00    +0.020 C 
ATOM     32  C   UNL     1      -6.633  -0.280   4.989  0.00  0.00    +0.004 C 
ATOM     33  C   UNL     1      -6.831  -0.862   3.485  0.00  0.00    +0.027 C 
BRANCH  27  34
ATOM     34  C   UNL     1      -9.765   0.981   0.454  0.00  0.00    +0.175 C 
BRANCH  34  35
ATOM     35  C   UNL     1     -11.268   0.420   0.816  0.00  0.00    +0.029 C 
ATOM     36  C   UNL     1     -11.188  -1.072   0.852  0.00  0.00    +0.002 C 
ATOM     37  C   UNL     1     -11.528   0.892   2.233  0.00  0.00    +0.002 C 
ENDBRANCH  34  35
BRANCH  34  38
ATOM     38  N   UNL     1      -9.593  -0.054  -0.724  0.00  0.00    -0.161 NA
ATOM     39  C   UNL     1     -10.294   0.231  -1.906  0.00  0.00    +0.422 C 
ATOM     40  O   UNL     1     -10.522   1.439  -2.173  0.00  0.00    -0.225 OA
BRANCH  39  41
ATOM     41  O   UNL     1     -10.610  -0.697  -2.883  0.00  0.00    -0.429 OA
ATOM     42  C   UNL     1     -11.641  -0.414  -3.825  0.00  0.00    +0.257 C 
ENDBRANCH  39  41
ENDBRANCH  34  38
ENDBRANCH  27  34
ENDBRANCH  21  25
ENDBRANCH   9  16
BRANCH   1  45
ATOM     43  C   UNL     1       6.579   0.049  -0.788  0.00  0.00    +0.157 A 
ATOM     44  N   UNL     1       5.872  -0.171   0.356  0.00  0.00    -0.227 NA
ATOM     45  C   UNL     1       4.930  -1.119   0.142  0.00  0.00    +0.102 A 
ATOM     46  C   UNL     1       5.265  -1.589  -1.127  0.00  0.00    +0.119 A 
ATOM     47  N   UNL     1       5.805  -0.492  -1.714  0.00  0.00    -0.226 NA
BRANCH  43  50
ATOM     48  C   UNL     1       9.341   0.069  -0.292  0.00  0.00    +0.246 C 
ATOM     49  N   UNL     1       8.684   0.966  -1.111  0.00  0.00    -0.273 N 
ATOM     50  C   UNL     1       7.235   1.520  -0.863  0.00  0.00    +0.134 C 
ATOM     51  C   UNL     1       6.902   1.735  -2.460  0.00  0.00    +0.029 C 
ATOM     52  C   UNL     1       7.883   0.930  -3.132  0.00  0.00    +0.020 C 
ATOM     53  C   UNL     1       7.900   1.019  -4.612  0.00  0.00    +0.002 C 
ATOM     54  C   UNL     1       8.008  -0.247  -3.886  0.00  0.00    +0.002 C 
ATOM     55  C   UNL     1       9.110   1.449  -2.385  0.00  0.00    +0.094 C 
ATOM     56  O   UNL     1       8.816  -0.752   0.459  0.00  0.00    -0.273 OA
BRANCH  48  57
ATOM     57  C   UNL     1      10.883   0.470  -0.023  0.00  0.00    +0.175 C 
BRANCH  57  59
ATOM     58  C   UNL     1      11.432   0.221   2.461  0.00  0.00    +0.422 C 
ATOM     59  N   UNL     1      10.585   0.728   1.495  0.00  0.00    -0.161 NA
ATOM     60  O   UNL     1      12.652   0.331   2.245  0.00  0.00    -0.225 OA
BRANCH  58  62
ATOM     61  C   UNL     1      11.570  -0.460   4.568  0.00  0.00    +0.257 C 
ATOM     62  O   UNL     1      11.069   0.301   3.812  0.00  0.00    -0.429 OA
ENDBRANCH  58  62
ENDBRANCH  57  59
BRANCH  57  63
ATOM     63  C   UNL     1      11.372  -1.090   0.161  0.00  0.00    +0.029 C 
ATOM     64  C   UNL     1      12.801  -1.098  -0.394  0.00  0.00    +0.002 C 
ATOM     65  C   UNL     1      10.661  -1.883  -0.936  0.00  0.00    +0.002 C 
ENDBRANCH  57  63
ENDBRANCH  48  57
ENDBRANCH  43  50
ENDBRANCH   1  45
TORSDOF 12
