REMARK  Name = 
REMARK  7 active torsions:
REMARK  status: ('A' for Active; 'I' for Inactive)
REMARK    1  A    between atoms: N_2  and  C_3
REMARK    2  A    between atoms: C_3  and  C_5
REMARK    3  A    between atoms: C_10  and  O_11
REMARK    4  A    between atoms: O_11  and  C_12
REMARK    5  A    between atoms: C_15  and  O_16
REMARK    6  A    between atoms: O_16  and  C_17
REMARK    7  A    between atoms: C_23  and  N_24
REMARK                            x       y       z     vdW  Elec       q    Type
REMARK                         _______ _______ _______ _____ _____    ______ ____
ROOT
ATOM      1  C   UNL     1      -0.956   0.101  -1.230  0.00  0.00    +0.168 C 
ATOM      2  C   UNL     1      -0.698  -1.409  -1.987  0.00  0.00    +0.123 C 
ATOM      3  N   UNL     1      -0.611  -0.725  -3.389  0.00  0.00    -0.130 NA
ATOM      4  C   UNL     1       0.927  -1.470  -1.803  0.00  0.00    +0.043 C 
ATOM      5  C   UNL     1       0.663  -2.267  -0.396  0.00  0.00    +0.123 C 
ATOM      6  N   UNL     1       2.137  -2.683  -0.164  0.00  0.00    -0.130 NA
ATOM      7  C   UNL     1       0.565  -0.887   0.633  0.00  0.00    +0.168 C 
ATOM      8  C   UNL     1       0.605   0.300  -0.598  0.00  0.00    +0.209 C 
ATOM      9  O   UNL     1       0.066   1.326   0.357  0.00  0.00    -0.218 OA
ENDROOT
BRANCH   1  10
ATOM     10  O   UNL     1      -1.656  -0.522  -0.052  0.00  0.00    -0.328 OA
BRANCH  10  13
ATOM     11  C   UNL     1      -5.184  -0.868  -0.421  0.00  0.00    +0.134 C 
ATOM     12  O   UNL     1      -3.858  -0.832   0.293  0.00  0.00    -0.331 OA
ATOM     13  C   UNL     1      -2.974  -0.174  -0.753  0.00  0.00    +0.253 C 
ATOM     14  C   UNL     1      -2.970   1.399  -0.020  0.00  0.00    +0.148 C 
ATOM     15  N   UNL     1      -3.169   0.948   1.460  0.00  0.00    -0.128 NA
ATOM     16  C   UNL     1      -4.564   1.583  -0.266  0.00  0.00    +0.027 C 
ATOM     17  C   UNL     1      -5.028   0.562  -1.202  0.00  0.00    +0.033 C 
BRANCH  11  18
ATOM     18  C   UNL     1      -5.990  -0.193   0.942  0.00  0.00    +0.100 C 
ATOM     19  C   UNL     1      -7.024  -1.452   1.024  0.00  0.00    +0.021 C 
BRANCH  18  21
ATOM     20  C   UNL     1      -7.555   1.323   0.643  0.00  0.00    +0.107 C 
ATOM     21  N   UNL     1      -7.008   0.679   0.140  0.00  0.00    -0.215 NA
ENDBRANCH  18  21
ENDBRANCH  11  18
ENDBRANCH  10  13
ENDBRANCH   1  10
BRANCH   7  22
ATOM     22  O   UNL     1       1.902  -0.645   1.079  0.00  0.00    -0.327 OA
BRANCH  22  23
ATOM     23  C   UNL     1       3.224  -0.754   0.494  0.00  0.00    +0.268 C 
ATOM     24  C   UNL     1       3.167   0.664  -0.503  0.00  0.00    +0.226 C 
ATOM     25  O   UNL     1       3.150   1.688   0.580  0.00  0.00    -0.216 OA
ATOM     26  C   UNL     1       4.832   0.745  -0.896  0.00  0.00    +0.138 C 
ATOM     27  C   UNL     1       5.436   1.196   0.541  0.00  0.00    +0.171 C 
ATOM     28  O   UNL     1       6.810   1.187   0.234  0.00  0.00    -0.222 OA
ATOM     29  C   UNL     1       5.277   2.702   0.678  0.00  0.00    +0.037 C 
ATOM     30  C   UNL     1       5.020   0.322   1.562  0.00  0.00    +0.176 C 
ATOM     31  O   UNL     1       3.791  -0.060   1.744  0.00  0.00    -0.326 OA
BRANCH  26  32
ATOM     32  N   UNL     1       5.148  -0.779  -0.724  0.00  0.00    -0.213 NA
ATOM     33  C   UNL     1       6.527  -1.006  -0.791  0.00  0.00    +0.108 C 
ENDBRANCH  26  32
ENDBRANCH  22  23
ENDBRANCH   7  22
TORSDOF 7
