REMARK  Name = 
REMARK  3 active torsions:
REMARK  status: ('A' for Active; 'I' for Inactive)
REMARK    1  A    between atoms: C_2  and  C_4
REMARK    2  A    between atoms: N_6  and  C_7
REMARK    3  A    between atoms: C_12  and  N_13
REMARK                            x       y       z     vdW  Elec       q    Type
REMARK                         _______ _______ _______ _____ _____    ______ ____
ROOT
ATOM      1  C   UNL     1      -3.236   0.160  -0.328  0.00  0.00    +0.136 A 
ATOM      2  C   UNL     1      -2.472  -0.992  -0.181  0.00  0.00    +0.205 A 
ATOM      3  O   UNL     1      -2.883  -1.996  -0.833  0.00  0.00    -0.286 OA
ATOM      4  C   UNL     1      -1.132  -0.837   0.153  0.00  0.00    +0.057 A 
ATOM      5  C   UNL     1      -0.574   0.417   0.159  0.00  0.00    +0.064 A 
ATOM      6  C   UNL     1       0.801   0.584   0.047  0.00  0.00    +0.034 A 
ATOM      7  C   UNL     1       1.630  -0.514  -0.144  0.00  0.00    +0.077 A 
ATOM      8  C   UNL     1       1.073  -1.777  -0.111  0.00  0.00    +0.154 A 
ATOM      9  F   UNL     1       1.842  -2.784  -0.619  0.00  0.00    -0.203 F 
ATOM     10  N   UNL     1      -1.350   1.520   0.040  0.00  0.00    -0.328 N 
ATOM     11  C   UNL     1      -0.278  -1.928   0.072  0.00  0.00    +0.036 A 
ATOM     12  C   UNL     1      -2.696   1.373   0.033  0.00  0.00    +0.086 A 
ENDROOT
BRANCH   7  13
ATOM     13  N   UNL     1       3.047  -0.386  -0.131  0.00  0.00    -0.303 N 
ATOM     14  C   UNL     1       3.678   0.591   0.726  0.00  0.00    +0.110 C 
ATOM     15  C   UNL     1       5.120   0.805   0.372  0.00  0.00    +0.110 C 
ATOM     16  N   UNL     1       5.846  -0.411   0.118  0.00  0.00    -0.214 NA
ATOM     17  C   UNL     1       5.046  -1.604   0.330  0.00  0.00    +0.110 C 
ATOM     18  C   UNL     1       3.856  -1.491  -0.615  0.00  0.00    +0.110 C 
ENDBRANCH   7  13
BRANCH   1  20
ATOM     19  O   UNL     1      -5.122  -0.703  -1.367  0.00  0.00    -0.240 OA
ATOM     20  C   UNL     1      -4.688  -0.058  -0.368  0.00  0.00    +0.392 C 
ATOM     21  O   UNL     1      -5.301  -0.357   0.850  0.00  0.00    -0.240 OA
ENDBRANCH   1  20
BRANCH  10  22
ATOM     22  C   UNL     1      -0.730   2.801   0.333  0.00  0.00    +0.086 C 
ATOM     23  C   UNL     1      -1.367   4.069  -0.114  0.00  0.00    +0.024 C 
ATOM     24  C   UNL     1      -0.109   3.518  -0.841  0.00  0.00    +0.024 C 
ENDBRANCH  10  22
TORSDOF 3
