REMARK  Name = 
REMARK  3 active torsions:
REMARK  status: ('A' for Active; 'I' for Inactive)
REMARK    1  A    between atoms: C_2  and  C_3
REMARK    2  A    between atoms: C_3  and  C_5
REMARK    3  A    between atoms: C_5  and  C_6
REMARK                            x       y       z     vdW  Elec       q    Type
REMARK                         _______ _______ _______ _____ _____    ______ ____
ROOT
ATOM      1  C   UNL     1      -0.184  -0.661   0.063  0.00  0.00    +0.141 C 
ATOM      2  C   UNL     1       0.342  -0.069   1.309  0.00  0.00    +0.257 C 
ATOM      3  O   UNL     1       0.163  -0.586   2.446  0.00  0.00    -0.272 OA
ATOM      4  N   UNL     1       1.361   0.897   1.205  0.00  0.00    -0.125 NA
ATOM      5  C   UNL     1       2.081   1.141   0.013  0.00  0.00    +0.352 C 
ATOM      6  O   UNL     1       2.923   2.076   0.062  0.00  0.00    -0.248 OA
ATOM      7  N   UNL     1       1.548   0.653  -1.219  0.00  0.00    -0.125 NA
ATOM      8  C   UNL     1       0.481  -0.293  -1.147  0.00  0.00    +0.257 C 
ATOM      9  O   UNL     1       0.375  -1.050  -2.161  0.00  0.00    -0.272 OA
ENDROOT
BRANCH   1  10
ATOM     10  C   UNL     1      -1.780  -0.264   0.007  0.00  0.00    +0.017 C 
ATOM     11  C   UNL     1      -1.808   0.141  -1.595  0.00  0.00    +0.001 C 
BRANCH  10  13
ATOM     12  C   UNL     1      -2.803   1.800   0.911  0.00  0.00    +0.000 C 
ATOM     13  C   UNL     1      -1.506   1.306   0.446  0.00  0.00    +0.001 C 
ENDBRANCH  10  13
ENDBRANCH   1  10
BRANCH   1  14
ATOM     14  C   UNL     1      -0.167  -2.168   0.309  0.00  0.00    +0.018 C 
ATOM     15  C   UNL     1      -1.026  -2.923  -0.649  0.00  0.00    +0.001 C 
ENDBRANCH   1  14
TORSDOF 3
