REMARK  Name = 
REMARK  2 active torsions:
REMARK  status: ('A' for Active; 'I' for Inactive)
REMARK    1  A    between atoms: C_2  and  C_3
REMARK    2  A    between atoms: C_3  and  C_5
REMARK                            x       y       z     vdW  Elec       q    Type
REMARK                         _______ _______ _______ _____ _____    ______ ____
ROOT
ATOM      1  C   UNL     1       0.026   0.500  -0.264  0.00  0.00    +0.217 C 
ATOM      2  O   UNL     1      -0.005   1.794   0.212  0.00  0.00    -0.217 OA
ENDROOT
BRANCH   1   4
ATOM      3  O   UNL     1       2.089  -0.742  -0.252  0.00  0.00    -0.217 OA
ATOM      4  C   UNL     1       0.935  -0.424   0.483  0.00  0.00    +0.217 C 
ENDBRANCH   1   4
BRANCH   1   5
ATOM      5  C   UNL     1      -1.356  -0.021  -0.487  0.00  0.00    +0.217 C 
ATOM      6  O   UNL     1      -1.689  -1.107   0.308  0.00  0.00    -0.217 OA
ENDBRANCH   1   5
TORSDOF 2
