REMARK  Name = 
REMARK  3 active torsions:
REMARK  status: ('A' for Active; 'I' for Inactive)
REMARK    1  A    between atoms: C_6  and  C_8
REMARK    2  A    between atoms: C_8  and  C_9
REMARK    3  A    between atoms: C_12  and  N_13
REMARK                            x       y       z     vdW  Elec       q    Type
REMARK                         _______ _______ _______ _____ _____    ______ ____
ROOT
ATOM      1  C   UNL     1       0.452  -2.522   0.289  0.00  0.00    +0.002 C 
ATOM      2  C   UNL     1       0.323  -1.465  -0.951  0.00  0.00    +0.022 C 
ATOM      3  C   UNL     1       0.636  -0.012  -0.059  0.00  0.00    +0.094 C 
ATOM      4  C   UNL     1       1.365  -0.716   1.242  0.00  0.00    +0.113 C 
ATOM      5  N   UNL     1       2.680  -1.087   0.797  0.00  0.00    -0.277 N 
ATOM      6  C   UNL     1       3.719  -0.119   0.958  0.00  0.00    +0.241 C 
ATOM      7  O   UNL     1       4.153   0.063   2.135  0.00  0.00    -0.274 OA
ATOM      8  C   UNL     1       2.744  -1.977  -0.329  0.00  0.00    +0.094 C 
ATOM      9  C   UNL     1       1.877  -1.591  -1.439  0.00  0.00    +0.023 C 
ENDROOT
BRANCH   3  10
ATOM     10  N   UNL     1      -0.787  -0.065   0.632  0.00  0.00    -0.291 N 
ATOM     11  C   UNL     1      -1.884  -0.087  -0.264  0.00  0.00    +0.136 A 
ATOM     12  C   UNL     1      -2.844   0.918  -0.261  0.00  0.00    +0.069 A 
ATOM     13  C   UNL     1      -4.084   0.624  -0.815  0.00  0.00    +0.167 A 
ATOM     14  N   UNL     1      -4.834   1.734  -0.710  0.00  0.00    -0.225 NA
ATOM     15  C   UNL     1      -4.292   2.563   0.214  0.00  0.00    +0.101 A 
ATOM     16  N   UNL     1      -4.455  -0.637  -1.121  0.00  0.00    -0.205 NA
ATOM     17  C   UNL     1      -3.589  -1.627  -0.862  0.00  0.00    +0.201 A 
ATOM     18  C   UNL     1      -3.014   2.077   0.467  0.00  0.00    +0.027 A 
ATOM     19  N   UNL     1      -2.315  -1.301  -0.682  0.00  0.00    -0.209 NA
ATOM     20  C   UNL     1      -0.778   0.795   1.791  0.00  0.00    +0.114 C 
ENDBRANCH   3  10
BRANCH   6  21
ATOM     21  C   UNL     1       3.719   0.972  -0.064  0.00  0.00    +0.190 C 
BRANCH  21  22
ATOM     22  C   UNL     1       5.092   1.463  -0.167  0.00  0.00    +0.083 C 
ATOM     23  N   UNL     1       6.115   1.995  -0.066  0.00  0.00    -0.195 NA
ENDBRANCH  21  22
ENDBRANCH   6  21
TORSDOF 3
