REMARK  Name = 
REMARK  6 active torsions:
REMARK  status: ('A' for Active; 'I' for Inactive)
REMARK    1  A    between atoms: C_2  and  C_3
REMARK    2  A    between atoms: C_2  and  C_19
REMARK    3  A    between atoms: C_3  and  N_4
REMARK    4  A    between atoms: N_4  and  C_5
REMARK    5  A    between atoms: C_5  and  C_6
REMARK    6  A    between atoms: C_6  and  C_8
REMARK                            x       y       z     vdW  Elec       q    Type
REMARK                         _______ _______ _______ _____ _____    ______ ____
ROOT
ATOM      1  N   UNL     1      -0.007   0.170  -0.034  0.00  0.00    -0.212 NA
ENDROOT
BRANCH   1   2
ATOM      2  C   UNL     1      -0.013  -1.236  -0.295  0.00  0.00    +0.125 C 
BRANCH   2   4
ATOM      3  O   UNL     1       1.756  -0.571  -1.539  0.00  0.00    -0.218 OA
ATOM      4  C   UNL     1       1.576  -1.671  -0.498  0.00  0.00    +0.209 C 
BRANCH   4   5
ATOM      5  C   UNL     1       2.088  -0.715   0.885  0.00  0.00    +0.198 C 
ATOM      6  O   UNL     1       3.388  -1.543   0.968  0.00  0.00    -0.477 OA
ATOM      7  C   UNL     1       4.567  -1.060   0.561  0.00  0.00    +0.135 A 
ATOM      8  C   UNL     1       4.880   0.249   0.912  0.00  0.00    +0.014 A 
ATOM      9  C   UNL     1       6.063   0.730   0.375  0.00  0.00    +0.028 A 
ATOM     10  C   UNL     1       6.933  -0.074  -0.345  0.00  0.00    +0.140 A 
ATOM     11  C   UNL     1       6.565  -1.371  -0.662  0.00  0.00    +0.033 A 
ATOM     12  F   UNL     1       8.010   0.427  -1.006  0.00  0.00    -0.204 F 
ATOM     13  C   UNL     1       3.667   1.125   1.010  0.00  0.00    +0.033 C 
ATOM     14  C   UNL     1       5.576  -1.921   0.146  0.00  0.00    +0.039 A 
ATOM     15  C   UNL     1       2.732   0.536   0.012  0.00  0.00    +0.051 C 
ENDBRANCH   4   5
ENDBRANCH   2   4
ENDBRANCH   1   2
BRANCH   1  16
ATOM     16  C   UNL     1      -0.522   0.603   1.211  0.00  0.00    +0.125 C 
BRANCH  16  17
ATOM     17  C   UNL     1      -2.171   0.696   1.011  0.00  0.00    +0.209 C 
ATOM     18  O   UNL     1      -2.224  -0.740   0.500  0.00  0.00    -0.218 OA
BRANCH  17  19
ATOM     19  C   UNL     1      -2.012   1.413  -0.586  0.00  0.00    +0.198 C 
ATOM     20  O   UNL     1      -3.070   0.520  -1.267  0.00  0.00    -0.477 OA
ATOM     21  C   UNL     1      -4.210   0.187  -0.646  0.00  0.00    +0.135 A 
ATOM     22  C   UNL     1      -5.077   1.253  -0.410  0.00  0.00    +0.014 A 
ATOM     23  C   UNL     1      -6.071   1.025   0.487  0.00  0.00    +0.028 A 
ATOM     24  C   UNL     1      -6.508  -0.288   0.643  0.00  0.00    +0.140 A 
ATOM     25  C   UNL     1      -5.920  -1.301  -0.111  0.00  0.00    +0.033 A 
ATOM     26  F   UNL     1      -7.718  -0.614   1.151  0.00  0.00    -0.204 F 
ATOM     27  C   UNL     1      -4.348   2.509  -0.676  0.00  0.00    +0.033 C 
ATOM     28  C   UNL     1      -4.895  -0.978  -0.996  0.00  0.00    +0.039 A 
ATOM     29  C   UNL     1      -3.035   2.639  -0.158  0.00  0.00    +0.051 C 
ENDBRANCH  17  19
ENDBRANCH  16  17
ENDBRANCH   1  16
TORSDOF 6
