REMARK  Name = 
REMARK  2 active torsions:
REMARK  status: ('A' for Active; 'I' for Inactive)
REMARK    1  A    between atoms: C_2  and  C_3
REMARK    2  A    between atoms: C_21  and  C_22
REMARK                            x       y       z     vdW  Elec       q    Type
REMARK                         _______ _______ _______ _____ _____    ______ ____
ROOT
ATOM      1  C   UNL     1      -2.782  -0.893  -0.012  0.00  0.00    +0.180 C 
ATOM      2  C   UNL     1      -2.254   0.432   0.286  0.00  0.00    +0.037 C 
ATOM      3  C   UNL     1      -1.582   0.939  -1.119  0.00  0.00    +0.003 C 
ATOM      4  C   UNL     1      -0.052   1.364  -0.459  0.00  0.00    +0.001 C 
ATOM      5  C   UNL     1       0.374  -0.193   0.048  0.00  0.00    +0.004 C 
ATOM      6  C   UNL     1      -0.143   0.045   1.562  0.00  0.00    +0.000 C 
ATOM      7  C   UNL     1       1.929   0.396   0.453  0.00  0.00    +0.019 C 
ATOM      8  C   UNL     1       2.521  -0.064  -0.981  0.00  0.00    -0.042 C 
ATOM      9  C   UNL     1       3.822   0.196  -0.967  0.00  0.00    +0.029 C 
ATOM     10  C   UNL     1       4.439   0.043   0.359  0.00  0.00    +0.173 C 
ATOM     11  C   UNL     1       3.830  -0.894   1.355  0.00  0.00    +0.069 C 
ATOM     12  O   UNL     1       5.343   0.820   0.784  0.00  0.00    -0.291 OA
ATOM     13  C   UNL     1       1.583   0.190  -2.045  0.00  0.00    +0.022 C 
ATOM     14  C   UNL     1       2.343  -1.045   1.145  0.00  0.00    +0.012 C 
ATOM     15  C   UNL     1       0.626   1.264  -1.925  0.00  0.00    +0.004 C 
ATOM     16  C   UNL     1      -1.154  -0.572  -1.616  0.00  0.00    +0.004 C 
ATOM     17  C   UNL     1      -1.449   0.721   1.427  0.00  0.00    +0.003 C 
ATOM     18  C   UNL     1      -2.519  -1.196  -1.484  0.00  0.00    +0.043 C 
ATOM     19  O   UNL     1      -4.185  -0.907   0.107  0.00  0.00    -0.212 OA
ENDROOT
BRANCH   1  21
ATOM     20  C   UNL     1      -1.996  -2.902   1.419  0.00  0.00    -0.012 C 
ATOM     21  C   UNL     1      -2.271  -1.987   0.835  0.00  0.00    -0.049 C 
ENDBRANCH   1  21
BRANCH   2  22
ATOM     22  C   UNL     1      -3.436   1.410   0.329  0.00  0.00    +0.003 C 
ATOM     23  C   UNL     1      -2.988   2.832   0.499  0.00  0.00    +0.000 C 
ENDBRANCH   2  22
TORSDOF 2
