REMARK  Name = 
REMARK  19 active torsions:
REMARK  status: ('A' for Active; 'I' for Inactive)
REMARK    1  A    between atoms: O_2  and  C_3
REMARK    2  A    between atoms: C_3  and  C_4
REMARK    3  A    between atoms: C_4  and  C_5
REMARK    4  A    between atoms: C_5  and  O_6
REMARK    5  A    between atoms: O_6  and  C_7
REMARK    6  A    between atoms: C_9  and  C_10
REMARK    7  A    between atoms: C_10  and  C_11
REMARK    8  A    between atoms: C_11  and  C_12
REMARK    9  A    between atoms: C_11  and  C_32
REMARK   10  A    between atoms: C_12  and  C_13
REMARK   11  A    between atoms: C_13  and  C_15
REMARK   12  A    between atoms: C_15  and  C_17
REMARK   13  A    between atoms: C_17  and  C_18
REMARK   14  A    between atoms: C_18  and  C_19
REMARK   15  A    between atoms: C_18  and  C_29
REMARK   16  A    between atoms: N_21  and  C_22
REMARK   17  A    between atoms: C_22  and  C_23
REMARK   18  A    between atoms: C_23  and  C_26
REMARK   19  A    between atoms: C_37  and  O_38
REMARK                            x       y       z     vdW  Elec       q    Type
REMARK                         _______ _______ _______ _____ _____    ______ ____
ROOT
ATOM      1  C   UNL     1       0.605  -0.397   1.454  0.00  0.00    +0.022 C 
ENDROOT
BRANCH   1   2
ATOM      2  C   UNL     1      -0.751  -1.131   1.984  0.00  0.00    +0.122 C 
ATOM      3  N   UNL     1      -0.112  -2.535   1.739  0.00  0.00    -0.130 NA
BRANCH   2   4
ATOM      4  C   UNL     1      -1.547  -0.963   0.466  0.00  0.00    +0.170 C 
ATOM      5  O   UNL     1      -1.832  -2.436   0.274  0.00  0.00    -0.222 OA
BRANCH   4   6
ATOM      6  C   UNL     1      -3.028  -0.745   1.113  0.00  0.00    +0.044 C 
BRANCH   6   7
ATOM      7  C   UNL     1      -3.602   0.609   0.404  0.00  0.00    +0.081 C 
BRANCH   7   8
ATOM      8  C   UNL     1      -4.839  -0.152  -0.285  0.00  0.00    +0.241 C 
ATOM      9  N   UNL     1      -5.939  -0.456   0.576  0.00  0.00    -0.205 NA
ATOM     10  O   UNL     1      -5.222   0.335  -1.388  0.00  0.00    -0.273 OA
BRANCH   9  11
ATOM     11  C   UNL     1      -7.159  -0.990   0.034  0.00  0.00    +0.124 C 
BRANCH  11  12
ATOM     12  C   UNL     1      -8.196   0.023  -0.322  0.00  0.00    +0.092 C 
ATOM     13  C   UNL     1      -8.239   0.325  -1.818  0.00  0.00    +0.011 C 
ATOM     14  C   UNL     1      -9.560  -0.593  -0.029  0.00  0.00    +0.011 C 
BRANCH  12  15
ATOM     15  C   UNL     1      -8.116   1.271   0.452  0.00  0.00    +0.261 C 
ATOM     16  O   UNL     1      -8.998   2.146   0.241  0.00  0.00    -0.272 OA
ATOM     17  N   UNL     1      -7.268   1.501   1.555  0.00  0.00    -0.088 NA
ENDBRANCH  12  15
ENDBRANCH  11  12
ENDBRANCH   9  11
ENDBRANCH   7   8
BRANCH   7  18
ATOM     18  C   UNL     1      -2.666   0.570  -0.928  0.00  0.00    +0.009 C 
ATOM     19  C   UNL     1      -2.950  -0.551  -1.790  0.00  0.00    +0.000 C 
ATOM     20  C   UNL     1      -2.639   1.931  -1.511  0.00  0.00    +0.000 C 
ENDBRANCH   7  18
ENDBRANCH   6   7
ENDBRANCH   4   6
ENDBRANCH   2   4
ENDBRANCH   1   2
BRANCH   1  21
ATOM     21  C   UNL     1       0.773  -0.988  -0.058  0.00  0.00    +0.006 C 
BRANCH  21  22
ATOM     22  C   UNL     1       1.672   0.279  -0.555  0.00  0.00    +0.000 C 
ATOM     23  C   UNL     1       1.359   0.247  -2.050  0.00  0.00    +0.000 C 
ATOM     24  C   UNL     1       0.999   1.529  -0.050  0.00  0.00    +0.000 C 
ENDBRANCH  21  22
BRANCH  21  25
ATOM     25  C   UNL     1       2.011  -1.964   0.332  0.00  0.00    +0.026 C 
BRANCH  25  30
ATOM     26  C   UNL     1       4.942   0.224   0.492  0.00  0.00    +0.172 A 
ATOM     27  C   UNL     1       5.521   0.130  -0.765  0.00  0.00    +0.172 A 
ATOM     28  C   UNL     1       5.162  -1.000  -1.490  0.00  0.00    +0.040 A 
ATOM     29  C   UNL     1       4.087  -1.792  -1.102  0.00  0.00    -0.001 A 
ATOM     30  C   UNL     1       3.280  -1.424  -0.030  0.00  0.00    -0.019 A 
ATOM     31  C   UNL     1       3.893  -0.584   0.893  0.00  0.00    +0.036 A 
BRANCH  27  32
ATOM     32  O   UNL     1       5.775   1.360  -1.386  0.00  0.00    -0.468 OA
ATOM     33  C   UNL     1       4.776   2.108  -2.039  0.00  0.00    +0.253 C 
ENDBRANCH  27  32
BRANCH  26  34
ATOM     34  O   UNL     1       5.352   1.176   1.410  0.00  0.00    -0.472 OA
BRANCH  34  35
ATOM     35  C   UNL     1       6.671   1.616   1.568  0.00  0.00    +0.208 C 
BRANCH  35  36
ATOM     36  C   UNL     1       7.652   0.543   1.131  0.00  0.00    +0.079 C 
BRANCH  36  37
ATOM     37  C   UNL     1       8.848   1.240   0.493  0.00  0.00    +0.146 C 
BRANCH  37  39
ATOM     38  C   UNL     1       9.855  -0.801   0.271  0.00  0.00    +0.174 C 
ATOM     39  O   UNL     1       9.427   0.338  -0.385  0.00  0.00    -0.351 OA
ENDBRANCH  37  39
ENDBRANCH  36  37
ENDBRANCH  35  36
ENDBRANCH  34  35
ENDBRANCH  26  34
ENDBRANCH  25  30
ENDBRANCH  21  25
ENDBRANCH   1  21
TORSDOF 19
