REMARK  Name = 
REMARK  12 active torsions:
REMARK  status: ('A' for Active; 'I' for Inactive)
REMARK    1  A    between atoms: C_2  and  O_3
REMARK    2  A    between atoms: O_3  and  C_4
REMARK    3  A    between atoms: C_4  and  C_6
REMARK    4  A    between atoms: C_6  and  C_8
REMARK    5  A    between atoms: C_8  and  C_9
REMARK    6  A    between atoms: C_9  and  C_10
REMARK    7  A    between atoms: C_9  and  N_23
REMARK    8  A    between atoms: C_10  and  C_11
REMARK    9  A    between atoms: C_14  and  C_15
REMARK   10  A    between atoms: C_24  and  C_26
REMARK   11  A    between atoms: C_26  and  C_27
REMARK   12  A    between atoms: C_27  and  C_28
REMARK                            x       y       z     vdW  Elec       q    Type
REMARK                         _______ _______ _______ _____ _____    ______ ____
ROOT
ATOM      1  C   UNL     1      -0.926   0.509  -1.083  0.00  0.00    +0.100 C 
ENDROOT
BRANCH   1   2
ATOM      2  N   UNL     1      -1.534  -0.967  -1.115  0.00  0.00    -0.207 NA
ATOM      3  C   UNL     1      -2.814  -1.192  -0.666  0.00  0.00    +0.242 C 
ATOM      4  O   UNL     1      -3.648  -0.342  -1.052  0.00  0.00    -0.273 OA
BRANCH   3   5
ATOM      5  C   UNL     1      -3.178  -2.505  -0.047  0.00  0.00    +0.099 C 
BRANCH   5   6
ATOM      6  C   UNL     1      -4.516  -2.961  -0.561  0.00  0.00    +0.124 C 
BRANCH   6   7
ATOM      7  C   UNL     1      -4.364  -4.441  -0.749  0.00  0.00    +0.365 C 
ATOM      8  O   UNL     1      -4.438  -5.300   0.338  0.00  0.00    -0.246 OA
ATOM      9  O   UNL     1      -3.513  -4.755  -1.637  0.00  0.00    -0.246 OA
ENDBRANCH   6   7
ENDBRANCH   5   6
ENDBRANCH   3   5
ENDBRANCH   1   2
BRANCH   1  10
ATOM     10  C   UNL     1      -2.340   1.305  -0.665  0.00  0.00    +0.033 C 
BRANCH  10  11
ATOM     11  C   UNL     1      -1.535   2.533   0.115  0.00  0.00    +0.101 C 
ATOM     12  C   UNL     1      -1.182   3.292  -1.322  0.00  0.00    +0.012 C 
BRANCH  11  13
ATOM     13  C   UNL     1      -2.893   3.397   0.356  0.00  0.00    +0.316 C 
ATOM     14  O   UNL     1      -3.595   3.648  -0.607  0.00  0.00    -0.250 OA
BRANCH  13  15
ATOM     15  O   UNL     1      -2.911   4.073   1.577  0.00  0.00    -0.449 OA
BRANCH  15  17
ATOM     16  C   UNL     1      -2.459   6.291   0.913  0.00  0.00    +0.051 C 
ATOM     17  C   UNL     1      -3.344   5.413   1.547  0.00  0.00    +0.209 C 
ENDBRANCH  15  17
ENDBRANCH  13  15
ENDBRANCH  11  13
ENDBRANCH  10  11
ENDBRANCH   1  10
BRANCH   1  18
ATOM     18  C   UNL     1      -0.481   0.330   0.519  0.00  0.00    +0.048 C 
BRANCH  18  19
ATOM     19  C   UNL     1       0.958  -0.003   0.391  0.00  0.00    -0.020 A 
ATOM     20  C   UNL     1       1.381  -1.314   0.575  0.00  0.00    -0.004 A 
ATOM     21  C   UNL     1       2.599  -1.651   0.007  0.00  0.00    -0.000 A 
ATOM     22  C   UNL     1       3.519  -0.694  -0.347  0.00  0.00    -0.000 A 
ATOM     23  C   UNL     1       3.047   0.576  -0.639  0.00  0.00    -0.000 A 
ATOM     24  C   UNL     1       1.711   0.866  -0.390  0.00  0.00    -0.004 A 
BRANCH  22  25
ATOM     25  C   UNL     1       4.958  -0.834  -0.081  0.00  0.00    -0.000 A 
ATOM     26  C   UNL     1       5.721   0.233   0.360  0.00  0.00    -0.000 A 
ATOM     27  C   UNL     1       6.688   0.068   1.306  0.00  0.00    +0.000 A 
ATOM     28  C   UNL     1       7.062  -1.198   1.739  0.00  0.00    +0.000 A 
ATOM     29  C   UNL     1       6.542  -2.286   1.049  0.00  0.00    +0.000 A 
ATOM     30  C   UNL     1       5.483  -2.094   0.169  0.00  0.00    -0.000 A 
ENDBRANCH  22  25
ENDBRANCH  18  19
ENDBRANCH   1  18
TORSDOF 12
