REMARK  Name = 
REMARK  0 active torsions:
REMARK  status: ('A' for Active; 'I' for Inactive)
REMARK                            x       y       z     vdW  Elec       q    Type
REMARK                         _______ _______ _______ _____ _____    ______ ____
ROOT
ATOM      1  C   UNL     1      -1.820   3.350   0.174  0.00  0.00    +0.090 C 
ATOM      2  N   UNL     1      -0.544   2.674  -0.039  0.00  0.00    -0.271 NA
ATOM      3  C   UNL     1       0.070   2.422   1.190  0.00  0.00    +0.077 C 
ATOM      4  C   UNL     1      -0.079   0.811   1.420  0.00  0.00    +0.047 C 
ATOM      5  C   UNL     1      -1.578   0.832   0.575  0.00  0.00    +0.047 C 
ATOM      6  C   UNL     1      -1.575  -0.666   0.011  0.00  0.00    +0.014 A 
ATOM      7  C   UNL     1      -1.047  -1.759   0.643  0.00  0.00    +0.141 A 
ATOM      8  O   UNL     1       0.348  -1.893   0.554  0.00  0.00    -0.454 OA
ATOM      9  C   UNL     1       1.304  -0.903   0.289  0.00  0.00    +0.141 A 
ATOM     10  C   UNL     1       2.488  -1.362  -0.226  0.00  0.00    +0.038 A 
ATOM     11  C   UNL     1       3.455  -0.385  -0.439  0.00  0.00    +0.015 A 
ATOM     12  C   UNL     1       3.288   0.848   0.179  0.00  0.00    +0.058 A 
ATOM     13  C   UNL     1       1.982   1.294   0.226  0.00  0.00    +0.010 A 
ATOM     14 CL   UNL     1       4.667   1.712   0.836  0.00  0.00    -0.082 Cl
ATOM     15  C   UNL     1      -1.666  -3.001   0.578  0.00  0.00    +0.037 A 
ATOM     16  C   UNL     1      -2.900  -3.103  -0.025  0.00  0.00    +0.003 A 
ATOM     17  C   UNL     1      -3.510  -2.006  -0.597  0.00  0.00    -0.000 A 
ATOM     18  C   UNL     1      -2.906  -0.772  -0.389  0.00  0.00    -0.001 A 
ATOM     19  C   UNL     1       0.883   0.431   0.179  0.00  0.00    +0.015 A 
ATOM     20  C   UNL     1      -0.860   1.476  -0.756  0.00  0.00    +0.077 C 
ENDROOT
TORSDOF 0
