REMARK  Name = 
REMARK  3 active torsions:
REMARK  status: ('A' for Active; 'I' for Inactive)
REMARK    1  A    between atoms: C_10  and  C_11
REMARK    2  A    between atoms: N_13  and  C_14
REMARK    3  A    between atoms: C_14  and  C_15
REMARK                            x       y       z     vdW  Elec       q    Type
REMARK                         _______ _______ _______ _____ _____    ______ ____
ROOT
ATOM      1  C   UNL     1      -4.642   2.940   0.244  0.00  0.00    +0.022 C 
ATOM      2  C   UNL     1      -4.730   1.671  -0.831  0.00  0.00    +0.080 C 
ATOM      3  N   UNL     1      -4.417   0.621   0.329  0.00  0.00    -0.253 N 
ATOM      4  C   UNL     1      -4.505  -0.864  -0.317  0.00  0.00    +0.218 C 
ATOM      5  C   UNL     1      -3.130  -0.595  -1.280  0.00  0.00    +0.157 C 
ATOM      6  N   UNL     1      -2.081  -0.830  -0.285  0.00  0.00    -0.315 N 
ATOM      7  C   UNL     1      -2.001  -0.041   0.821  0.00  0.00    +0.157 A 
ATOM      8  C   UNL     1      -0.762   0.397   1.287  0.00  0.00    +0.254 A 
ATOM      9  O   UNL     1      -0.616   1.587   2.006  0.00  0.00    -0.281 OA
ATOM     10  C   UNL     1       0.376  -0.018   0.612  0.00  0.00    +0.242 A 
ATOM     11  O   UNL     1       1.431   0.646   0.530  0.00  0.00    -0.283 OA
ATOM     12  C   UNL     1       0.272  -1.217  -0.084  0.00  0.00    +0.114 A 
ATOM     13  C   UNL     1      -0.977  -1.578  -0.530  0.00  0.00    +0.084 A 
ATOM     14  O   UNL     1      -5.473  -0.422  -1.464  0.00  0.00    -0.336 OA
ATOM     15  C   UNL     1      -6.581   0.019  -0.719  0.00  0.00    +0.146 C 
ATOM     16  C   UNL     1      -3.161   0.853   0.966  0.00  0.00    +0.270 C 
ATOM     17  O   UNL     1      -3.052   2.023   1.446  0.00  0.00    -0.268 OA
ATOM     18  C   UNL     1      -6.376   1.525  -0.579  0.00  0.00    +0.052 C 
ENDROOT
BRANCH  12  19
ATOM     19  C   UNL     1       1.457  -2.067  -0.195  0.00  0.00    +0.270 C 
ATOM     20  N   UNL     1       2.623  -1.719   0.566  0.00  0.00    -0.197 NA
ATOM     21  O   UNL     1       1.377  -3.315  -0.412  0.00  0.00    -0.268 OA
BRANCH  20  22
ATOM     22  C   UNL     1       3.922  -2.281   0.338  0.00  0.00    +0.144 C 
BRANCH  22  23
ATOM     23  C   UNL     1       4.829  -1.129   0.035  0.00  0.00    +0.027 A 
ATOM     24  C   UNL     1       4.688  -0.599  -1.243  0.00  0.00    +0.140 A 
ATOM     25  F   UNL     1       3.929  -1.228  -2.188  0.00  0.00    -0.204 F 
ATOM     26  C   UNL     1       5.111   0.680  -1.539  0.00  0.00    +0.059 A 
ATOM     27  C   UNL     1       5.620   1.480  -0.526  0.00  0.00    +0.142 A 
ATOM     28  F   UNL     1       6.165   2.667  -0.905  0.00  0.00    -0.204 F 
ATOM     29  C   UNL     1       5.696   0.978   0.751  0.00  0.00    +0.030 A 
ATOM     30  C   UNL     1       5.006  -0.185   1.040  0.00  0.00    +0.002 A 
ENDBRANCH  22  23
ENDBRANCH  20  22
ENDBRANCH  12  19
TORSDOF 3
