REMARK  Name = 
REMARK  6 active torsions:
REMARK  status: ('A' for Active; 'I' for Inactive)
REMARK    1  A    between atoms: C_5  and  C_6
REMARK    2  A    between atoms: C_6  and  O_7
REMARK    3  A    between atoms: O_7  and  N_8
REMARK    4  A    between atoms: C_9  and  C_10
REMARK    5  A    between atoms: C_9  and  C_16
REMARK    6  A    between atoms: C_10  and  N_11
REMARK                            x       y       z     vdW  Elec       q    Type
REMARK                         _______ _______ _______ _____ _____    ______ ____
ROOT
ATOM      1  N   UNL     1      -0.339   0.267  -1.226  0.00  0.00    -0.085 NA
ATOM      2  C   UNL     1      -1.226   0.306  -0.289  0.00  0.00    +0.121 C 
ENDROOT
BRANCH   2   3
ATOM      3  C   UNL     1      -2.021  -0.912  -0.093  0.00  0.00    +0.029 A 
ATOM      4  C   UNL     1      -3.100  -1.162  -0.931  0.00  0.00    +0.060 A 
ATOM      5 CL   UNL     1      -3.974   0.251  -1.516  0.00  0.00    -0.082 Cl
ATOM      6  C   UNL     1      -3.634  -2.432  -1.049  0.00  0.00    +0.023 A 
ATOM      7  C   UNL     1      -3.175  -3.437  -0.229  0.00  0.00    +0.059 A 
ATOM      8 CL   UNL     1      -4.173  -4.790   0.245  0.00  0.00    -0.082 Cl
ATOM      9  C   UNL     1      -2.008  -3.227   0.483  0.00  0.00    +0.011 A 
ATOM     10  C   UNL     1      -1.393  -1.998   0.463  0.00  0.00    +0.003 A 
ENDBRANCH   2   3
BRANCH   1  11
ATOM     11  O   UNL     1       0.819   0.989  -1.217  0.00  0.00    -0.373 OA
BRANCH  11  12
ATOM     12  C   UNL     1       1.716   0.807  -0.154  0.00  0.00    +0.266 C 
BRANCH  12  18
ATOM     13 CL   UNL     1       7.035   0.148   1.002  0.00  0.00    -0.082 Cl
ATOM     14  C   UNL     1       5.650  -0.388   0.052  0.00  0.00    +0.058 A 
ATOM     15  C   UNL     1       4.678  -1.221   0.593  0.00  0.00    +0.023 A 
ATOM     16  C   UNL     1       3.333  -0.998   0.326  0.00  0.00    +0.058 A 
ATOM     17 CL   UNL     1       2.068  -1.996   1.027  0.00  0.00    -0.082 Cl
ATOM     18  C   UNL     1       2.916   0.001  -0.546  0.00  0.00    +0.035 A 
ATOM     19  C   UNL     1       3.909   0.521  -1.367  0.00  0.00    +0.001 A 
ATOM     20  C   UNL     1       5.253   0.323  -1.074  0.00  0.00    +0.011 A 
ENDBRANCH  12  18
ENDBRANCH  11  12
ENDBRANCH   1  11
BRANCH   2  21
ATOM     21  C   UNL     1      -1.042   1.268   0.834  0.00  0.00    +0.157 C 
BRANCH  21  22
ATOM     22  N   UNL     1      -1.806   2.476   0.537  0.00  0.00    -0.302 N 
ATOM     23  C   UNL     1      -2.500   3.135   1.495  0.00  0.00    +0.179 A 
ATOM     24  N   UNL     1      -2.855   4.345   1.034  0.00  0.00    -0.222 NA
ATOM     25  C   UNL     1      -2.584   4.319  -0.293  0.00  0.00    +0.119 A 
ATOM     26  C   UNL     1      -1.547   3.405  -0.414  0.00  0.00    +0.098 A 
ENDBRANCH  21  22
ENDBRANCH   2  21
TORSDOF 6
