REMARK  Name = 
REMARK  8 active torsions:
REMARK  status: ('A' for Active; 'I' for Inactive)
REMARK    1  A    between atoms: C_2  and  C_4
REMARK    2  A    between atoms: C_4  and  N_5
REMARK    3  A    between atoms: N_8  and  C_9
REMARK    4  A    between atoms: C_9  and  C_10
REMARK    5  A    between atoms: N_15  and  C_16
REMARK    6  A    between atoms: C_16  and  C_17
REMARK    7  A    between atoms: N_22  and  C_23
REMARK    8  A    between atoms: C_23  and  C_24
REMARK                            x       y       z     vdW  Elec       q    Type
REMARK                         _______ _______ _______ _____ _____    ______ ____
ROOT
ATOM      1  N   UNL     1       2.423  -0.715  -0.153  0.00  0.00    -0.268 NA
ATOM      2  C   UNL     1       1.423  -1.630  -0.618  0.00  0.00    +0.090 C 
ATOM      3  C   UNL     1       0.533  -2.146   0.508  0.00  0.00    +0.090 C 
ATOM      4  N   UNL     1      -0.693  -2.521  -0.097  0.00  0.00    -0.261 NA
ATOM      5  C   UNL     1      -1.776  -1.621   0.006  0.00  0.00    +0.090 C 
ATOM      6  C   UNL     1      -1.713  -0.661   1.157  0.00  0.00    +0.090 C 
ATOM      7  N   UNL     1      -2.046   0.693   0.801  0.00  0.00    -0.261 NA
ATOM      8  C   UNL     1      -1.168   1.266  -0.182  0.00  0.00    +0.090 C 
ATOM      9  C   UNL     1      -0.573   2.534   0.412  0.00  0.00    +0.090 C 
ATOM     10  N   UNL     1       0.827   2.579  -0.001  0.00  0.00    -0.261 NA
ATOM     11  C   UNL     1       1.510   1.442   0.604  0.00  0.00    +0.090 C 
ATOM     12  C   UNL     1       2.173   0.657  -0.492  0.00  0.00    +0.090 C 
ENDROOT
BRANCH   1  13
ATOM     13  C   UNL     1       2.773  -0.922   1.229  0.00  0.00    +0.105 C 
BRANCH  13  15
ATOM     14  C   UNL     1       4.741  -1.610   2.426  0.00  0.00    +0.037 C 
ATOM     15  C   UNL     1       4.391  -0.462   1.248  0.00  0.00    +0.168 C 
ATOM     16  O   UNL     1       4.730  -1.468   0.122  0.00  0.00    -0.222 OA
ENDBRANCH  13  15
ENDBRANCH   1  13
BRANCH   4  17
ATOM     17  C   UNL     1      -0.998  -3.907  -0.128  0.00  0.00    +0.188 C 
BRANCH  17  18
ATOM     18  C   UNL     1      -1.563  -4.196  -1.484  0.00  0.00    +0.381 C 
ATOM     19  O   UNL     1      -2.888  -3.817  -1.723  0.00  0.00    -0.244 OA
ATOM     20  O   UNL     1      -0.766  -4.003  -2.449  0.00  0.00    -0.244 OA
ENDBRANCH  17  18
ENDBRANCH   4  17
BRANCH  10  21
ATOM     21  C   UNL     1       0.839   2.455  -1.453  0.00  0.00    +0.188 C 
BRANCH  21  22
ATOM     22  C   UNL     1       1.161   3.744  -2.106  0.00  0.00    +0.381 C 
ATOM     23  O   UNL     1       0.962   4.938  -1.444  0.00  0.00    -0.244 OA
ATOM     24  O   UNL     1       1.855   3.756  -3.152  0.00  0.00    -0.244 OA
ENDBRANCH  21  22
ENDBRANCH  10  21
BRANCH   7  25
ATOM     25  C   UNL     1      -3.445   0.888   0.516  0.00  0.00    +0.188 C 
BRANCH  25  26
ATOM     26  C   UNL     1      -4.060   1.539   1.714  0.00  0.00    +0.381 C 
ATOM     27  O   UNL     1      -3.335   1.719   2.896  0.00  0.00    -0.244 OA
ATOM     28  O   UNL     1      -5.318   1.468   1.844  0.00  0.00    -0.244 OA
ENDBRANCH  25  26
ENDBRANCH   7  25
TORSDOF 8
