REMARK  Name = 
REMARK  6 active torsions:
REMARK  status: ('A' for Active; 'I' for Inactive)
REMARK    1  A    between atoms: C_2  and  C_3
REMARK    2  A    between atoms: C_3  and  C_4
REMARK    3  A    between atoms: C_4  and  C_5
REMARK    4  A    between atoms: C_5  and  O_6
REMARK    5  A    between atoms: O_6  and  C_7
REMARK    6  A    between atoms: N_14  and  C_15
REMARK                            x       y       z     vdW  Elec       q    Type
REMARK                         _______ _______ _______ _____ _____    ______ ____
ROOT
ATOM      1  C   UNL     1       2.532   1.055  -0.145  0.00  0.00    +0.427 C 
ATOM      2  N   UNL     1       1.290   1.661  -0.000  0.00  0.00    -0.121 NA
ATOM      3  C   UNL     1       0.163   0.849   0.086  0.00  0.00    +0.191 A 
ATOM      4  C   UNL     1      -0.189   0.356   1.344  0.00  0.00    +0.191 A 
ATOM      5  F   UNL     1       0.819  -0.408   1.848  0.00  0.00    -0.200 F 
ATOM      6  C   UNL     1      -1.490  -0.158   1.554  0.00  0.00    +0.115 A 
ATOM      7  N   UNL     1      -2.323  -0.032   0.478  0.00  0.00    -0.251 N 
ATOM      8  C   UNL     1      -1.669  -0.054  -0.714  0.00  0.00    +0.353 A 
ATOM      9  O   UNL     1      -1.812  -0.925  -1.616  0.00  0.00    -0.244 OA
ATOM     10  N   UNL     1      -0.793   0.960  -0.899  0.00  0.00    -0.173 NA
ATOM     11  O   UNL     1       2.684   0.327  -1.168  0.00  0.00    -0.224 OA
ENDROOT
BRANCH   7  12
ATOM     12  C   UNL     1      -3.626  -1.028   0.591  0.00  0.00    +0.242 C 
ATOM     13  C   UNL     1      -5.023   0.091   0.410  0.00  0.00    +0.234 C 
ATOM     14  O   UNL     1      -5.700  -0.638  -0.702  0.00  0.00    -0.216 OA
ATOM     15  C   UNL     1      -4.021   1.056  -0.511  0.00  0.00    +0.214 C 
ATOM     16  O   UNL     1      -4.367   0.543  -1.922  0.00  0.00    -0.218 OA
ATOM     17  C   UNL     1      -3.264  -0.356   0.099  0.00  0.00    +0.150 C 
ATOM     18  C   UNL     1      -4.162  -0.512   1.576  0.00  0.00    +0.035 C 
ATOM     19  O   UNL     1      -3.874  -1.318  -0.810  0.00  0.00    -0.333 OA
ENDBRANCH   7  12
BRANCH   1  20
ATOM     20  O   UNL     1       3.569   1.002   0.749  0.00  0.00    -0.433 OA
BRANCH  20  21
ATOM     21  C   UNL     1       4.863   1.300   0.342  0.00  0.00    +0.210 C 
BRANCH  21  22
ATOM     22  C   UNL     1       5.640   0.043   0.656  0.00  0.00    +0.048 C 
BRANCH  22  23
ATOM     23  C   UNL     1       6.311  -0.486  -0.578  0.00  0.00    +0.004 C 
BRANCH  23  25
ATOM     24  C   UNL     1       7.035  -1.938   1.290  0.00  0.00    +0.000 C 
ATOM     25  C   UNL     1       7.406  -1.391  -0.055  0.00  0.00    +0.000 C 
ENDBRANCH  23  25
ENDBRANCH  22  23
ENDBRANCH  21  22
ENDBRANCH  20  21
ENDBRANCH   1  20
TORSDOF 6
