REMARK  Name = 
REMARK  12 active torsions:
REMARK  status: ('A' for Active; 'I' for Inactive)
REMARK    1  A    between atoms: C_2  and  O_4
REMARK    2  A    between atoms: O_4  and  C_5
REMARK    3  A    between atoms: C_5  and  C_7
REMARK    4  A    between atoms: C_7  and  N_9
REMARK    5  A    between atoms: N_9  and  P_10
REMARK    6  A    between atoms: P_10  and  C_12
REMARK    7  A    between atoms: P_10  and  O_27
REMARK    8  A    between atoms: C_12  and  O_13
REMARK    9  A    between atoms: O_13  and  C_14
REMARK   10  A    between atoms: C_14  and  C_16
REMARK   11  A    between atoms: C_16  and  N_17
REMARK   12  A    between atoms: O_27  and  C_28
REMARK                            x       y       z     vdW  Elec       q    Type
REMARK                         _______ _______ _______ _____ _____    ______ ____
ROOT
ATOM      1  P   UNL     1      -1.113  -0.506  -0.829  0.00  0.00    +0.375 P 
ATOM      2  O   UNL     1      -0.673  -1.841  -0.237  0.00  0.00    -0.254 OA
ENDROOT
BRANCH   1   3
ATOM      3  C   UNL     1       0.369   0.553  -0.718  0.00  0.00    +0.259 C 
BRANCH   3   4
ATOM      4  O   UNL     1       0.572   0.827   0.648  0.00  0.00    -0.343 OA
BRANCH   4   5
ATOM      5  C   UNL     1       1.454  -0.356   1.113  0.00  0.00    +0.139 C 
ATOM      6  C   UNL     1       0.421  -0.674   2.401  0.00  0.00    +0.034 C 
BRANCH   5   7
ATOM      7  C   UNL     1       2.387   0.662   2.072  0.00  0.00    +0.138 C 
BRANCH   7   8
ATOM      8  N   UNL     1       3.596   0.769   1.284  0.00  0.00    -0.292 N 
ATOM      9  C   UNL     1       4.367  -0.252   0.838  0.00  0.00    +0.167 A 
ATOM     10  N   UNL     1       4.432  -1.559   1.132  0.00  0.00    -0.205 NA
ATOM     11  C   UNL     1       5.551  -2.256   0.818  0.00  0.00    +0.202 A 
ATOM     12  N   UNL     1       6.587  -1.670   0.191  0.00  0.00    -0.204 NA
ATOM     13  C   UNL     1       6.542  -0.364  -0.165  0.00  0.00    +0.192 A 
ATOM     14  N   UNL     1       7.622   0.276  -0.821  0.00  0.00    -0.105 NA
ATOM     15  C   UNL     1       5.420   0.378   0.187  0.00  0.00    +0.152 A 
ATOM     16  N   UNL     1       5.044   1.646  -0.037  0.00  0.00    -0.219 NA
ATOM     17  C   UNL     1       3.833   1.839   0.486  0.00  0.00    +0.180 A 
ENDBRANCH   7   8
ENDBRANCH   5   7
ENDBRANCH   4   5
ENDBRANCH   3   4
ENDBRANCH   1   3
BRANCH   1  18
ATOM     18  N   UNL     1      -2.337   0.264   0.135  0.00  0.00    -0.124 NA
BRANCH  18  19
ATOM     19  C   UNL     1      -3.321  -0.914   0.601  0.00  0.00    +0.181 C 
ATOM     20  C   UNL     1      -2.211  -1.455   1.733  0.00  0.00    +0.031 C 
BRANCH  19  21
ATOM     21  C   UNL     1      -4.032   0.063   1.714  0.00  0.00    +0.333 C 
ATOM     22  O   UNL     1      -4.812   0.888   1.175  0.00  0.00    -0.249 OA
BRANCH  21  23
ATOM     23  O   UNL     1      -4.570  -0.703   2.756  0.00  0.00    -0.451 OA
BRANCH  23  25
ATOM     24  C   UNL     1      -5.960  -0.245   3.820  0.00  0.00    +0.047 C 
ATOM     25  C   UNL     1      -5.365  -0.054   3.742  0.00  0.00    +0.169 C 
ATOM     26  C   UNL     1      -4.498   0.080   4.986  0.00  0.00    +0.047 C 
ENDBRANCH  23  25
ENDBRANCH  21  23
ENDBRANCH  19  21
ENDBRANCH  18  19
ENDBRANCH   1  18
BRANCH   1  27
ATOM     27  O   UNL     1      -1.571  -0.845  -2.405  0.00  0.00    -0.428 OA
BRANCH  27  28
ATOM     28  C   UNL     1      -2.027  -0.001  -3.379  0.00  0.00    +0.146 A 
ATOM     29  C   UNL     1      -3.162   0.780  -3.201  0.00  0.00    +0.037 A 
ATOM     30  C   UNL     1      -4.043   1.053  -4.232  0.00  0.00    +0.003 A 
ATOM     31  C   UNL     1      -3.922   0.402  -5.430  0.00  0.00    +0.000 A 
ATOM     32  C   UNL     1      -2.751  -0.258  -5.690  0.00  0.00    +0.003 A 
ATOM     33  C   UNL     1      -1.828  -0.421  -4.690  0.00  0.00    +0.037 A 
ENDBRANCH  27  28
ENDBRANCH   1  27
TORSDOF 12
