REMARK  Name = 
REMARK  9 active torsions:
REMARK  status: ('A' for Active; 'I' for Inactive)
REMARK    1  A    between atoms: C_2  and  C_3
REMARK    2  A    between atoms: C_3  and  C_4
REMARK    3  A    between atoms: C_4  and  N_5
REMARK    4  A    between atoms: C_4  and  C_22
REMARK    5  A    between atoms: N_5  and  CA_6
REMARK    6  A    between atoms: CA_6  and  C_8
REMARK    7  A    between atoms: C_11  and  C_12
REMARK    8  A    between atoms: C_22  and  O_24
REMARK    9  A    between atoms: O_24  and  C_25
REMARK                            x       y       z     vdW  Elec       q    Type
REMARK                         _______ _______ _______ _____ _____    ______ ____
ROOT
ATOM      1  C   ALA A   1      -0.815  -1.448   0.602  0.00  0.00    +0.242 C 
ATOM      2  N   UNK A   2      -1.633  -0.459  -0.026  0.00  0.00    -0.272 N 
ATOM      3  C   UNK A   2      -1.850   0.704   0.988  0.00  0.00    +0.076 C 
ATOM      4  C   UNK A   2      -3.498   0.368   1.243  0.00  0.00    +0.020 C 
ATOM      5  C   UNK A   2      -3.933   1.876   1.617  0.00  0.00    +0.002 C 
ATOM      6  C   UNK A   2      -3.928   2.768   0.457  0.00  0.00    +0.000 C 
ATOM      7  C   UNK A   2      -2.434   3.080   0.327  0.00  0.00    +0.002 C 
ATOM      8  C   UNK A   2      -3.809   0.452  -0.338  0.00  0.00    +0.033 C 
ATOM      9  C   UNK A   2      -1.990   1.775  -0.232  0.00  0.00    +0.020 C 
ATOM     10  C   UNK A   2      -3.059  -1.009  -0.374  0.00  0.00    +0.179 C 
ATOM     11  O   ALA A   1      -1.282  -2.559   1.007  0.00  0.00    -0.273 OA
ENDROOT
BRANCH  10  12
ATOM     12  C   UNK A   2      -2.839  -0.927  -1.976  0.00  0.00    +0.382 C 
ATOM     13  O   UNK A   2      -1.615  -1.444  -2.429  0.00  0.00    -0.244 OA
ATOM     14  O   UNK A   2      -3.808  -1.573  -2.488  0.00  0.00    -0.244 OA
ENDBRANCH  10  12
BRANCH   1  15
ATOM     15  CA  ALA A   1       0.686  -1.635   0.044  0.00  0.00    +0.149 C 
ATOM     16  CB  ALA A   1       1.177  -2.222   1.504  0.00  0.00    +0.029 C 
BRANCH  15  17
ATOM     17  N   ALA A   1       1.118  -0.153   0.343  0.00  0.00    -0.201 NA
BRANCH  17  18
ATOM     18  C   UNK A   0       2.498  -0.332   1.076  0.00  0.00    +0.172 C 
BRANCH  18  19
ATOM     19  C   UNK A   0       3.175   0.960   0.396  0.00  0.00    +0.333 C 
ATOM     20  O   UNK A   0       4.383   0.993   0.789  0.00  0.00    -0.249 OA
BRANCH  19  21
ATOM     21  O   UNK A   0       2.996   1.240  -0.909  0.00  0.00    -0.448 OA
BRANCH  21  22
ATOM     22  C   UNK A   0       3.922   1.994  -1.689  0.00  0.00    +0.209 C 
ATOM     23  C   UNK A   0       4.145   3.385  -1.206  0.00  0.00    +0.051 C 
ENDBRANCH  21  22
ENDBRANCH  19  21
ENDBRANCH  18  19
BRANCH  18  24
ATOM     24  C   UNK A   0       3.124  -1.358  -0.051  0.00  0.00    +0.029 C 
BRANCH  24  26
ATOM     25  C   UNK A   0       4.774  -2.881   0.740  0.00  0.00    +0.000 C 
ATOM     26  C   UNK A   0       4.492  -1.594   0.586  0.00  0.00    +0.002 C 
ENDBRANCH  24  26
ENDBRANCH  18  24
ENDBRANCH  17  18
ENDBRANCH  15  17
ENDBRANCH   1  15
TORSDOF 9
