REMARK  Name = 
REMARK  5 active torsions:
REMARK  status: ('A' for Active; 'I' for Inactive)
REMARK    1  A    between atoms: C_6  and  O_7
REMARK    2  A    between atoms: O_7  and  C_8
REMARK    3  A    between atoms: C_8  and  C_10
REMARK    4  A    between atoms: C_10  and  C_12
REMARK    5  A    between atoms: C_10  and  C_18
REMARK                            x       y       z     vdW  Elec       q    Type
REMARK                         _______ _______ _______ _____ _____    ______ ____
ROOT
ATOM      1  C   UNL     1      -1.061   0.327   0.419  0.00  0.00    +0.233 C 
ATOM      2  O   UNL     1      -1.037   1.085   1.599  0.00  0.00    -0.210 OA
ENDROOT
BRANCH   1   3
ATOM      3  C   UNL     1      -2.240  -0.561   0.410  0.00  0.00    +0.015 A 
ATOM      4  C   UNL     1      -2.660  -1.062   1.630  0.00  0.00    -0.001 A 
ATOM      5  C   UNL     1      -3.684  -1.966   1.631  0.00  0.00    -0.000 A 
ATOM      6  C   UNL     1      -4.212  -2.465   0.460  0.00  0.00    -0.000 A 
ATOM      7  C   UNL     1      -3.489  -2.231  -0.698  0.00  0.00    -0.000 A 
ATOM      8  C   UNL     1      -2.394  -1.410  -0.674  0.00  0.00    -0.001 A 
ENDBRANCH   1   3
BRANCH   1   9
ATOM      9  C   UNL     1      -1.105   1.292  -0.725  0.00  0.00    +0.043 C 
ATOM     10  C   UNL     1      -0.829   2.711  -0.375  0.00  0.00    +0.003 C 
ATOM     11  C   UNL     1      -2.088   3.468  -0.715  0.00  0.00    +0.000 C 
ATOM     12  C   UNL     1      -3.155   2.436  -0.945  0.00  0.00    +0.000 C 
ATOM     13  C   UNL     1      -2.420   1.239  -1.476  0.00  0.00    +0.003 C 
ENDBRANCH   1   9
BRANCH   1  14
ATOM     14  C   UNL     1       0.204  -0.461   0.266  0.00  0.00    +0.349 C 
ATOM     15  O   UNL     1       0.143  -1.725   0.166  0.00  0.00    -0.247 OA
BRANCH  14  16
ATOM     16  O   UNL     1       1.363   0.259   0.050  0.00  0.00    -0.444 OA
BRANCH  16  20
ATOM     17  C   UNL     1       5.074  -0.985  -0.102  0.00  0.00    +0.171 C 
ATOM     18  N   UNL     1       4.663  -0.426   0.127  0.00  0.00    +0.309 N 
ATOM     19  C   UNL     1       3.355  -0.730   0.601  0.00  0.00    +0.153 C 
ATOM     20  C   UNL     1       2.458  -0.465  -0.756  0.00  0.00    +0.229 C 
ATOM     21  C   UNL     1       3.222   0.961  -1.090  0.00  0.00    +0.111 C 
ATOM     22  C   UNL     1       4.600   0.397  -1.020  0.00  0.00    +0.113 C 
ATOM     23  C   UNL     1       5.293   0.312   1.218  0.00  0.00    +0.171 C 
ENDBRANCH  16  20
ENDBRANCH  14  16
ENDBRANCH   1  14
TORSDOF 5
