REMARK  Name = 
REMARK  4 active torsions:
REMARK  status: ('A' for Active; 'I' for Inactive)
REMARK    1  A    between atoms: N_2  and  C_5
REMARK    2  A    between atoms: C_5  and  C_6
REMARK    3  A    between atoms: C_6  and  O_7
REMARK    4  A    between atoms: O_7  and  C_8
REMARK                            x       y       z     vdW  Elec       q    Type
REMARK                         _______ _______ _______ _____ _____    ______ ____
ROOT
ATOM      1  C   UNL     1      -0.766   0.770  -0.190  0.00  0.00    +0.158 C 
ENDROOT
BRANCH   1   3
ATOM      2  C   UNL     1      -1.817  -1.399  -0.225  0.00  0.00    +0.171 C 
ATOM      3  N   UNL     1      -1.883  -0.030   0.270  0.00  0.00    +0.313 N 
ATOM      4  C   UNL     1      -3.110   0.600  -0.217  0.00  0.00    +0.171 C 
ATOM      5  C   UNL     1      -1.871  -0.046   1.730  0.00  0.00    +0.171 C 
ENDBRANCH   1   3
BRANCH   1   6
ATOM      6  C   UNL     1       0.107  -0.151  -1.034  0.00  0.00    +0.271 C 
BRANCH   6   7
ATOM      7  O   UNL     1       1.050  -0.711  -0.122  0.00  0.00    -0.426 OA
BRANCH   7   8
ATOM      8  C   UNL     1       2.377  -0.271  -0.092  0.00  0.00    +0.441 C 
ATOM      9  O   UNL     1       2.886  -0.031  -1.228  0.00  0.00    -0.223 OA
ATOM     10  N   UNL     1       3.027   0.142   1.108  0.00  0.00    -0.048 NA
ENDBRANCH   7   8
ENDBRANCH   6   7
ENDBRANCH   1   6
TORSDOF 4
