REMARK  Name = 
REMARK  14 active torsions:
REMARK  status: ('A' for Active; 'I' for Inactive)
REMARK    1  A    between atoms: C_2  and  C_3
REMARK    2  A    between atoms: C_3  and  C_4
REMARK    3  A    between atoms: C_4  and  C_5
REMARK    4  A    between atoms: C_5  and  C_8
REMARK    5  A    between atoms: C_8  and  C_9
REMARK    6  A    between atoms: C_10  and  C_11
REMARK    7  A    between atoms: C_17  and  C_18
REMARK    8  A    between atoms: C_18  and  C_19
REMARK    9  A    between atoms: C_19  and  C_20
REMARK   10  A    between atoms: C_20  and  C_21
REMARK   11  A    between atoms: C_21  and  C_22
REMARK   12  A    between atoms: C_22  and  C_23
REMARK   13  A    between atoms: C_23  and  C_24
REMARK   14  A    between atoms: C_24  and  O_26
REMARK                            x       y       z     vdW  Elec       q    Type
REMARK                         _______ _______ _______ _____ _____    ______ ____
ROOT
ATOM      1  C   UNL     1      -1.216  -0.606  -0.450  0.00  0.00    +0.059 C 
ATOM      2  C   UNL     1      -0.117   0.677  -0.425  0.00  0.00    +0.064 C 
ATOM      3  C   UNL     1       0.783   0.166  -1.643  0.00  0.00    +0.153 C 
ATOM      4  O   UNL     1       1.925   0.495  -1.767  0.00  0.00    -0.296 OA
ATOM      5  C   UNL     1      -0.315   0.356  -2.546  0.00  0.00    +0.098 C 
ATOM      6  C   UNL     1      -1.073  -1.037  -2.096  0.00  0.00    +0.164 C 
ATOM      7  O   UNL     1       0.195  -1.865  -1.846  0.00  0.00    -0.222 OA
ENDROOT
BRANCH   1   9
ATOM      8  C   UNL     1      -3.328   0.102  -1.610  0.00  0.00    -0.028 C 
ATOM      9  C   UNL     1      -2.437   0.384  -0.707  0.00  0.00    -0.028 C 
BRANCH   8  10
ATOM     10  C   UNL     1      -4.519   1.001  -1.755  0.00  0.00    +0.056 C 
BRANCH  10  11
ATOM     11  C   UNL     1      -5.415   0.621  -0.581  0.00  0.00    +0.131 C 
ATOM     12  O   UNL     1      -6.644   1.222  -0.769  0.00  0.00    -0.225 OA
ATOM     13  C   UNL     1      -5.493  -0.893  -0.615  0.00  0.00    +0.033 C 
BRANCH  11  14
ATOM     14  C   UNL     1      -4.735   1.061   0.683  0.00  0.00    +0.031 C 
BRANCH  14  15
ATOM     15  C   UNL     1      -5.409   0.454   1.892  0.00  0.00    +0.003 C 
BRANCH  15  17
ATOM     16  C   UNL     1      -7.484  -0.102   1.663  0.00  0.00    +0.000 C 
ATOM     17  C   UNL     1      -6.840   0.134   1.530  0.00  0.00    +0.000 C 
ENDBRANCH  15  17
ENDBRANCH  14  15
ENDBRANCH  11  14
ENDBRANCH  10  11
ENDBRANCH   8  10
ENDBRANCH   1   9
BRANCH   2  18
ATOM     18  C   UNL     1       0.838  -0.115   0.658  0.00  0.00    +0.008 C 
BRANCH  18  19
ATOM     19  C   UNL     1       1.710   0.911   1.299  0.00  0.00    +0.000 C 
BRANCH  19  20
ATOM     20  C   UNL     1       3.175   0.753   1.043  0.00  0.00    +0.000 C 
BRANCH  20  21
ATOM     21  C   UNL     1       3.731  -0.547   1.596  0.00  0.00    +0.001 C 
BRANCH  21  22
ATOM     22  C   UNL     1       5.193  -0.289   1.907  0.00  0.00    +0.012 C 
BRANCH  22  23
ATOM     23  C   UNL     1       5.717   0.559   0.785  0.00  0.00    +0.110 C 
BRANCH  23  24
ATOM     24  C   UNL     1       7.131   0.160   0.506  0.00  0.00    +0.317 C 
ATOM     25  O   UNL     1       7.295  -1.023   0.126  0.00  0.00    -0.250 OA
BRANCH  24  26
ATOM     26  O   UNL     1       8.079   0.677   1.371  0.00  0.00    -0.444 OA
ATOM     27  C   UNL     1       9.254  -0.035   1.750  0.00  0.00    +0.256 C 
ENDBRANCH  24  26
ENDBRANCH  23  24
ENDBRANCH  22  23
ENDBRANCH  21  22
ENDBRANCH  20  21
ENDBRANCH  19  20
ENDBRANCH  18  19
ENDBRANCH   2  18
TORSDOF 14
