REMARK  Name = 
REMARK  5 active torsions:
REMARK  status: ('A' for Active; 'I' for Inactive)
REMARK    1  A    between atoms: N_2  and  C_4
REMARK    2  A    between atoms: C_4  and  C_5
REMARK    3  A    between atoms: C_5  and  C_6
REMARK    4  A    between atoms: C_6  and  C_7
REMARK    5  A    between atoms: C_6  and  C_14
REMARK                            x       y       z     vdW  Elec       q    Type
REMARK                         _______ _______ _______ _____ _____    ______ ____
ROOT
ATOM      1  C   UNL     1      -0.300   0.194  -0.733  0.00  0.00    +0.064 C 
ENDROOT
BRANCH   1   2
ATOM      2  C   UNL     1       0.515  -0.887   0.189  0.00  0.00    -0.017 A 
ATOM      3  C   UNL     1       0.821  -1.952  -0.661  0.00  0.00    -0.003 A 
ATOM      4  C   UNL     1       2.022  -2.631  -0.574  0.00  0.00    +0.011 A 
ATOM      5  C   UNL     1       3.064  -2.108   0.163  0.00  0.00    +0.058 A 
ATOM      6 CL   UNL     1       4.752  -2.385  -0.254  0.00  0.00    -0.082 Cl
ATOM      7  C   UNL     1       2.705  -1.179   1.128  0.00  0.00    +0.011 A 
ATOM      8  C   UNL     1       1.599  -0.386   0.854  0.00  0.00    -0.003 A 
ENDBRANCH   1   2
BRANCH   1   9
ATOM      9  C   UNL     1      -1.739  -0.310  -0.129  0.00  0.00    +0.063 A 
ATOM     10  N   UNL     1      -2.040  -1.554  -0.533  0.00  0.00    -0.248 NA
ATOM     11  C   UNL     1      -3.331  -1.907  -0.638  0.00  0.00    +0.098 A 
ATOM     12  C   UNL     1      -4.317  -1.022  -0.245  0.00  0.00    +0.021 A 
ATOM     13  C   UNL     1      -4.019   0.312   0.005  0.00  0.00    +0.003 A 
ATOM     14  C   UNL     1      -2.708   0.670  -0.179  0.00  0.00    +0.015 A 
ENDBRANCH   1   9
BRANCH   1  15
ATOM     15  C   UNL     1      -0.207   1.402   0.417  0.00  0.00    +0.028 C 
BRANCH  15  16
ATOM     16  C   UNL     1       1.004   2.149  -0.127  0.00  0.00    +0.073 C 
BRANCH  16  18
ATOM     17  C   UNL     1      -0.180   3.718  -0.446  0.00  0.00    +0.090 C 
ATOM     18  N   UNL     1       0.618   3.509  -0.478  0.00  0.00    -0.270 NA
ATOM     19  C   UNL     1       1.740   4.368  -0.102  0.00  0.00    +0.090 C 
ENDBRANCH  16  18
ENDBRANCH  15  16
ENDBRANCH   1  15
TORSDOF 5
