REMARK  Name = 
REMARK  12 active torsions:
REMARK  status: ('A' for Active; 'I' for Inactive)
REMARK    1  A    between atoms: C_2  and  C_3
REMARK    2  A    between atoms: C_3  and  C_4
REMARK    3  A    between atoms: C_4  and  C_5
REMARK    4  A    between atoms: C_5  and  C_6
REMARK    5  A    between atoms: C_6  and  C_7
REMARK    6  A    between atoms: C_7  and  C_8
REMARK    7  A    between atoms: C_8  and  C_9
REMARK    8  A    between atoms: C_9  and  C_10
REMARK    9  A    between atoms: C_10  and  C_11
REMARK   10  A    between atoms: C_11  and  C_12
REMARK   11  A    between atoms: C_12  and  O_13
REMARK   12  A    between atoms: O_13  and  S_14
REMARK                            x       y       z     vdW  Elec       q    Type
REMARK                         _______ _______ _______ _____ _____    ______ ____
ROOT
ATOM      1  C   UNL     1       0.091   0.499   1.304  0.00  0.00    +0.000 C 
ENDROOT
BRANCH   1   2
ATOM      2  C   UNL     1      -0.669  -0.678   1.884  0.00  0.00    +0.003 C 
BRANCH   2   3
ATOM      3  C   UNL     1      -2.151  -0.563   1.638  0.00  0.00    +0.035 C 
BRANCH   3   4
ATOM      4  C   UNL     1      -2.461  -1.087   0.263  0.00  0.00    +0.172 C 
BRANCH   4   5
ATOM      5  O   UNL     1      -3.488  -0.342  -0.303  0.00  0.00    -0.241 OA
BRANCH   5   6
ATOM      6  S   UNL     1      -4.977  -0.649   0.378  0.00  0.00    -0.000 S 
ATOM      7  O   UNL     1      -4.871  -1.047   2.006  0.00  0.00    -0.268 OA
ATOM      8  O   UNL     1      -5.833   0.594   0.293  0.00  0.00    -0.345 OA
ATOM      9  O   UNL     1      -5.693  -1.714  -0.411  0.00  0.00    -0.345 OA
ENDBRANCH   5   6
ENDBRANCH   4   5
ENDBRANCH   3   4
ENDBRANCH   2   3
ENDBRANCH   1   2
BRANCH   1  10
ATOM     10  C   UNL     1       0.341   0.329  -0.165  0.00  0.00    +0.000 C 
BRANCH  10  11
ATOM     11  C   UNL     1       1.798   0.618  -0.492  0.00  0.00    +0.000 C 
BRANCH  11  12
ATOM     12  C   UNL     1       2.022   0.166  -1.919  0.00  0.00    +0.000 C 
BRANCH  12  13
ATOM     13  C   UNL     1       3.449  -0.238  -2.169  0.00  0.00    +0.000 C 
BRANCH  13  14
ATOM     14  C   UNL     1       4.111  -0.825  -0.941  0.00  0.00    +0.000 C 
BRANCH  14  15
ATOM     15  C   UNL     1       4.919   0.201  -0.197  0.00  0.00    +0.000 C 
BRANCH  15  17
ATOM     16  C   UNL     1       7.336   0.772  -0.165  0.00  0.00    +0.000 C 
ATOM     17  C   UNL     1       6.076   0.740  -1.004  0.00  0.00    +0.000 C 
ENDBRANCH  15  17
ENDBRANCH  14  15
ENDBRANCH  13  14
ENDBRANCH  12  13
ENDBRANCH  11  12
ENDBRANCH  10  11
ENDBRANCH   1  10
TORSDOF 12
