REMARK  Name = 
REMARK  4 active torsions:
REMARK  status: ('A' for Active; 'I' for Inactive)
REMARK    1  A    between atoms: C_2  and  C_3
REMARK    2  A    between atoms: C_3  and  C_4
REMARK    3  A    between atoms: C_4  and  P_6
REMARK    4  A    between atoms: C_4  and  P_10
REMARK                            x       y       z     vdW  Elec       q    Type
REMARK                         _______ _______ _______ _____ _____    ______ ____
ROOT
ATOM      1  C   UNL     1       0.213  -0.240  -0.069  0.00  0.00    +0.217 C 
ATOM      2  O   UNL     1       1.068  -0.611  -1.117  0.00  0.00    -0.211 OA
ENDROOT
BRANCH   1   3
ATOM      3  P   UNL     1      -0.242   1.488  -0.346  0.00  0.00    +0.151 P 
ATOM      4  O   UNL     1      -1.870   1.643  -0.814  0.00  0.00    -0.355 OA
ATOM      5  O   UNL     1       0.019   2.425   1.049  0.00  0.00    -0.355 OA
ATOM      6  O   UNL     1       0.616   2.113  -1.437  0.00  0.00    -0.457 OA
ENDBRANCH   1   3
BRANCH   1   7
ATOM      7  P   UNL     1      -1.302  -1.212  -0.108  0.00  0.00    +0.151 P 
ATOM      8  O   UNL     1      -1.216  -2.612   0.814  0.00  0.00    -0.355 OA
ATOM      9  O   UNL     1      -1.624  -1.548  -1.743  0.00  0.00    -0.355 OA
ATOM     10  O   UNL     1      -2.455  -0.358   0.394  0.00  0.00    -0.457 OA
ENDBRANCH   1   7
BRANCH   1  11
ATOM     11  C   UNL     1       0.989  -0.400   1.207  0.00  0.00    +0.065 C 
BRANCH  11  13
ATOM     12  N   UNL     1       3.416  -0.823   1.240  0.00  0.00    -0.131 NA
ATOM     13  C   UNL     1       2.387   0.136   0.931  0.00  0.00    +0.113 C 
ENDBRANCH  11  13
ENDBRANCH   1  11
TORSDOF 4
