REMARK  Name = 
REMARK  14 active torsions:
REMARK  status: ('A' for Active; 'I' for Inactive)
REMARK    1  A    between atoms: C_2  and  C_3
REMARK    2  A    between atoms: C_3  and  C_4
REMARK    3  A    between atoms: C_4  and  S_5
REMARK    4  A    between atoms: S_5  and  N_8
REMARK    5  A    between atoms: N_8  and  C_9
REMARK    6  A    between atoms: C_9  and  C_10
REMARK    7  A    between atoms: C_9  and  C_28
REMARK    8  A    between atoms: C_10  and  C_11
REMARK    9  A    between atoms: C_14  and  O_15
REMARK   10  A    between atoms: O_15  and  C_16
REMARK   11  A    between atoms: C_16  and  C_17
REMARK   12  A    between atoms: C_17  and  C_18
REMARK   13  A    between atoms: C_18  and  C_19
REMARK   14  A    between atoms: C_19  and  C_20
REMARK                            x       y       z     vdW  Elec       q    Type
REMARK                         _______ _______ _______ _____ _____    ______ ____
ROOT
ATOM      1  C   UNL     1      -0.998  -0.421   1.564  0.00  0.00    -0.020 A 
ATOM      2  C   UNL     1       0.273  -0.258   2.106  0.00  0.00    -0.001 A 
ATOM      3  C   UNL     1       1.394  -0.087   1.299  0.00  0.00    +0.037 A 
ATOM      4  C   UNL     1       1.188   0.388   0.013  0.00  0.00    +0.139 A 
ATOM      5  C   UNL     1      -0.085   0.233  -0.523  0.00  0.00    +0.037 A 
ATOM      6  C   UNL     1      -0.989  -0.557   0.178  0.00  0.00    -0.001 A 
ENDROOT
BRANCH   4   7
ATOM      7  O   UNL     1       2.241   0.623  -0.877  0.00  0.00    -0.475 OA
BRANCH   7   8
ATOM      8  C   UNL     1       2.440  -0.255  -1.982  0.00  0.00    +0.205 C 
BRANCH   8   9
ATOM      9  C   UNL     1       2.984  -1.551  -1.421  0.00  0.00    +0.047 C 
BRANCH   9  10
ATOM     10  C   UNL     1       4.419  -1.396  -0.969  0.00  0.00    +0.004 C 
BRANCH  10  11
ATOM     11  C   UNL     1       4.907  -0.064  -1.504  0.00  0.00    +0.000 C 
BRANCH  11  12
ATOM     12  C   UNL     1       6.398   0.072  -1.479  0.00  0.00    +0.003 C 
ATOM     13  C   UNL     1       6.714   1.503  -1.085  0.00  0.00    +0.019 C 
ATOM     14  C   UNL     1       8.197   1.764  -1.158  0.00  0.00    +0.089 C 
ATOM     15  N   UNL     1       8.927   0.498  -1.151  0.00  0.00    -0.218 NA
ATOM     16  C   UNL     1       8.393  -0.373  -0.108  0.00  0.00    +0.089 C 
ATOM     17  C   UNL     1       7.041  -0.901  -0.534  0.00  0.00    +0.019 C 
ENDBRANCH  11  12
ENDBRANCH  10  11
ENDBRANCH   9  10
ENDBRANCH   8   9
ENDBRANCH   7   8
ENDBRANCH   4   7
BRANCH   1  18
ATOM     18  C   UNL     1      -2.075  -1.008   2.306  0.00  0.00    +0.057 C 
BRANCH  18  19
ATOM     19  C   UNL     1      -3.375   0.034   2.355  0.00  0.00    +0.204 C 
BRANCH  19  20
ATOM     20  C   UNL     1      -2.732   1.149   1.340  0.00  0.00    +0.382 C 
ATOM     21  O   UNL     1      -3.572   1.595   0.347  0.00  0.00    -0.244 OA
ATOM     22  O   UNL     1      -2.301   2.074   2.101  0.00  0.00    -0.244 OA
ENDBRANCH  19  20
BRANCH  19  23
ATOM     23  N   UNL     1      -4.097  -0.762   1.167  0.00  0.00    -0.072 NA
BRANCH  23  24
ATOM     24  S   UNL     1      -5.760  -0.302   1.268  0.00  0.00    +0.058 S 
ATOM     25  O   UNL     1      -5.998   0.694   2.379  0.00  0.00    -0.156 OA
ATOM     26  O   UNL     1      -6.547  -1.540   1.639  0.00  0.00    -0.156 OA
BRANCH  24  27
ATOM     27  C   UNL     1      -6.370   0.409  -0.226  0.00  0.00    +0.171 C 
BRANCH  27  28
ATOM     28  C   UNL     1      -6.924  -0.600  -1.186  0.00  0.00    +0.027 C 
BRANCH  28  30
ATOM     29  C   UNL     1      -6.937  -0.033  -3.261  0.00  0.00    +0.000 C 
ATOM     30  C   UNL     1      -6.757  -0.044  -2.596  0.00  0.00    +0.002 C 
ENDBRANCH  28  30
ENDBRANCH  27  28
ENDBRANCH  24  27
ENDBRANCH  23  24
ENDBRANCH  19  23
ENDBRANCH  18  19
ENDBRANCH   1  18
TORSDOF 14
