REMARK  Name = 
REMARK  7 active torsions:
REMARK  status: ('A' for Active; 'I' for Inactive)
REMARK    1  A    between atoms: C_8  and  O_9
REMARK    2  A    between atoms: O_9  and  C_10
REMARK    3  A    between atoms: C_10  and  C_11
REMARK    4  A    between atoms: C_11  and  C_12
REMARK    5  A    between atoms: C_12  and  C_13
REMARK    6  A    between atoms: C_13  and  N_14
REMARK    7  A    between atoms: N_17  and  C_18
REMARK                            x       y       z     vdW  Elec       q    Type
REMARK                         _______ _______ _______ _____ _____    ______ ____
ROOT
ATOM      1  C   UNL     1       0.199  -0.929  -1.383  0.00  0.00    +0.021 C 
ENDROOT
BRANCH   1   2
ATOM      2  C   UNL     1      -0.496  -2.021  -0.586  0.00  0.00    +0.049 C 
BRANCH   2   3
ATOM      3  C   UNL     1      -1.982  -1.710  -0.639  0.00  0.00    +0.205 C 
BRANCH   3   4
ATOM      4  O   UNL     1      -2.312  -0.878   0.467  0.00  0.00    -0.475 OA
BRANCH   4  12
ATOM      5  O   UNL     1      -8.154   0.820  -2.675  0.00  0.00    -0.273 OA
ATOM      6  C   UNL     1      -7.798   0.245  -1.601  0.00  0.00    +0.246 C 
ATOM      7  N   UNL     1      -6.614  -0.559  -1.543  0.00  0.00    -0.179 NA
ATOM      8  C   UNL     1      -5.894  -0.523  -0.305  0.00  0.00    +0.072 A 
ATOM      9  C   UNL     1      -6.283   0.428   0.629  0.00  0.00    -0.006 A 
ATOM     10  C   UNL     1      -5.351   0.972   1.484  0.00  0.00    +0.000 A 
ATOM     11  C   UNL     1      -4.020   0.581   1.414  0.00  0.00    +0.037 A 
ATOM     12  C   UNL     1      -3.641  -0.478   0.598  0.00  0.00    +0.140 A 
ATOM     13  C   UNL     1      -7.715   0.704   0.846  0.00  0.00    +0.037 C 
ATOM     14  C   UNL     1      -4.642  -1.066  -0.152  0.00  0.00    +0.053 A 
ATOM     15  C   UNL     1      -8.575   0.372  -0.340  0.00  0.00    +0.092 C 
ENDBRANCH   4  12
ENDBRANCH   3   4
ENDBRANCH   2   3
ENDBRANCH   1   2
BRANCH   1  16
ATOM     16  C   UNL     1       0.744   0.076  -0.378  0.00  0.00    +0.072 C 
BRANCH  16  17
ATOM     17  N   UNL     1       2.167  -0.204  -0.211  0.00  0.00    -0.270 NA
ATOM     18  C   UNL     1       2.760  -0.171  -1.529  0.00  0.00    +0.094 C 
ATOM     19  C   UNL     1       4.075  -0.900  -1.594  0.00  0.00    +0.108 C 
ATOM     20  N   UNL     1       4.683  -0.990  -0.269  0.00  0.00    -0.304 N 
ATOM     21  C   UNL     1       3.853  -1.591   0.772  0.00  0.00    +0.108 C 
ATOM     22  C   UNL     1       2.386  -1.459   0.473  0.00  0.00    +0.094 C 
BRANCH  20  23
ATOM     23  C   UNL     1       5.444   0.151   0.143  0.00  0.00    +0.059 A 
ATOM     24  C   UNL     1       6.617   0.417  -0.544  0.00  0.00    +0.081 A 
ATOM     25 CL   UNL     1       7.654  -0.950  -0.906  0.00  0.00    -0.080 Cl
ATOM     26  C   UNL     1       7.227   1.641  -0.375  0.00  0.00    +0.069 A 
ATOM     27 CL   UNL     1       8.936   1.897  -0.641  0.00  0.00    -0.081 Cl
ATOM     28  C   UNL     1       6.519   2.664   0.231  0.00  0.00    +0.012 A 
ATOM     29  C   UNL     1       5.339   2.381   0.895  0.00  0.00    +0.002 A 
ATOM     30  C   UNL     1       4.872   1.081   1.000  0.00  0.00    +0.015 A 
ENDBRANCH  20  23
ENDBRANCH  16  17
ENDBRANCH   1  16
TORSDOF 7
