REMARK  Name = 
REMARK  28 active torsions:
REMARK  status: ('A' for Active; 'I' for Inactive)
REMARK    1  A    between atoms: C_2  and  C_4
REMARK    2  A    between atoms: C_4  and  O_5
REMARK    3  A    between atoms: O_5  and  C_6
REMARK    4  A    between atoms: C_6  and  C_7
REMARK    5  A    between atoms: C_9  and  O_10
REMARK    6  A    between atoms: O_10  and  C_11
REMARK    7  A    between atoms: C_12  and  O_13
REMARK    8  A    between atoms: O_13  and  C_14
REMARK    9  A    between atoms: C_14  and  C_15
REMARK   10  A    between atoms: C_18  and  O_19
REMARK   11  A    between atoms: O_19  and  C_20
REMARK   12  A    between atoms: C_20  and  C_21
REMARK   13  A    between atoms: C_24  and  O_25
REMARK   14  A    between atoms: O_25  and  C_26
REMARK   15  A    between atoms: C_26  and  C_27
REMARK   16  A    between atoms: C_31  and  C_32
REMARK   17  A    between atoms: C_32  and  O_33
REMARK   18  A    between atoms: O_33  and  C_34
REMARK   19  A    between atoms: C_34  and  C_35
REMARK   20  A    between atoms: C_38  and  O_39
REMARK   21  A    between atoms: O_39  and  C_40
REMARK   22  A    between atoms: C_40  and  C_41
REMARK   23  A    between atoms: C_44  and  O_45
REMARK   24  A    between atoms: O_45  and  C_46
REMARK   25  A    between atoms: C_46  and  C_47
REMARK   26  A    between atoms: C_50  and  O_51
REMARK   27  A    between atoms: O_51  and  C_52
REMARK   28  A    between atoms: C_52  and  C_53
REMARK                            x       y       z     vdW  Elec       q    Type
REMARK                         _______ _______ _______ _____ _____    ______ ____
ROOT
ATOM      1  O   UNL     1       0.155   1.004   0.319  0.00  0.00    -0.326 OA
ENDROOT
BRANCH   1   2
ATOM      2  C   UNL     1       0.490  -0.414   0.013  0.00  0.00    +0.177 C 
ATOM      3  C   UNL     1       1.742  -0.583   1.183  0.00  0.00    +0.177 C 
ATOM      4  O   UNL     1       2.690   0.464   0.706  0.00  0.00    -0.326 OA
ATOM      5  C   UNL     1       3.716  -0.339  -0.087  0.00  0.00    +0.266 C 
ATOM      6  C   UNL     1       2.541  -1.397  -0.779  0.00  0.00    +0.201 C 
ATOM      7  C   UNL     1       1.463  -0.218  -1.393  0.00  0.00    +0.177 C 
BRANCH   3   8
ATOM      8  C   UNL     1       1.046   0.436   2.292  0.00  0.00    +0.174 C 
BRANCH   8   9
ATOM      9  O   UNL     1       1.779   1.560   2.411  0.00  0.00    -0.348 OA
BRANCH   9  10
ATOM     10  C   UNL     1       1.418   2.810   2.177  0.00  0.00    +0.175 C 
BRANCH  10  11
ATOM     11  C   UNL     1       2.176   3.599   3.417  0.00  0.00    +0.181 C 
ATOM     12  O   UNL     1       3.555   3.224   2.894  0.00  0.00    -0.220 OA
ATOM     13  C   UNL     1       2.176   5.007   2.558  0.00  0.00    +0.038 C 
ENDBRANCH  10  11
ENDBRANCH   9  10
ENDBRANCH   8   9
ENDBRANCH   3   8
BRANCH   5  14
ATOM     14  O   UNL     1       3.936  -1.341   1.055  0.00  0.00    -0.326 OA
BRANCH  14  15
ATOM     15  C   UNL     1       5.291  -1.397   1.046  0.00  0.00    +0.178 C 
BRANCH  15  16
ATOM     16  C   UNL     1       5.722  -0.129   2.012  0.00  0.00    +0.182 C 
ATOM     17  O   UNL     1       6.210  -1.076   3.098  0.00  0.00    -0.220 OA
ATOM     18  C   UNL     1       7.224  -0.065   1.327  0.00  0.00    +0.038 C 
ENDBRANCH  15  16
ENDBRANCH  14  15
ENDBRANCH   5  14
BRANCH   6  19
ATOM     19  O   UNL     1       3.263  -1.450  -2.095  0.00  0.00    -0.346 OA
BRANCH  19  20
ATOM     20  C   UNL     1       2.915  -2.660  -2.640  0.00  0.00    +0.175 C 
BRANCH  20  21
ATOM     21  C   UNL     1       4.425  -3.182  -3.062  0.00  0.00    +0.181 C 
ATOM     22  O   UNL     1       4.388  -4.283  -2.015  0.00  0.00    -0.220 OA
ATOM     23  C   UNL     1       3.833  -4.197  -4.221  0.00  0.00    +0.038 C 
ENDBRANCH  20  21
ENDBRANCH  19  20
ENDBRANCH   6  19
BRANCH   7  24
ATOM     24  O   UNL     1       2.136   1.052  -1.019  0.00  0.00    -0.348 OA
BRANCH  24  25
ATOM     25  C   UNL     1       2.378   1.587  -2.309  0.00  0.00    +0.175 C 
BRANCH  25  26
ATOM     26  C   UNL     1       2.460   3.220  -2.090  0.00  0.00    +0.181 C 
ATOM     27  O   UNL     1       3.473   3.108  -0.961  0.00  0.00    -0.220 OA
ATOM     28  C   UNL     1       3.658   3.325  -3.223  0.00  0.00    +0.038 C 
ENDBRANCH  25  26
ENDBRANCH  24  25
ENDBRANCH   7  24
ENDBRANCH   1   2
BRANCH   1  33
ATOM     29  C   UNL     1      -1.758  -1.011  -1.303  0.00  0.00    +0.177 C 
ATOM     30  C   UNL     1      -3.163  -0.146  -1.848  0.00  0.00    +0.174 C 
ATOM     31  C   UNL     1      -3.570   0.802  -0.526  0.00  0.00    +0.177 C 
ATOM     32  C   UNL     1      -2.257   0.480   0.493  0.00  0.00    +0.201 C 
ATOM     33  C   UNL     1      -1.116   1.317  -0.455  0.00  0.00    +0.266 C 
ATOM     34  O   UNL     1      -0.854   0.191  -1.410  0.00  0.00    -0.326 OA
BRANCH  32  35
ATOM     35  O   UNL     1      -2.574   1.507   1.524  0.00  0.00    -0.346 OA
BRANCH  35  36
ATOM     36  C   UNL     1      -3.469   0.854   2.383  0.00  0.00    +0.175 C 
BRANCH  36  37
ATOM     37  C   UNL     1      -2.678   0.040   3.572  0.00  0.00    +0.181 C 
ATOM     38  O   UNL     1      -3.957  -0.543   4.171  0.00  0.00    -0.220 OA
ATOM     39  C   UNL     1      -2.458  -1.355   2.704  0.00  0.00    +0.038 C 
ENDBRANCH  36  37
ENDBRANCH  35  36
ENDBRANCH  32  35
BRANCH  31  40
ATOM     40  O   UNL     1      -4.474  -0.310  -0.076  0.00  0.00    -0.348 OA
BRANCH  40  41
ATOM     41  C   UNL     1      -4.536  -1.411  -0.685  0.00  0.00    +0.175 C 
BRANCH  41  42
ATOM     42  C   UNL     1      -5.405  -1.606  -2.036  0.00  0.00    +0.181 C 
ATOM     43  O   UNL     1      -4.557  -2.782  -2.528  0.00  0.00    -0.220 OA
ATOM     44  C   UNL     1      -6.412  -2.646  -1.232  0.00  0.00    +0.038 C 
ENDBRANCH  41  42
ENDBRANCH  40  41
ENDBRANCH  31  40
BRANCH  30  45
ATOM     45  O   UNL     1      -2.442   0.948  -2.590  0.00  0.00    -0.348 OA
BRANCH  45  46
ATOM     46  C   UNL     1      -3.132   2.096  -2.604  0.00  0.00    +0.175 C 
BRANCH  46  47
ATOM     47  C   UNL     1      -4.268   2.085  -3.789  0.00  0.00    +0.181 C 
ATOM     48  O   UNL     1      -3.240   1.852  -4.886  0.00  0.00    -0.220 OA
ATOM     49  C   UNL     1      -4.159   3.730  -3.957  0.00  0.00    +0.038 C 
ENDBRANCH  46  47
ENDBRANCH  45  46
ENDBRANCH  30  45
BRANCH  29  50
ATOM     50  C   UNL     1      -2.014  -1.276   0.255  0.00  0.00    +0.174 C 
BRANCH  50  51
ATOM     51  O   UNL     1      -2.019  -2.222   1.008  0.00  0.00    -0.348 OA
BRANCH  51  52
ATOM     52  C   UNL     1      -1.936  -1.972   2.388  0.00  0.00    +0.175 C 
BRANCH  52  54
ATOM     53  C   UNL     1      -3.353  -3.281   3.560  0.00  0.00    +0.038 C 
ATOM     54  C   UNL     1      -3.476  -1.790   2.963  0.00  0.00    +0.181 C 
ATOM     55  O   UNL     1      -2.986  -1.216   4.287  0.00  0.00    -0.220 OA
ENDBRANCH  52  54
ENDBRANCH  51  52
ENDBRANCH  50  51
ENDBRANCH  29  50
ENDBRANCH   1  33
TORSDOF 28
