REMARK  Name = 
REMARK  7 active torsions:
REMARK  status: ('A' for Active; 'I' for Inactive)
REMARK    1  A    between atoms: O_2  and  C_3
REMARK    2  A    between atoms: C_6  and  C_7
REMARK    3  A    between atoms: N_15  and  C_16
REMARK    4  A    between atoms: C_16  and  C_17
REMARK    5  A    between atoms: C_17  and  N_18
REMARK    6  A    between atoms: C_23  and  O_24
REMARK    7  A    between atoms: O_24  and  C_25
REMARK                            x       y       z     vdW  Elec       q    Type
REMARK                         _______ _______ _______ _____ _____    ______ ____
ROOT
ATOM      1  C   UNL     1       0.956  -0.628  -0.008  0.00  0.00    +0.123 C 
ATOM      2  C   UNL     1       0.591   0.276   1.369  0.00  0.00    +0.259 C 
ATOM      3  C   UNL     1      -0.830  -0.462   1.551  0.00  0.00    +0.271 C 
ATOM      4  O   UNL     1      -0.890  -0.937   2.726  0.00  0.00    -0.271 OA
ATOM      5  N   UNL     1      -2.017  -0.311   0.848  0.00  0.00    -0.254 N 
ATOM      6  C   UNL     1      -2.246   0.503  -0.308  0.00  0.00    +0.060 A 
ATOM      7  C   UNL     1      -1.349   0.757  -1.339  0.00  0.00    +0.039 A 
ATOM      8  C   UNL     1      -1.631   1.850  -2.150  0.00  0.00    +0.007 A 
ATOM      9  C   UNL     1      -2.615   2.775  -1.837  0.00  0.00    +0.001 A 
ATOM     10  C   UNL     1      -3.542   2.478  -0.877  0.00  0.00    +0.001 A 
ATOM     11  C   UNL     1      -3.422   1.242  -0.250  0.00  0.00    +0.015 A 
ATOM     12  S   UNL     1       0.411   0.465  -1.439  0.00  0.00    -0.105 S 
ENDROOT
BRANCH   1  16
ATOM     13  C   UNL     1       5.078  -1.158   0.227  0.00  0.00    +0.139 A 
ATOM     14  C   UNL     1       4.499  -1.042  -1.031  0.00  0.00    +0.037 A 
ATOM     15  C   UNL     1       3.177  -0.633  -1.167  0.00  0.00    -0.000 A 
ATOM     16  C   UNL     1       2.444  -0.193  -0.068  0.00  0.00    -0.008 A 
ATOM     17  C   UNL     1       3.174   0.014   1.064  0.00  0.00    -0.000 A 
ATOM     18  C   UNL     1       4.503  -0.365   1.211  0.00  0.00    +0.037 A 
BRANCH  13  20
ATOM     19  C   UNL     1       5.708  -2.983   0.930  0.00  0.00    +0.252 C 
ATOM     20  O   UNL     1       5.877  -2.260   0.552  0.00  0.00    -0.471 OA
ENDBRANCH  13  20
ENDBRANCH   1  16
BRANCH   2  21
ATOM     21  O   UNL     1       0.026   1.521   0.662  0.00  0.00    -0.441 OA
BRANCH  21  22
ATOM     22  C   UNL     1       0.774   2.649   0.902  0.00  0.00    +0.318 C 
ATOM     23  O   UNL     1       0.968   2.924   2.125  0.00  0.00    -0.250 OA
ATOM     24  C   UNL     1       1.130   3.595  -0.178  0.00  0.00    +0.121 C 
ENDBRANCH  21  22
ENDBRANCH   2  21
BRANCH   5  25
ATOM     25  C   UNL     1      -3.252  -0.557   1.591  0.00  0.00    +0.116 C 
BRANCH  25  26
ATOM     26  C   UNL     1      -3.899  -1.851   1.304  0.00  0.00    +0.094 C 
BRANCH  26  27
ATOM     27  N   UNL     1      -4.162  -2.133  -0.079  0.00  0.00    -0.269 NA
ATOM     28  C   UNL     1      -5.581  -1.980  -0.396  0.00  0.00    +0.090 C 
ATOM     29  C   UNL     1      -3.880  -3.558  -0.246  0.00  0.00    +0.090 C 
ENDBRANCH  26  27
ENDBRANCH  25  26
ENDBRANCH   5  25
TORSDOF 7
