REMARK  Name = 
REMARK  6 active torsions:
REMARK  status: ('A' for Active; 'I' for Inactive)
REMARK    1  A    between atoms: C_2  and  N_3
REMARK    2  A    between atoms: C_5  and  C_6
REMARK    3  A    between atoms: C_6  and  C_7
REMARK    4  A    between atoms: C_7  and  N_8
REMARK    5  A    between atoms: C_14  and  C_15
REMARK    6  A    between atoms: C_14  and  C_21
REMARK                            x       y       z     vdW  Elec       q    Type
REMARK                         _______ _______ _______ _____ _____    ______ ____
ROOT
ATOM      1  N   UNL     1      -1.041   0.645   2.224  0.00  0.00    -0.279 N 
ATOM      2  C   UNL     1      -1.793   0.603   1.025  0.00  0.00    +0.232 C 
ATOM      3  O   UNL     1      -2.980   1.016   0.859  0.00  0.00    -0.274 OA
ATOM      4  C   UNL     1      -1.012   0.029  -0.078  0.00  0.00    +0.108 C 
ATOM      5  C   UNL     1       0.515   0.228   0.490  0.00  0.00    +0.037 C 
ATOM      6  C   UNL     1       0.078  -0.240   2.011  0.00  0.00    +0.095 C 
ENDROOT
BRANCH   4   7
ATOM      7  C   UNL     1      -1.312  -1.333  -0.357  0.00  0.00    -0.011 A 
ATOM      8  C   UNL     1      -2.401  -1.935   0.267  0.00  0.00    -0.004 A 
ATOM      9  C   UNL     1      -3.145  -2.932  -0.352  0.00  0.00    -0.000 A 
ATOM     10  C   UNL     1      -2.423  -3.752  -1.210  0.00  0.00    -0.000 A 
ATOM     11  C   UNL     1      -1.252  -3.247  -1.762  0.00  0.00    -0.000 A 
ATOM     12  C   UNL     1      -0.988  -1.891  -1.590  0.00  0.00    -0.004 A 
ENDBRANCH   4   7
BRANCH   4  13
ATOM     13  C   UNL     1      -1.116   0.973  -1.238  0.00  0.00    -0.011 A 
ATOM     14  C   UNL     1      -2.395   1.051  -1.776  0.00  0.00    -0.004 A 
ATOM     15  C   UNL     1      -2.879   2.182  -2.404  0.00  0.00    -0.000 A 
ATOM     16  C   UNL     1      -2.318   3.398  -2.032  0.00  0.00    -0.000 A 
ATOM     17  C   UNL     1      -0.956   3.340  -1.764  0.00  0.00    -0.000 A 
ATOM     18  C   UNL     1      -0.413   2.174  -1.255  0.00  0.00    -0.004 A 
ENDBRANCH   4  13
BRANCH   1  20
ATOM     19  C   UNL     1      -1.258   1.593   4.459  0.00  0.00    +0.023 C 
ATOM     20  C   UNL     1      -1.757   0.567   3.496  0.00  0.00    +0.093 C 
ENDBRANCH   1  20
BRANCH   5  21
ATOM     21  C   UNL     1       1.024  -1.300   0.124  0.00  0.00    +0.020 C 
BRANCH  21  22
ATOM     22  C   UNL     1       2.466  -1.201  -0.240  0.00  0.00    +0.072 C 
BRANCH  22  23
ATOM     23  N   UNL     1       3.240  -0.318   0.590  0.00  0.00    -0.268 NA
ATOM     24  C   UNL     1       3.509   0.866  -0.149  0.00  0.00    +0.105 C 
ATOM     25  C   UNL     1       4.879   1.012  -0.702  0.00  0.00    +0.159 C 
ATOM     26  O   UNL     1       5.665  -0.121  -0.581  0.00  0.00    -0.351 OA
ATOM     27  C   UNL     1       5.698  -0.429   0.783  0.00  0.00    +0.159 C 
ATOM     28  C   UNL     1       4.367  -0.980   1.162  0.00  0.00    +0.105 C 
ENDBRANCH  22  23
ENDBRANCH  21  22
ENDBRANCH   5  21
TORSDOF 6
