REMARK  Name = 
REMARK  5 active torsions:
REMARK  status: ('A' for Active; 'I' for Inactive)
REMARK    1  A    between atoms: C_2  and  C_3
REMARK    2  A    between atoms: C_3  and  S_4
REMARK    3  A    between atoms: S_4  and  C_5
REMARK    4  A    between atoms: N_11  and  C_12
REMARK    5  A    between atoms: C_12  and  O_14
REMARK                            x       y       z     vdW  Elec       q    Type
REMARK                         _______ _______ _______ _____ _____    ______ ____
ROOT
ATOM      1  C   UNL     1       2.106  -1.097   0.467  0.00  0.00    +0.027 A 
ATOM      2  C   UNL     1       0.872  -1.381   1.021  0.00  0.00    +0.027 A 
ATOM      3  C   UNL     1      -0.282  -1.031   0.341  0.00  0.00    +0.102 A 
ATOM      4  C   UNL     1      -0.161  -0.922  -1.039  0.00  0.00    +0.102 A 
ATOM      5  N   UNL     1      -1.442  -0.824  -1.472  0.00  0.00    -0.211 NA
ATOM      6  C   UNL     1      -2.224  -0.533  -0.405  0.00  0.00    +0.246 A 
ATOM      7  N   UNL     1      -3.448  -0.105  -0.393  0.00  0.00    -0.106 NA
ATOM      8  C   UNL     1       1.083  -0.740  -1.615  0.00  0.00    +0.021 A 
ATOM      9  N   UNL     1      -1.467  -0.493   0.720  0.00  0.00    -0.211 NA
ATOM     10  C   UNL     1       2.202  -0.560  -0.812  0.00  0.00    +0.008 A 
ENDROOT
BRANCH   7  11
ATOM     11  C   UNL     1      -3.845   1.046   0.364  0.00  0.00    +0.428 C 
ATOM     12  O   UNL     1      -3.350   1.272   1.507  0.00  0.00    -0.224 OA
BRANCH  11  13
ATOM     13  O   UNL     1      -4.407   2.116  -0.324  0.00  0.00    -0.429 OA
ATOM     14  C   UNL     1      -4.125   3.473   0.006  0.00  0.00    +0.257 C 
ENDBRANCH  11  13
ENDBRANCH   7  11
BRANCH   1  15
ATOM     15  S   UNL     1       3.548  -1.771   1.303  0.00  0.00    -0.114 S 
BRANCH  15  16
ATOM     16  C   UNL     1       4.719  -0.383   1.479  0.00  0.00    +0.062 C 
BRANCH  16  18
ATOM     17  C   UNL     1       5.416   1.663   0.193  0.00  0.00    +0.001 C 
ATOM     18  C   UNL     1       4.806   0.269   0.105  0.00  0.00    +0.012 C 
ENDBRANCH  16  18
ENDBRANCH  15  16
ENDBRANCH   1  15
TORSDOF 5
