REMARK  Name = 
REMARK  6 active torsions:
REMARK  status: ('A' for Active; 'I' for Inactive)
REMARK    1  A    between atoms: C_2  and  O_4
REMARK    2  A    between atoms: O_4  and  C_5
REMARK    3  A    between atoms: N_12  and  C_13
REMARK    4  A    between atoms: C_13  and  C_14
REMARK    5  A    between atoms: C_13  and  C_19
REMARK    6  A    between atoms: C_14  and  C_16
REMARK                            x       y       z     vdW  Elec       q    Type
REMARK                         _______ _______ _______ _____ _____    ______ ____
ROOT
ATOM      1  C   UNL     1       4.008  -0.761   0.597  0.00  0.00    +0.178 A 
ATOM      2  S   UNL     1       3.424  -2.334   0.227  0.00  0.00    -0.055 S 
ATOM      3  C   UNL     1       1.760  -2.088   0.577  0.00  0.00    +0.009 A 
ATOM      4  C   UNL     1       0.460  -2.773   0.290  0.00  0.00    +0.050 C 
ATOM      5  C   UNL     1      -0.294  -1.814  -0.625  0.00  0.00    +0.078 C 
ATOM      6  N   UNL     1      -0.659  -0.670   0.212  0.00  0.00    -0.260 NA
ATOM      7  C   UNL     1       0.487   0.092   0.613  0.00  0.00    +0.100 C 
ATOM      8  C   UNL     1       1.735  -0.705   0.726  0.00  0.00    -0.000 A 
ATOM      9  C   UNL     1       2.920  -0.272   1.312  0.00  0.00    +0.042 A 
ENDROOT
BRANCH   1  10
ATOM     10  O   UNL     1       5.303  -0.231   0.526  0.00  0.00    -0.417 OA
BRANCH  10  12
ATOM     11  C   UNL     1       6.617   1.556  -0.032  0.00  0.00    +0.122 C 
ATOM     12  C   UNL     1       5.526   1.079   0.091  0.00  0.00    +0.323 C 
ATOM     13  O   UNL     1       4.511   1.815  -0.097  0.00  0.00    -0.250 OA
ENDBRANCH  10  12
ENDBRANCH   1  10
BRANCH   6  14
ATOM     14  C   UNL     1      -1.212   0.294  -0.955  0.00  0.00    +0.141 C 
BRANCH  14  15
ATOM     15  C   UNL     1      -2.267   1.050   0.063  0.00  0.00    +0.027 A 
ATOM     16  C   UNL     1      -3.149   1.861  -0.648  0.00  0.00    +0.138 A 
ATOM     17  F   UNL     1      -3.302   1.752  -1.997  0.00  0.00    -0.204 F 
ATOM     18  C   UNL     1      -3.861   2.787   0.102  0.00  0.00    +0.029 A 
ATOM     19  C   UNL     1      -3.642   2.905   1.468  0.00  0.00    +0.002 A 
ATOM     20  C   UNL     1      -2.433   2.429   1.958  0.00  0.00    -0.000 A 
ATOM     21  C   UNL     1      -1.638   1.663   1.123  0.00  0.00    -0.000 A 
ENDBRANCH  14  15
BRANCH  14  22
ATOM     22  C   UNL     1      -2.337  -0.818  -1.421  0.00  0.00    +0.169 C 
ATOM     23  O   UNL     1      -2.005  -1.356  -2.465  0.00  0.00    -0.294 OA
BRANCH  22  24
ATOM     24  C   UNL     1      -3.291  -1.288  -0.473  0.00  0.00    +0.059 C 
ATOM     25  C   UNL     1      -3.506  -2.666  -0.017  0.00  0.00    +0.008 C 
ATOM     26  C   UNL     1      -3.151  -1.508   0.957  0.00  0.00    +0.008 C 
ENDBRANCH  22  24
ENDBRANCH  14  22
ENDBRANCH   6  14
TORSDOF 6
