REMARK  Name = 
REMARK  3 active torsions:
REMARK  status: ('A' for Active; 'I' for Inactive)
REMARK    1  A    between atoms: C_2  and  C_3
REMARK    2  A    between atoms: C_25  and  C_26
REMARK    3  A    between atoms: C_26  and  N_27
REMARK                            x       y       z     vdW  Elec       q    Type
REMARK                         _______ _______ _______ _____ _____    ______ ____
ROOT
ATOM      1  C   UNL     1       4.676  -0.141  -0.887  0.00  0.00    +0.233 C 
ATOM      2  C   UNL     1       3.312  -0.366  -0.320  0.00  0.00    +0.021 A 
ATOM      3  C   UNL     1       2.253   0.460  -0.672  0.00  0.00    +0.017 A 
ATOM      4  C   UNL     1       1.149   0.453   0.164  0.00  0.00    +0.080 A 
ATOM      5  C   UNL     1      -0.219   0.947  -0.041  0.00  0.00    +0.095 A 
ATOM      6  C   UNL     1      -0.909   0.654   1.116  0.00  0.00    +0.020 A 
ATOM      7  C   UNL     1      -2.257   0.319   1.122  0.00  0.00    +0.000 A 
ATOM      8  C   UNL     1      -2.975   0.583  -0.032  0.00  0.00    +0.018 A 
ATOM      9  C   UNL     1      -4.362   0.535   0.029  0.00  0.00    +0.034 A 
ATOM     10  C   UNL     1      -5.106   1.039  -1.026  0.00  0.00    +0.193 A 
ATOM     11  O   UNL     1      -6.288   1.758  -0.825  0.00  0.00    -0.287 OA
ATOM     12  C   UNL     1      -4.428   1.286  -2.212  0.00  0.00    +0.043 A 
ATOM     13  C   UNL     1      -3.050   1.164  -2.314  0.00  0.00    +0.022 A 
ATOM     14  C   UNL     1      -2.301   1.038  -1.153  0.00  0.00    +0.081 A 
ATOM     15  C   UNL     1       0.115   0.304   2.148  0.00  0.00    +0.137 C 
ATOM     16  N   UNL     1      -0.963   1.235  -1.135  0.00  0.00    -0.244 NA
ATOM     17  N   UNL     1       1.189  -0.224   1.338  0.00  0.00    -0.290 N 
ATOM     18  C   UNL     1       2.114  -1.185   1.571  0.00  0.00    +0.260 A 
ATOM     19  O   UNL     1       1.857  -2.131   2.375  0.00  0.00    -0.267 OA
ATOM     20  C   UNL     1       3.179  -1.312   0.689  0.00  0.00    +0.076 A 
ATOM     21  C   UNL     1       3.924  -2.594   0.523  0.00  0.00    +0.240 C 
ATOM     22  O   UNL     1       5.259  -2.285   0.143  0.00  0.00    -0.441 OA
ATOM     23  C   UNL     1       5.652  -0.977  -0.153  0.00  0.00    +0.349 C 
ATOM     24  O   UNL     1       6.738  -0.509   0.306  0.00  0.00    -0.247 OA
ATOM     25  O   UNL     1       4.670  -0.412  -2.261  0.00  0.00    -0.210 OA
ENDROOT
BRANCH   1  27
ATOM     26  C   UNL     1       4.180   2.245  -1.161  0.00  0.00    +0.004 C 
ATOM     27  C   UNL     1       5.113   1.308  -0.711  0.00  0.00    +0.046 C 
ENDBRANCH   1  27
BRANCH   9  28
ATOM     28  C   UNL     1      -4.999   0.442   1.377  0.00  0.00    +0.102 C 
BRANCH  28  29
ATOM     29  N   UNL     1      -5.686  -0.809   1.574  0.00  0.00    -0.266 NA
ATOM     30  C   UNL     1      -6.969  -0.860   0.920  0.00  0.00    +0.090 C 
ATOM     31  C   UNL     1      -4.865  -1.963   1.305  0.00  0.00    +0.090 C 
ENDBRANCH  28  29
ENDBRANCH   9  28
TORSDOF 3
