REMARK  Name = 
REMARK  0 active torsions:
REMARK  status: ('A' for Active; 'I' for Inactive)
REMARK                            x       y       z     vdW  Elec       q    Type
REMARK                         _______ _______ _______ _____ _____    ______ ____
ROOT
ATOM      1 CL   UNL     1       4.763  -2.537   0.733  0.00  0.00    -0.082 Cl
ATOM      2  C   UNL     1       3.303  -1.844   0.077  0.00  0.00    +0.057 A 
ATOM      3  C   UNL     1       3.277  -0.642  -0.619  0.00  0.00    +0.007 A 
ATOM      4  C   UNL     1       2.095   0.060  -0.830  0.00  0.00    -0.021 A 
ATOM      5  C   UNL     1       2.411   1.501  -0.887  0.00  0.00    +0.031 C 
ATOM      6  C   UNL     1       1.300   2.351  -1.428  0.00  0.00    +0.033 C 
ATOM      7  C   UNL     1       0.135   2.421  -0.490  0.00  0.00    -0.004 A 
ATOM      8  C   UNL     1      -0.744   1.376  -0.232  0.00  0.00    +0.077 A 
ATOM      9  C   UNL     1      -0.389  -0.047  -0.307  0.00  0.00    +0.009 C 
ATOM     10  C   UNL     1      -1.401  -0.863  -0.037  0.00  0.00    -0.040 C 
ATOM     11  C   UNL     1      -2.181  -1.380  -1.175  0.00  0.00    +0.041 C 
ATOM     12  C   UNL     1      -3.196  -2.353  -0.632  0.00  0.00    +0.093 C 
ATOM     13  N   UNL     1      -3.846  -1.707   0.491  0.00  0.00    -0.217 NA
ATOM     14  C   UNL     1      -2.970  -1.788   1.657  0.00  0.00    +0.093 C 
ATOM     15  C   UNL     1      -1.600  -1.242   1.372  0.00  0.00    +0.041 C 
ATOM     16  N   UNL     1      -1.854   1.601   0.512  0.00  0.00    -0.244 NA
ATOM     17  C   UNL     1      -2.074   2.831   1.035  0.00  0.00    +0.099 A 
ATOM     18  C   UNL     1      -1.020   3.736   1.065  0.00  0.00    +0.020 A 
ATOM     19  C   UNL     1      -0.003   3.663   0.119  0.00  0.00    -0.001 A 
ATOM     20  C   UNL     1       0.932  -0.643  -0.538  0.00  0.00    -0.003 A 
ATOM     21  C   UNL     1       0.940  -1.966  -0.174  0.00  0.00    +0.001 A 
ATOM     22  C   UNL     1       2.120  -2.528   0.289  0.00  0.00    +0.011 A 
ENDROOT
TORSDOF 0
