REMARK  Name = 
REMARK  3 active torsions:
REMARK  status: ('A' for Active; 'I' for Inactive)
REMARK    1  A    between atoms: C_4  and  C_5
REMARK    2  A    between atoms: C_12  and  C_13
REMARK    3  A    between atoms: C_13  and  C_14
REMARK                            x       y       z     vdW  Elec       q    Type
REMARK                         _______ _______ _______ _____ _____    ______ ____
ROOT
ATOM      1  C   UNL     1       0.460  -2.577  -1.080  0.00  0.00    +0.031 C 
ATOM      2  C   UNL     1      -0.189  -1.437  -0.381  0.00  0.00    -0.026 A 
ATOM      3  C   UNL     1       0.393  -0.888   0.749  0.00  0.00    -0.018 A 
ATOM      4  C   UNL     1      -0.411  -0.281   1.705  0.00  0.00    -0.026 A 
ATOM      5  C   UNL     1       0.055  -0.137   3.110  0.00  0.00    +0.031 C 
ATOM      6  C   UNL     1      -1.640   0.217   1.297  0.00  0.00    -0.009 A 
ATOM      7  C   UNL     1      -2.086  -0.005   0.003  0.00  0.00    -0.023 A 
ATOM      8  C   UNL     1      -1.488  -1.048  -0.688  0.00  0.00    -0.009 A 
ENDROOT
BRANCH   7   9
ATOM      9  C   UNL     1      -3.131   0.841  -0.608  0.00  0.00    +0.019 C 
ATOM     10  C   UNL     1      -4.471   0.141  -0.493  0.00  0.00    +0.004 C 
ATOM     11  C   UNL     1      -3.258   2.174   0.101  0.00  0.00    +0.004 C 
ATOM     12  C   UNL     1      -2.796   1.036  -2.068  0.00  0.00    +0.004 C 
ENDBRANCH   7   9
BRANCH   3  13
ATOM     13  C   UNL     1       1.846  -1.003   0.960  0.00  0.00    +0.146 C 
BRANCH  13  14
ATOM     14  C   UNL     1       2.574   0.059   0.199  0.00  0.00    +0.336 C 
ATOM     15  N   UNL     1       2.389   0.434  -1.171  0.00  0.00    -0.030 NA
ATOM     16  C   UNL     1       3.704   0.689  -1.756  0.00  0.00    +0.308 C 
ATOM     17  C   UNL     1       4.495   0.979  -0.484  0.00  0.00    +0.318 C 
ATOM     18  N   UNL     1       3.554   0.806   0.606  0.00  0.00    -0.061 NA
ENDBRANCH  13  14
ENDBRANCH   3  13
TORSDOF 3
