REMARK  Name = 
REMARK  5 active torsions:
REMARK  status: ('A' for Active; 'I' for Inactive)
REMARK    1  A    between atoms: O_2  and  C_3
REMARK    2  A    between atoms: C_22  and  C_24
REMARK    3  A    between atoms: C_24  and  C_26
REMARK    4  A    between atoms: C_29  and  O_30
REMARK    5  A    between atoms: O_30  and  C_31
REMARK                            x       y       z     vdW  Elec       q    Type
REMARK                         _______ _______ _______ _____ _____    ______ ____
ROOT
ATOM      1  C   UNL     1       4.877   1.042  -1.978  0.00  0.00    +0.142 A 
ATOM      2  C   UNL     1       4.004   0.479  -1.107  0.00  0.00    +0.076 A 
ATOM      3  C   UNL     1       2.559   0.494  -1.371  0.00  0.00    +0.202 C 
ATOM      4  C   UNL     1       1.615   0.520  -0.256  0.00  0.00    +0.084 A 
ATOM      5  C   UNL     1       2.120   0.135   0.980  0.00  0.00    +0.084 A 
ATOM      6  C   UNL     1       3.503  -0.334   1.141  0.00  0.00    +0.199 C 
ATOM      7  O   UNL     1       3.890  -0.758   2.259  0.00  0.00    -0.286 OA
ATOM      8  C   UNL     1       1.236   0.243   2.049  0.00  0.00    +0.195 A 
ATOM      9  O   UNL     1       1.737  -0.230   3.263  0.00  0.00    -0.287 OA
ATOM     10  C   UNL     1      -0.130   0.429   1.827  0.00  0.00    +0.021 A 
ATOM     11  C   UNL     1      -1.004  -0.270   2.833  0.00  0.00    +0.067 C 
ATOM     12  C   UNL     1      -1.406  -1.504   2.045  0.00  0.00    +0.186 C 
ATOM     13  C   UNL     1      -2.413  -1.296   1.015  0.00  0.00    +0.072 C 
ATOM     14  C   UNL     1      -2.156   0.221   0.319  0.00  0.00    +0.146 C 
ATOM     15  O   UNL     1      -0.299  -2.156   1.505  0.00  0.00    -0.218 OA
ATOM     16  C   UNL     1      -0.520   0.129   0.517  0.00  0.00    +0.043 A 
ATOM     17  C   UNL     1       0.243   0.678  -0.454  0.00  0.00    +0.197 A 
ATOM     18  O   UNL     1      -0.179   0.639  -1.754  0.00  0.00    -0.287 OA
ATOM     19  O   UNL     1       2.165   0.844  -2.499  0.00  0.00    -0.286 OA
ATOM     20  C   UNL     1       4.482   0.114   0.140  0.00  0.00    +0.045 A 
ATOM     21  C   UNL     1       5.793   0.370   0.489  0.00  0.00    +0.003 A 
ATOM     22  C   UNL     1       6.578   1.239  -0.260  0.00  0.00    +0.003 A 
ATOM     23  C   UNL     1       6.154   1.418  -1.571  0.00  0.00    +0.037 A 
ENDROOT
BRANCH   1  25
ATOM     24  C   UNL     1       4.777   0.249  -4.031  0.00  0.00    +0.252 C 
ATOM     25  O   UNL     1       4.564   0.924  -3.335  0.00  0.00    -0.471 OA
ENDBRANCH   1  25
BRANCH  12  26
ATOM     26  C   UNL     1      -1.966  -2.466   3.048  0.00  0.00    +0.211 C 
ATOM     27  O   UNL     1      -2.495  -3.453   2.539  0.00  0.00    -0.291 OA
BRANCH  26  28
ATOM     28  C   UNL     1      -0.988  -2.828   4.128  0.00  0.00    +0.248 C 
ATOM     29  O   UNL     1      -1.618  -3.124   5.332  0.00  0.00    -0.212 OA
ENDBRANCH  26  28
ENDBRANCH  12  26
BRANCH  14  30
ATOM     30  O   UNL     1      -2.063  -0.403  -1.088  0.00  0.00    -0.328 OA
BRANCH  30  31
ATOM     31  C   UNL     1      -3.377   0.140  -1.738  0.00  0.00    +0.237 C 
ATOM     32  O   UNL     1      -3.242   1.565  -1.110  0.00  0.00    -0.330 OA
ATOM     33  C   UNL     1      -4.250   2.299  -2.007  0.00  0.00    +0.150 C 
ATOM     34  C   UNL     1      -4.328   1.224  -3.269  0.00  0.00    +0.035 C 
ATOM     35  C   UNL     1      -5.691   1.847  -1.130  0.00  0.00    +0.196 C 
ATOM     36  O   UNL     1      -6.529   1.939  -2.414  0.00  0.00    -0.219 OA
ATOM     37  C   UNL     1      -5.813   0.114  -1.083  0.00  0.00    +0.130 C 
ATOM     38  N   UNL     1      -5.484  -0.247  -2.585  0.00  0.00    -0.130 NA
ATOM     39  C   UNL     1      -4.343  -0.228  -0.391  0.00  0.00    +0.083 C 
ENDBRANCH  30  31
ENDBRANCH  14  30
TORSDOF 5
