REMARK  Name = 
REMARK  0 active torsions:
REMARK  status: ('A' for Active; 'I' for Inactive)
REMARK                            x       y       z     vdW  Elec       q    Type
REMARK                         _______ _______ _______ _____ _____    ______ ____
ROOT
ATOM      1  C   UNL     1       2.890  -1.404   1.364  0.00  0.00    +0.044 C 
ATOM      2  C   UNL     1       2.337   0.098   1.156  0.00  0.00    +0.163 C 
ATOM      3  S   UNL     1       2.741   0.093  -0.734  0.00  0.00    -0.109 S 
ATOM      4  C   UNL     1       1.191   1.032  -0.968  0.00  0.00    +0.088 C 
ATOM      5  C   UNL     1       0.354   0.256  -0.024  0.00  0.00    +0.118 C 
ATOM      6  C   UNL     1      -0.842   1.137   0.328  0.00  0.00    +0.030 C 
ATOM      7  C   UNL     1      -1.801   0.401   1.229  0.00  0.00    +0.020 C 
ATOM      8  C   UNL     1      -2.069  -0.976   0.687  0.00  0.00    +0.072 C 
ATOM      9  N   UNL     1      -1.665  -0.983  -0.709  0.00  0.00    -0.271 NA
ATOM     10  C   UNL     1      -2.247   0.139  -1.442  0.00  0.00    +0.072 C 
ATOM     11  C   UNL     1      -1.597   1.423  -0.965  0.00  0.00    +0.020 C 
ATOM     12  C   UNL     1      -0.245  -0.865  -0.884  0.00  0.00    +0.100 C 
ATOM     13  O   UNL     1       0.952  -0.350   0.963  0.00  0.00    -0.348 OA
ENDROOT
TORSDOF 0
