REMARK  Name = 
REMARK  4 active torsions:
REMARK  status: ('A' for Active; 'I' for Inactive)
REMARK    1  A    between atoms: O_2  and  C_3
REMARK    2  A    between atoms: C_8  and  O_9
REMARK    3  A    between atoms: C_15  and  C_16
REMARK    4  A    between atoms: C_16  and  C_17
REMARK                            x       y       z     vdW  Elec       q    Type
REMARK                         _______ _______ _______ _____ _____    ______ ____
ROOT
ATOM      1  C   UNL     1      -3.661  -0.482   0.071  0.00  0.00    +0.172 A 
ATOM      2  C   UNL     1      -2.914   0.151   1.063  0.00  0.00    +0.172 A 
ATOM      3  C   UNL     1      -1.532  -0.049   1.015  0.00  0.00    +0.037 A 
ATOM      4  C   UNL     1      -1.058  -0.966   0.125  0.00  0.00    -0.008 A 
ATOM      5  C   UNL     1       0.490  -0.918  -0.318  0.00  0.00    +0.087 C 
ATOM      6  N   UNL     1       0.397   0.602  -0.716  0.00  0.00    -0.269 NA
ATOM      7  C   UNL     1       0.013   0.520  -2.075  0.00  0.00    +0.077 C 
ATOM      8  C   UNL     1      -0.905  -0.669  -2.360  0.00  0.00    +0.044 C 
ATOM      9  C   UNL     1       1.565   1.249  -0.345  0.00  0.00    +0.080 C 
ATOM     10  C   UNL     1       2.847   0.260  -0.546  0.00  0.00    +0.074 C 
ATOM     11  C   UNL     1       2.501  -0.643   0.743  0.00  0.00    +0.153 C 
ATOM     12  O   UNL     1       2.855  -1.785   0.433  0.00  0.00    -0.296 OA
ATOM     13  C   UNL     1       1.059  -0.559   1.185  0.00  0.00    +0.085 C 
ATOM     14  C   UNL     1      -1.684  -1.035  -1.126  0.00  0.00    -0.020 A 
ATOM     15  C   UNL     1      -3.067  -0.996  -1.080  0.00  0.00    +0.036 A 
ENDROOT
BRANCH   1  17
ATOM     16  C   UNL     1      -5.607  -1.806   0.125  0.00  0.00    +0.253 C 
ATOM     17  O   UNL     1      -5.011  -0.721   0.359  0.00  0.00    -0.468 OA
ENDBRANCH   1  17
BRANCH   2  18
ATOM     18  O   UNL     1      -3.469   1.352   1.526  0.00  0.00    -0.468 OA
ATOM     19  C   UNL     1      -3.354   2.572   0.795  0.00  0.00    +0.253 C 
ENDBRANCH   2  18
BRANCH  10  20
ATOM     20  C   UNL     1       3.826   1.225   0.338  0.00  0.00    +0.009 C 
BRANCH  20  21
ATOM     21  C   UNL     1       5.218   0.708   0.066  0.00  0.00    +0.000 C 
ATOM     22  C   UNL     1       5.263   0.207  -1.350  0.00  0.00    +0.000 C 
ATOM     23  C   UNL     1       6.230   1.783   0.341  0.00  0.00    +0.000 C 
ENDBRANCH  20  21
ENDBRANCH  10  20
TORSDOF 4
