REMARK  Name = 
REMARK  4 active torsions:
REMARK  status: ('A' for Active; 'I' for Inactive)
REMARK    1  A    between atoms: C_2  and  O_4
REMARK    2  A    between atoms: O_4  and  C_5
REMARK    3  A    between atoms: C_5  and  C_6
REMARK    4  A    between atoms: C_6  and  C_8
REMARK                            x       y       z     vdW  Elec       q    Type
REMARK                         _______ _______ _______ _____ _____    ______ ____
ROOT
ATOM      1  C   UNL     1      -2.388  -0.702   0.042  0.00  0.00    +0.174 C 
ATOM      2  C   UNL     1      -1.099  -0.240   0.408  0.00  0.00    +0.034 C 
ATOM      3  C   UNL     1      -0.272  -0.642  -0.916  0.00  0.00    +0.008 C 
ATOM      4  C   UNL     1       0.908   0.466  -0.425  0.00  0.00    +0.036 C 
ATOM      5  C   UNL     1       1.845  -0.720   0.071  0.00  0.00    +0.168 C 
ATOM      6  C   UNL     1       0.963  -1.653   1.063  0.00  0.00    +0.182 C 
ATOM      7  O   UNL     1       1.771  -1.242   2.288  0.00  0.00    -0.220 OA
ATOM      8  F   UNL     1       2.014  -1.633  -0.964  0.00  0.00    -0.237 F 
ATOM      9  C   UNL     1       3.120  -0.286   0.479  0.00  0.00    +0.066 C 
ATOM     10  C   UNL     1       3.662   0.410  -0.754  0.00  0.00    -0.003 C 
ATOM     11  C   UNL     1       4.853   1.003  -0.605  0.00  0.00    +0.036 C 
ATOM     12  C   UNL     1       5.814   0.278   0.236  0.00  0.00    +0.195 C 
ATOM     13  C   UNL     1       5.369  -1.040   0.626  0.00  0.00    +0.038 C 
ATOM     14  O   UNL     1       6.945   0.761   0.395  0.00  0.00    -0.287 OA
ATOM     15  C   UNL     1       2.709   1.630  -1.253  0.00  0.00    +0.180 C 
ATOM     16  F   UNL     1       3.426   1.755  -2.575  0.00  0.00    -0.233 F 
ATOM     17  C   UNL     1       3.326   0.661   1.599  0.00  0.00    +0.011 C 
ATOM     18  C   UNL     1       4.098  -1.426   0.549  0.00  0.00    -0.017 C 
ATOM     19  C   UNL     1       1.605   0.568  -1.886  0.00  0.00    +0.042 C 
ATOM     20  C   UNL     1      -1.143   0.437  -1.736  0.00  0.00    +0.033 C 
ATOM     21  C   UNL     1      -1.178   1.295   0.449  0.00  0.00    +0.003 C 
ATOM     22  C   UNL     1      -0.239  -0.594   1.450  0.00  0.00    +0.038 C 
ATOM     23  C   UNL     1      -2.564  -0.389  -1.560  0.00  0.00    +0.149 C 
ATOM     24  O   UNL     1      -1.942  -1.710  -1.968  0.00  0.00    -0.334 OA
ATOM     25  C   UNL     1      -2.628  -2.588  -1.137  0.00  0.00    +0.188 C 
ATOM     26  C   UNL     1      -1.936  -3.906  -1.166  0.00  0.00    +0.061 C 
ATOM     27  C   UNL     1      -4.053  -2.628  -1.673  0.00  0.00    +0.061 C 
ATOM     28  O   UNL     1      -2.731  -2.016   0.111  0.00  0.00    -0.330 OA
ENDROOT
BRANCH   1  29
ATOM     29  C   UNL     1      -3.470   0.190   0.583  0.00  0.00    +0.221 C 
ATOM     30  O   UNL     1      -4.040  -0.293   1.553  0.00  0.00    -0.290 OA
BRANCH  29  31
ATOM     31  C   UNL     1      -4.196   1.222  -0.179  0.00  0.00    +0.275 C 
BRANCH  31  32
ATOM     32  O   UNL     1      -3.905   2.533   0.207  0.00  0.00    -0.440 OA
BRANCH  32  34
ATOM     33  C   UNL     1      -4.713   4.713   1.089  0.00  0.00    +0.121 C 
ATOM     34  C   UNL     1      -4.678   3.256   1.120  0.00  0.00    +0.318 C 
ATOM     35  O   UNL     1      -5.252   2.531   1.964  0.00  0.00    -0.250 OA
ENDBRANCH  32  34
ENDBRANCH  31  32
ENDBRANCH  29  31
ENDBRANCH   1  29
TORSDOF 4
