REMARK  Name = 
REMARK  8 active torsions:
REMARK  status: ('A' for Active; 'I' for Inactive)
REMARK    1  A    between atoms: O_2  and  C_3
REMARK    2  A    between atoms: C_8  and  O_9
REMARK    3  A    between atoms: C_13  and  O_14
REMARK    4  A    between atoms: O_14  and  C_15
REMARK    5  A    between atoms: C_15  and  C_17
REMARK    6  A    between atoms: C_17  and  C_19
REMARK    7  A    between atoms: C_22  and  C_23
REMARK    8  A    between atoms: C_23  and  C_24
REMARK                            x       y       z     vdW  Elec       q    Type
REMARK                         _______ _______ _______ _____ _____    ______ ____
ROOT
ATOM      1  C   UNL     1      -4.358   0.292  -0.596  0.00  0.00    +0.172 A 
ATOM      2  C   UNL     1      -3.397   0.233  -1.598  0.00  0.00    +0.172 A 
ATOM      3  C   UNL     1      -2.091  -0.147  -1.304  0.00  0.00    +0.037 A 
ATOM      4  C   UNL     1      -1.740  -0.264   0.042  0.00  0.00    -0.008 A 
ATOM      5  C   UNL     1      -0.568  -1.379   0.278  0.00  0.00    +0.084 C 
ATOM      6  N   UNL     1      -0.224  -0.795   1.712  0.00  0.00    -0.270 NA
ATOM      7  C   UNL     1      -1.222  -1.310   2.552  0.00  0.00    +0.077 C 
ATOM      8  C   UNL     1      -2.520  -1.682   1.941  0.00  0.00    +0.043 C 
ATOM      9  C   UNL     1      -0.055   0.569   1.671  0.00  0.00    +0.076 C 
ATOM     10  C   UNL     1       1.420   0.995   1.145  0.00  0.00    +0.056 C 
ATOM     11  C   UNL     1       1.794  -0.607   0.628  0.00  0.00    +0.172 C 
ATOM     12  C   UNL     1       0.588  -0.476  -0.495  0.00  0.00    +0.064 C 
ATOM     13  C   UNL     1      -2.799  -0.721   0.828  0.00  0.00    -0.020 A 
ATOM     14  C   UNL     1      -4.121  -0.397   0.559  0.00  0.00    +0.036 A 
ENDROOT
BRANCH   1  16
ATOM     15  C   UNL     1      -5.932   1.448  -0.536  0.00  0.00    +0.253 C 
ATOM     16  O   UNL     1      -5.496   1.080  -0.688  0.00  0.00    -0.468 OA
ENDBRANCH   1  16
BRANCH   2  17
ATOM     17  O   UNL     1      -3.800   0.655  -2.848  0.00  0.00    -0.468 OA
ATOM     18  C   UNL     1      -3.548  -0.067  -4.024  0.00  0.00    +0.253 C 
ENDBRANCH   2  17
BRANCH  10  19
ATOM     19  C   UNL     1       2.221   0.851   2.549  0.00  0.00    +0.005 C 
BRANCH  19  20
ATOM     20  C   UNL     1       1.518   0.025   3.511  0.00  0.00    +0.000 C 
ATOM     21  C   UNL     1       1.103   0.878   4.705  0.00  0.00    +0.000 C 
ATOM     22  C   UNL     1       2.431  -1.053   4.075  0.00  0.00    +0.000 C 
ENDBRANCH  19  20
ENDBRANCH  10  19
BRANCH  11  23
ATOM     23  O   UNL     1       2.930  -0.099  -0.266  0.00  0.00    -0.451 OA
BRANCH  23  24
ATOM     24  C   UNL     1       2.832  -0.055  -1.588  0.00  0.00    +0.334 C 
ATOM     25  O   UNL     1       1.732  -0.051  -2.132  0.00  0.00    -0.249 OA
BRANCH  24  26
ATOM     26  C   UNL     1       4.059  -0.647  -2.477  0.00  0.00    +0.190 C 
ATOM     27  N   UNL     1       3.764   0.364  -3.670  0.00  0.00    -0.121 NA
BRANCH  26  28
ATOM     28  C   UNL     1       5.173   0.382  -1.811  0.00  0.00    +0.029 C 
ATOM     29  C   UNL     1       5.804  -0.362  -0.689  0.00  0.00    +0.002 C 
ATOM     30  C   UNL     1       4.498   1.649  -1.474  0.00  0.00    +0.002 C 
ENDBRANCH  26  28
ENDBRANCH  24  26
ENDBRANCH  23  24
ENDBRANCH  11  23
TORSDOF 8
