REMARK  Name = 
REMARK  5 active torsions:
REMARK  status: ('A' for Active; 'I' for Inactive)
REMARK    1  A    between atoms: C_2  and  C_3
REMARK    2  A    between atoms: C_2  and  C_11
REMARK    3  A    between atoms: C_4  and  C_5
REMARK    4  A    between atoms: C_5  and  C_7
REMARK    5  A    between atoms: C_16  and  C_17
REMARK                            x       y       z     vdW  Elec       q    Type
REMARK                         _______ _______ _______ _____ _____    ______ ____
ROOT
ATOM      1  C   UNL     1       1.498   1.629   0.202  0.00  0.00    +0.004 C 
ATOM      2  C   UNL     1       0.305   1.030   1.124  0.00  0.00    +0.004 C 
ATOM      3  C   UNL     1      -0.761   1.884   0.196  0.00  0.00    +0.018 C 
ATOM      4  C   UNL     1      -2.027   1.011   0.736  0.00  0.00    -0.045 C 
ATOM      5  C   UNL     1      -2.225   1.314   2.190  0.00  0.00    +0.022 C 
ATOM      6  C   UNL     1      -1.023   1.054   3.037  0.00  0.00    +0.004 C 
ATOM      7  C   UNL     1      -3.132   1.294   0.025  0.00  0.00    -0.009 C 
ATOM      8  C   UNL     1      -0.475   0.851  -1.059  0.00  0.00    +0.004 C 
ATOM      9  C   UNL     1       0.116  -0.383   0.859  0.00  0.00    +0.000 C 
ATOM     10  C   UNL     1       0.267   1.606   2.439  0.00  0.00    +0.001 C 
ATOM     11  C   UNL     1       1.005   0.716  -1.054  0.00  0.00    +0.001 C 
ENDROOT
BRANCH   7  12
ATOM     12  C   UNL     1      -4.401   0.738   0.506  0.00  0.00    -0.009 C 
ATOM     13  C   UNL     1      -5.113  -0.027  -0.309  0.00  0.00    -0.039 C 
ATOM     14  C   UNL     1      -4.751  -0.092  -1.716  0.00  0.00    +0.055 C 
ATOM     15  C   UNL     1      -4.291  -1.681  -2.009  0.00  0.00    +0.159 C 
ATOM     16  O   UNL     1      -3.823  -1.976  -0.562  0.00  0.00    -0.223 OA
ATOM     17  C   UNL     1      -5.864  -2.214  -1.812  0.00  0.00    +0.066 C 
ATOM     18  C   UNL     1      -5.974  -2.352  -0.153  0.00  0.00    +0.159 C 
ATOM     19  O   UNL     1      -7.464  -2.726  -0.271  0.00  0.00    -0.223 OA
ATOM     20  C   UNL     1      -6.355  -0.730   0.058  0.00  0.00    +0.055 C 
ENDBRANCH   7  12
BRANCH   1  22
ATOM     21  C   UNL     1       2.979   1.403   2.044  0.00  0.00    +0.005 C 
ATOM     22  C   UNL     1       2.598   0.434   0.776  0.00  0.00    +0.022 C 
BRANCH  22  23
ATOM     23  C   UNL     1       3.853   0.951  -0.099  0.00  0.00    -0.031 C 
ATOM     24  C   UNL     1       4.704   0.010  -0.503  0.00  0.00    -0.029 C 
BRANCH  24  25
ATOM     25  C   UNL     1       6.134  -0.032   0.277  0.00  0.00    +0.050 C 
ATOM     26  C   UNL     1       6.716   1.283  -0.543  0.00  0.00    +0.007 C 
BRANCH  25  27
ATOM     27  C   UNL     1       6.763  -1.102  -0.817  0.00  0.00    +0.130 C 
ATOM     28  O   UNL     1       6.058  -2.232  -0.475  0.00  0.00    -0.225 OA
ATOM     29  C   UNL     1       8.205  -1.111  -0.438  0.00  0.00    +0.033 C 
ATOM     30  C   UNL     1       6.477  -0.548  -2.163  0.00  0.00    +0.033 C 
ENDBRANCH  25  27
ENDBRANCH  24  25
ENDBRANCH  22  23
ENDBRANCH   1  22
TORSDOF 5
