REMARK  Name = 
REMARK  12 active torsions:
REMARK  status: ('A' for Active; 'I' for Inactive)
REMARK    1  A    between atoms: C_2  and  C_4
REMARK    2  A    between atoms: C_5  and  C_6
REMARK    3  A    between atoms: N_8  and  C_9
REMARK    4  A    between atoms: C_15  and  C_16
REMARK    5  A    between atoms: C_22  and  C_23
REMARK    6  A    between atoms: N_30  and  C_31
REMARK    7  A    between atoms: C_31  and  C_32
REMARK    8  A    between atoms: C_32  and  C_33
REMARK    9  A    between atoms: C_33  and  C_35
REMARK   10  A    between atoms: C_35  and  C_36
REMARK   11  A    between atoms: C_36  and  C_38
REMARK   12  A    between atoms: C_38  and  C_39
REMARK                            x       y       z     vdW  Elec       q    Type
REMARK                         _______ _______ _______ _____ _____    ______ ____
ROOT
ATOM      1  C   UNL     1       0.530   0.856   0.238  0.00  0.00    +0.041 A 
ATOM      2  N   UNL     1       0.930  -0.339   0.739  0.00  0.00    -0.330 N 
ATOM      3  C   UNL     1      -0.158  -1.146   0.772  0.00  0.00    +0.060 A 
ATOM      4  C   UNL     1      -1.304  -0.390   0.549  0.00  0.00    +0.021 A 
ATOM      5  C   UNL     1      -0.844   0.918   0.440  0.00  0.00    +0.068 A 
ENDROOT
BRANCH   3   6
ATOM      6  C   UNL     1      -0.013  -2.605   0.718  0.00  0.00    +0.016 A 
ATOM      7  C   UNL     1      -0.198  -3.415   1.826  0.00  0.00    +0.004 A 
ATOM      8  C   UNL     1      -0.697  -4.703   1.663  0.00  0.00    +0.030 A 
ATOM      9  C   UNL     1      -0.894  -5.203   0.399  0.00  0.00    +0.140 A 
ATOM     10  F   UNL     1      -1.874  -6.105   0.098  0.00  0.00    -0.204 F 
ATOM     11  C   UNL     1      -0.149  -4.611  -0.613  0.00  0.00    +0.030 A 
ATOM     12  C   UNL     1       0.221  -3.280  -0.472  0.00  0.00    +0.004 A 
ENDBRANCH   3   6
BRANCH   4  13
ATOM     13  C   UNL     1      -2.587  -0.911   0.062  0.00  0.00    +0.002 A 
ATOM     14  C   UNL     1      -2.583  -1.624  -1.131  0.00  0.00    +0.000 A 
ATOM     15  C   UNL     1      -3.666  -2.439  -1.440  0.00  0.00    +0.000 A 
ATOM     16  C   UNL     1      -4.899  -1.926  -1.054  0.00  0.00    +0.000 A 
ATOM     17  C   UNL     1      -4.927  -1.167   0.109  0.00  0.00    +0.000 A 
ATOM     18  C   UNL     1      -3.745  -0.894   0.780  0.00  0.00    +0.000 A 
ENDBRANCH   4  13
BRANCH   1  20
ATOM     19  C   UNL     1       1.259   2.210  -0.490  0.00  0.00    +0.006 C 
ATOM     20  C   UNL     1       1.336   1.844  -0.536  0.00  0.00    +0.038 C 
ATOM     21  C   UNL     1       1.421   1.385  -1.978  0.00  0.00    +0.006 C 
ENDBRANCH   1  20
BRANCH   5  22
ATOM     22  C   UNL     1      -1.681   2.113   0.274  0.00  0.00    +0.270 C 
ATOM     23  N   UNL     1      -2.951   2.219   0.930  0.00  0.00    -0.175 NA
ATOM     24  O   UNL     1      -1.082   3.226   0.153  0.00  0.00    -0.268 OA
BRANCH  23  25
ATOM     25  C   UNL     1      -3.749   3.349   0.554  0.00  0.00    +0.074 A 
ATOM     26  C   UNL     1      -3.585   3.956  -0.686  0.00  0.00    +0.017 A 
ATOM     27  C   UNL     1      -4.704   4.442  -1.352  0.00  0.00    +0.001 A 
ATOM     28  C   UNL     1      -5.928   4.503  -0.698  0.00  0.00    +0.000 A 
ATOM     29  C   UNL     1      -5.891   4.390   0.684  0.00  0.00    +0.001 A 
ATOM     30  C   UNL     1      -4.805   3.801   1.316  0.00  0.00    +0.017 A 
ENDBRANCH  23  25
ENDBRANCH   5  22
BRANCH   2  31
ATOM     31  C   UNL     1       2.246  -0.537   1.290  0.00  0.00    +0.108 C 
BRANCH  31  32
ATOM     32  C   UNL     1       2.873  -1.845   0.914  0.00  0.00    +0.057 C 
BRANCH  32  33
ATOM     33  C   UNL     1       3.779  -1.377  -0.410  0.00  0.00    +0.156 C 
ATOM     34  O   UNL     1       4.287  -2.813  -0.616  0.00  0.00    -0.223 OA
BRANCH  33  35
ATOM     35  C   UNL     1       5.098  -0.990   0.544  0.00  0.00    +0.066 C 
BRANCH  35  36
ATOM     36  C   UNL     1       5.628   0.182  -0.527  0.00  0.00    +0.166 C 
ATOM     37  O   UNL     1       4.490   1.126  -0.104  0.00  0.00    -0.222 OA
BRANCH  36  38
ATOM     38  C   UNL     1       6.658   0.849   0.607  0.00  0.00    +0.147 C 
BRANCH  38  39
ATOM     39  C   UNL     1       7.285   1.947  -0.173  0.00  0.00    +0.367 C 
ATOM     40  O   UNL     1       7.229   3.276   0.250  0.00  0.00    -0.246 OA
ATOM     41  O   UNL     1       7.644   1.728  -1.360  0.00  0.00    -0.246 OA
ENDBRANCH  38  39
ENDBRANCH  36  38
ENDBRANCH  35  36
ENDBRANCH  33  35
ENDBRANCH  32  33
ENDBRANCH  31  32
ENDBRANCH   2  31
TORSDOF 12
