REMARK  Name = 
REMARK  2 active torsions:
REMARK  status: ('A' for Active; 'I' for Inactive)
REMARK    1  A    between atoms: S_2  and  C_5
REMARK    2  A    between atoms: C_7  and  C_8
REMARK                            x       y       z     vdW  Elec       q    Type
REMARK                         _______ _______ _______ _____ _____    ______ ____
ROOT
ATOM      1  C   UNL     1       2.279   0.286  -0.141  0.00  0.00    +0.135 A 
ATOM      2  C   UNL     1       2.930  -0.678  -0.882  0.00  0.00    +0.076 A 
ATOM      3 CL   UNL     1       4.663  -0.562  -1.010  0.00  0.00    -0.081 Cl
ATOM      4  C   UNL     1       2.243  -1.715  -1.502  0.00  0.00    +0.013 A 
ATOM      5  C   UNL     1       0.910  -1.900  -1.177  0.00  0.00    +0.001 A 
ATOM      6  C   UNL     1       0.216  -0.966  -0.418  0.00  0.00    +0.030 A 
ATOM      7  C   UNL     1       0.901   0.181  -0.082  0.00  0.00    +0.021 A 
ENDROOT
BRANCH   6   8
ATOM      8  C   UNL     1      -1.250  -0.900  -0.633  0.00  0.00    +0.242 C 
ATOM      9  C   UNL     1      -1.771   0.215   0.216  0.00  0.00    +0.033 A 
ATOM     10  C   UNL     1      -2.978  -0.149   0.775  0.00  0.00    +0.055 A 
ATOM     11  C   UNL     1      -3.917   0.848   0.996  0.00  0.00    +0.004 A 
ATOM     12  C   UNL     1      -3.627   2.178   0.792  0.00  0.00    +0.000 A 
ATOM     13  C   UNL     1      -2.291   2.526   0.675  0.00  0.00    -0.000 A 
ATOM     14  C   UNL     1      -3.051  -1.594   0.638  0.00  0.00    +0.267 C 
ATOM     15  O   UNL     1      -4.067  -2.267   0.958  0.00  0.00    -0.268 OA
ATOM     16  C   UNL     1      -1.435   1.554   0.218  0.00  0.00    +0.000 A 
ATOM     17  N   UNL     1      -1.920  -2.052  -0.087  0.00  0.00    -0.167 NA
ATOM     18  O   UNL     1      -1.581  -0.681  -1.974  0.00  0.00    -0.194 OA
ENDBRANCH   6   8
BRANCH   1  20
ATOM     19  N   UNL     1       2.562   1.564   1.795  0.00  0.00    +0.039 NA
ATOM     20  S   UNL     1       3.127   1.270   1.052  0.00  0.00    +0.094 S 
ATOM     21  O   UNL     1       3.751   2.413   0.276  0.00  0.00    -0.150 OA
ATOM     22  O   UNL     1       4.305   0.429   1.499  0.00  0.00    -0.150 OA
ENDBRANCH   1  20
TORSDOF 2
