REMARK  Name = 
REMARK  6 active torsions:
REMARK  status: ('A' for Active; 'I' for Inactive)
REMARK    1  A    between atoms: N_2  and  C_4
REMARK    2  A    between atoms: C_4  and  C_5
REMARK    3  A    between atoms: C_5  and  O_6
REMARK    4  A    between atoms: O_6  and  C_7
REMARK    5  A    between atoms: C_7  and  C_8
REMARK    6  A    between atoms: C_7  and  C_14
REMARK                            x       y       z     vdW  Elec       q    Type
REMARK                         _______ _______ _______ _____ _____    ______ ____
ROOT
ATOM      1  C   UNL     1      -0.462   0.379   0.561  0.00  0.00    +0.160 C 
ENDROOT
BRANCH   1   2
ATOM      2  C   UNL     1      -1.523  -0.467  -0.067  0.00  0.00    +0.009 A 
ATOM      3  C   UNL     1      -2.740   0.164  -0.297  0.00  0.00    -0.002 A 
ATOM      4  C   UNL     1      -3.864  -0.634  -0.436  0.00  0.00    -0.000 A 
ATOM      5  C   UNL     1      -3.919  -1.879   0.176  0.00  0.00    -0.000 A 
ATOM      6  C   UNL     1      -2.717  -2.513   0.468  0.00  0.00    -0.000 A 
ATOM      7  C   UNL     1      -1.537  -1.832   0.196  0.00  0.00    -0.002 A 
ENDBRANCH   1   2
BRANCH   1   8
ATOM      8  C   UNL     1      -0.122   1.554  -0.276  0.00  0.00    +0.009 A 
ATOM      9  C   UNL     1       1.202   1.864  -0.557  0.00  0.00    -0.002 A 
ATOM     10  C   UNL     1       1.648   3.179  -0.575  0.00  0.00    -0.000 A 
ATOM     11  C   UNL     1       0.739   4.220  -0.431  0.00  0.00    -0.000 A 
ATOM     12  C   UNL     1      -0.605   3.931  -0.397  0.00  0.00    -0.000 A 
ATOM     13  C   UNL     1      -1.017   2.605  -0.382  0.00  0.00    -0.002 A 
ENDBRANCH   1   8
BRANCH   1  14
ATOM     14  O   UNL     1       0.649  -0.378   0.884  0.00  0.00    -0.346 OA
BRANCH  14  15
ATOM     15  C   UNL     1       1.241  -0.987  -0.210  0.00  0.00    +0.160 C 
BRANCH  15  16
ATOM     16  C   UNL     1       2.734  -1.089  -0.054  0.00  0.00    +0.105 C 
BRANCH  16  18
ATOM     17  C   UNL     1       2.506  -3.229   1.032  0.00  0.00    +0.090 C 
ATOM     18  N   UNL     1       3.192  -2.474  -0.013  0.00  0.00    -0.268 NA
ATOM     19  C   UNL     1       4.598  -2.412   0.377  0.00  0.00    +0.090 C 
ENDBRANCH  16  18
ENDBRANCH  15  16
ENDBRANCH  14  15
ENDBRANCH   1  14
TORSDOF 6
