REMARK  Name = 
REMARK  12 active torsions:
REMARK  status: ('A' for Active; 'I' for Inactive)
REMARK    1  A    between atoms: C_2  and  N_4
REMARK    2  A    between atoms: N_4  and  C_5
REMARK    3  A    between atoms: C_5  and  C_6
REMARK    4  A    between atoms: C_6  and  C_8
REMARK    5  A    between atoms: C_8  and  O_9
REMARK    6  A    between atoms: O_9  and  C_10
REMARK    7  A    between atoms: C_13  and  C_14
REMARK    8  A    between atoms: C_14  and  O_15
REMARK    9  A    between atoms: O_15  and  C_16
REMARK   10  A    between atoms: C_16  and  C_17
REMARK   11  A    between atoms: C_17  and  O_18
REMARK   12  A    between atoms: O_18  and  C_19
REMARK                            x       y       z     vdW  Elec       q    Type
REMARK                         _______ _______ _______ _____ _____    ______ ____
ROOT
ATOM      1  C   UNL     1       1.044   0.013  -2.584  0.00  0.00    +0.139 A 
ATOM      2  C   UNL     1       0.127  -0.869  -3.115  0.00  0.00    +0.037 A 
ATOM      3  C   UNL     1      -1.170  -0.905  -2.632  0.00  0.00    +0.001 A 
ATOM      4  C   UNL     1      -1.572  -0.040  -1.627  0.00  0.00    +0.007 A 
ATOM      5  C   UNL     1      -0.718   1.004  -1.343  0.00  0.00    +0.001 A 
ATOM      6  C   UNL     1       0.596   1.043  -1.794  0.00  0.00    +0.037 A 
ENDROOT
BRANCH   1   7
ATOM      7  O   UNL     1       2.385  -0.287  -2.775  0.00  0.00    -0.473 OA
BRANCH   7   8
ATOM      8  C   UNL     1       3.136  -0.788  -1.675  0.00  0.00    +0.240 C 
BRANCH   8   9
ATOM      9  C   UNL     1       3.254   0.548  -0.716  0.00  0.00    +0.213 C 
ATOM     10  O   UNL     1       3.972   1.328  -1.803  0.00  0.00    -0.218 OA
BRANCH   9  11
ATOM     11  C   UNL     1       4.680   0.029  -0.070  0.00  0.00    +0.125 C 
BRANCH  11  12
ATOM     12  N   UNL     1       4.240  -0.944   0.906  0.00  0.00    -0.217 NA
BRANCH  12  14
ATOM     13  C   UNL     1       3.911  -0.178   2.815  0.00  0.00    +0.019 C 
ATOM     14  C   UNL     1       4.527  -0.492   2.258  0.00  0.00    +0.073 C 
ATOM     15  C   UNL     1       5.998  -0.184   2.451  0.00  0.00    +0.019 C 
ENDBRANCH  12  14
ENDBRANCH  11  12
ENDBRANCH   9  11
ENDBRANCH   8   9
ENDBRANCH   7   8
ENDBRANCH   1   7
BRANCH   4  16
ATOM     16  C   UNL     1      -2.723  -0.324  -0.744  0.00  0.00    +0.169 C 
BRANCH  16  17
ATOM     17  O   UNL     1      -2.342  -0.122   0.567  0.00  0.00    -0.346 OA
BRANCH  17  18
ATOM     18  C   UNL     1      -3.123   0.795   1.246  0.00  0.00    +0.175 C 
BRANCH  18  19
ATOM     19  C   UNL     1      -4.490   0.977   0.703  0.00  0.00    +0.174 C 
BRANCH  19  20
ATOM     20  O   UNL     1      -5.466   0.170   1.163  0.00  0.00    -0.354 OA
BRANCH  20  21
ATOM     21  C   UNL     1      -5.730   0.136   2.496  0.00  0.00    +0.115 C 
ATOM     22  C   UNL     1      -4.755   0.813   3.394  0.00  0.00    +0.032 C 
ATOM     23  C   UNL     1      -5.780  -1.340   2.880  0.00  0.00    +0.032 C 
ENDBRANCH  20  21
ENDBRANCH  19  20
ENDBRANCH  18  19
ENDBRANCH  17  18
ENDBRANCH  16  17
ENDBRANCH   4  16
TORSDOF 12
