REMARK  Name = 
REMARK  0 active torsions:
REMARK  status: ('A' for Active; 'I' for Inactive)
REMARK                            x       y       z     vdW  Elec       q    Type
REMARK                         _______ _______ _______ _____ _____    ______ ____
ROOT
ATOM      1  N   UNL     1       2.373  -0.003   0.180  0.00  0.00    -0.128 NA
ATOM      2  C   UNL     1       0.977   0.014  -0.144  0.00  0.00    +0.092 A 
ATOM      3  C   UNL     1       0.257   1.202  -0.180  0.00  0.00    +0.039 A 
ATOM      4  C   UNL     1      -1.069   1.134   0.230  0.00  0.00    +0.100 A 
ATOM      5  N   UNL     1      -1.718   0.000  -0.128  0.00  0.00    -0.242 NA
ATOM      6  C   UNL     1      -1.089  -1.164   0.166  0.00  0.00    +0.100 A 
ATOM      7  C   UNL     1       0.270  -1.183  -0.123  0.00  0.00    +0.039 A 
ENDROOT
TORSDOF 0
