REMARK  Name = 
REMARK  10 active torsions:
REMARK  status: ('A' for Active; 'I' for Inactive)
REMARK    1  A    between atoms: C_2  and  O_3
REMARK    2  A    between atoms: O_3  and  C_4
REMARK    3  A    between atoms: C_4  and  C_6
REMARK    4  A    between atoms: C_6  and  C_7
REMARK    5  A    between atoms: C_6  and  N_15
REMARK    6  A    between atoms: C_7  and  C_8
REMARK    7  A    between atoms: C_8  and  C_9
REMARK    8  A    between atoms: N_15  and  C_16
REMARK    9  A    between atoms: N_25  and  C_26
REMARK   10  A    between atoms: C_26  and  C_27
REMARK                            x       y       z     vdW  Elec       q    Type
REMARK                         _______ _______ _______ _____ _____    ______ ____
ROOT
ATOM      1  C   UNL     1       0.699   0.670  -0.640  0.00  0.00    +0.150 C 
ATOM      2  C   UNL     1       1.247  -0.462   0.358  0.00  0.00    +0.246 C 
ATOM      3  O   UNL     1       0.647  -0.668   1.381  0.00  0.00    -0.273 OA
ATOM      4  N   UNL     1       2.627  -0.858   0.406  0.00  0.00    -0.247 N 
ATOM      5  C   UNL     1       3.709  -0.258  -0.319  0.00  0.00    +0.050 A 
ATOM      6  C   UNL     1       3.773   0.989  -0.932  0.00  0.00    -0.008 A 
ATOM      7  C   UNL     1       4.986   1.501  -1.302  0.00  0.00    -0.003 A 
ATOM      8  C   UNL     1       6.059   0.630  -1.321  0.00  0.00    -0.000 A 
ATOM      9  C   UNL     1       5.898  -0.721  -1.063  0.00  0.00    +0.001 A 
ATOM     10  C   UNL     1       2.698   2.025  -1.015  0.00  0.00    +0.030 C 
ATOM     11  C   UNL     1       4.633  -1.196  -0.762  0.00  0.00    +0.015 A 
ATOM     12  C   UNL     1       1.640   1.827   0.061  0.00  0.00    +0.031 C 
ENDROOT
BRANCH   1  13
ATOM     13  N   UNL     1      -0.545   1.062   0.245  0.00  0.00    -0.201 NA
BRANCH  13  14
ATOM     14  C   UNL     1      -1.452   1.605  -0.930  0.00  0.00    +0.172 C 
BRANCH  14  15
ATOM     15  C   UNL     1      -2.522   2.312   0.045  0.00  0.00    +0.333 C 
ATOM     16  O   UNL     1      -2.228   2.568   1.205  0.00  0.00    -0.249 OA
BRANCH  15  17
ATOM     17  O   UNL     1      -3.044   3.401  -0.671  0.00  0.00    -0.448 OA
BRANCH  17  19
ATOM     18  C   UNL     1      -3.996   4.089   1.442  0.00  0.00    +0.051 C 
ATOM     19  C   UNL     1      -3.628   4.493   0.035  0.00  0.00    +0.209 C 
ENDBRANCH  17  19
ENDBRANCH  15  17
ENDBRANCH  14  15
BRANCH  14  20
ATOM     20  C   UNL     1      -2.272   0.183  -1.004  0.00  0.00    +0.033 C 
BRANCH  20  21
ATOM     21  C   UNL     1      -3.722   0.460  -0.981  0.00  0.00    +0.028 C 
BRANCH  21  22
ATOM     22  C   UNL     1      -4.394  -0.771  -0.514  0.00  0.00    -0.022 A 
ATOM     23  C   UNL     1      -5.533  -1.264  -1.132  0.00  0.00    -0.004 A 
ATOM     24  C   UNL     1      -5.845  -2.596  -0.967  0.00  0.00    -0.000 A 
ATOM     25  C   UNL     1      -5.257  -3.386  -0.013  0.00  0.00    -0.000 A 
ATOM     26  C   UNL     1      -4.253  -2.828   0.764  0.00  0.00    -0.000 A 
ATOM     27  C   UNL     1      -3.931  -1.490   0.580  0.00  0.00    -0.004 A 
ENDBRANCH  21  22
ENDBRANCH  20  21
ENDBRANCH  14  20
ENDBRANCH  13  14
ENDBRANCH   1  13
BRANCH   4  28
ATOM     28  C   UNL     1       2.726  -2.234   0.713  0.00  0.00    +0.213 C 
BRANCH  28  29
ATOM     29  C   UNL     1       3.554  -2.645   1.841  0.00  0.00    +0.385 C 
ATOM     30  O   UNL     1       2.931  -3.526   2.741  0.00  0.00    -0.244 OA
ATOM     31  O   UNL     1       4.795  -2.910   1.751  0.00  0.00    -0.244 OA
ENDBRANCH  28  29
ENDBRANCH   4  28
TORSDOF 10
