REMARK  Name = 
REMARK  4 active torsions:
REMARK  status: ('A' for Active; 'I' for Inactive)
REMARK    1  A    between atoms: C_3  and  C_4
REMARK    2  A    between atoms: C_4  and  C_5
REMARK    3  A    between atoms: C_16  and  C_17
REMARK    4  A    between atoms: C_20  and  S_21
REMARK                            x       y       z     vdW  Elec       q    Type
REMARK                         _______ _______ _______ _____ _____    ______ ____
ROOT
ATOM      1  C   UNL     1      -2.585  -2.811  -0.793  0.00  0.00    +0.031 C 
ATOM      2  C   UNL     1      -2.220  -1.441  -0.808  0.00  0.00    -0.025 C 
ATOM      3  C   UNL     1      -0.866  -0.931  -1.053  0.00  0.00    -0.004 C 
ATOM      4  C   UNL     1       0.255  -1.620  -1.084  0.00  0.00    -0.000 C 
ATOM      5  C   UNL     1      -0.940   0.513  -0.803  0.00  0.00    -0.000 A 
ATOM      6  C   UNL     1      -2.269   0.801  -0.591  0.00  0.00    -0.002 A 
ATOM      7  C   UNL     1      -2.697   2.101  -0.517  0.00  0.00    +0.029 A 
ATOM      8  C   UNL     1      -1.784   3.112  -0.784  0.00  0.00    +0.140 A 
ATOM      9  C   UNL     1      -0.448   2.808  -0.726  0.00  0.00    +0.030 A 
ATOM     10  F   UNL     1      -2.241   4.342  -1.150  0.00  0.00    -0.204 F 
ATOM     11  C   UNL     1       0.029   1.508  -0.841  0.00  0.00    +0.002 A 
ATOM     12  C   UNL     1      -2.975  -0.445  -0.346  0.00  0.00    -0.015 C 
ENDROOT
BRANCH   4  13
ATOM     13  C   UNL     1       1.552  -1.064  -0.678  0.00  0.00    +0.000 A 
ATOM     14  C   UNL     1       2.668  -1.541  -1.355  0.00  0.00    +0.001 A 
ATOM     15  C   UNL     1       3.927  -1.428  -0.777  0.00  0.00    +0.009 A 
ATOM     16  C   UNL     1       4.104  -0.796   0.449  0.00  0.00    +0.056 A 
ATOM     17  C   UNL     1       2.952  -0.433   1.103  0.00  0.00    +0.009 A 
ATOM     18  C   UNL     1       1.725  -0.908   0.693  0.00  0.00    +0.001 A 
BRANCH  16  19
ATOM     19  S   UNL     1       5.654   0.100   0.725  0.00  0.00    +0.066 S 
ATOM     20  O   UNL     1       5.286   1.479   0.101  0.00  0.00    -0.251 OA
ATOM     21  C   UNL     1       5.514   0.523   2.511  0.00  0.00    +0.111 C 
ENDBRANCH  16  19
ENDBRANCH   4  13
BRANCH  12  22
ATOM     22  C   UNL     1      -4.241  -0.615   0.431  0.00  0.00    +0.140 C 
BRANCH  22  23
ATOM     23  C   UNL     1      -3.836  -0.915   1.841  0.00  0.00    +0.369 C 
ATOM     24  O   UNL     1      -2.736  -0.191   2.311  0.00  0.00    -0.245 OA
ATOM     25  O   UNL     1      -3.828  -2.148   2.141  0.00  0.00    -0.245 OA
ENDBRANCH  22  23
ENDBRANCH  12  22
TORSDOF 4
