REMARK  Name = 
REMARK  10 active torsions:
REMARK  status: ('A' for Active; 'I' for Inactive)
REMARK    1  A    between atoms: O_2  and  C_3
REMARK    2  A    between atoms: C_8  and  O_9
REMARK    3  A    between atoms: C_11  and  C_12
REMARK    4  A    between atoms: C_12  and  N_13
REMARK    5  A    between atoms: N_13  and  C_15
REMARK    6  A    between atoms: C_15  and  C_16
REMARK    7  A    between atoms: C_16  and  C_17
REMARK    8  A    between atoms: C_17  and  N_18
REMARK    9  A    between atoms: C_23  and  O_24
REMARK   10  A    between atoms: C_26  and  O_27
REMARK                            x       y       z     vdW  Elec       q    Type
REMARK                         _______ _______ _______ _____ _____    ______ ____
ROOT
ATOM      1  C   UNL     1      -0.203  -0.324  -1.503  0.00  0.00    +0.039 C 
ENDROOT
BRANCH   1   2
ATOM      2  C   UNL     1      -0.358   0.885  -0.597  0.00  0.00    +0.095 C 
BRANCH   2   3
ATOM      3  N   UNL     1      -1.467   0.682   0.331  0.00  0.00    -0.279 N 
ATOM      4  C   UNL     1      -1.941  -0.659   0.506  0.00  0.00    +0.230 C 
ATOM      5  O   UNL     1      -1.452  -1.511  -0.296  0.00  0.00    -0.275 OA
ATOM      6  C   UNL     1      -3.135  -1.039   1.300  0.00  0.00    +0.111 C 
ATOM      7  C   UNL     1      -4.340  -0.327   0.841  0.00  0.00    -0.014 A 
ATOM      8  C   UNL     1      -4.365   0.892   0.213  0.00  0.00    -0.021 A 
ATOM      9  C   UNL     1      -5.579   1.238  -0.374  0.00  0.00    +0.036 A 
ATOM     10  C   UNL     1      -6.716   0.463  -0.223  0.00  0.00    +0.172 A 
ATOM     11  C   UNL     1      -6.634  -0.765   0.412  0.00  0.00    +0.172 A 
ATOM     12  C   UNL     1      -3.455   2.026   0.085  0.00  0.00    +0.048 C 
ATOM     13  C   UNL     1      -5.361  -1.251   0.648  0.00  0.00    +0.036 A 
ATOM     14  C   UNL     1      -2.139   1.901   0.767  0.00  0.00    +0.098 C 
BRANCH  11  15
ATOM     15  O   UNL     1      -7.787  -1.420   0.855  0.00  0.00    -0.468 OA
ATOM     16  C   UNL     1      -7.918  -2.796   0.504  0.00  0.00    +0.253 C 
ENDBRANCH  11  15
BRANCH  10  17
ATOM     17  O   UNL     1      -8.002   0.980  -0.398  0.00  0.00    -0.468 OA
ATOM     18  C   UNL     1      -8.219   2.313   0.005  0.00  0.00    +0.253 C 
ENDBRANCH  10  17
ENDBRANCH   2   3
ENDBRANCH   1   2
BRANCH   1  19
ATOM     19  C   UNL     1       1.242  -0.407  -1.903  0.00  0.00    +0.074 C 
BRANCH  19  20
ATOM     20  N   UNL     1       2.095  -0.950  -0.885  0.00  0.00    -0.271 NA
ATOM     21  C   UNL     1       2.054  -2.374  -0.767  0.00  0.00    +0.090 C 
BRANCH  20  22
ATOM     22  C   UNL     1       2.011  -0.242   0.378  0.00  0.00    +0.077 C 
BRANCH  22  27
ATOM     23  C   UNL     1       6.997   0.597  -0.147  0.00  0.00    +0.172 A 
ATOM     24  C   UNL     1       6.474  -0.405  -0.952  0.00  0.00    +0.172 A 
ATOM     25  C   UNL     1       5.094  -0.488  -1.084  0.00  0.00    +0.036 A 
ATOM     26  C   UNL     1       4.298   0.078  -0.155  0.00  0.00    -0.022 A 
ATOM     27  C   UNL     1       3.003   1.047  -0.003  0.00  0.00    +0.042 C 
ATOM     28  C   UNL     1       3.530   1.201   1.558  0.00  0.00    +0.032 C 
ATOM     29  C   UNL     1       4.795   0.960   0.798  0.00  0.00    -0.023 A 
ATOM     30  C   UNL     1       6.140   1.281   0.687  0.00  0.00    +0.035 A 
BRANCH  24  31
ATOM     31  O   UNL     1       7.319  -1.464  -1.299  0.00  0.00    -0.468 OA
ATOM     32  C   UNL     1       7.221  -2.739  -0.668  0.00  0.00    +0.253 C 
ENDBRANCH  24  31
BRANCH  23  34
ATOM     33  C   UNL     1       8.562   1.512  -1.151  0.00  0.00    +0.253 C 
ATOM     34  O   UNL     1       8.235   1.107  -0.547  0.00  0.00    -0.468 OA
ENDBRANCH  23  34
ENDBRANCH  22  27
ENDBRANCH  20  22
ENDBRANCH  19  20
ENDBRANCH   1  19
TORSDOF 10
