REMARK  Name = 
REMARK  6 active torsions:
REMARK  status: ('A' for Active; 'I' for Inactive)
REMARK    1  A    between atoms: C_2  and  C_3
REMARK    2  A    between atoms: N_5  and  C_6
REMARK    3  A    between atoms: N_5  and  C_12
REMARK    4  A    between atoms: N_15  and  C_16
REMARK    5  A    between atoms: C_16  and  C_17
REMARK    6  A    between atoms: C_17  and  C_18
REMARK                            x       y       z     vdW  Elec       q    Type
REMARK                         _______ _______ _______ _____ _____    ______ ____
ROOT
ATOM      1  C   UNL     1      -1.182   0.816   0.048  0.00  0.00    +0.083 C 
ATOM      2  C   UNL     1      -0.700   1.320  -1.295  0.00  0.00    +0.038 C 
ATOM      3  C   UNL     1       0.753   1.700  -1.132  0.00  0.00    +0.074 C 
ATOM      4  N   UNL     1       1.445   0.516  -0.642  0.00  0.00    -0.272 NA
ATOM      5  C   UNL     1       0.613  -0.660  -0.659  0.00  0.00    +0.074 C 
ATOM      6  C   UNL     1      -0.509  -0.511   0.326  0.00  0.00    +0.038 C 
ENDROOT
BRANCH   1   8
ATOM      7  C   UNL     1      -3.363   1.385   1.008  0.00  0.00    +0.229 C 
ATOM      8  N   UNL     1      -2.621   0.693  -0.002  0.00  0.00    -0.260 N 
ATOM      9  O   UNL     1      -3.838   0.687   1.935  0.00  0.00    -0.275 OA
BRANCH   8  10
ATOM     10  C   UNL     1      -3.258  -0.425  -0.632  0.00  0.00    +0.054 A 
ATOM     11  C   UNL     1      -2.779  -0.983  -1.798  0.00  0.00    +0.015 A 
ATOM     12  C   UNL     1      -3.066  -2.303  -2.089  0.00  0.00    +0.001 A 
ATOM     13  C   UNL     1      -3.585  -3.155  -1.129  0.00  0.00    +0.000 A 
ATOM     14  C   UNL     1      -4.218  -2.562  -0.052  0.00  0.00    +0.001 A 
ATOM     15  C   UNL     1      -4.151  -1.184   0.113  0.00  0.00    +0.015 A 
ENDBRANCH   8  10
BRANCH   7  17
ATOM     16  C   UNL     1      -3.236   3.204   2.674  0.00  0.00    +0.010 C 
ATOM     17  C   UNL     1      -3.008   2.815   1.221  0.00  0.00    +0.086 C 
ENDBRANCH   7  17
ENDBRANCH   1   8
BRANCH   4  18
ATOM     18  C   UNL     1       2.526   0.272  -1.595  0.00  0.00    +0.077 C 
BRANCH  18  19
ATOM     19  C   UNL     1       3.706   1.074  -1.124  0.00  0.00    +0.044 C 
BRANCH  19  20
ATOM     20  C   UNL     1       4.273   0.498   0.135  0.00  0.00    -0.021 A 
ATOM     21  C   UNL     1       3.712  -0.583   0.779  0.00  0.00    -0.004 A 
ATOM     22  C   UNL     1       4.518  -1.572   1.328  0.00  0.00    -0.000 A 
ATOM     23  C   UNL     1       5.904  -1.481   1.285  0.00  0.00    -0.000 A 
ATOM     24  C   UNL     1       6.420  -0.225   1.001  0.00  0.00    -0.000 A 
ATOM     25  C   UNL     1       5.643   0.663   0.298  0.00  0.00    -0.004 A 
ENDBRANCH  19  20
ENDBRANCH  18  19
ENDBRANCH   4  18
TORSDOF 6
