REMARK  Name = 
REMARK  5 active torsions:
REMARK  status: ('A' for Active; 'I' for Inactive)
REMARK    1  A    between atoms: N_2  and  C_4
REMARK    2  A    between atoms: C_4  and  C_5
REMARK    3  A    between atoms: C_5  and  C_6
REMARK    4  A    between atoms: C_6  and  C_8
REMARK    5  A    between atoms: C_6  and  C_14
REMARK                            x       y       z     vdW  Elec       q    Type
REMARK                         _______ _______ _______ _____ _____    ______ ____
ROOT
ATOM      1  C   UNL     1       0.271   0.015  -0.235  0.00  0.00    +0.166 C 
ATOM      2  O   UNL     1       0.797  -0.178  -1.505  0.00  0.00    -0.217 OA
ENDROOT
BRANCH   1   3
ATOM      3  C   UNL     1      -0.858  -0.910   0.010  0.00  0.00    +0.020 A 
ATOM      4  C   UNL     1      -1.094  -1.990  -0.828  0.00  0.00    +0.056 A 
ATOM      5 CL   UNL     1      -0.563  -1.836  -2.482  0.00  0.00    -0.082 Cl
ATOM      6  C   UNL     1      -2.022  -2.971  -0.517  0.00  0.00    +0.011 A 
ATOM      7  C   UNL     1      -2.569  -2.932   0.756  0.00  0.00    +0.001 A 
ATOM      8  C   UNL     1      -2.502  -1.771   1.515  0.00  0.00    -0.000 A 
ATOM      9  C   UNL     1      -1.426  -0.932   1.269  0.00  0.00    -0.001 A 
ENDBRANCH   1   3
BRANCH   1  10
ATOM     10  C   UNL     1      -0.224   1.414  -0.051  0.00  0.00    +0.009 A 
ATOM     11  C   UNL     1      -0.677   1.743   1.215  0.00  0.00    -0.002 A 
ATOM     12  C   UNL     1      -1.533   2.829   1.354  0.00  0.00    -0.000 A 
ATOM     13  C   UNL     1      -1.952   3.490   0.228  0.00  0.00    -0.000 A 
ATOM     14  C   UNL     1      -1.226   3.373  -0.950  0.00  0.00    -0.000 A 
ATOM     15  C   UNL     1      -0.551   2.181  -1.150  0.00  0.00    -0.002 A 
ENDBRANCH   1  10
BRANCH   1  16
ATOM     16  C   UNL     1       1.330  -0.193   0.826  0.00  0.00    +0.056 C 
BRANCH  16  17
ATOM     17  C   UNL     1       2.501  -0.923   0.228  0.00  0.00    +0.075 C 
BRANCH  17  19
ATOM     18  C   UNL     1       4.382  -0.106   1.277  0.00  0.00    +0.090 C 
ATOM     19  N   UNL     1       3.601   0.010   0.132  0.00  0.00    -0.270 NA
ATOM     20  C   UNL     1       4.314  -0.314  -1.092  0.00  0.00    +0.090 C 
ENDBRANCH  17  19
ENDBRANCH  16  17
ENDBRANCH   1  16
TORSDOF 5
