REMARK  Name = 
REMARK  2 active torsions:
REMARK  status: ('A' for Active; 'I' for Inactive)
REMARK    1  A    between atoms: C_2  and  C_4
REMARK    2  A    between atoms: C_4  and  C_5
REMARK                            x       y       z     vdW  Elec       q    Type
REMARK                         _______ _______ _______ _____ _____    ______ ____
ROOT
ATOM      1  C   UNL     1      -0.208   0.317  -0.453  0.00  0.00    -0.021 A 
ATOM      2  C   UNL     1      -0.769   1.054   0.573  0.00  0.00    -0.004 A 
ATOM      3  C   UNL     1      -2.014   0.715   1.084  0.00  0.00    -0.000 A 
ATOM      4  C   UNL     1      -2.718  -0.258   0.420  0.00  0.00    -0.000 A 
ATOM      5  C   UNL     1      -2.303  -0.800  -0.767  0.00  0.00    -0.000 A 
ATOM      6  C   UNL     1      -1.017  -0.531  -1.174  0.00  0.00    -0.004 A 
ENDROOT
BRANCH   1   7
ATOM      7  C   UNL     1       1.244   0.437  -0.698  0.00  0.00    +0.045 C 
BRANCH   7   9
ATOM      8  C   UNL     1       3.347   0.679   0.414  0.00  0.00    +0.021 C 
ATOM      9  C   UNL     1       1.937  -0.170   0.695  0.00  0.00    +0.096 C 
ATOM     10  N   UNL     1       2.502  -1.442  -0.094  0.00  0.00    -0.133 NA
ENDBRANCH   7   9
ENDBRANCH   1   7
TORSDOF 2
