REMARK  Name = 
REMARK  10 active torsions:
REMARK  status: ('A' for Active; 'I' for Inactive)
REMARK    1  A    between atoms: C_2  and  O_3
REMARK    2  A    between atoms: O_3  and  N_4
REMARK    3  A    between atoms: C_5  and  C_6
REMARK    4  A    between atoms: C_5  and  C_34
REMARK    5  A    between atoms: N_8  and  CA_9
REMARK    6  A    between atoms: CA_13  and  C_14
REMARK    7  A    between atoms: C_17  and  S_18
REMARK    8  A    between atoms: S_18  and  C_19
REMARK    9  A    between atoms: C_21  and  C_22
REMARK   10  A    between atoms: N_38  and  P_39
REMARK                            x       y       z     vdW  Elec       q    Type
REMARK                         _______ _______ _______ _____ _____    ______ ____
ROOT
ATOM      1  CA  UNL     1       0.749  -1.498  -0.254  0.00  0.00    +0.201 C 
ATOM      2  C   UNL     1      -0.004  -0.137   0.373  0.00  0.00    +0.157 C 
ATOM      3  N   UNL     1      -1.212  -0.688  -0.371  0.00  0.00    -0.241 N 
ATOM      4  CA  UNL     1      -2.367   0.114  -0.262  0.00  0.00    +0.138 C 
ATOM      5  C   UNL     1      -2.423   1.433  -0.362  0.00  0.00    +0.040 C 
ATOM      6  C   UNL     1      -1.194   2.274  -0.546  0.00  0.00    +0.093 C 
ATOM      7  S   UNL     1       0.260   1.229  -0.927  0.00  0.00    -0.113 S 
ATOM      8  C   UNL     1      -0.438  -1.442  -1.332  0.00  0.00    +0.253 C 
ATOM      9  O   UNL     1      -0.804  -2.510  -1.914  0.00  0.00    -0.273 OA
ENDROOT
BRANCH   4  10
ATOM     10  C   UNL     1      -3.588  -0.649   0.026  0.00  0.00    +0.401 C 
ATOM     11  OXT UNL     1      -3.736  -1.987  -0.359  0.00  0.00    -0.239 OA
ATOM     12  O   UNL     1      -4.051  -0.419   1.189  0.00  0.00    -0.239 OA
ENDBRANCH   4  10
BRANCH   1  14
ATOM     13  C   UNL     1       2.926  -0.356  -0.354  0.00  0.00    +0.289 C 
ATOM     14  N   UNL     1       1.805  -0.757  -1.152  0.00  0.00    -0.190 NA
ATOM     15  O   UNL     1       2.747  -0.001   0.830  0.00  0.00    -0.266 OA
BRANCH  13  17
ATOM     16  N   UNL     1       4.779  -1.572  -1.173  0.00  0.00    -0.075 NA
ATOM     17  C   UNL     1       4.287  -0.398  -0.903  0.00  0.00    +0.210 C 
BRANCH  17  18
ATOM     18  C   UNL     1       5.222   0.718  -0.678  0.00  0.00    +0.197 A 
ATOM     19  N   UNL     1       6.285   0.545   0.106  0.00  0.00    -0.200 NA
ATOM     20  C   UNL     1       7.224   1.503  -0.094  0.00  0.00    +0.207 A 
ATOM     21  N   UNL     1       8.614   1.440   0.251  0.00  0.00    -0.114 NA
ATOM     22  S   UNL     1       6.181   2.851  -0.305  0.00  0.00    +0.051 S 
ATOM     23  N   UNL     1       4.755   1.990  -0.620  0.00  0.00    -0.185 NA
BRANCH  21  24
ATOM     24  P   UNL     1       9.068   0.214   1.411  0.00  0.00    +0.502 P 
ATOM     25  O   UNL     1      10.620   0.540   1.954  0.00  0.00    -0.121 OA
ATOM     26  O   UNL     1       8.974  -1.294   0.679  0.00  0.00    -0.121 OA
ATOM     27  O   UNL     1       8.121   0.247   2.573  0.00  0.00    -0.230 OA
ENDBRANCH  21  24
ENDBRANCH  17  18
BRANCH  16  28
ATOM     28  O   UNL     1       5.791  -1.581  -2.114  0.00  0.00    -0.377 OA
BRANCH  28  30
ATOM     29  C   UNL     1       4.622  -1.960  -3.575  0.00  0.00    +0.054 C 
ATOM     30  C   UNL     1       5.386  -1.964  -3.428  0.00  0.00    +0.239 C 
ENDBRANCH  28  30
ENDBRANCH  16  28
ENDBRANCH  13  17
ENDBRANCH   1  14
BRANCH   5  31
ATOM     31  S   UNL     1      -3.872   2.182  -1.054  0.00  0.00    -0.064 S 
BRANCH  31  32
ATOM     32  C   UNL     1      -5.273   1.110  -1.190  0.00  0.00    +0.140 A 
ATOM     33  S   UNL     1      -5.866   0.101  -2.450  0.00  0.00    -0.059 S 
ATOM     34  C   UNL     1      -7.259  -0.464  -1.610  0.00  0.00    +0.056 A 
ATOM     35  C   UNL     1      -7.216   0.286  -0.436  0.00  0.00    +0.089 A 
ATOM     36  N   UNL     1      -6.478   1.408  -0.638  0.00  0.00    -0.232 NA
BRANCH  35  37
ATOM     37  C   UNL     1      -7.796  -0.135   0.859  0.00  0.00    +0.030 A 
ATOM     38  C   UNL     1      -7.277  -1.216   1.567  0.00  0.00    +0.077 A 
ATOM     39  C   UNL     1      -6.931  -1.088   2.907  0.00  0.00    +0.290 A 
ATOM     40  N   UNL     1      -7.223   0.038   3.603  0.00  0.00    -0.153 N 
ATOM     41  C   UNL     1      -6.927   0.102   5.024  0.00  0.00    +0.408 C 
ATOM     42  C   UNL     1      -8.205   0.804   3.067  0.00  0.00    +0.290 A 
ATOM     43  C   UNL     1      -8.278   0.879   1.681  0.00  0.00    +0.077 A 
ENDBRANCH  35  37
ENDBRANCH  31  32
ENDBRANCH   5  31
TORSDOF 10
