REMARK  Name = 
REMARK  2 active torsions:
REMARK  status: ('A' for Active; 'I' for Inactive)
REMARK    1  A    between atoms: C_11  and  C_12
REMARK    2  A    between atoms: C_15  and  C_16
REMARK                            x       y       z     vdW  Elec       q    Type
REMARK                         _______ _______ _______ _____ _____    ______ ____
ROOT
ATOM      1  O   UNL     1      -3.821   0.232  -1.959  0.00  0.00    -0.283 OA
ATOM      2  C   UNL     1      -3.396  -0.120  -0.940  0.00  0.00    +0.234 C 
ATOM      3  C   UNL     1      -1.938  -0.234  -0.804  0.00  0.00    +0.233 C 
ATOM      4  O   UNL     1      -1.194  -0.719  -1.847  0.00  0.00    -0.283 OA
ATOM      5  C   UNL     1      -1.398  -0.126   0.349  0.00  0.00    +0.059 C 
ATOM      6  C   UNL     1      -2.131  -0.023   1.590  0.00  0.00    +0.195 C 
ATOM      7  O   UNL     1      -1.607  -0.262   2.700  0.00  0.00    -0.287 OA
ATOM      8  C   UNL     1      -3.595   0.044   1.502  0.00  0.00    +0.042 A 
ATOM      9  C   UNL     1      -4.401  -0.122   2.617  0.00  0.00    +0.003 A 
ATOM     10  C   UNL     1      -5.745  -0.451   2.494  0.00  0.00    +0.000 A 
ATOM     11  C   UNL     1      -6.319  -0.569   1.233  0.00  0.00    +0.000 A 
ATOM     12  C   UNL     1      -5.572  -0.090   0.168  0.00  0.00    +0.003 A 
ATOM     13  C   UNL     1      -4.199   0.096   0.272  0.00  0.00    +0.045 A 
ENDROOT
BRANCH   5  14
ATOM     14  C   UNL     1       0.194   0.170   0.450  0.00  0.00    +0.029 C 
ATOM     15  C   UNL     1       0.239   1.153  -0.895  0.00  0.00    +0.005 C 
ATOM     16  C   UNL     1       1.709   1.426  -1.003  0.00  0.00    +0.005 C 
ATOM     17  C   UNL     1       2.333   0.093  -1.779  0.00  0.00    +0.022 C 
ATOM     18  C   UNL     1       2.096  -0.878  -0.450  0.00  0.00    +0.005 C 
ATOM     19  C   UNL     1       0.592  -1.158  -0.473  0.00  0.00    +0.005 C 
BRANCH  17  20
ATOM     20  C   UNL     1       3.867   0.420  -1.344  0.00  0.00    -0.022 A 
ATOM     21  C   UNL     1       4.052   0.917  -0.090  0.00  0.00    -0.003 A 
ATOM     22  C   UNL     1       5.368   1.137   0.295  0.00  0.00    +0.011 A 
ATOM     23  C   UNL     1       6.274   0.151  -0.035  0.00  0.00    +0.058 A 
ATOM     24 CL   UNL     1       7.870   0.313   0.687  0.00  0.00    -0.082 Cl
ATOM     25  C   UNL     1       6.003  -0.674  -1.102  0.00  0.00    +0.011 A 
ATOM     26  C   UNL     1       4.718  -0.647  -1.635  0.00  0.00    -0.003 A 
ENDBRANCH  17  20
ENDBRANCH   5  14
TORSDOF 2
