REMARK  Name = 
REMARK  10 active torsions:
REMARK  status: ('A' for Active; 'I' for Inactive)
REMARK    1  A    between atoms: O_2  and  C_3
REMARK    2  A    between atoms: C_3  and  C_4
REMARK    3  A    between atoms: C_4  and  O_5
REMARK    4  A    between atoms: O_5  and  C_6
REMARK    5  A    between atoms: C_6  and  C_8
REMARK    6  A    between atoms: C_14  and  C_15
REMARK    7  A    between atoms: C_15  and  O_17
REMARK    8  A    between atoms: O_17  and  C_18
REMARK    9  A    between atoms: C_21  and  C_22
REMARK   10  A    between atoms: C_26  and  N_27
REMARK                            x       y       z     vdW  Elec       q    Type
REMARK                         _______ _______ _______ _____ _____    ______ ____
ROOT
ATOM      1  C   UNL     1       1.354   0.101  -0.295  0.00  0.00    +0.073 C 
ATOM      2  C   UNL     1       0.005   0.081   0.585  0.00  0.00    +0.082 C 
ATOM      3  C   UNL     1      -0.845   1.165  -0.247  0.00  0.00    +0.073 C 
ATOM      4  C   UNL     1      -0.888   1.073  -1.537  0.00  0.00    +0.051 C 
ATOM      5  C   UNL     1      -1.930   1.889  -2.247  0.00  0.00    +0.049 C 
ATOM      6  N   UNL     1       0.409   0.951  -2.142  0.00  0.00    -0.221 NA
ATOM      7  C   UNL     1       1.499   1.017  -1.206  0.00  0.00    +0.051 C 
ATOM      8  C   UNL     1       2.887   1.372  -1.645  0.00  0.00    +0.049 C 
ENDROOT
BRANCH   2   9
ATOM      9  C   UNL     1      -0.605  -1.181  -0.223  0.00  0.00    -0.008 A 
ATOM     10  C   UNL     1      -1.992  -1.290  -0.129  0.00  0.00    +0.072 A 
ATOM     11  C   UNL     1      -2.584  -2.526  -0.364  0.00  0.00    +0.290 A 
ATOM     12  C   UNL     1      -1.754  -3.629  -0.518  0.00  0.00    +0.075 A 
ATOM     13  C   UNL     1      -0.435  -3.577  -0.100  0.00  0.00    +0.006 A 
ATOM     14  C   UNL     1       0.041  -2.320   0.250  0.00  0.00    -0.003 A 
BRANCH  11  15
ATOM     15  N   UNL     1      -3.972  -2.766  -0.102  0.00  0.00    +0.081 N 
ATOM     16  O   UNL     1      -4.388  -2.507   1.191  0.00  0.00    -0.576 OA
ATOM     17  O   UNL     1      -4.484  -3.786  -0.629  0.00  0.00    +0.041 OA
ENDBRANCH  11  15
ENDBRANCH   2   9
BRANCH   1  18
ATOM     18  C   UNL     1       2.476  -0.637   0.308  0.00  0.00    +0.339 C 
ATOM     19  O   UNL     1       2.973  -1.629  -0.311  0.00  0.00    -0.245 OA
BRANCH  18  20
ATOM     20  O   UNL     1       3.419  -0.019   1.140  0.00  0.00    -0.443 OA
BRANCH  20  21
ATOM     21  C   UNL     1       4.812  -0.081   0.890  0.00  0.00    +0.241 C 
BRANCH  21  22
ATOM     22  C   UNL     1       5.556  -1.016   1.783  0.00  0.00    +0.190 C 
BRANCH  22  24
ATOM     23  C   UNL     1       7.037  -0.300   0.157  0.00  0.00    +0.174 C 
ATOM     24  O   UNL     1       6.838  -1.171   1.229  0.00  0.00    -0.347 OA
ENDBRANCH  22  24
ENDBRANCH  21  22
ENDBRANCH  20  21
ENDBRANCH  18  20
ENDBRANCH   1  18
BRANCH   3  25
ATOM     25  C   UNL     1      -1.488   2.201   0.563  0.00  0.00    +0.339 C 
ATOM     26  O   UNL     1      -0.716   2.933   1.253  0.00  0.00    -0.245 OA
BRANCH  25  27
ATOM     27  O   UNL     1      -2.768   2.661   0.356  0.00  0.00    -0.449 OA
BRANCH  27  28
ATOM     28  C   UNL     1      -3.012   4.058   0.502  0.00  0.00    +0.169 C 
ATOM     29  C   UNL     1      -3.342   4.427   1.925  0.00  0.00    +0.047 C 
ATOM     30  C   UNL     1      -4.106   4.509  -0.438  0.00  0.00    +0.047 C 
ENDBRANCH  27  28
ENDBRANCH  25  27
ENDBRANCH   3  25
TORSDOF 10
