REMARK  Name = 
REMARK  1 active torsions:
REMARK  status: ('A' for Active; 'I' for Inactive)
REMARK    1  A    between atoms: C_6  and  C_7
REMARK                            x       y       z     vdW  Elec       q    Type
REMARK                         _______ _______ _______ _____ _____    ______ ____
ROOT
ATOM      1  C   UNL     1      -1.231  -1.264  -0.474  0.00  0.00    +0.090 C 
ATOM      2  N   UNL     1      -1.189  -0.886  -0.405  0.00  0.00    -0.269 NA
ATOM      3  C   UNL     1      -1.203  -0.419   1.095  0.00  0.00    +0.082 C 
ATOM      4  C   UNL     1      -1.770   1.097   0.802  0.00  0.00    +0.022 C 
ATOM      5  C   UNL     1      -2.743   0.776  -0.322  0.00  0.00    +0.019 C 
ATOM      6  C   UNL     1      -1.638   0.178  -1.177  0.00  0.00    +0.072 C 
ENDROOT
BRANCH   3   7
ATOM      7  C   UNL     1       0.345   0.040   1.057  0.00  0.00    +0.011 A 
ATOM      8  C   UNL     1       0.735   0.869   0.065  0.00  0.00    +0.096 A 
ATOM      9  N   UNL     1       2.048   1.206  -0.003  0.00  0.00    -0.243 NA
ATOM     10  C   UNL     1       2.946   0.342   0.473  0.00  0.00    +0.099 A 
ATOM     11  C   UNL     1       2.525  -0.881   0.978  0.00  0.00    +0.020 A 
ATOM     12  C   UNL     1       1.176  -1.058   1.266  0.00  0.00    +0.000 A 
ENDBRANCH   3   7
TORSDOF 1
