REMARK  Name = 
REMARK  6 active torsions:
REMARK  status: ('A' for Active; 'I' for Inactive)
REMARK    1  A    between atoms: C_2  and  O_3
REMARK    2  A    between atoms: O_3  and  C_4
REMARK    3  A    between atoms: C_4  and  C_6
REMARK    4  A    between atoms: C_12  and  C_13
REMARK    5  A    between atoms: C_13  and  O_15
REMARK    6  A    between atoms: C_17  and  C_18
REMARK                            x       y       z     vdW  Elec       q    Type
REMARK                         _______ _______ _______ _____ _____    ______ ____
ROOT
ATOM      1  C   UNL     1      -0.939  -1.026   0.003  0.00  0.00    +0.073 C 
ATOM      2  C   UNL     1       0.096   0.038  -0.695  0.00  0.00    +0.082 C 
ATOM      3  C   UNL     1      -0.282   1.339   0.239  0.00  0.00    +0.073 C 
ATOM      4  C   UNL     1      -1.466   1.309   0.799  0.00  0.00    +0.051 C 
ATOM      5  C   UNL     1      -2.249   2.562   1.053  0.00  0.00    +0.049 C 
ATOM      6  N   UNL     1      -1.376   0.280   1.802  0.00  0.00    -0.221 NA
ATOM      7  C   UNL     1      -1.059  -1.004   1.276  0.00  0.00    +0.051 C 
ATOM      8  C   UNL     1      -1.651  -2.228   1.913  0.00  0.00    +0.049 C 
ENDROOT
BRANCH   2   9
ATOM      9  C   UNL     1       1.387  -0.333   0.255  0.00  0.00    -0.002 A 
ATOM     10  C   UNL     1       2.553   0.096  -0.376  0.00  0.00    +0.065 A 
ATOM     11 CL   UNL     1       2.637   0.563  -2.072  0.00  0.00    -0.082 Cl
ATOM     12  C   UNL     1       3.739  -0.269   0.253  0.00  0.00    +0.068 A 
ATOM     13 CL   UNL     1       5.253   0.468  -0.248  0.00  0.00    -0.081 Cl
ATOM     14  C   UNL     1       3.722  -1.245   1.243  0.00  0.00    +0.012 A 
ATOM     15  C   UNL     1       2.538  -1.917   1.520  0.00  0.00    +0.001 A 
ATOM     16  C   UNL     1       1.458  -1.634   0.693  0.00  0.00    -0.003 A 
ENDBRANCH   2   9
BRANCH   1  17
ATOM     17  C   UNL     1      -1.573  -1.948  -0.937  0.00  0.00    +0.339 C 
ATOM     18  O   UNL     1      -1.367  -3.181  -0.720  0.00  0.00    -0.245 OA
BRANCH  17  19
ATOM     19  O   UNL     1      -2.808  -1.675  -1.538  0.00  0.00    -0.446 OA
BRANCH  19  21
ATOM     20  C   UNL     1      -4.877  -1.963  -0.508  0.00  0.00    +0.051 C 
ATOM     21  C   UNL     1      -3.932  -2.541  -1.392  0.00  0.00    +0.209 C 
ENDBRANCH  19  21
ENDBRANCH  17  19
ENDBRANCH   1  17
BRANCH   3  22
ATOM     22  C   UNL     1       0.157   2.611  -0.367  0.00  0.00    +0.339 C 
ATOM     23  O   UNL     1       1.244   3.059   0.116  0.00  0.00    -0.245 OA
BRANCH  22  24
ATOM     24  O   UNL     1      -0.769   3.629  -0.628  0.00  0.00    -0.442 OA
ATOM     25  C   UNL     1      -0.437   5.011  -0.507  0.00  0.00    +0.256 C 
ENDBRANCH  22  24
ENDBRANCH   3  22
TORSDOF 6
