REMARK  Name = 
REMARK  0 active torsions:
REMARK  status: ('A' for Active; 'I' for Inactive)
REMARK                            x       y       z     vdW  Elec       q    Type
REMARK                         _______ _______ _______ _____ _____    ______ ____
ROOT
ATOM      1  O   UNL     1      -2.679   1.500   0.877  0.00  0.00    +0.000 OA
ATOM      2  B   UNL     1      -1.970   0.445   0.172  0.00  0.00    +0.000 B 
ATOM      3  C   UNL     1      -0.498   0.491  -0.368  0.00  0.00    +0.000 A 
ATOM      4  C   UNL     1      -0.088  -0.836  -0.325  0.00  0.00    +0.000 A 
ATOM      5  C   UNL     1       1.271  -1.120  -0.310  0.00  0.00    +0.000 A 
ATOM      6  C   UNL     1       2.167  -0.132   0.084  0.00  0.00    +0.000 A 
ATOM      7  C   UNL     1       1.806   1.157  -0.285  0.00  0.00    +0.000 A 
ATOM      8  F   UNL     1       3.194  -0.386   0.942  0.00  0.00    +0.000 F 
ATOM      9  C   UNL     1      -1.331  -1.621  -0.519  0.00  0.00    +0.000 C 
ATOM     10  C   UNL     1       0.462   1.468  -0.450  0.00  0.00    +0.000 A 
ATOM     11  O   UNL     1      -2.334  -0.965   0.181  0.00  0.00    +0.000 OA
ENDROOT
TORSDOF 0
