REMARK  Name = 
REMARK  2 active torsions:
REMARK  status: ('A' for Active; 'I' for Inactive)
REMARK    1  A    between atoms: C_21  and  C_23
REMARK    2  A    between atoms: C_23  and  C_25
REMARK                            x       y       z     vdW  Elec       q    Type
REMARK                         _______ _______ _______ _____ _____    ______ ____
ROOT
ATOM      1  C   UNL     1       1.649   0.025  -1.939  0.00  0.00    +0.003 C 
ATOM      2  C   UNL     1       1.676  -0.243  -0.630  0.00  0.00    +0.035 C 
ATOM      3  C   UNL     1       2.999   0.164  -0.099  0.00  0.00    +0.180 C 
ATOM      4  O   UNL     1       3.039  -0.133   1.232  0.00  0.00    -0.218 OA
ATOM      5  C   UNL     1       3.007   1.672  -0.350  0.00  0.00    +0.038 C 
ATOM      6  C   UNL     1       1.590   2.043  -0.777  0.00  0.00    +0.003 C 
ATOM      7  C   UNL     1       0.951   0.938   0.213  0.00  0.00    +0.003 C 
ATOM      8  C   UNL     1      -0.459   0.728  -0.683  0.00  0.00    +0.003 C 
ATOM      9  C   UNL     1      -1.166   1.972   0.026  0.00  0.00    +0.004 C 
ATOM     10  C   UNL     1      -2.127   1.625   1.050  0.00  0.00    +0.022 C 
ATOM     11  C   UNL     1      -3.071   0.529   0.729  0.00  0.00    -0.038 C 
ATOM     12  C   UNL     1      -2.419  -0.580  -0.045  0.00  0.00    +0.036 C 
ATOM     13  C   UNL     1      -2.585  -0.288  -1.462  0.00  0.00    +0.009 C 
ATOM     14  C   UNL     1      -2.897  -1.891   0.429  0.00  0.00    -0.020 C 
ATOM     15  C   UNL     1      -4.176  -2.026   0.787  0.00  0.00    +0.038 C 
ATOM     16  C   UNL     1      -4.895  -0.859   1.310  0.00  0.00    +0.195 C 
ATOM     17  O   UNL     1      -6.080  -0.904   1.719  0.00  0.00    -0.287 OA
ATOM     18  C   UNL     1      -4.029   0.286   1.622  0.00  0.00    +0.034 C 
ATOM     19  C   UNL     1      -0.909  -0.402   0.465  0.00  0.00    +0.038 C 
ATOM     20  C   UNL     1      -0.342  -1.799  -0.328  0.00  0.00    +0.153 C 
ATOM     21  O   UNL     1      -0.326  -1.266  -1.740  0.00  0.00    -0.223 OA
ATOM     22  C   UNL     1       1.237  -1.474  -0.045  0.00  0.00    +0.036 C 
ENDROOT
BRANCH   3  23
ATOM     23  C   UNL     1       4.196  -0.322  -0.783  0.00  0.00    +0.211 C 
ATOM     24  O   UNL     1       4.347   0.070  -1.941  0.00  0.00    -0.291 OA
BRANCH  23  25
ATOM     25  C   UNL     1       5.461  -0.289   0.029  0.00  0.00    +0.248 C 
ATOM     26  O   UNL     1       5.327   0.404   1.211  0.00  0.00    -0.212 OA
ENDBRANCH  23  25
ENDBRANCH   3  23
TORSDOF 2
