REMARK  Name = 
REMARK  5 active torsions:
REMARK  status: ('A' for Active; 'I' for Inactive)
REMARK    1  A    between atoms: N_2  and  C_4
REMARK    2  A    between atoms: C_4  and  C_5
REMARK    3  A    between atoms: C_5  and  C_6
REMARK    4  A    between atoms: C_6  and  C_7
REMARK    5  A    between atoms: C_6  and  C_13
REMARK                            x       y       z     vdW  Elec       q    Type
REMARK                         _______ _______ _______ _____ _____    ______ ____
ROOT
ATOM      1  C   UNL     1      -0.161  -0.027  -0.481  0.00  0.00    +0.064 C 
ENDROOT
BRANCH   1   2
ATOM      2  C   UNL     1      -1.088  -0.841   0.594  0.00  0.00    +0.063 A 
ATOM      3  N   UNL     1      -1.058  -2.147   0.223  0.00  0.00    -0.248 NA
ATOM      4  C   UNL     1      -2.174  -2.919   0.218  0.00  0.00    +0.098 A 
ATOM      5  C   UNL     1      -3.440  -2.356   0.331  0.00  0.00    +0.021 A 
ATOM      6  C   UNL     1      -3.463  -1.107   0.940  0.00  0.00    +0.003 A 
ATOM      7  C   UNL     1      -2.355  -0.320   0.727  0.00  0.00    +0.015 A 
ENDBRANCH   1   2
BRANCH   1   8
ATOM      8  C   UNL     1      -0.109   1.298   0.481  0.00  0.00    -0.017 A 
ATOM      9  C   UNL     1      -1.234   2.107   0.312  0.00  0.00    -0.004 A 
ATOM     10  C   UNL     1      -1.119   3.441   0.689  0.00  0.00    -0.000 A 
ATOM     11  C   UNL     1      -0.011   4.085   0.146  0.00  0.00    -0.000 A 
ATOM     12  C   UNL     1       1.150   3.346   0.116  0.00  0.00    -0.000 A 
ATOM     13  C   UNL     1       1.081   1.983   0.234  0.00  0.00    -0.004 A 
ENDBRANCH   1   8
BRANCH   1  14
ATOM     14  C   UNL     1       1.230  -0.649   0.195  0.00  0.00    +0.028 C 
BRANCH  14  15
ATOM     15  C   UNL     1       1.957  -1.222  -1.017  0.00  0.00    +0.073 C 
BRANCH  15  17
ATOM     16  C   UNL     1       3.918  -0.614  -0.340  0.00  0.00    +0.090 C 
ATOM     17  N   UNL     1       3.340  -1.383  -0.624  0.00  0.00    -0.270 NA
ATOM     18  C   UNL     1       3.539  -2.675   0.031  0.00  0.00    +0.090 C 
ENDBRANCH  15  17
ENDBRANCH  14  15
ENDBRANCH   1  14
TORSDOF 5
