REMARK  Name = 
REMARK  4 active torsions:
REMARK  status: ('A' for Active; 'I' for Inactive)
REMARK    1  A    between atoms: C_2  and  C_4
REMARK    2  A    between atoms: N_6  and  C_7
REMARK    3  A    between atoms: C_10  and  N_11
REMARK    4  A    between atoms: C_14  and  C_15
REMARK                            x       y       z     vdW  Elec       q    Type
REMARK                         _______ _______ _______ _____ _____    ______ ____
ROOT
ATOM      1  C   UNL     1       0.893   0.246   0.826  0.00  0.00    +0.074 A 
ATOM      2  C   UNL     1      -0.199   1.063   0.556  0.00  0.00    +0.027 A 
ATOM      3  C   UNL     1      -1.419   0.523   0.169  0.00  0.00    +0.142 A 
ATOM      4  C   UNL     1      -1.614  -0.820   0.354  0.00  0.00    +0.294 A 
ATOM      5  C   UNL     1      -0.530  -1.671   0.531  0.00  0.00    +0.077 A 
ATOM      6  C   UNL     1       0.712  -1.100   0.529  0.00  0.00    +0.023 A 
ENDROOT
BRANCH   3   7
ATOM      7  C   UNL     1      -2.602   1.411   0.146  0.00  0.00    +0.424 C 
ATOM      8  F   UNL     1      -3.705   0.700  -0.250  0.00  0.00    -0.166 F 
ATOM      9  F   UNL     1      -2.757   1.938   1.422  0.00  0.00    -0.166 F 
ATOM     10  F   UNL     1      -2.374   2.468  -0.714  0.00  0.00    -0.166 F 
ENDBRANCH   3   7
BRANCH   1  12
ATOM     11  C   UNL     1       3.195   0.499  -0.087  0.00  0.00    +0.245 C 
ATOM     12  N   UNL     1       2.212   0.800   0.899  0.00  0.00    -0.179 NA
ATOM     13  O   UNL     1       2.760   0.052  -1.185  0.00  0.00    -0.273 OA
BRANCH  11  15
ATOM     14  C   UNL     1       4.745  -0.996   0.979  0.00  0.00    +0.010 C 
ATOM     15  C   UNL     1       4.643   0.329   0.244  0.00  0.00    +0.079 C 
ATOM     16  C   UNL     1       5.392   0.180  -1.071  0.00  0.00    +0.010 C 
ENDBRANCH  11  15
ENDBRANCH   1  12
BRANCH   4  17
ATOM     17  N   UNL     1      -2.877  -1.470   0.164  0.00  0.00    +0.081 N 
ATOM     18  O   UNL     1      -3.011  -2.183  -1.016  0.00  0.00    -0.576 OA
ATOM     19  O   UNL     1      -3.462  -1.970   1.158  0.00  0.00    +0.041 OA
ENDBRANCH   4  17
TORSDOF 4
