REMARK  Name = 
REMARK  4 active torsions:
REMARK  status: ('A' for Active; 'I' for Inactive)
REMARK    1  A    between atoms: C_6  and  N_7
REMARK    2  A    between atoms: N_7  and  C_9
REMARK    3  A    between atoms: N_14  and  C_15
REMARK    4  A    between atoms: C_20  and  S_21
REMARK                            x       y       z     vdW  Elec       q    Type
REMARK                         _______ _______ _______ _____ _____    ______ ____
ROOT
ATOM      1  C   UNL     1       1.029   0.910   0.600  0.00  0.00    +0.140 A 
ATOM      2  N   UNL     1      -0.036   1.661   0.269  0.00  0.00    -0.197 NA
ATOM      3  C   UNL     1      -1.171   1.111  -0.218  0.00  0.00    +0.242 A 
ATOM      4  N   UNL     1      -2.191   1.921  -0.771  0.00  0.00    -0.178 NA
ATOM      5  N   UNL     1      -1.343  -0.205  -0.072  0.00  0.00    -0.211 NA
ATOM      6  C   UNL     1      -0.478  -0.912   0.690  0.00  0.00    +0.105 A 
ATOM      7  C   UNL     1       0.774  -0.402   0.958  0.00  0.00    +0.055 A 
ENDROOT
BRANCH   4   8
ATOM      8  C   UNL     1      -3.557   1.672  -0.458  0.00  0.00    +0.075 A 
ATOM      9  C   UNL     1      -4.072   0.383  -0.492  0.00  0.00    +0.036 A 
ATOM     10  C   UNL     1      -5.426   0.262  -0.238  0.00  0.00    +0.122 A 
ATOM     11  C   UNL     1      -6.128   1.272   0.377  0.00  0.00    -0.003 A 
ATOM     12  C   UNL     1      -7.582   1.181   0.627  0.00  0.00    +0.032 C 
ATOM     13  C   UNL     1      -5.496   2.451   0.719  0.00  0.00    -0.002 A 
ATOM     14  C   UNL     1      -4.169   2.569   0.392  0.00  0.00    +0.016 A 
BRANCH  10  15
ATOM     15  S   UNL     1      -6.295  -1.245  -0.506  0.00  0.00    +0.093 S 
ATOM     16  O   UNL     1      -6.858  -1.178  -1.890  0.00  0.00    -0.150 OA
ATOM     17  O   UNL     1      -7.391  -1.397   0.526  0.00  0.00    -0.150 OA
ATOM     18  N   UNL     1      -5.151  -2.540  -0.386  0.00  0.00    +0.039 NA
ENDBRANCH  10  15
ENDBRANCH   4   8
BRANCH   1  19
ATOM     19  N   UNL     1       2.354   1.376   0.351  0.00  0.00    -0.270 N 
ATOM     20  C   UNL     1       2.824   2.454   1.198  0.00  0.00    +0.119 C 
BRANCH  19  28
ATOM     21  C   UNL     1       6.146  -3.503   0.846  0.00  0.00    +0.052 C 
ATOM     22  C   UNL     1       6.250  -2.193   0.131  0.00  0.00    +0.057 A 
ATOM     23  N   UNL     1       7.231  -1.289   0.369  0.00  0.00    -0.253 N 
ATOM     24  C   UNL     1       8.389  -1.494   1.234  0.00  0.00    +0.153 C 
ATOM     25  N   UNL     1       6.903  -0.138  -0.218  0.00  0.00    -0.170 NA
ATOM     26  C   UNL     1       5.572  -0.125  -0.473  0.00  0.00    +0.103 A 
ATOM     27  C   UNL     1       4.595   0.864  -0.474  0.00  0.00    +0.036 A 
ATOM     28  C   UNL     1       3.250   0.532  -0.370  0.00  0.00    +0.054 A 
ATOM     29  C   UNL     1       2.923  -0.764  -0.727  0.00  0.00    +0.015 A 
ATOM     30  C   UNL     1       3.883  -1.768  -0.691  0.00  0.00    +0.004 A 
ATOM     31  C   UNL     1       5.218  -1.469  -0.455  0.00  0.00    +0.033 A 
ENDBRANCH  19  28
ENDBRANCH   1  19
TORSDOF 4
