REMARK  Name = 
REMARK  16 active torsions:
REMARK  status: ('A' for Active; 'I' for Inactive)
REMARK    1  A    between atoms: C_2  and  C_4
REMARK    2  A    between atoms: C_4  and  N_5
REMARK    3  A    between atoms: N_5  and  C_6
REMARK    4  A    between atoms: N_5  and  C_17
REMARK    5  A    between atoms: C_6  and  C_7
REMARK    6  A    between atoms: C_7  and  N_8
REMARK    7  A    between atoms: N_8  and  C_9
REMARK    8  A    between atoms: N_8  and  C_13
REMARK    9  A    between atoms: C_9  and  C_10
REMARK   10  A    between atoms: C_13  and  C_14
REMARK   11  A    between atoms: C_17  and  C_18
REMARK   12  A    between atoms: C_18  and  N_19
REMARK   13  A    between atoms: N_19  and  C_20
REMARK   14  A    between atoms: N_19  and  C_24
REMARK   15  A    between atoms: C_20  and  C_21
REMARK   16  A    between atoms: C_24  and  C_25
REMARK                            x       y       z     vdW  Elec       q    Type
REMARK                         _______ _______ _______ _____ _____    ______ ____
ROOT
ATOM      1  N   UNL     1      -0.088  -0.605   1.097  0.00  0.00    -0.261 NA
ENDROOT
BRANCH   1   2
ATOM      2  C   UNL     1       0.677   0.640   1.087  0.00  0.00    +0.090 C 
BRANCH   2   3
ATOM      3  C   UNL     1       1.557   0.579  -0.132  0.00  0.00    +0.091 C 
BRANCH   3   4
ATOM      4  N   UNL     1       2.943   0.742   0.120  0.00  0.00    -0.252 NA
BRANCH   4   5
ATOM      5  C   UNL     1       3.338   1.955   0.754  0.00  0.00    +0.188 C 
BRANCH   5   6
ATOM      6  C   UNL     1       3.852   2.869  -0.314  0.00  0.00    +0.381 C 
ATOM      7  O   UNL     1       4.124   2.391  -1.601  0.00  0.00    -0.244 OA
ATOM      8  O   UNL     1       4.244   4.038  -0.082  0.00  0.00    -0.244 OA
ENDBRANCH   5   6
ENDBRANCH   4   5
BRANCH   4   9
ATOM      9  C   UNL     1       3.661  -0.427   0.502  0.00  0.00    +0.188 C 
BRANCH   9  10
ATOM     10  C   UNL     1       4.016  -1.155  -0.755  0.00  0.00    +0.381 C 
ATOM     11  O   UNL     1       5.269  -1.748  -0.935  0.00  0.00    -0.244 OA
ATOM     12  O   UNL     1       3.342  -0.993  -1.817  0.00  0.00    -0.244 OA
ENDBRANCH   9  10
ENDBRANCH   4   9
ENDBRANCH   3   4
ENDBRANCH   2   3
ENDBRANCH   1   2
BRANCH   1  13
ATOM     13  C   UNL     1      -1.456  -0.398   1.504  0.00  0.00    +0.090 C 
BRANCH  13  14
ATOM     14  C   UNL     1      -2.249   0.238   0.394  0.00  0.00    +0.091 C 
BRANCH  14  15
ATOM     15  N   UNL     1      -3.341  -0.616  -0.060  0.00  0.00    -0.252 NA
BRANCH  15  16
ATOM     16  C   UNL     1      -4.457  -0.321   0.839  0.00  0.00    +0.188 C 
BRANCH  16  17
ATOM     17  C   UNL     1      -5.030   1.031   0.562  0.00  0.00    +0.381 C 
ATOM     18  O   UNL     1      -5.929   1.177  -0.489  0.00  0.00    -0.244 OA
ATOM     19  O   UNL     1      -4.942   1.976   1.380  0.00  0.00    -0.244 OA
ENDBRANCH  16  17
ENDBRANCH  15  16
BRANCH  15  20
ATOM     20  C   UNL     1      -3.793  -0.280  -1.381  0.00  0.00    +0.188 C 
BRANCH  20  21
ATOM     21  C   UNL     1      -2.708  -0.052  -2.350  0.00  0.00    +0.381 C 
ATOM     22  O   UNL     1      -3.100   0.312  -3.642  0.00  0.00    -0.244 OA
ATOM     23  O   UNL     1      -1.525   0.246  -2.043  0.00  0.00    -0.244 OA
ENDBRANCH  20  21
ENDBRANCH  15  20
ENDBRANCH  14  15
ENDBRANCH  13  14
ENDBRANCH   1  13
BRANCH   1  24
ATOM     24  C   UNL     1       0.610  -1.484   2.020  0.00  0.00    +0.188 C 
BRANCH  24  26
ATOM     25  O   UNL     1       0.528  -3.478   0.675  0.00  0.00    -0.244 OA
ATOM     26  C   UNL     1       0.238  -2.909   1.768  0.00  0.00    +0.381 C 
ATOM     27  O   UNL     1       0.217  -3.731   2.899  0.00  0.00    -0.244 OA
ENDBRANCH  24  26
ENDBRANCH   1  24
TORSDOF 16
