REMARK  Name = 
REMARK  5 active torsions:
REMARK  status: ('A' for Active; 'I' for Inactive)
REMARK    1  A    between atoms: C_6  and  O_7
REMARK    2  A    between atoms: O_7  and  C_8
REMARK    3  A    between atoms: C_8  and  C_10
REMARK    4  A    between atoms: C_10  and  C_11
REMARK    5  A    between atoms: C_10  and  C_13
REMARK                            x       y       z     vdW  Elec       q    Type
REMARK                         _______ _______ _______ _____ _____    ______ ____
ROOT
ATOM      1  O   UNL     1       0.347   0.554  -0.396  0.00  0.00    -0.452 OA
ENDROOT
BRANCH   1   9
ATOM      2  C   UNL     1       3.492  -1.523   0.855  0.00  0.00    +0.170 C 
ATOM      3  N   UNL     1       3.294  -1.453   0.602  0.00  0.00    +0.302 N 
ATOM      4  C   UNL     1       1.748  -0.921   0.675  0.00  0.00    +0.093 C 
ATOM      5  C   UNL     1       2.490   0.076  -0.409  0.00  0.00    +0.197 C 
ATOM      6  C   UNL     1       3.505   0.568   0.956  0.00  0.00    +0.197 C 
ATOM      7  O   UNL     1       2.650   1.740   0.024  0.00  0.00    -0.342 OA
ATOM      8  C   UNL     1       1.797   0.363   1.584  0.00  0.00    +0.101 C 
ATOM      9  C   UNL     1       1.577   0.603   0.089  0.00  0.00    +0.180 C 
ATOM     10  C   UNL     1       2.609   0.046  -0.984  0.00  0.00    +0.101 C 
ATOM     11  C   UNL     1       4.044  -0.333  -0.334  0.00  0.00    +0.093 C 
ATOM     12  C   UNL     1       3.007  -2.342  -0.558  0.00  0.00    +0.170 C 
ENDBRANCH   1   9
BRANCH   1  13
ATOM     13  C   UNL     1      -0.663   0.587   0.580  0.00  0.00    +0.323 C 
ATOM     14  O   UNL     1      -0.393   1.395   1.480  0.00  0.00    -0.250 OA
BRANCH  13  15
ATOM     15  C   UNL     1      -1.738   0.984  -0.560  0.00  0.00    +0.154 C 
BRANCH  15  16
ATOM     16  C   UNL     1      -2.871   0.021   0.015  0.00  0.00    -0.009 A 
ATOM     17  C   UNL     1      -3.814  -0.034  -0.979  0.00  0.00    -0.004 A 
ATOM     18  C   UNL     1      -4.513  -1.215  -1.144  0.00  0.00    -0.000 A 
ATOM     19  C   UNL     1      -4.672  -1.982  -0.006  0.00  0.00    -0.000 A 
ATOM     20  C   UNL     1      -3.930  -1.643   1.131  0.00  0.00    -0.000 A 
ATOM     21  C   UNL     1      -2.834  -0.782   1.031  0.00  0.00    -0.004 A 
ENDBRANCH  15  16
BRANCH  15  22
ATOM     22  C   UNL     1      -2.309   2.287   0.263  0.00  0.00    +0.198 C 
ATOM     23  O   UNL     1      -2.821   3.001  -0.777  0.00  0.00    -0.219 OA
ENDBRANCH  15  22
ENDBRANCH  13  15
ENDBRANCH   1  13
TORSDOF 5
