REMARK  Name = 
REMARK  11 active torsions:
REMARK  status: ('A' for Active; 'I' for Inactive)
REMARK    1  A    between atoms: C_2  and  C_3
REMARK    2  A    between atoms: C_3  and  N_4
REMARK    3  A    between atoms: N_4  and  C_5
REMARK    4  A    between atoms: C_5  and  C_6
REMARK    5  A    between atoms: C_6  and  C_8
REMARK    6  A    between atoms: C_8  and  O_9
REMARK    7  A    between atoms: O_9  and  C_10
REMARK    8  A    between atoms: C_15  and  C_16
REMARK    9  A    between atoms: C_16  and  C_18
REMARK   10  A    between atoms: C_18  and  C_19
REMARK   11  A    between atoms: C_19  and  C_20
REMARK                            x       y       z     vdW  Elec       q    Type
REMARK                         _______ _______ _______ _____ _____    ______ ____
ROOT
ATOM      1  C   UNL     1       0.971   0.216   0.772  0.00  0.00    +0.141 A 
ATOM      2  C   UNL     1      -0.321   0.083   1.260  0.00  0.00    +0.069 A 
ATOM      3  C   UNL     1      -0.486  -0.528   2.468  0.00  0.00    +0.006 A 
ATOM      4  C   UNL     1       0.602  -0.932   3.232  0.00  0.00    +0.000 A 
ATOM      5  C   UNL     1       1.839  -0.436   2.909  0.00  0.00    +0.003 A 
ATOM      6  C   UNL     1       1.965   0.303   1.739  0.00  0.00    +0.037 A 
ENDROOT
BRANCH   2   7
ATOM      7  C   UNL     1      -1.458   0.372   0.404  0.00  0.00    +0.176 C 
ATOM      8  O   UNL     1      -1.666  -0.359  -0.584  0.00  0.00    -0.291 OA
BRANCH   7   9
ATOM      9  C   UNL     1      -2.334   1.531   0.759  0.00  0.00    +0.074 C 
BRANCH   9  10
ATOM     10  C   UNL     1      -3.431   1.036   1.695  0.00  0.00    +0.034 C 
BRANCH  10  11
ATOM     11  C   UNL     1      -4.504   0.370   0.941  0.00  0.00    -0.022 A 
ATOM     12  C   UNL     1      -5.540   1.095   0.420  0.00  0.00    -0.004 A 
ATOM     13  C   UNL     1      -6.378   0.514  -0.524  0.00  0.00    -0.000 A 
ATOM     14  C   UNL     1      -6.030  -0.708  -1.039  0.00  0.00    -0.000 A 
ATOM     15  C   UNL     1      -5.204  -1.519  -0.305  0.00  0.00    -0.000 A 
ATOM     16  C   UNL     1      -4.484  -1.007   0.765  0.00  0.00    -0.004 A 
ENDBRANCH  10  11
ENDBRANCH   9  10
ENDBRANCH   7   9
ENDBRANCH   2   7
BRANCH   1  17
ATOM     17  O   UNL     1       1.096   0.996  -0.374  0.00  0.00    -0.473 OA
BRANCH  17  18
ATOM     18  C   UNL     1       1.554   0.476  -1.593  0.00  0.00    +0.240 C 
BRANCH  18  19
ATOM     19  C   UNL     1       3.183   0.684  -1.439  0.00  0.00    +0.213 C 
ATOM     20  O   UNL     1       3.369  -0.712  -0.865  0.00  0.00    -0.218 OA
BRANCH  19  21
ATOM     21  C   UNL     1       3.467   0.159  -2.978  0.00  0.00    +0.125 C 
BRANCH  21  22
ATOM     22  N   UNL     1       4.883   0.521  -3.073  0.00  0.00    -0.215 NA
BRANCH  22  23
ATOM     23  C   UNL     1       5.618  -0.298  -2.125  0.00  0.00    +0.089 C 
BRANCH  23  25
ATOM     24  C   UNL     1       6.704   0.377  -1.162  0.00  0.00    +0.002 C 
ATOM     25  C   UNL     1       6.585   0.496  -1.305  0.00  0.00    +0.019 C 
ENDBRANCH  23  25
ENDBRANCH  22  23
ENDBRANCH  21  22
ENDBRANCH  19  21
ENDBRANCH  18  19
ENDBRANCH  17  18
ENDBRANCH   1  17
TORSDOF 11
