REMARK  Name = 
REMARK  13 active torsions:
REMARK  status: ('A' for Active; 'I' for Inactive)
REMARK    1  A    between atoms: O_2  and  C_3
REMARK    2  A    between atoms: C_3  and  C_4
REMARK    3  A    between atoms: C_6  and  C_7
REMARK    4  A    between atoms: C_10  and  C_11
REMARK    5  A    between atoms: C_24  and  C_25
REMARK    6  A    between atoms: C_31  and  C_33
REMARK    7  A    between atoms: C_33  and  N_34
REMARK    8  A    between atoms: C_33  and  C_39
REMARK    9  A    between atoms: C_35  and  O_37
REMARK   10  A    between atoms: C_51  and  C_53
REMARK   11  A    between atoms: C_53  and  N_54
REMARK   12  A    between atoms: C_53  and  C_59
REMARK   13  A    between atoms: C_55  and  O_57
REMARK                            x       y       z     vdW  Elec       q    Type
REMARK                         _______ _______ _______ _____ _____    ______ ____
ROOT
ATOM      1  C   UNL     1       2.285   2.105   1.639  0.00  0.00    +0.019 A 
ATOM      2  C   UNL     1       2.028   0.769   1.939  0.00  0.00    +0.001 A 
ATOM      3  C   UNL     1       1.174  -0.023   1.184  0.00  0.00    +0.021 A 
ATOM      4  C   UNL     1       1.360  -1.517   1.185  0.00  0.00    +0.232 C 
ATOM      5  O   UNL     1       0.134  -2.067   0.764  0.00  0.00    -0.471 OA
ATOM      6  C   UNL     1      -0.815  -1.356   0.065  0.00  0.00    +0.139 A 
ATOM      7  C   UNL     1      -0.414  -0.209  -0.611  0.00  0.00    +0.034 A 
ATOM      8  C   UNL     1      -1.269   0.337  -1.538  0.00  0.00    +0.003 A 
ATOM      9  C   UNL     1      -2.486  -0.300  -1.751  0.00  0.00    +0.002 A 
ATOM     10  C   UNL     1      -2.998  -1.121  -0.770  0.00  0.00    +0.022 A 
ATOM     11  C   UNL     1      -4.347  -1.346  -0.593  0.00  0.00    +0.100 A 
ATOM     12  C   UNL     1      -5.197  -0.892  -1.596  0.00  0.00    +0.100 A 
ATOM     13  C   UNL     1      -4.639  -0.448  -2.779  0.00  0.00    +0.021 A 
ATOM     14  N   UNL     1      -6.410  -1.289  -1.217  0.00  0.00    -0.228 NA
ATOM     15  C   UNL     1      -6.405  -1.758   0.028  0.00  0.00    +0.157 A 
ATOM     16  N   UNL     1      -5.158  -1.466   0.493  0.00  0.00    -0.228 NA
ATOM     17  C   UNL     1      -3.337   0.029  -2.781  0.00  0.00    +0.002 A 
ATOM     18  C   UNL     1      -2.155  -1.729   0.134  0.00  0.00    +0.038 A 
ATOM     19  C   UNL     1       0.704   0.522  -0.004  0.00  0.00    +0.002 A 
ATOM     20  C   UNL     1       0.801   1.879  -0.243  0.00  0.00    -0.000 A 
ATOM     21  C   UNL     1       1.814   2.554   0.405  0.00  0.00    +0.002 A 
ENDROOT
BRANCH  15  22
ATOM     22  C   UNL     1      -7.672  -1.291   0.935  0.00  0.00    +0.134 C 
ATOM     23  N   UNL     1      -8.696  -2.051   0.007  0.00  0.00    -0.275 N 
ATOM     24  C   UNL     1      -9.470  -1.431  -0.974  0.00  0.00    +0.246 C 
ATOM     25  O   UNL     1      -9.486  -2.009  -2.109  0.00  0.00    -0.273 OA
ATOM     26  C   UNL     1      -9.230  -3.207   0.903  0.00  0.00    +0.076 C 
ATOM     27  C   UNL     1      -9.473  -4.183  -0.405  0.00  0.00    +0.022 C 
ATOM     28  C   UNL     1      -7.689  -3.737   1.090  0.00  0.00    +0.022 C 
ATOM     29  C   UNL     1      -7.435  -2.543   1.980  0.00  0.00    +0.029 C 
BRANCH  24  30
ATOM     30  C   UNL     1     -11.018  -1.072  -0.658  0.00  0.00    +0.175 C 
BRANCH  30  31
ATOM     31  C   UNL     1     -10.902   0.434  -1.313  0.00  0.00    +0.029 C 
ATOM     32  C   UNL     1      -9.567   0.910  -1.335  0.00  0.00    +0.002 C 
ATOM     33  C   UNL     1     -11.736   0.467  -2.534  0.00  0.00    +0.002 C 
ENDBRANCH  30  31
BRANCH  30  34
ATOM     34  N   UNL     1     -10.705  -0.588   0.814  0.00  0.00    -0.161 NA
ATOM     35  C   UNL     1     -11.394   0.519   1.290  0.00  0.00    +0.422 C 
ATOM     36  O   UNL     1     -12.102   1.176   0.464  0.00  0.00    -0.225 OA
BRANCH  35  37
ATOM     37  O   UNL     1     -10.904   1.135   2.447  0.00  0.00    -0.429 OA
ATOM     38  C   UNL     1     -11.229   2.523   2.590  0.00  0.00    +0.257 C 
ENDBRANCH  35  37
ENDBRANCH  30  34
ENDBRANCH  24  30
ENDBRANCH  15  22
BRANCH   1  41
ATOM     39  C   UNL     1       5.778   2.373   1.458  0.00  0.00    +0.157 A 
ATOM     40  N   UNL     1       4.584   1.889   1.269  0.00  0.00    -0.227 NA
ATOM     41  C   UNL     1       3.640   2.568   1.978  0.00  0.00    +0.102 A 
ATOM     42  C   UNL     1       4.154   3.848   2.066  0.00  0.00    +0.119 A 
ATOM     43  N   UNL     1       5.484   3.616   1.983  0.00  0.00    -0.226 NA
BRANCH  39  49
ATOM     44  C   UNL     1       6.721   3.746  -1.054  0.00  0.00    +0.052 C 
ATOM     45  C   UNL     1       8.085   2.792  -1.122  0.00  0.00    +0.096 C 
ATOM     46  N   UNL     1       7.801   1.904   0.027  0.00  0.00    -0.273 N 
ATOM     47  C   UNL     1       7.465   0.590   0.165  0.00  0.00    +0.250 C 
ATOM     48  O   UNL     1       6.455  -0.080   0.284  0.00  0.00    -0.273 OA
ATOM     49  C   UNL     1       6.669   2.983   0.265  0.00  0.00    +0.134 C 
ATOM     50  C   UNL     1       5.860   2.342  -1.081  0.00  0.00    +0.032 C 
BRANCH  47  51
ATOM     51  C   UNL     1       8.841  -0.226  -0.120  0.00  0.00    +0.197 C 
BRANCH  51  52
ATOM     52  C   UNL     1       8.565  -1.346   1.026  0.00  0.00    +0.006 A 
ATOM     53  C   UNL     1       8.021  -0.920   2.188  0.00  0.00    -0.002 A 
ATOM     54  C   UNL     1       8.177  -1.741   3.299  0.00  0.00    -0.000 A 
ATOM     55  C   UNL     1       9.467  -2.231   3.467  0.00  0.00    -0.000 A 
ATOM     56  C   UNL     1      10.367  -2.162   2.410  0.00  0.00    -0.000 A 
ATOM     57  C   UNL     1       9.749  -2.078   1.162  0.00  0.00    -0.002 A 
ENDBRANCH  51  52
BRANCH  51  58
ATOM     58  N   UNL     1       8.164  -1.089  -1.266  0.00  0.00    -0.157 NA
ATOM     59  C   UNL     1       9.146  -1.764  -1.974  0.00  0.00    +0.422 C 
ATOM     60  O   UNL     1      10.184  -1.150  -2.352  0.00  0.00    -0.225 OA
BRANCH  59  61
ATOM     61  O   UNL     1       8.976  -3.050  -2.468  0.00  0.00    -0.429 OA
ATOM     62  C   UNL     1      10.052  -3.744  -3.080  0.00  0.00    +0.257 C 
ENDBRANCH  59  61
ENDBRANCH  51  58
ENDBRANCH  47  51
BRANCH  44  63
ATOM     63  C   UNL     1       6.732   4.298  -2.584  0.00  0.00    +0.144 C 
BRANCH  63  65
ATOM     64  C   UNL     1       7.494   5.513  -1.151  0.00  0.00    +0.174 C 
ATOM     65  O   UNL     1       7.409   5.391  -1.951  0.00  0.00    -0.351 OA
ENDBRANCH  63  65
ENDBRANCH  44  63
ENDBRANCH  39  49
ENDBRANCH   1  41
TORSDOF 13
