REMARK  Name = 
REMARK  12 active torsions:
REMARK  status: ('A' for Active; 'I' for Inactive)
REMARK    1  A    between atoms: C_2  and  C_3
REMARK    2  A    between atoms: C_3  and  C_4
REMARK    3  A    between atoms: C_4  and  C_5
REMARK    4  A    between atoms: C_5  and  C_6
REMARK    5  A    between atoms: C_6  and  C_7
REMARK    6  A    between atoms: C_16  and  C_17
REMARK    7  A    between atoms: C_17  and  C_18
REMARK    8  A    between atoms: C_17  and  C_20
REMARK    9  A    between atoms: C_24  and  N_25
REMARK   10  A    between atoms: N_25  and  S_26
REMARK   11  A    between atoms: S_26  and  C_29
REMARK   12  A    between atoms: C_32  and  C_33
REMARK                            x       y       z     vdW  Elec       q    Type
REMARK                         _______ _______ _______ _____ _____    ______ ____
ROOT
ATOM      1  C   UNL     1      -0.704  -0.921  -1.022  0.00  0.00    +0.054 C 
ENDROOT
BRANCH   1   6
ATOM      2  C   UNL     1      -4.620  -0.789   0.376  0.00  0.00    +0.144 C 
ATOM      3  O   UNL     1      -4.049   0.316  -0.303  0.00  0.00    -0.452 OA
ATOM      4  C   UNL     1      -2.695   0.366  -0.650  0.00  0.00    +0.340 C 
ATOM      5  O   UNL     1      -2.434   0.939  -1.895  0.00  0.00    -0.245 OA
ATOM      6  C   UNL     1      -1.756  -0.276   0.058  0.00  0.00    +0.092 C 
ATOM      7  C   UNL     1      -2.337  -1.230   0.996  0.00  0.00    +0.179 C 
ATOM      8  O   UNL     1      -1.440  -1.841   1.655  0.00  0.00    -0.291 OA
ATOM      9  C   UNL     1      -3.719  -1.105   1.548  0.00  0.00    +0.109 C 
BRANCH   2  10
ATOM     10  C   UNL     1      -4.798  -1.945  -0.563  0.00  0.00    +0.041 C 
BRANCH  10  12
ATOM     11  C   UNL     1      -4.428  -4.126  -0.702  0.00  0.00    +0.000 C 
ATOM     12  C   UNL     1      -4.438  -3.255   0.074  0.00  0.00    +0.004 C 
ENDBRANCH  10  12
ENDBRANCH   2  10
BRANCH   2  13
ATOM     13  C   UNL     1      -5.960  -0.430   0.943  0.00  0.00    +0.045 C 
BRANCH  13  14
ATOM     14  C   UNL     1      -7.080  -0.501  -0.065  0.00  0.00    +0.030 C 
BRANCH  14  15
ATOM     15  C   UNL     1      -7.652   0.881  -0.153  0.00  0.00    -0.022 A 
ATOM     16  C   UNL     1      -6.926   1.760  -0.950  0.00  0.00    -0.004 A 
ATOM     17  C   UNL     1      -6.812   3.107  -0.654  0.00  0.00    -0.000 A 
ATOM     18  C   UNL     1      -7.225   3.570   0.590  0.00  0.00    -0.000 A 
ATOM     19  C   UNL     1      -8.226   2.820   1.194  0.00  0.00    -0.000 A 
ATOM     20  C   UNL     1      -8.212   1.457   0.982  0.00  0.00    -0.004 A 
ENDBRANCH  14  15
ENDBRANCH  13  14
ENDBRANCH   2  13
ENDBRANCH   1   6
BRANCH   1  21
ATOM     21  C   UNL     1       0.499   0.086  -0.569  0.00  0.00    -0.017 A 
ATOM     22  C   UNL     1       0.772   0.144   0.766  0.00  0.00    +0.014 A 
ATOM     23  C   UNL     1       1.845   0.956   1.117  0.00  0.00    +0.091 A 
ATOM     24  C   UNL     1       1.867   2.185   0.469  0.00  0.00    +0.018 A 
ATOM     25  C   UNL     1       1.073   2.403  -0.650  0.00  0.00    +0.001 A 
ATOM     26  C   UNL     1       0.539   1.273  -1.260  0.00  0.00    -0.004 A 
BRANCH  23  27
ATOM     27  N   UNL     1       2.779   0.640   2.125  0.00  0.00    -0.095 NA
BRANCH  27  28
ATOM     28  S   UNL     1       3.945  -0.618   1.939  0.00  0.00    +0.109 S 
ATOM     29  O   UNL     1       4.849  -0.646   3.134  0.00  0.00    -0.147 OA
ATOM     30  O   UNL     1       3.240  -1.920   1.750  0.00  0.00    -0.147 OA
BRANCH  28  31
ATOM     31  C   UNL     1       4.974  -0.276   0.550  0.00  0.00    +0.208 A 
ATOM     32  N   UNL     1       5.340   0.992   0.241  0.00  0.00    -0.224 NA
ATOM     33  C   UNL     1       6.601   1.296  -0.154  0.00  0.00    +0.104 A 
ATOM     34  C   UNL     1       7.545   0.291  -0.318  0.00  0.00    +0.091 A 
ATOM     35  C   UNL     1       7.038  -0.986  -0.472  0.00  0.00    +0.008 A 
ATOM     36  C   UNL     1       5.748  -1.270  -0.036  0.00  0.00    +0.040 A 
BRANCH  34  37
ATOM     37  C   UNL     1       8.981   0.500   0.009  0.00  0.00    +0.420 C 
ATOM     38  F   UNL     1       9.162   1.388   1.047  0.00  0.00    -0.166 F 
ATOM     39  F   UNL     1       9.594  -0.685   0.403  0.00  0.00    -0.166 F 
ATOM     40  F   UNL     1       9.648   0.997  -1.082  0.00  0.00    -0.166 F 
ENDBRANCH  34  37
ENDBRANCH  28  31
ENDBRANCH  27  28
ENDBRANCH  23  27
ENDBRANCH   1  21
BRANCH   1  41
ATOM     41  C   UNL     1      -0.139  -2.151  -0.038  0.00  0.00    +0.009 C 
ATOM     42  C   UNL     1      -0.388  -3.397  -0.837  0.00  0.00    +0.001 C 
ENDBRANCH   1  41
TORSDOF 12
