REMARK  Name = 
REMARK  1 active torsions:
REMARK  status: ('A' for Active; 'I' for Inactive)
REMARK    1  A    between atoms: C_2  and  C_4
REMARK                            x       y       z     vdW  Elec       q    Type
REMARK                         _______ _______ _______ _____ _____    ______ ____
ROOT
ATOM      1  C   UNL     1       0.360   0.554  -0.108  0.00  0.00    +0.030 C 
ATOM      2  C   UNL     1      -0.128  -0.840  -0.973  0.00  0.00    +0.152 C 
ATOM      3  O   UNL     1      -0.966  -0.076  -1.986  0.00  0.00    -0.223 OA
ATOM      4  C   UNL     1      -1.396  -1.277  -0.091  0.00  0.00    +0.033 C 
ATOM      5  C   UNL     1      -2.180  -0.156   0.737  0.00  0.00    +0.003 C 
ATOM      6  C   UNL     1      -1.964   1.181  -0.190  0.00  0.00    +0.000 C 
ATOM      7  C   UNL     1      -0.971   0.202   1.781  0.00  0.00    +0.000 C 
ATOM      8  C   UNL     1       0.312  -0.231   1.302  0.00  0.00    +0.003 C 
ENDROOT
BRANCH   1  10
ATOM      9  C   UNL     1       2.685   1.420  -0.354  0.00  0.00    +0.000 C 
ATOM     10  C   UNL     1       1.913   0.227  -0.375  0.00  0.00    +0.002 C 
ATOM     11  C   UNL     1       2.336  -1.005   0.256  0.00  0.00    +0.000 C 
ENDBRANCH   1  10
TORSDOF 1
