REMARK  Name = 
REMARK  12 active torsions:
REMARK  status: ('A' for Active; 'I' for Inactive)
REMARK    1  A    between atoms: N_4  and  C_5
REMARK    2  A    between atoms: N_4  and  C_10
REMARK    3  A    between atoms: C_5  and  C_6
REMARK    4  A    between atoms: C_6  and  C_8
REMARK    5  A    between atoms: C_13  and  C_14
REMARK    6  A    between atoms: N_16  and  C_17
REMARK    7  A    between atoms: C_17  and  C_18
REMARK    8  A    between atoms: C_18  and  C_20
REMARK    9  A    between atoms: C_24  and  C_25
REMARK   10  A    between atoms: N_27  and  C_28
REMARK   11  A    between atoms: C_28  and  C_29
REMARK   12  A    between atoms: C_29  and  C_31
REMARK                            x       y       z     vdW  Elec       q    Type
REMARK                         _______ _______ _______ _____ _____    ______ ____
ROOT
ATOM      1  C   UNL     1      -0.684   1.567  -0.556  0.00  0.00    +0.065 A 
ATOM      2  C   UNL     1       0.668   1.286  -0.699  0.00  0.00    +0.049 A 
ATOM      3  I   UNL     1       2.033   2.756  -1.290  0.00  0.00    -0.041 I 
ATOM      4  C   UNL     1       1.106   0.031  -0.296  0.00  0.00    +0.067 A 
ATOM      5  C   UNL     1       0.159  -0.978  -0.210  0.00  0.00    +0.040 A 
ATOM      6  I   UNL     1       0.773  -2.967   0.034  0.00  0.00    -0.042 I 
ATOM      7  C   UNL     1      -1.158  -0.761  -0.598  0.00  0.00    +0.067 A 
ATOM      8  C   UNL     1      -1.615   0.542  -0.665  0.00  0.00    +0.049 A 
ATOM      9  I   UNL     1      -3.494   1.001  -1.462  0.00  0.00    -0.041 I 
ENDROOT
BRANCH   1  12
ATOM     10  C   UNL     1      -0.258   4.591  -0.170  0.00  0.00    +0.095 C 
ATOM     11  C   UNL     1      -0.365   4.051  -0.707  0.00  0.00    +0.230 C 
ATOM     12  N   UNL     1      -1.089   2.890  -0.296  0.00  0.00    -0.255 N 
ATOM     13  O   UNL     1      -0.733   4.613  -1.767  0.00  0.00    -0.275 OA
BRANCH  12  14
ATOM     14  C   UNL     1      -2.242   3.187   0.551  0.00  0.00    +0.134 C 
BRANCH  14  15
ATOM     15  C   UNL     1      -1.975   2.313   1.931  0.00  0.00    +0.205 C 
ATOM     16  O   UNL     1      -1.629   3.575   2.714  0.00  0.00    -0.218 OA
BRANCH  15  17
ATOM     17  C   UNL     1      -3.574   2.401   2.350  0.00  0.00    +0.217 C 
ATOM     18  O   UNL     1      -3.601   2.632   3.704  0.00  0.00    -0.218 OA
ENDBRANCH  15  17
ENDBRANCH  14  15
ENDBRANCH  12  14
ENDBRANCH   1  12
BRANCH   4  19
ATOM     19  C   UNL     1       2.528  -0.257  -0.238  0.00  0.00    +0.266 C 
ATOM     20  N   UNL     1       3.482   0.741   0.138  0.00  0.00    -0.199 NA
ATOM     21  O   UNL     1       2.929  -1.425  -0.527  0.00  0.00    -0.268 OA
BRANCH  20  22
ATOM     22  C   UNL     1       4.818   0.589  -0.434  0.00  0.00    +0.151 C 
BRANCH  22  23
ATOM     23  C   UNL     1       5.781   0.249   0.868  0.00  0.00    +0.206 C 
ATOM     24  O   UNL     1       6.876   1.178   0.355  0.00  0.00    -0.218 OA
BRANCH  23  25
ATOM     25  C   UNL     1       6.446  -1.055   0.095  0.00  0.00    +0.217 C 
ATOM     26  O   UNL     1       7.749  -1.077   0.618  0.00  0.00    -0.218 OA
ENDBRANCH  23  25
ENDBRANCH  22  23
ENDBRANCH  20  22
ENDBRANCH   4  19
BRANCH   7  27
ATOM     27  C   UNL     1      -2.025  -1.885  -0.977  0.00  0.00    +0.266 C 
ATOM     28  N   UNL     1      -3.219  -2.215  -0.272  0.00  0.00    -0.199 NA
ATOM     29  O   UNL     1      -1.434  -2.884  -1.491  0.00  0.00    -0.268 OA
BRANCH  28  30
ATOM     30  C   UNL     1      -3.449  -3.526   0.321  0.00  0.00    +0.151 C 
BRANCH  30  31
ATOM     31  C   UNL     1      -3.283  -4.591  -0.935  0.00  0.00    +0.206 C 
ATOM     32  O   UNL     1      -4.788  -4.830  -0.992  0.00  0.00    -0.218 OA
BRANCH  31  33
ATOM     33  C   UNL     1      -3.067  -5.863   0.103  0.00  0.00    +0.217 C 
ATOM     34  O   UNL     1      -1.666  -5.877   0.217  0.00  0.00    -0.218 OA
ENDBRANCH  31  33
ENDBRANCH  30  31
ENDBRANCH  28  30
ENDBRANCH   7  27
TORSDOF 12
