REMARK  Name = 
REMARK  0 active torsions:
REMARK  status: ('A' for Active; 'I' for Inactive)
REMARK                            x       y       z     vdW  Elec       q    Type
REMARK                         _______ _______ _______ _____ _____    ______ ____
ROOT
ATOM      1  C   UNL     1      -0.707   2.301   0.000  0.00  0.00    +0.000 C 
ATOM      2  C   UNL     1       0.123   1.051   0.000  0.00  0.00    +0.001 C 
ATOM      3  C   UNL     1      -1.374   0.957   0.000  0.00  0.00    +0.000 C 
ATOM      4  C   UNL     1      -2.041  -0.386   0.000  0.00  0.00    +0.001 C 
ATOM      5  C   UNL     1      -1.211  -1.636   0.000  0.00  0.00    +0.000 C 
ATOM      6  C   UNL     1       0.286  -1.542   0.000  0.00  0.00    +0.001 C 
ATOM      7  C   UNL     1       1.783  -1.448   0.000  0.00  0.00    +0.018 C 
ATOM      8  C   UNL     1       2.450  -0.104   0.000  0.00  0.00    +0.077 C 
ATOM      9  N   UNL     1       3.947  -0.011   0.000  0.00  0.00    -0.134 NA
ATOM     10  C   UNL     1      -3.538  -0.480   0.000  0.00  0.00    +0.000 C 
ATOM     11  C   UNL     1      -0.792   0.444   0.000  0.00  0.00    +0.018 C 
ATOM     12  C   UNL     1       1.620   1.145   0.000  0.00  0.00    +0.018 C 
ATOM     13  C   UNL     1      -0.544  -0.292   0.000  0.00  0.00    +0.000 C 
ENDROOT
TORSDOF 0
