REMARK  Name = 
REMARK  3 active torsions:
REMARK  status: ('A' for Active; 'I' for Inactive)
REMARK    1  A    between atoms: CA_2  and  CB_3
REMARK    2  A    between atoms: CA_2  and  C_11
REMARK    3  A    between atoms: CB_3  and  CG_4
REMARK                            x       y       z     vdW  Elec       q    Type
REMARK                         _______ _______ _______ _____ _____    ______ ____
ROOT
ATOM      1  CG  TYR A   1      -0.428  -0.718   0.372  0.00  0.00    -0.020 A 
ATOM      2  CD2 TYR A   1      -1.478  -1.405  -0.207  0.00  0.00    -0.001 A 
ATOM      3  CE2 TYR A   1      -2.768  -0.885  -0.272  0.00  0.00    +0.042 A 
ATOM      4  CZ  TYR A   1      -3.065   0.305   0.370  0.00  0.00    +0.196 A 
ATOM      5  OH  TYR A   1      -4.132   1.099  -0.065  0.00  0.00    -0.287 OA
ATOM      6  CE1 TYR A   1      -2.066   0.823   1.185  0.00  0.00    +0.042 A 
ATOM      7  CD1 TYR A   1      -0.804   0.246   1.262  0.00  0.00    -0.001 A 
ENDROOT
BRANCH   1   8
ATOM      8  CB  TYR A   1       0.827  -0.674  -0.441  0.00  0.00    +0.057 C 
BRANCH   8  10
ATOM      9  N   TYR A   1       1.490   1.316   0.615  0.00  0.00    -0.120 NA
ATOM     10  CA  TYR A   1       2.000  -0.205   0.654  0.00  0.00    +0.199 C 
BRANCH  10  11
ATOM     11  C   TYR A   1       3.061   0.080  -0.570  0.00  0.00    +0.382 C 
ATOM     12  OXT TYR A   1       4.059   0.964  -0.227  0.00  0.00    -0.244 OA
ATOM     13  O   TYR A   1       3.304  -0.946  -1.236  0.00  0.00    -0.244 OA
ENDBRANCH  10  11
ENDBRANCH   8  10
ENDBRANCH   1   8
TORSDOF 3
