REMARK  Name = 
REMARK  7 active torsions:
REMARK  status: ('A' for Active; 'I' for Inactive)
REMARK    1  A    between atoms: N_2  and  C_3
REMARK    2  A    between atoms: N_2  and  C_20
REMARK    3  A    between atoms: C_3  and  C_4
REMARK    4  A    between atoms: C_4  and  O_5
REMARK    5  A    between atoms: O_5  and  C_6
REMARK    6  A    between atoms: C_9  and  C_10
REMARK    7  A    between atoms: C_10  and  C_11
REMARK                            x       y       z     vdW  Elec       q    Type
REMARK                         _______ _______ _______ _____ _____    ______ ____
ROOT
ATOM      1  C   UNL     1      -0.304  -1.079   0.001  0.00  0.00    +0.139 A 
ATOM      2  C   UNL     1       0.223  -0.259  -0.986  0.00  0.00    +0.037 A 
ATOM      3  C   UNL     1       1.557   0.127  -0.966  0.00  0.00    -0.001 A 
ATOM      4  C   UNL     1       2.361  -0.181   0.119  0.00  0.00    -0.021 A 
ATOM      5  C   UNL     1       1.913  -1.223   0.921  0.00  0.00    -0.001 A 
ATOM      6  C   UNL     1       0.592  -1.640   0.891  0.00  0.00    +0.037 A 
ENDROOT
BRANCH   4   7
ATOM      7  C   UNL     1       3.363   0.779   0.633  0.00  0.00    +0.047 C 
BRANCH   7   8
ATOM      8  C   UNL     1       4.318  -0.084   1.565  0.00  0.00    +0.139 C 
ATOM      9  C   UNL     1       5.032  -0.832   0.400  0.00  0.00    +0.259 C 
ATOM     10  O   UNL     1       4.907  -2.076   0.352  0.00  0.00    -0.272 OA
ATOM     11  N   UNL     1       5.341   0.108  -0.599  0.00  0.00    -0.135 NA
ATOM     12  C   UNL     1       6.124   1.191  -0.080  0.00  0.00    +0.299 C 
ATOM     13  O   UNL     1       6.201   2.277  -0.731  0.00  0.00    -0.261 OA
ATOM     14  S   UNL     1       5.693   1.228   1.667  0.00  0.00    -0.046 S 
ENDBRANCH   7   8
ENDBRANCH   4   7
BRANCH   1  15
ATOM     15  O   UNL     1      -1.653  -1.017   0.282  0.00  0.00    -0.474 OA
BRANCH  15  16
ATOM     16  C   UNL     1      -2.153  -0.042   1.196  0.00  0.00    +0.227 C 
BRANCH  16  17
ATOM     17  C   UNL     1      -2.345   1.248   0.409  0.00  0.00    +0.140 C 
BRANCH  17  19
ATOM     18  C   UNL     1      -4.309   2.475   0.421  0.00  0.00    +0.114 C 
ATOM     19  N   UNL     1      -3.778   1.447   0.214  0.00  0.00    -0.288 N 
BRANCH  19  20
ATOM     20  C   UNL     1      -4.509   0.319  -0.282  0.00  0.00    +0.132 A 
ATOM     21  N   UNL     1      -4.703   0.315  -1.624  0.00  0.00    -0.229 NA
ATOM     22  C   UNL     1      -5.452  -0.679  -2.125  0.00  0.00    +0.100 A 
ATOM     23  C   UNL     1      -6.298  -1.410  -1.308  0.00  0.00    +0.021 A 
ATOM     24  C   UNL     1      -6.531  -0.920  -0.030  0.00  0.00    +0.004 A 
ATOM     25  C   UNL     1      -5.591  -0.073   0.498  0.00  0.00    +0.034 A 
ENDBRANCH  19  20
ENDBRANCH  17  19
ENDBRANCH  16  17
ENDBRANCH  15  16
ENDBRANCH   1  15
TORSDOF 7
