REMARK  Name = 
REMARK  10 active torsions:
REMARK  status: ('A' for Active; 'I' for Inactive)
REMARK    1  A    between atoms: C_2  and  O_3
REMARK    2  A    between atoms: C_2  and  C_22
REMARK    3  A    between atoms: O_3  and  C_4
REMARK    4  A    between atoms: N_6  and  C_7
REMARK    5  A    between atoms: C_7  and  C_8
REMARK    6  A    between atoms: C_8  and  C_9
REMARK    7  A    between atoms: C_9  and  O_10
REMARK    8  A    between atoms: O_10  and  C_11
REMARK    9  A    between atoms: C_22  and  C_24
REMARK   10  A    between atoms: C_22  and  C_29
REMARK                            x       y       z     vdW  Elec       q    Type
REMARK                         _______ _______ _______ _____ _____    ______ ____
ROOT
ATOM      1  C   UNL     1      -0.364   0.227  -0.770  0.00  0.00    +0.224 C 
ATOM      2  C   UNL     1      -0.088  -0.768  -2.076  0.00  0.00    +0.058 C 
ATOM      3  C   UNL     1      -0.043  -2.158  -1.559  0.00  0.00    +0.065 C 
ATOM      4  C   UNL     1       1.382  -2.357  -1.043  0.00  0.00    +0.109 C 
ATOM      5  N   UNL     1       1.669  -1.106  -0.334  0.00  0.00    +0.300 N 
ATOM      6  C   UNL     1       2.050  -0.060  -1.251  0.00  0.00    +0.109 C 
ATOM      7  C   UNL     1       1.266  -0.246  -2.545  0.00  0.00    +0.065 C 
ATOM      8  C   UNL     1       0.397  -0.782   0.315  0.00  0.00    +0.153 C 
ENDROOT
BRANCH   1   9
ATOM      9  O   UNL     1      -1.743  -0.444  -0.492  0.00  0.00    -0.444 OA
BRANCH   9  11
ATOM     10  O   UNL     1      -2.520   0.174  -2.451  0.00  0.00    -0.247 OA
ATOM     11  C   UNL     1      -2.736   0.120  -1.287  0.00  0.00    +0.354 C 
BRANCH  11  12
ATOM     12  C   UNL     1      -4.078   0.500  -0.770  0.00  0.00    +0.263 C 
ATOM     13  O   UNL     1      -4.941   0.711  -1.829  0.00  0.00    -0.204 OA
BRANCH  12  14
ATOM     14  C   UNL     1      -3.987   1.695   0.129  0.00  0.00    +0.049 A 
ATOM     15  S   UNL     1      -2.722   2.852   0.226  0.00  0.00    -0.088 S 
ATOM     16  C   UNL     1      -3.150   3.606   1.708  0.00  0.00    +0.035 A 
ATOM     17  C   UNL     1      -4.428   3.086   1.879  0.00  0.00    +0.007 A 
ATOM     18  C   UNL     1      -4.516   1.806   1.411  0.00  0.00    +0.006 A 
ENDBRANCH  12  14
BRANCH  12  19
ATOM     19  C   UNL     1      -4.561  -0.663   0.040  0.00  0.00    +0.049 A 
ATOM     20  S   UNL     1      -3.673  -1.892   0.847  0.00  0.00    -0.088 S 
ATOM     21  C   UNL     1      -4.896  -2.470   1.904  0.00  0.00    +0.035 A 
ATOM     22  C   UNL     1      -6.005  -1.840   1.352  0.00  0.00    +0.007 A 
ATOM     23  C   UNL     1      -5.688  -0.608   0.854  0.00  0.00    +0.006 A 
ENDBRANCH  12  19
ENDBRANCH  11  12
ENDBRANCH   9  11
ENDBRANCH   1   9
BRANCH   5  24
ATOM     24  C   UNL     1       2.585  -1.324   0.740  0.00  0.00    +0.113 C 
BRANCH  24  25
ATOM     25  C   UNL     1       4.002  -1.511   0.413  0.00  0.00    +0.108 C 
BRANCH  25  26
ATOM     26  C   UNL     1       4.407  -1.381  -1.008  0.00  0.00    +0.212 C 
BRANCH  26  27
ATOM     27  O   UNL     1       5.312  -0.314  -1.193  0.00  0.00    -0.475 OA
BRANCH  27  28
ATOM     28  C   UNL     1       5.868   0.419  -0.157  0.00  0.00    +0.139 A 
ATOM     29  C   UNL     1       7.003  -0.025   0.486  0.00  0.00    +0.037 A 
ATOM     30  C   UNL     1       7.220   0.295   1.804  0.00  0.00    +0.003 A 
ATOM     31  C   UNL     1       6.464   1.270   2.426  0.00  0.00    +0.000 A 
ATOM     32  C   UNL     1       5.327   1.721   1.786  0.00  0.00    +0.003 A 
ATOM     33  C   UNL     1       5.184   1.468   0.446  0.00  0.00    +0.037 A 
ENDBRANCH  27  28
ENDBRANCH  26  27
ENDBRANCH  25  26
ENDBRANCH  24  25
ENDBRANCH   5  24
TORSDOF 10
