REMARK  Name = 
REMARK  3 active torsions:
REMARK  status: ('A' for Active; 'I' for Inactive)
REMARK    1  A    between atoms: N_2  and  C_4
REMARK    2  A    between atoms: C_4  and  C_5
REMARK    3  A    between atoms: C_5  and  C_6
REMARK                            x       y       z     vdW  Elec       q    Type
REMARK                         _______ _______ _______ _____ _____    ______ ____
ROOT
ATOM      1  C   UNL     1       1.278  -0.050  -0.593  0.00  0.00    -0.025 C 
ATOM      2  C   UNL     1      -0.027   0.053  -0.405  0.00  0.00    -0.004 C 
ATOM      3  C   UNL     1      -0.504   1.323   0.156  0.00  0.00    -0.000 A 
ATOM      4  C   UNL     1      -1.819   1.746   0.295  0.00  0.00    -0.000 A 
ATOM      5  C   UNL     1      -2.164   3.076   0.089  0.00  0.00    -0.000 A 
ATOM      6  C   UNL     1      -1.150   4.003  -0.123  0.00  0.00    -0.000 A 
ATOM      7  C   UNL     1       0.102   3.622   0.348  0.00  0.00    -0.000 A 
ATOM      8  C   UNL     1      -2.990   0.897   0.510  0.00  0.00    -0.000 C 
ATOM      9  C   UNL     1      -3.007  -0.436   0.522  0.00  0.00    -0.000 C 
ATOM     10  C   UNL     1      -2.084  -1.431   0.016  0.00  0.00    -0.000 A 
ATOM     11  C   UNL     1      -2.788  -2.507  -0.507  0.00  0.00    -0.000 A 
ATOM     12  C   UNL     1      -2.184  -3.429  -1.350  0.00  0.00    -0.000 A 
ATOM     13  C   UNL     1      -0.843  -3.221  -1.644  0.00  0.00    -0.000 A 
ATOM     14  C   UNL     1      -0.128  -2.170  -1.113  0.00  0.00    -0.000 A 
ATOM     15  C   UNL     1       0.466   2.312   0.060  0.00  0.00    -0.000 A 
ATOM     16  C   UNL     1      -0.764  -1.210  -0.353  0.00  0.00    -0.000 A 
ENDROOT
BRANCH   1  17
ATOM     17  C   UNL     1       2.111  -0.513   0.534  0.00  0.00    +0.043 C 
BRANCH  17  18
ATOM     18  C   UNL     1       3.189   0.470   0.911  0.00  0.00    +0.077 C 
BRANCH  18  20
ATOM     19  C   UNL     1       4.844  -0.719  -0.266  0.00  0.00    +0.090 C 
ATOM     20  N   UNL     1       4.411  -0.317   1.068  0.00  0.00    -0.270 NA
ATOM     21  C   UNL     1       4.051  -1.498   1.844  0.00  0.00    +0.090 C 
ENDBRANCH  18  20
ENDBRANCH  17  18
ENDBRANCH   1  17
TORSDOF 3
