REMARK  Name = 
REMARK  8 active torsions:
REMARK  status: ('A' for Active; 'I' for Inactive)
REMARK    1  A    between atoms: C_2  and  N_3
REMARK    2  A    between atoms: C_2  and  C_16
REMARK    3  A    between atoms: N_3  and  C_4
REMARK    4  A    between atoms: C_4  and  C_5
REMARK    5  A    between atoms: C_4  and  C_13
REMARK    6  A    between atoms: C_5  and  C_6
REMARK    7  A    between atoms: C_6  and  C_7
REMARK    8  A    between atoms: CA_22  and  C_23
REMARK                            x       y       z     vdW  Elec       q    Type
REMARK                         _______ _______ _______ _____ _____    ______ ____
ROOT
ATOM      1  N   UNL     1       0.297  -1.396   0.573  0.00  0.00    -0.200 NA
ENDROOT
BRANCH   1   3
ATOM      2  CB  UNL     1      -1.147  -1.629  -1.232  0.00  0.00    +0.029 C 
ATOM      3  CA  UNL     1      -0.654  -0.426  -0.227  0.00  0.00    +0.149 C 
BRANCH   3   4
ATOM      4  C   UNL     1      -1.914  -0.639   0.757  0.00  0.00    +0.242 C 
ATOM      5  N   UNL     1      -3.067   0.160   0.426  0.00  0.00    -0.270 N 
ATOM      6  CA  UNL     1      -2.905   1.402  -0.524  0.00  0.00    +0.179 C 
ATOM      7  CB  UNL     1      -3.975   0.909  -1.663  0.00  0.00    +0.033 C 
ATOM      8  CG  UNL     1      -4.579  -0.302  -1.203  0.00  0.00    +0.024 C 
ATOM      9  CD  UNL     1      -4.326  -0.425   0.226  0.00  0.00    +0.094 C 
ATOM     10  O   UNL     1      -2.135  -1.808   1.149  0.00  0.00    -0.273 OA
BRANCH   6  11
ATOM     11  C   UNL     1      -4.005   2.298   0.243  0.00  0.00    +0.382 C 
ATOM     12  OXT UNL     1      -5.219   1.813   0.531  0.00  0.00    -0.244 OA
ATOM     13  O   UNL     1      -3.764   3.539   0.178  0.00  0.00    -0.244 OA
ENDBRANCH   6  11
ENDBRANCH   3   4
ENDBRANCH   1   3
BRANCH   1  14
ATOM     14  CA  UNL     1       1.424  -1.496  -0.528  0.00  0.00    +0.176 C 
BRANCH  14  15
ATOM     15  C   UNL     1       1.375  -3.101  -0.620  0.00  0.00    +0.380 C 
ATOM     16  OXT UNL     1       0.945  -3.846   0.415  0.00  0.00    -0.244 OA
ATOM     17  O   UNL     1       2.186  -3.546  -1.477  0.00  0.00    -0.244 OA
ENDBRANCH  14  15
BRANCH  14  18
ATOM     18  C   UNL     1       2.621  -1.537   0.600  0.00  0.00    +0.034 C 
BRANCH  18  19
ATOM     19  C   UNL     1       3.827  -1.010  -0.170  0.00  0.00    +0.028 C 
BRANCH  19  20
ATOM     20  C   UNL     1       3.903   0.460  -0.072  0.00  0.00    -0.022 A 
ATOM     21  C   UNL     1       3.283   1.334  -0.925  0.00  0.00    -0.004 A 
ATOM     22  C   UNL     1       3.676   2.666  -0.966  0.00  0.00    -0.000 A 
ATOM     23  C   UNL     1       4.480   3.207   0.008  0.00  0.00    -0.000 A 
ATOM     24  C   UNL     1       4.940   2.366   1.000  0.00  0.00    -0.000 A 
ATOM     25  C   UNL     1       4.734   1.009   0.891  0.00  0.00    -0.004 A 
ENDBRANCH  19  20
ENDBRANCH  18  19
ENDBRANCH  14  18
ENDBRANCH   1  14
TORSDOF 8
