REMARK  Name = 
REMARK  8 active torsions:
REMARK  status: ('A' for Active; 'I' for Inactive)
REMARK    1  A    between atoms: C_2  and  C_3
REMARK    2  A    between atoms: N_5  and  C_6
REMARK    3  A    between atoms: N_5  and  C_12
REMARK    4  A    between atoms: C_12  and  C_13
REMARK    5  A    between atoms: C_13  and  O_14
REMARK    6  A    between atoms: N_18  and  C_19
REMARK    7  A    between atoms: C_19  and  C_20
REMARK    8  A    between atoms: C_20  and  C_21
REMARK                            x       y       z     vdW  Elec       q    Type
REMARK                         _______ _______ _______ _____ _____    ______ ____
ROOT
ATOM      1  C   UNL     1      -0.952  -1.038  -0.132  0.00  0.00    +0.094 C 
ATOM      2  C   UNL     1      -0.348  -1.301   1.220  0.00  0.00    +0.038 C 
ATOM      3  C   UNL     1       0.826  -0.415   1.530  0.00  0.00    +0.074 C 
ATOM      4  N   UNL     1       1.860  -0.459   0.528  0.00  0.00    -0.272 NA
ATOM      5  C   UNL     1       1.395  -0.904  -0.762  0.00  0.00    +0.074 C 
ATOM      6  C   UNL     1       0.034  -0.275  -0.982  0.00  0.00    +0.038 C 
ENDROOT
BRANCH   1   8
ATOM      7  C   UNL     1      -3.350  -1.309   0.197  0.00  0.00    +0.229 C 
ATOM      8  N   UNL     1      -2.252  -0.429  -0.075  0.00  0.00    -0.259 N 
ATOM      9  O   UNL     1      -3.413  -1.776   1.352  0.00  0.00    -0.275 OA
BRANCH   8  10
ATOM     10  C   UNL     1      -2.492   0.962  -0.097  0.00  0.00    +0.054 A 
ATOM     11  C   UNL     1      -1.583   1.875  -0.590  0.00  0.00    +0.015 A 
ATOM     12  C   UNL     1      -1.708   3.213  -0.241  0.00  0.00    +0.001 A 
ATOM     13  C   UNL     1      -2.902   3.685   0.283  0.00  0.00    +0.000 A 
ATOM     14  C   UNL     1      -3.992   2.824   0.290  0.00  0.00    +0.001 A 
ATOM     15  C   UNL     1      -3.708   1.479   0.309  0.00  0.00    +0.015 A 
ENDBRANCH   8  10
BRANCH   7  17
ATOM     16  C   UNL     1      -4.945  -2.824  -0.788  0.00  0.00    +0.010 C 
ATOM     17  C   UNL     1      -4.436  -1.411  -0.809  0.00  0.00    +0.086 C 
ENDBRANCH   7  17
ENDBRANCH   1   8
BRANCH   4  18
ATOM     18  C   UNL     1       2.333   0.913   0.355  0.00  0.00    +0.077 C 
BRANCH  18  19
ATOM     19  C   UNL     1       3.101   1.048  -0.935  0.00  0.00    +0.050 C 
BRANCH  19  20
ATOM     20  C   UNL     1       4.554   1.149  -0.605  0.00  0.00    +0.009 A 
ATOM     21  S   UNL     1       5.539   2.501  -0.227  0.00  0.00    -0.091 S 
ATOM     22  C   UNL     1       6.910   1.673   0.393  0.00  0.00    +0.035 A 
ATOM     23  C   UNL     1       6.388   0.391   0.515  0.00  0.00    +0.007 A 
ATOM     24  C   UNL     1       5.482   0.122  -0.472  0.00  0.00    +0.003 A 
ENDBRANCH  19  20
ENDBRANCH  18  19
ENDBRANCH   4  18
BRANCH   1  25
ATOM     25  C   UNL     1      -1.126  -2.400  -0.797  0.00  0.00    +0.161 C 
BRANCH  25  26
ATOM     26  O   UNL     1      -1.239  -3.386   0.171  0.00  0.00    -0.349 OA
ATOM     27  C   UNL     1       0.024  -3.907   0.421  0.00  0.00    +0.174 C 
ENDBRANCH  25  26
ENDBRANCH   1  25
TORSDOF 8
