REMARK  Name = 
REMARK  11 active torsions:
REMARK  status: ('A' for Active; 'I' for Inactive)
REMARK    1  A    between atoms: C_2  and  O_4
REMARK    2  A    between atoms: O_4  and  C_5
REMARK    3  A    between atoms: C_5  and  C_7
REMARK    4  A    between atoms: C_7  and  N_9
REMARK    5  A    between atoms: N_9  and  P_10
REMARK    6  A    between atoms: P_10  and  O_12
REMARK    7  A    between atoms: P_10  and  O_30
REMARK    8  A    between atoms: O_12  and  C_13
REMARK    9  A    between atoms: C_13  and  C_14
REMARK   10  A    between atoms: C_16  and  N_17
REMARK   11  A    between atoms: O_30  and  C_31
REMARK                            x       y       z     vdW  Elec       q    Type
REMARK                         _______ _______ _______ _____ _____    ______ ____
ROOT
ATOM      1  P   UNL     1       1.964   0.667   0.235  0.00  0.00    +0.480 P 
ATOM      2  O   UNL     1       1.339   1.105   1.521  0.00  0.00    -0.227 OA
ENDROOT
BRANCH   1   3
ATOM      3  N   UNL     1       3.342  -0.389   0.524  0.00  0.00    -0.101 NA
BRANCH   3   4
ATOM      4  C   UNL     1       3.353  -1.366  -0.710  0.00  0.00    +0.183 C 
ATOM      5  C   UNL     1       3.916  -0.187  -1.706  0.00  0.00    +0.031 C 
BRANCH   4   6
ATOM      6  C   UNL     1       4.837  -1.896  -0.364  0.00  0.00    +0.333 C 
ATOM      7  O   UNL     1       5.502  -2.233  -1.392  0.00  0.00    -0.249 OA
BRANCH   6   8
ATOM      8  O   UNL     1       4.715  -2.931   0.573  0.00  0.00    -0.451 OA
BRANCH   8  10
ATOM      9  C   UNL     1       5.080  -5.052  -0.529  0.00  0.00    +0.047 C 
ATOM     10  C   UNL     1       5.531  -4.090   0.532  0.00  0.00    +0.169 C 
ATOM     11  C   UNL     1       6.964  -3.741   0.238  0.00  0.00    +0.047 C 
ENDBRANCH   8  10
ENDBRANCH   6   8
ENDBRANCH   4   6
ENDBRANCH   3   4
ENDBRANCH   1   3
BRANCH   1  12
ATOM     12  O   UNL     1       0.855  -0.216  -0.666  0.00  0.00    -0.270 OA
BRANCH  12  13
ATOM     13  C   UNL     1       0.116  -1.058   0.056  0.00  0.00    +0.186 C 
BRANCH  13  14
ATOM     14  C   UNL     1      -1.284  -0.339   0.531  0.00  0.00    +0.180 C 
ATOM     15  C   UNL     1      -1.223   0.859  -0.699  0.00  0.00    +0.215 C 
ATOM     16  O   UNL     1      -1.148  -0.103  -1.869  0.00  0.00    -0.217 OA
ATOM     17  C   UNL     1      -2.843   0.902  -0.490  0.00  0.00    +0.209 C 
ATOM     18  F   UNL     1      -3.163   1.821  -1.390  0.00  0.00    -0.233 F 
ATOM     19  C   UNL     1      -3.179   0.995   0.890  0.00  0.00    +0.043 C 
ATOM     20  C   UNL     1      -3.069  -0.598  -1.099  0.00  0.00    +0.241 C 
ATOM     21  O   UNL     1      -2.088  -1.318  -0.221  0.00  0.00    -0.331 OA
BRANCH  20  22
ATOM     22  N   UNL     1      -4.304  -0.941  -0.150  0.00  0.00    -0.253 N 
ATOM     23  C   UNL     1      -5.472  -0.446  -0.638  0.00  0.00    +0.355 A 
ATOM     24  O   UNL     1      -5.604   0.451  -1.476  0.00  0.00    -0.244 OA
ATOM     25  N   UNL     1      -6.570  -0.756   0.094  0.00  0.00    -0.153 NA
ATOM     26  C   UNL     1      -6.545  -1.820   0.926  0.00  0.00    +0.285 A 
ATOM     27  O   UNL     1      -7.258  -1.878   1.975  0.00  0.00    -0.265 OA
ATOM     28  C   UNL     1      -5.571  -2.767   0.636  0.00  0.00    +0.081 A 
ATOM     29  C   UNL     1      -4.434  -2.296  -0.014  0.00  0.00    +0.087 A 
ENDBRANCH  20  22
ENDBRANCH  13  14
ENDBRANCH  12  13
ENDBRANCH   1  12
BRANCH   1  30
ATOM     30  O   UNL     1       2.418   1.963  -0.775  0.00  0.00    -0.411 OA
BRANCH  30  31
ATOM     31  C   UNL     1       2.048   3.237  -0.400  0.00  0.00    +0.148 A 
ATOM     32  C   UNL     1       2.483   3.728   0.825  0.00  0.00    +0.037 A 
ATOM     33  C   UNL     1       2.906   5.049   0.938  0.00  0.00    +0.003 A 
ATOM     34  C   UNL     1       2.794   5.926  -0.127  0.00  0.00    +0.000 A 
ATOM     35  C   UNL     1       1.983   5.519  -1.174  0.00  0.00    +0.003 A 
ATOM     36  C   UNL     1       1.608   4.200  -1.298  0.00  0.00    +0.037 A 
ENDBRANCH  30  31
ENDBRANCH   1  30
TORSDOF 11
