REMARK  Name = 
REMARK  5 active torsions:
REMARK  status: ('A' for Active; 'I' for Inactive)
REMARK    1  A    between atoms: C_2  and  C_3
REMARK    2  A    between atoms: C_2  and  C_10
REMARK    3  A    between atoms: C_10  and  C_12
REMARK    4  A    between atoms: C_10  and  C_18
REMARK    5  A    between atoms: C_12  and  N_13
REMARK                            x       y       z     vdW  Elec       q    Type
REMARK                         _______ _______ _______ _____ _____    ______ ____
ROOT
ATOM      1  C   UNL     1      -0.397   0.019   0.491  0.00  0.00    +0.175 C 
ATOM      2  O   UNL     1      -1.112  -0.390   1.567  0.00  0.00    -0.219 OA
ENDROOT
BRANCH   1   3
ATOM      3  C   UNL     1      -1.192   1.139  -0.115  0.00  0.00    +0.035 A 
ATOM      4  C   UNL     1      -1.059   1.528  -1.425  0.00  0.00    +0.141 A 
ATOM      5  F   UNL     1      -0.311   0.807  -2.269  0.00  0.00    -0.204 F 
ATOM      6  C   UNL     1      -1.183   2.883  -1.706  0.00  0.00    +0.059 A 
ATOM      7  C   UNL     1      -1.709   3.757  -0.765  0.00  0.00    +0.142 A 
ATOM      8  F   UNL     1      -1.466   5.090  -0.793  0.00  0.00    -0.204 F 
ATOM      9  C   UNL     1      -2.297   3.208   0.359  0.00  0.00    +0.030 A 
ATOM     10  C   UNL     1      -2.131   1.853   0.620  0.00  0.00    +0.003 A 
ENDBRANCH   1   3
BRANCH   1  12
ATOM     11  C   UNL     1       0.930   0.138   2.526  0.00  0.00    +0.009 C 
ATOM     12  C   UNL     1       0.998   0.730   0.982  0.00  0.00    +0.077 C 
BRANCH  12  13
ATOM     13  C   UNL     1       1.972  -0.419   0.390  0.00  0.00    +0.092 A 
ATOM     14  C   UNL     1       2.651  -1.208   1.263  0.00  0.00    +0.173 A 
ATOM     15  F   UNL     1       1.822  -1.744   2.211  0.00  0.00    -0.201 F 
ATOM     16  C   UNL     1       3.724  -1.933   0.758  0.00  0.00    +0.131 A 
ATOM     17  N   UNL     1       4.538  -1.274  -0.088  0.00  0.00    -0.220 NA
ATOM     18  C   UNL     1       3.960  -0.334  -0.865  0.00  0.00    +0.199 A 
ATOM     19  N   UNL     1       2.742   0.166  -0.567  0.00  0.00    -0.226 NA
ENDBRANCH  12  13
ENDBRANCH   1  12
BRANCH   1  20
ATOM     20  C   UNL     1      -0.137  -0.955  -0.574  0.00  0.00    +0.164 C 
BRANCH  20  21
ATOM     21  N   UNL     1      -1.212  -1.941  -0.517  0.00  0.00    -0.227 N 
ATOM     22  N   UNL     1      -2.489  -1.579  -0.383  0.00  0.00    -0.145 NA
ATOM     23  C   UNL     1      -3.213  -2.715  -0.240  0.00  0.00    +0.221 A 
ATOM     24  N   UNL     1      -2.331  -3.591   0.298  0.00  0.00    -0.201 NA
ATOM     25  C   UNL     1      -1.097  -3.236  -0.132  0.00  0.00    +0.197 A 
ENDBRANCH  20  21
ENDBRANCH   1  20
TORSDOF 5
