REMARK  Name = 
REMARK  4 active torsions:
REMARK  status: ('A' for Active; 'I' for Inactive)
REMARK    1  A    between atoms: C_3  and  C_4
REMARK    2  A    between atoms: C_4  and  N_5
REMARK    3  A    between atoms: C_21  and  C_22
REMARK    4  A    between atoms: C_22  and  N_23
REMARK                            x       y       z     vdW  Elec       q    Type
REMARK                         _______ _______ _______ _____ _____    ______ ____
ROOT
ATOM      1  C   UNL     1      -0.602  -2.331   0.469  0.00  0.00    -0.003 A 
ATOM      2  C   UNL     1      -1.064  -1.049   0.198  0.00  0.00    -0.006 A 
ATOM      3  C   UNL     1      -0.341  -0.355  -0.765  0.00  0.00    -0.003 A 
ATOM      4  C   UNL     1       0.981  -0.707  -1.013  0.00  0.00    -0.003 A 
ATOM      5  C   UNL     1       1.591  -1.743  -0.325  0.00  0.00    -0.006 A 
ATOM      6  C   UNL     1       0.723  -2.676   0.229  0.00  0.00    -0.003 A 
ENDROOT
BRANCH   2   7
ATOM      7  C   UNL     1      -2.087  -0.379   1.060  0.00  0.00    +0.099 C 
BRANCH   7   8
ATOM      8  N   UNL     1      -3.336  -0.443   0.358  0.00  0.00    -0.268 NA
ATOM      9  C   UNL     1      -4.330  -1.267   0.970  0.00  0.00    +0.091 C 
ATOM     10  C   UNL     1      -4.984  -0.679   2.179  0.00  0.00    +0.106 C 
ATOM     11  N   UNL     1      -5.311   0.715   2.063  0.00  0.00    -0.217 NA
ATOM     12  C   UNL     1      -6.719   0.989   2.321  0.00  0.00    +0.090 C 
ATOM     13  C   UNL     1      -7.536   0.463   1.174  0.00  0.00    +0.038 C 
ATOM     14  C   UNL     1      -8.051   1.544   0.264  0.00  0.00    +0.090 C 
ATOM     15  N   UNL     1      -7.430   1.510  -1.043  0.00  0.00    -0.216 NA
ATOM     16  C   UNL     1      -7.904   0.429  -1.868  0.00  0.00    +0.107 C 
ATOM     17  C   UNL     1      -7.069  -0.816  -1.766  0.00  0.00    +0.107 C 
ATOM     18  N   UNL     1      -5.895  -0.782  -2.612  0.00  0.00    -0.216 NA
ATOM     19  C   UNL     1      -4.703  -0.814  -1.769  0.00  0.00    +0.090 C 
ATOM     20  C   UNL     1      -4.204   0.613  -1.577  0.00  0.00    +0.036 C 
ATOM     21  C   UNL     1      -3.814   0.824  -0.118  0.00  0.00    +0.074 C 
ENDBRANCH   7   8
ENDBRANCH   2   7
BRANCH   5  22
ATOM     22  C   UNL     1       3.017  -1.749   0.049  0.00  0.00    +0.099 C 
BRANCH  22  23
ATOM     23  N   UNL     1       3.624  -0.450   0.080  0.00  0.00    -0.268 NA
ATOM     24  C   UNL     1       4.764  -0.523   0.993  0.00  0.00    +0.091 C 
ATOM     25  C   UNL     1       5.393  -1.893   0.801  0.00  0.00    +0.106 C 
ATOM     26  N   UNL     1       6.250  -1.849  -0.368  0.00  0.00    -0.217 NA
ATOM     27  C   UNL     1       7.617  -1.724   0.101  0.00  0.00    +0.090 C 
ATOM     28  C   UNL     1       7.841  -0.326   0.661  0.00  0.00    +0.038 C 
ATOM     29  C   UNL     1       7.575   0.687  -0.434  0.00  0.00    +0.090 C 
ATOM     30  N   UNL     1       7.511   2.023   0.152  0.00  0.00    -0.216 NA
ATOM     31  C   UNL     1       7.421   2.986  -0.936  0.00  0.00    +0.107 C 
ATOM     32  C   UNL     1       6.173   2.753  -1.764  0.00  0.00    +0.107 C 
ATOM     33  N   UNL     1       5.051   2.808  -0.845  0.00  0.00    -0.216 NA
ATOM     34  C   UNL     1       4.113   1.755  -1.206  0.00  0.00    +0.090 C 
ATOM     35  C   UNL     1       2.965   1.860  -0.214  0.00  0.00    +0.036 C 
ATOM     36  C   UNL     1       2.770   0.595   0.574  0.00  0.00    +0.074 C 
ENDBRANCH  22  23
ENDBRANCH   5  22
TORSDOF 4
