REMARK  Name = 
REMARK  1 active torsions:
REMARK  status: ('A' for Active; 'I' for Inactive)
REMARK    1  A    between atoms: C_4  and  C_5
REMARK                            x       y       z     vdW  Elec       q    Type
REMARK                         _______ _______ _______ _____ _____    ______ ____
ROOT
ATOM      1  C   UNL     1       0.062  -0.074   0.325  0.00  0.00    -0.021 A 
ATOM      2  C   UNL     1      -0.775  -1.146   0.033  0.00  0.00    -0.004 A 
ATOM      3  C   UNL     1      -2.141  -0.933   0.049  0.00  0.00    -0.000 A 
ATOM      4  C   UNL     1      -2.614   0.354   0.368  0.00  0.00    -0.000 A 
ATOM      5  C   UNL     1      -1.661   1.329   0.025  0.00  0.00    -0.000 A 
ATOM      6  C   UNL     1      -0.445   1.089   0.680  0.00  0.00    -0.004 A 
ENDROOT
BRANCH   1   9
ATOM      7  N   UNL     1       1.573   1.116  -1.113  0.00  0.00    -0.133 NA
ATOM      8  C   UNL     1       2.590   0.199  -0.322  0.00  0.00    +0.096 C 
ATOM      9  C   UNL     1       1.509  -0.622   0.760  0.00  0.00    +0.041 C 
ATOM     10  C   UNL     1       1.903  -1.311  -0.774  0.00  0.00    +0.025 C 
ENDBRANCH   1   9
TORSDOF 1
