REMARK  Name = 
REMARK  6 active torsions:
REMARK  status: ('A' for Active; 'I' for Inactive)
REMARK    1  A    between atoms: C_2  and  C_4
REMARK    2  A    between atoms: C_8  and  C_9
REMARK    3  A    between atoms: C_12  and  O_13
REMARK    4  A    between atoms: O_13  and  C_14
REMARK    5  A    between atoms: C_14  and  O_15
REMARK    6  A    between atoms: O_15  and  P_16
REMARK                            x       y       z     vdW  Elec       q    Type
REMARK                         _______ _______ _______ _____ _____    ______ ____
ROOT
ATOM      1  C   UNL     1      -1.459   1.260   0.051  0.00  0.00    +0.011 A 
ATOM      2  C   UNL     1      -0.768   0.054   0.059  0.00  0.00    +0.133 A 
ATOM      3  C   UNL     1      -1.420  -1.061  -0.459  0.00  0.00    +0.011 A 
ATOM      4  C   UNL     1      -2.605  -0.865  -1.159  0.00  0.00    -0.001 A 
ATOM      5  C   UNL     1      -3.363   0.268  -0.883  0.00  0.00    -0.000 A 
ATOM      6  C   UNL     1      -2.836   1.310  -0.129  0.00  0.00    -0.001 A 
ENDROOT
BRANCH   3   7
ATOM      7  C   UNL     1      -1.036  -2.440  -0.020  0.00  0.00    +0.025 C 
ATOM      8  C   UNL     1      -1.710  -3.434  -0.957  0.00  0.00    +0.005 C 
ATOM      9  C   UNL     1      -1.670  -2.624   1.353  0.00  0.00    +0.005 C 
ENDBRANCH   3   7
BRANCH   1  11
ATOM     10  C   UNL     1      -0.863   3.096   1.593  0.00  0.00    +0.005 C 
ATOM     11  C   UNL     1      -0.663   2.518   0.205  0.00  0.00    +0.025 C 
ATOM     12  C   UNL     1      -1.136   3.582  -0.778  0.00  0.00    +0.005 C 
ENDBRANCH   1  11
BRANCH   2  13
ATOM     13  O   UNL     1       0.257  -0.081   0.999  0.00  0.00    -0.448 OA
BRANCH  13  14
ATOM     14  C   UNL     1       1.370  -0.912   0.842  0.00  0.00    +0.369 C 
BRANCH  14  15
ATOM     15  O   UNL     1       1.998  -0.678  -0.366  0.00  0.00    -0.228 OA
BRANCH  15  16
ATOM     16  P   UNL     1       3.566  -0.080  -0.157  0.00  0.00    +0.535 P 
ATOM     17  O   UNL     1       4.587  -1.047  -1.108  0.00  0.00    -0.114 OA
ATOM     18  O   UNL     1       4.090  -0.246   1.451  0.00  0.00    -0.114 OA
ATOM     19  O   UNL     1       3.662   1.379  -0.535  0.00  0.00    -0.222 OA
ENDBRANCH  15  16
ENDBRANCH  14  15
ENDBRANCH  13  14
ENDBRANCH   2  13
TORSDOF 6
