REMARK  Name = 
REMARK  28 active torsions:
REMARK  status: ('A' for Active; 'I' for Inactive)
REMARK    1  A    between atoms: C_2  and  C_4
REMARK    2  A    between atoms: C_4  and  O_5
REMARK    3  A    between atoms: O_5  and  C_6
REMARK    4  A    between atoms: C_7  and  O_8
REMARK    5  A    between atoms: O_8  and  C_9
REMARK    6  A    between atoms: C_9  and  C_10
REMARK    7  A    between atoms: C_13  and  O_14
REMARK    8  A    between atoms: O_14  and  C_15
REMARK    9  A    between atoms: C_15  and  C_16
REMARK   10  A    between atoms: C_19  and  O_20
REMARK   11  A    between atoms: O_20  and  C_21
REMARK   12  A    between atoms: C_22  and  O_23
REMARK   13  A    between atoms: O_23  and  C_24
REMARK   14  A    between atoms: C_24  and  C_25
REMARK   15  A    between atoms: C_28  and  O_29
REMARK   16  A    between atoms: O_29  and  C_30
REMARK   17  A    between atoms: C_30  and  C_31
REMARK   18  A    between atoms: C_34  and  O_35
REMARK   19  A    between atoms: O_35  and  C_36
REMARK   20  A    between atoms: C_36  and  C_37
REMARK   21  A    between atoms: C_41  and  C_42
REMARK   22  A    between atoms: C_42  and  O_43
REMARK   23  A    between atoms: O_43  and  C_44
REMARK   24  A    between atoms: C_44  and  C_45
REMARK   25  A    between atoms: C_49  and  C_50
REMARK   26  A    between atoms: C_50  and  O_51
REMARK   27  A    between atoms: O_51  and  C_52
REMARK   28  A    between atoms: C_52  and  C_53
REMARK                            x       y       z     vdW  Elec       q    Type
REMARK                         _______ _______ _______ _____ _____    ______ ____
ROOT
ATOM      1  O   UNL     1       0.049  -0.440  -0.239  0.00  0.00    -0.326 OA
ENDROOT
BRANCH   1   2
ATOM      2  C   UNL     1      -0.830   0.678   0.149  0.00  0.00    +0.177 C 
ATOM      3  C   UNL     1      -2.398   0.151   0.030  0.00  0.00    +0.177 C 
ATOM      4  O   UNL     1      -2.955   0.035   1.314  0.00  0.00    -0.326 OA
ATOM      5  C   UNL     1      -3.727  -0.377   0.006  0.00  0.00    +0.266 C 
ATOM      6  C   UNL     1      -3.158   0.638  -1.301  0.00  0.00    +0.201 C 
ATOM      7  C   UNL     1      -1.456   0.583  -1.498  0.00  0.00    +0.177 C 
BRANCH   3   8
ATOM      8  C   UNL     1      -2.772   1.825   0.085  0.00  0.00    +0.174 C 
BRANCH   8   9
ATOM      9  O   UNL     1      -2.508   2.361   1.130  0.00  0.00    -0.348 OA
BRANCH   9  10
ATOM     10  C   UNL     1      -1.926   2.136   2.275  0.00  0.00    +0.175 C 
BRANCH  10  11
ATOM     11  C   UNL     1      -1.977   3.727   2.726  0.00  0.00    +0.181 C 
ATOM     12  O   UNL     1      -2.434   3.327   4.114  0.00  0.00    -0.220 OA
ATOM     13  C   UNL     1      -0.379   3.680   3.116  0.00  0.00    +0.038 C 
ENDBRANCH  10  11
ENDBRANCH   9  10
ENDBRANCH   8   9
ENDBRANCH   3   8
BRANCH   6  14
ATOM     14  O   UNL     1      -3.454  -0.489  -2.233  0.00  0.00    -0.346 OA
BRANCH  14  15
ATOM     15  C   UNL     1      -3.214  -0.275  -3.504  0.00  0.00    +0.175 C 
BRANCH  15  16
ATOM     16  C   UNL     1      -4.092  -1.486  -4.221  0.00  0.00    +0.181 C 
ATOM     17  O   UNL     1      -3.175  -2.628  -3.821  0.00  0.00    -0.220 OA
ATOM     18  C   UNL     1      -5.122  -1.807  -2.968  0.00  0.00    +0.038 C 
ENDBRANCH  15  16
ENDBRANCH  14  15
ENDBRANCH   6  14
BRANCH   7  19
ATOM     19  O   UNL     1      -1.256  -0.875  -1.736  0.00  0.00    -0.348 OA
BRANCH  19  20
ATOM     20  C   UNL     1      -1.793  -1.700  -1.021  0.00  0.00    +0.175 C 
BRANCH  20  21
ATOM     21  C   UNL     1      -1.300  -3.206  -0.829  0.00  0.00    +0.181 C 
ATOM     22  O   UNL     1      -2.651  -3.600  -0.230  0.00  0.00    -0.220 OA
ATOM     23  C   UNL     1      -1.762  -3.648  -2.352  0.00  0.00    +0.038 C 
ENDBRANCH  20  21
ENDBRANCH  19  20
ENDBRANCH   7  19
BRANCH   5  24
ATOM     24  O   UNL     1      -4.817   0.666   0.268  0.00  0.00    -0.326 OA
BRANCH  24  25
ATOM     25  C   UNL     1      -5.994   0.094   0.341  0.00  0.00    +0.178 C 
BRANCH  25  26
ATOM     26  C   UNL     1      -7.131   1.072  -0.334  0.00  0.00    +0.182 C 
ATOM     27  O   UNL     1      -6.591   2.341   0.300  0.00  0.00    -0.220 OA
ATOM     28  C   UNL     1      -6.306   1.351  -1.730  0.00  0.00    +0.038 C 
ENDBRANCH  25  26
ENDBRANCH  24  25
ENDBRANCH   5  24
ENDBRANCH   1   2
BRANCH   1  32
ATOM     29  C   UNL     1       3.835   0.026  -0.026  0.00  0.00    +0.174 C 
ATOM     30  C   UNL     1       2.574  -0.378  -1.137  0.00  0.00    +0.177 C 
ATOM     31  O   UNL     1       1.938  -1.466  -0.381  0.00  0.00    -0.326 OA
ATOM     32  C   UNL     1       0.914  -1.163   0.683  0.00  0.00    +0.266 C 
ATOM     33  C   UNL     1       1.858   0.028   1.473  0.00  0.00    +0.201 C 
ATOM     34  C   UNL     1       3.263  -0.930   1.256  0.00  0.00    +0.177 C 
BRANCH  29  35
ATOM     35  O   UNL     1       4.834  -0.948  -0.545  0.00  0.00    -0.348 OA
BRANCH  35  36
ATOM     36  C   UNL     1       4.383  -2.142  -0.678  0.00  0.00    +0.175 C 
BRANCH  36  38
ATOM     37  C   UNL     1       5.584  -1.458  -2.707  0.00  0.00    +0.038 C 
ATOM     38  C   UNL     1       4.701  -2.749  -2.176  0.00  0.00    +0.181 C 
ATOM     39  O   UNL     1       5.956  -3.472  -1.722  0.00  0.00    -0.220 OA
ENDBRANCH  36  38
ENDBRANCH  35  36
ENDBRANCH  29  35
BRANCH  33  40
ATOM     40  O   UNL     1       1.519  -0.626   2.777  0.00  0.00    -0.346 OA
BRANCH  40  41
ATOM     41  C   UNL     1       2.099  -1.840   2.891  0.00  0.00    +0.175 C 
BRANCH  41  42
ATOM     42  C   UNL     1       1.008  -3.025   2.579  0.00  0.00    +0.181 C 
ATOM     43  O   UNL     1       2.058  -3.905   1.919  0.00  0.00    -0.220 OA
ATOM     44  C   UNL     1       1.264  -3.713   4.055  0.00  0.00    +0.038 C 
ENDBRANCH  41  42
ENDBRANCH  40  41
ENDBRANCH  33  40
BRANCH  30  45
ATOM     45  C   UNL     1       1.856   0.983  -0.619  0.00  0.00    +0.174 C 
BRANCH  45  46
ATOM     46  O   UNL     1       2.083   2.039  -1.323  0.00  0.00    -0.348 OA
BRANCH  46  47
ATOM     47  C   UNL     1       3.299   2.496  -1.643  0.00  0.00    +0.175 C 
BRANCH  47  48
ATOM     48  C   UNL     1       2.790   3.970  -2.183  0.00  0.00    +0.181 C 
ATOM     49  O   UNL     1       4.203   4.348  -2.580  0.00  0.00    -0.220 OA
ATOM     50  C   UNL     1       2.450   3.365  -3.678  0.00  0.00    +0.038 C 
ENDBRANCH  47  48
ENDBRANCH  46  47
ENDBRANCH  45  46
ENDBRANCH  30  45
BRANCH  34  51
ATOM     51  O   UNL     1       4.052  -0.143   2.248  0.00  0.00    -0.348 OA
BRANCH  51  52
ATOM     52  C   UNL     1       3.759   1.165   2.168  0.00  0.00    +0.175 C 
BRANCH  52  53
ATOM     53  C   UNL     1       3.562   1.738   3.699  0.00  0.00    +0.181 C 
ATOM     54  O   UNL     1       4.563   0.781   4.324  0.00  0.00    -0.220 OA
ATOM     55  C   UNL     1       4.724   2.889   3.490  0.00  0.00    +0.038 C 
ENDBRANCH  52  53
ENDBRANCH  51  52
ENDBRANCH  34  51
ENDBRANCH   1  32
TORSDOF 28
