REMARK  Name = 
REMARK  7 active torsions:
REMARK  status: ('A' for Active; 'I' for Inactive)
REMARK    1  A    between atoms: N_2  and  C_4
REMARK    2  A    between atoms: C_4  and  C_5
REMARK    3  A    between atoms: C_5  and  O_6
REMARK    4  A    between atoms: O_6  and  C_7
REMARK    5  A    between atoms: C_7  and  C_9
REMARK    6  A    between atoms: C_9  and  C_10
REMARK    7  A    between atoms: C_9  and  C_16
REMARK                            x       y       z     vdW  Elec       q    Type
REMARK                         _______ _______ _______ _____ _____    ______ ____
ROOT
ATOM      1  C   UNL     1      -0.334  -0.064   1.098  0.00  0.00    +0.149 C 
ENDROOT
BRANCH   1   2
ATOM      2  C   UNL     1      -1.853  -0.490   0.668  0.00  0.00    -0.010 A 
ATOM      3  C   UNL     1      -2.091  -1.745   1.221  0.00  0.00    -0.004 A 
ATOM      4  C   UNL     1      -2.971  -2.619   0.592  0.00  0.00    -0.000 A 
ATOM      5  C   UNL     1      -3.626  -2.161  -0.545  0.00  0.00    -0.000 A 
ATOM      6  C   UNL     1      -3.439  -0.883  -0.986  0.00  0.00    -0.000 A 
ATOM      7  C   UNL     1      -2.252  -0.274  -0.591  0.00  0.00    -0.004 A 
ENDBRANCH   1   2
BRANCH   1   8
ATOM      8  C   UNL     1      -0.588   1.551   0.788  0.00  0.00    +0.140 C 
ATOM      9  C   UNL     1      -1.920   1.877   1.375  0.00  0.00    +0.031 C 
ATOM     10  C   UNL     1      -2.474   2.912   0.422  0.00  0.00    +0.003 C 
ATOM     11  C   UNL     1      -1.593   2.929  -0.794  0.00  0.00    +0.003 C 
ATOM     12  C   UNL     1      -0.575   1.816  -0.631  0.00  0.00    +0.031 C 
ATOM     13  O   UNL     1       0.391   2.200   1.549  0.00  0.00    -0.225 OA
ENDBRANCH   1   8
BRANCH   1  14
ATOM     14  C   UNL     1       0.326  -0.384  -0.374  0.00  0.00    +0.323 C 
ATOM     15  O   UNL     1       0.022  -1.556  -0.765  0.00  0.00    -0.250 OA
BRANCH  14  16
ATOM     16  O   UNL     1       1.703  -0.122  -0.397  0.00  0.00    -0.447 OA
BRANCH  16  17
ATOM     17  C   UNL     1       2.628  -1.059  -0.949  0.00  0.00    +0.226 C 
BRANCH  17  18
ATOM     18  C   UNL     1       3.700  -1.392   0.085  0.00  0.00    +0.120 C 
BRANCH  18  20
ATOM     19  C   UNL     1       4.830  -0.040  -0.664  0.00  0.00    +0.090 C 
ATOM     20  N   UNL     1       4.745  -0.395  -0.094  0.00  0.00    -0.267 NA
ATOM     21  C   UNL     1       5.370  -0.101   1.191  0.00  0.00    +0.090 C 
ENDBRANCH  18  20
ENDBRANCH  17  18
ENDBRANCH  16  17
ENDBRANCH  14  16
ENDBRANCH   1  14
TORSDOF 7
