REMARK  Name = 
REMARK  9 active torsions:
REMARK  status: ('A' for Active; 'I' for Inactive)
REMARK    1  A    between atoms: C_2  and  C_3
REMARK    2  A    between atoms: N_5  and  C_6
REMARK    3  A    between atoms: C_8  and  N_9
REMARK    4  A    between atoms: C_14  and  C_15
REMARK    5  A    between atoms: C_26  and  O_27
REMARK    6  A    between atoms: C_30  and  N_31
REMARK    7  A    between atoms: N_31  and  C_33
REMARK    8  A    between atoms: C_33  and  C_34
REMARK    9  A    between atoms: C_34  and  N_35
REMARK                            x       y       z     vdW  Elec       q    Type
REMARK                         _______ _______ _______ _____ _____    ______ ____
ROOT
ATOM      1  C   UNL     1       2.913   0.961  -0.217  0.00  0.00    +0.088 A 
ATOM      2  C   UNL     1       3.175   0.808   1.133  0.00  0.00    +0.067 A 
ATOM      3  C   UNL     1       2.585  -0.277   1.769  0.00  0.00    +0.054 A 
ATOM      4  C   UNL     1       1.371  -0.744   1.289  0.00  0.00    +0.155 A 
ATOM      5  C   UNL     1       1.100  -0.575  -0.062  0.00  0.00    +0.109 A 
ATOM      6  C   UNL     1       1.656   0.557  -0.646  0.00  0.00    +0.038 A 
ENDROOT
BRANCH   5   7
ATOM      7  N   UNL     1      -0.232  -0.898  -0.479  0.00  0.00    -0.175 NA
ATOM      8  C   UNL     1      -1.284   0.006  -0.122  0.00  0.00    +0.241 A 
ATOM      9  N   UNL     1      -2.571  -0.335  -0.371  0.00  0.00    -0.212 NA
ATOM     10  C   UNL     1      -3.584   0.339   0.223  0.00  0.00    +0.087 A 
ATOM     11  C   UNL     1      -3.275   1.131   1.314  0.00  0.00    +0.040 A 
ATOM     12  C   UNL     1      -2.001   1.681   1.392  0.00  0.00    +0.103 A 
ATOM     13  N   UNL     1      -1.044   1.067   0.686  0.00  0.00    -0.211 NA
BRANCH  10  14
ATOM     14  C   UNL     1      -4.882   0.381  -0.445  0.00  0.00    +0.036 A 
ATOM     15  C   UNL     1      -6.051  -0.243  -0.053  0.00  0.00    +0.019 A 
ATOM     16  C   UNL     1      -6.988   0.134  -0.994  0.00  0.00    +0.060 A 
ATOM     17  C   UNL     1      -8.277  -0.362  -0.848  0.00  0.00    +0.017 A 
ATOM     18  C   UNL     1      -8.698  -0.567   0.460  0.00  0.00    +0.001 A 
ATOM     19  C   UNL     1      -7.759  -0.945   1.409  0.00  0.00    +0.000 A 
ATOM     20  N   UNL     1      -6.303   0.592  -2.064  0.00  0.00    -0.324 N 
ATOM     21  C   UNL     1      -6.855   0.873  -3.364  0.00  0.00    +0.130 C 
ATOM     22  C   UNL     1      -6.404  -0.845   1.141  0.00  0.00    +0.002 A 
ATOM     23  C   UNL     1      -5.099   1.046  -1.640  0.00  0.00    +0.077 A 
ENDBRANCH  10  14
ENDBRANCH   5   7
BRANCH   1  25
ATOM     24  C   UNL     1       4.521   0.625  -2.091  0.00  0.00    +0.269 C 
ATOM     25  N   UNL     1       3.893   1.475  -1.127  0.00  0.00    -0.174 NA
ATOM     26  O   UNL     1       4.481  -0.626  -1.889  0.00  0.00    -0.268 OA
BRANCH  24  28
ATOM     27  C   UNL     1       3.724   0.884  -4.306  0.00  0.00    +0.005 C 
ATOM     28  C   UNL     1       4.747   1.055  -3.473  0.00  0.00    +0.060 C 
ENDBRANCH  24  28
ENDBRANCH   1  25
BRANCH   4  29
ATOM     29  O   UNL     1       0.667  -1.761   1.941  0.00  0.00    -0.470 OA
ATOM     30  C   UNL     1       0.820  -3.070   1.399  0.00  0.00    +0.253 C 
ENDBRANCH   4  29
BRANCH   2  31
ATOM     31  N   UNL     1       4.454   1.233   1.617  0.00  0.00    -0.303 N 
ATOM     32  C   UNL     1       4.509   2.293   2.620  0.00  0.00    +0.112 C 
BRANCH  31  33
ATOM     33  C   UNL     1       5.486   0.217   1.701  0.00  0.00    +0.108 C 
BRANCH  33  34
ATOM     34  C   UNL     1       6.850   0.744   1.345  0.00  0.00    +0.094 C 
BRANCH  34  35
ATOM     35  N   UNL     1       7.628  -0.360   0.834  0.00  0.00    -0.269 NA
ATOM     36  C   UNL     1       7.954  -1.340   1.840  0.00  0.00    +0.090 C 
ATOM     37  C   UNL     1       8.774   0.073   0.077  0.00  0.00    +0.090 C 
ENDBRANCH  34  35
ENDBRANCH  33  34
ENDBRANCH  31  33
ENDBRANCH   2  31
TORSDOF 9
