REMARK  Name = 
REMARK  2 active torsions:
REMARK  status: ('A' for Active; 'I' for Inactive)
REMARK    1  A    between atoms: C_2  and  C_3
REMARK    2  A    between atoms: C_21  and  C_22
REMARK                            x       y       z     vdW  Elec       q    Type
REMARK                         _______ _______ _______ _____ _____    ______ ____
ROOT
ATOM      1  C   UNL     1      -3.062   0.458   0.452  0.00  0.00    +0.180 C 
ATOM      2  C   UNL     1      -1.886  -0.013  -0.318  0.00  0.00    +0.040 C 
ATOM      3  C   UNL     1      -0.883   0.066   0.984  0.00  0.00    +0.004 C 
ATOM      4  C   UNL     1       0.256  -0.959   0.231  0.00  0.00    +0.004 C 
ATOM      5  C   UNL     1       1.151   0.418  -0.191  0.00  0.00    +0.022 C 
ATOM      6  C   UNL     1       0.216   0.715  -1.454  0.00  0.00    -0.044 C 
ATOM      7  C   UNL     1       0.810   1.671  -2.188  0.00  0.00    -0.009 C 
ATOM      8  C   UNL     1       2.231  -0.527  -1.135  0.00  0.00    +0.022 C 
ATOM      9  C   UNL     1       3.009  -1.064   0.182  0.00  0.00    -0.048 C 
ATOM     10  C   UNL     1       4.329  -1.009   0.112  0.00  0.00    -0.035 C 
ATOM     11  C   UNL     1       4.910   0.375   0.255  0.00  0.00    +0.025 C 
ATOM     12  C   UNL     1       3.680   1.245  -0.029  0.00  0.00    +0.005 C 
ATOM     13  C   UNL     1       2.242  -1.999   1.042  0.00  0.00    +0.022 C 
ATOM     14  C   UNL     1       3.232   0.760  -1.369  0.00  0.00    +0.005 C 
ATOM     15  C   UNL     1       1.082  -1.177   1.606  0.00  0.00    +0.005 C 
ATOM     16  C   UNL     1      -1.722  -1.163   1.675  0.00  0.00    +0.004 C 
ATOM     17  C   UNL     1      -1.226   0.933  -1.227  0.00  0.00    +0.025 C 
ATOM     18  C   UNL     1      -2.981  -0.298   1.777  0.00  0.00    +0.043 C 
ATOM     19  O   UNL     1      -4.298   0.154  -0.079  0.00  0.00    -0.212 OA
ENDROOT
BRANCH   1  21
ATOM     20  C   UNL     1      -2.871   3.084   0.654  0.00  0.00    -0.012 C 
ATOM     21  C   UNL     1      -2.999   1.895   0.662  0.00  0.00    -0.049 C 
ENDBRANCH   1  21
BRANCH   2  22
ATOM     22  C   UNL     1      -1.973  -1.428  -0.727  0.00  0.00    +0.004 C 
ATOM     23  C   UNL     1      -3.246  -2.138  -0.346  0.00  0.00    +0.000 C 
ENDBRANCH   2  22
TORSDOF 2
