REMARK  Name = 
REMARK  5 active torsions:
REMARK  status: ('A' for Active; 'I' for Inactive)
REMARK    1  A    between atoms: O_2  and  C_3
REMARK    2  A    between atoms: N_5  and  C_7
REMARK    3  A    between atoms: C_11  and  C_12
REMARK    4  A    between atoms: N_14  and  C_15
REMARK    5  A    between atoms: C_15  and  C_16
REMARK                            x       y       z     vdW  Elec       q    Type
REMARK                         _______ _______ _______ _____ _____    ______ ____
ROOT
ATOM      1  C   UNL     1      -0.581  -0.291   0.010  0.00  0.00    +0.140 A 
ATOM      2  C   UNL     1      -1.001  -1.597   0.223  0.00  0.00    +0.058 A 
ATOM      3  C   UNL     1      -2.253  -1.712  -0.369  0.00  0.00    +0.161 A 
ATOM      4  N   UNL     1      -2.841  -2.933  -0.377  0.00  0.00    -0.225 NA
ATOM      5  C   UNL     1      -2.504  -3.770   0.634  0.00  0.00    +0.101 A 
ATOM      6  C   UNL     1      -1.147  -3.843   0.922  0.00  0.00    +0.021 A 
ATOM      7  N   UNL     1      -2.489  -0.559  -1.042  0.00  0.00    -0.229 N 
ATOM      8  C   UNL     1      -0.346  -2.762   0.575  0.00  0.00    +0.006 A 
ATOM      9  N   UNL     1      -1.623   0.320  -0.581  0.00  0.00    -0.165 NA
ENDROOT
BRANCH   1  14
ATOM     10  C   UNL     1       3.526  -0.326   0.286  0.00  0.00    +0.127 A 
ATOM     11  C   UNL     1       2.910  -0.291  -0.958  0.00  0.00    +0.188 A 
ATOM     12  N   UNL     1       3.642  -0.751  -2.079  0.00  0.00    -0.106 NA
ATOM     13  N   UNL     1       1.599   0.040  -1.031  0.00  0.00    -0.206 NA
ATOM     14  C   UNL     1       0.819   0.101   0.076  0.00  0.00    +0.185 A 
ATOM     15  N   UNL     1       1.459   0.346   1.242  0.00  0.00    -0.206 NA
ATOM     16  C   UNL     1       2.788   0.110   1.370  0.00  0.00    +0.188 A 
ATOM     17  N   UNL     1       3.452   0.166   2.633  0.00  0.00    -0.106 NA
BRANCH  10  19
ATOM     18  C   UNL     1       5.388   1.238  -0.000  0.00  0.00    +0.409 C 
ATOM     19  N   UNL     1       4.940  -0.093   0.279  0.00  0.00    -0.218 N 
ATOM     20  C   UNL     1       5.777  -1.257   0.026  0.00  0.00    +0.124 C 
ATOM     21  O   UNL     1       5.542   1.678  -1.165  0.00  0.00    -0.226 OA
BRANCH  18  23
ATOM     22  C   UNL     1       5.071   3.519   0.870  0.00  0.00    +0.257 C 
ATOM     23  O   UNL     1       5.522   2.177   1.027  0.00  0.00    -0.430 OA
ENDBRANCH  18  23
ENDBRANCH  10  19
ENDBRANCH   1  14
BRANCH   7  24
ATOM     24  C   UNL     1      -3.803  -0.277  -1.615  0.00  0.00    +0.158 C 
BRANCH  24  25
ATOM     25  C   UNL     1      -4.413   0.855  -0.852  0.00  0.00    +0.030 A 
ATOM     26  C   UNL     1      -4.763   0.590   0.467  0.00  0.00    +0.138 A 
ATOM     27  F   UNL     1      -5.305  -0.614   0.798  0.00  0.00    -0.204 F 
ATOM     28  C   UNL     1      -4.888   1.708   1.282  0.00  0.00    +0.029 A 
ATOM     29  C   UNL     1      -4.834   2.990   0.751  0.00  0.00    +0.002 A 
ATOM     30  C   UNL     1      -4.958   3.159  -0.622  0.00  0.00    -0.000 A 
ATOM     31  C   UNL     1      -4.684   2.079  -1.451  0.00  0.00    -0.000 A 
ENDBRANCH  24  25
ENDBRANCH   7  24
TORSDOF 5
