REMARK  Name = 
REMARK  5 active torsions:
REMARK  status: ('A' for Active; 'I' for Inactive)
REMARK    1  A    between atoms: S_2  and  C_5
REMARK    2  A    between atoms: C_7  and  C_8
REMARK    3  A    between atoms: C_11  and  N_12
REMARK    4  A    between atoms: N_12  and  C_13
REMARK    5  A    between atoms: C_13  and  C_14
REMARK                            x       y       z     vdW  Elec       q    Type
REMARK                         _______ _______ _______ _____ _____    ______ ____
ROOT
ATOM      1  C   UNL     1      -2.493  -0.002  -0.192  0.00  0.00    +0.136 A 
ATOM      2  C   UNL     1      -1.822   0.447  -1.321  0.00  0.00    +0.078 A 
ATOM      3 CL   UNL     1      -2.828   1.145  -2.582  0.00  0.00    -0.081 Cl
ATOM      4  C   UNL     1      -0.453   0.272  -1.483  0.00  0.00    +0.029 A 
ATOM      5  C   UNL     1       0.189  -0.588  -0.600  0.00  0.00    +0.073 A 
ATOM      6  C   UNL     1      -0.541  -1.359   0.297  0.00  0.00    +0.096 A 
ATOM      7  C   UNL     1      -1.846  -0.968   0.570  0.00  0.00    +0.029 A 
ENDROOT
BRANCH   1   9
ATOM      8  N   UNL     1      -5.002   0.046   1.196  0.00  0.00    +0.039 NA
ATOM      9  S   UNL     1      -3.766   1.010   0.468  0.00  0.00    +0.094 S 
ATOM     10  O   UNL     1      -3.204   1.935   1.524  0.00  0.00    -0.150 OA
ATOM     11  O   UNL     1      -4.370   1.794  -0.646  0.00  0.00    -0.150 OA
ENDBRANCH   1   9
BRANCH   6  12
ATOM     12  C   UNL     1      -0.056  -2.681   0.710  0.00  0.00    +0.389 C 
ATOM     13  O   UNL     1      -1.020  -3.658   0.982  0.00  0.00    -0.241 OA
ATOM     14  O   UNL     1       1.014  -3.121   0.192  0.00  0.00    -0.241 OA
ENDBRANCH   6  12
BRANCH   5  15
ATOM     15  N   UNL     1       1.607  -0.659  -0.496  0.00  0.00    -0.229 NA
BRANCH  15  16
ATOM     16  C   UNL     1       2.431   0.355  -1.141  0.00  0.00    +0.176 C 
BRANCH  16  17
ATOM     17  C   UNL     1       3.502   0.852  -0.236  0.00  0.00    +0.145 A 
ATOM     18  O   UNL     1       4.551   0.111   0.079  0.00  0.00    -0.453 OA
ATOM     19  C   UNL     1       5.367   0.799   0.848  0.00  0.00    +0.179 A 
ATOM     20  C   UNL     1       4.892   2.100   0.953  0.00  0.00    +0.043 A 
ATOM     21  C   UNL     1       3.847   2.169   0.043  0.00  0.00    +0.038 A 
ENDBRANCH  16  17
ENDBRANCH  15  16
ENDBRANCH   5  15
TORSDOF 5
