REMARK  Name = 
REMARK  3 active torsions:
REMARK  status: ('A' for Active; 'I' for Inactive)
REMARK    1  A    between atoms: N_2  and  N_3
REMARK    2  A    between atoms: N_7  and  C_8
REMARK    3  A    between atoms: C_13  and  C_14
REMARK                            x       y       z     vdW  Elec       q    Type
REMARK                         _______ _______ _______ _____ _____    ______ ____
ROOT
ATOM      1  C   UNL     1      -0.031   0.057  -0.915  0.00  0.00    +0.189 C 
ATOM      2  C   UNL     1      -1.040  -1.188  -1.511  0.00  0.00    +0.292 C 
ATOM      3  O   UNL     1      -1.258  -2.112  -0.319  0.00  0.00    -0.188 OA
ATOM      4  O   UNL     1      -2.218  -0.221  -1.296  0.00  0.00    -0.324 OA
ATOM      5  C   UNL     1      -2.884  -0.838  -0.102  0.00  0.00    +0.184 C 
ATOM      6  C   UNL     1      -1.879  -0.265   1.172  0.00  0.00    +0.214 C 
ATOM      7  O   UNL     1      -0.848  -1.337   1.429  0.00  0.00    -0.218 OA
ATOM      8  C   UNL     1      -0.779   0.803   0.416  0.00  0.00    +0.210 C 
ATOM      9  O   UNL     1      -1.761   1.627  -0.404  0.00  0.00    -0.218 OA
ENDROOT
BRANCH   1  13
ATOM     10  C   UNL     1       3.082   1.012   1.108  0.00  0.00    +0.148 C 
ATOM     11  N   UNL     1       3.174   0.537   0.296  0.00  0.00    -0.127 N 
ATOM     12  C   UNL     1       2.325  -0.405  -0.357  0.00  0.00    +0.345 C 
ATOM     13  N   UNL     1       0.966  -0.736  -0.010  0.00  0.00    -0.181 NA
ATOM     14  O   UNL     1       2.510  -0.690  -1.579  0.00  0.00    -0.249 OA
BRANCH  11  15
ATOM     15  N   UNL     1       4.425   0.723  -0.333  0.00  0.00    +0.053 NA
ATOM     16  O   UNL     1       4.718   1.670  -0.988  0.00  0.00    -0.126 OA
ENDBRANCH  11  15
ENDBRANCH   1  13
BRANCH   5  17
ATOM     17  C   UNL     1      -3.778   0.502   0.262  0.00  0.00    +0.214 C 
ATOM     18  O   UNL     1      -4.724   0.864  -0.358  0.00  0.00    -0.218 OA
ENDBRANCH   5  17
TORSDOF 3
