REMARK  Name = 
REMARK  13 active torsions:
REMARK  status: ('A' for Active; 'I' for Inactive)
REMARK    1  A    between atoms: C_3  and  C_4
REMARK    2  A    between atoms: C_4  and  C_5
REMARK    3  A    between atoms: C_5  and  C_7
REMARK    4  A    between atoms: C_7  and  C_9
REMARK    5  A    between atoms: C_10  and  C_11
REMARK    6  A    between atoms: C_15  and  C_16
REMARK    7  A    between atoms: C_16  and  C_17
REMARK    8  A    between atoms: C_17  and  C_18
REMARK    9  A    between atoms: C_18  and  C_19
REMARK   10  A    between atoms: C_19  and  O_21
REMARK   11  A    between atoms: O_21  and  C_22
REMARK   12  A    between atoms: C_22  and  C_23
REMARK   13  A    between atoms: C_23  and  C_25
REMARK                            x       y       z     vdW  Elec       q    Type
REMARK                         _______ _______ _______ _____ _____    ______ ____
ROOT
ATOM      1  C   UNL     1      -2.873  -1.008  -0.698  0.00  0.00    +0.052 C 
ATOM      2  C   UNL     1      -2.602  -1.113   0.977  0.00  0.00    +0.156 C 
ATOM      3  O   UNL     1      -2.437  -2.628   0.968  0.00  0.00    -0.223 OA
ATOM      4  C   UNL     1      -0.998  -0.989   0.902  0.00  0.00    +0.034 C 
ATOM      5  C   UNL     1      -1.101   0.672   0.255  0.00  0.00    +0.007 C 
ATOM      6  C   UNL     1      -2.186   0.424   0.634  0.00  0.00    +0.022 C 
ATOM      7  C   UNL     1      -0.825  -0.256  -0.018  0.00  0.00    -0.048 C 
ATOM      8  C   UNL     1       0.443   0.005   0.249  0.00  0.00    -0.035 C 
ATOM      9  C   UNL     1      -0.904  -1.175  -1.117  0.00  0.00    +0.022 C 
ATOM     10  C   UNL     1      -1.769   0.114  -1.272  0.00  0.00    +0.011 C 
ENDROOT
BRANCH   1  12
ATOM     11  C   UNL     1      -5.111  -0.183  -1.122  0.00  0.00    +0.002 C 
ATOM     12  C   UNL     1      -4.004   0.123  -0.623  0.00  0.00    -0.026 C 
BRANCH  11  13
ATOM     13  C   UNL     1      -6.320  -0.371  -0.048  0.00  0.00    +0.175 C 
ATOM     14  O   UNL     1      -6.633  -1.745  -0.627  0.00  0.00    -0.218 OA
BRANCH  13  15
ATOM     15  C   UNL     1      -7.414   0.361  -1.155  0.00  0.00    +0.048 C 
ATOM     16  C   UNL     1      -6.627   1.778  -1.101  0.00  0.00    +0.004 C 
BRANCH  15  17
ATOM     17  C   UNL     1      -8.460   0.658   0.034  0.00  0.00    +0.079 C 
BRANCH  17  20
ATOM     18  C   UNL     1      -7.644   3.683   1.891  0.00  0.00    +0.090 C 
ATOM     19  C   UNL     1      -7.878   2.913   1.319  0.00  0.00    -0.090 C 
ATOM     20  C   UNL     1      -8.160   1.882   0.726  0.00  0.00    -0.091 C 
ENDBRANCH  17  20
ENDBRANCH  15  17
ENDBRANCH  13  15
ENDBRANCH  11  13
ENDBRANCH   1  12
BRANCH   8  21
ATOM     21  C   UNL     1       1.438  -0.104  -0.765  0.00  0.00    +0.026 C 
BRANCH  21  22
ATOM     22  C   UNL     1       2.681  -0.438  -0.262  0.00  0.00    +0.016 C 
BRANCH  22  23
ATOM     23  C   UNL     1       2.712  -1.881  -0.784  0.00  0.00    +0.110 C 
BRANCH  23  24
ATOM     24  C   UNL     1       4.125  -2.037  -1.083  0.00  0.00    +0.317 C 
ATOM     25  O   UNL     1       4.430  -2.321  -2.271  0.00  0.00    -0.250 OA
BRANCH  24  26
ATOM     26  O   UNL     1       5.030  -2.530  -0.141  0.00  0.00    -0.440 OA
BRANCH  26  27
ATOM     27  C   UNL     1       6.327  -1.940  -0.244  0.00  0.00    +0.277 C 
BRANCH  27  28
ATOM     28  C   UNL     1       6.333  -0.855   0.791  0.00  0.00    +0.217 C 
ATOM     29  O   UNL     1       5.771  -1.116   1.895  0.00  0.00    -0.287 OA
BRANCH  28  30
ATOM     30  C   UNL     1       6.831   0.463   0.458  0.00  0.00    +0.038 A 
ATOM     31  C   UNL     1       7.304   1.344   1.420  0.00  0.00    +0.003 A 
ATOM     32  C   UNL     1       8.138   2.397   1.085  0.00  0.00    +0.000 A 
ATOM     33  C   UNL     1       8.237   2.765  -0.245  0.00  0.00    +0.000 A 
ATOM     34  C   UNL     1       7.449   2.109  -1.173  0.00  0.00    +0.000 A 
ATOM     35  C   UNL     1       6.697   0.999  -0.816  0.00  0.00    +0.003 A 
ENDBRANCH  28  30
ENDBRANCH  27  28
ENDBRANCH  26  27
ENDBRANCH  24  26
ENDBRANCH  23  24
ENDBRANCH  22  23
ENDBRANCH  21  22
ENDBRANCH   8  21
TORSDOF 13
