REMARK  Name = 
REMARK  1 active torsions:
REMARK  status: ('A' for Active; 'I' for Inactive)
REMARK    1  A    between atoms: C_8  and  C_9
REMARK                            x       y       z     vdW  Elec       q    Type
REMARK                         _______ _______ _______ _____ _____    ______ ____
ROOT
ATOM      1 CL   UNL     1      -1.045   4.476   0.398  0.00  0.00    -0.082 Cl
ATOM      2  C   UNL     1      -0.165   2.951   0.465  0.00  0.00    +0.058 A 
ATOM      3  C   UNL     1      -0.705   1.879  -0.234  0.00  0.00    +0.014 A 
ATOM      4  C   UNL     1       0.127   0.822  -0.487  0.00  0.00    +0.034 A 
ATOM      5  C   UNL     1      -0.692  -0.316  -0.926  0.00  0.00    +0.078 C 
ATOM      6  N   UNL     1      -0.174  -1.423  -1.371  0.00  0.00    -0.262 NA
ATOM      7  C   UNL     1       1.166  -1.805  -1.722  0.00  0.00    +0.191 C 
ATOM      8  C   UNL     1       2.175  -1.431  -0.710  0.00  0.00    +0.172 A 
ATOM      9  N   UNL     1       2.458  -0.195  -0.230  0.00  0.00    -0.273 N 
ATOM     10  C   UNL     1       3.410  -0.365   0.719  0.00  0.00    +0.207 A 
ATOM     11  N   UNL     1       3.850  -1.637   0.645  0.00  0.00    -0.125 NA
ATOM     12  N   UNL     1       3.238  -2.183  -0.398  0.00  0.00    -0.131 NA
ATOM     13  C   UNL     1       1.483   0.855  -0.182  0.00  0.00    +0.068 A 
ATOM     14  C   UNL     1       1.989   1.958   0.489  0.00  0.00    +0.019 A 
ATOM     15  C   UNL     1       1.092   2.860   1.048  0.00  0.00    +0.013 A 
ENDROOT
BRANCH   5  16
ATOM     16  C   UNL     1      -2.038  -0.417  -0.349  0.00  0.00    +0.017 A 
ATOM     17  C   UNL     1      -2.296  -0.093   0.977  0.00  0.00    +0.001 A 
ATOM     18  C   UNL     1      -3.064  -0.919   1.789  0.00  0.00    +0.000 A 
ATOM     19  C   UNL     1      -3.998  -1.723   1.159  0.00  0.00    +0.000 A 
ATOM     20  C   UNL     1      -3.983  -1.855  -0.217  0.00  0.00    +0.000 A 
ATOM     21  C   UNL     1      -2.831  -1.437  -0.862  0.00  0.00    +0.001 A 
ENDBRANCH   5  16
TORSDOF 1
