REMARK  Name = 
REMARK  3 active torsions:
REMARK  status: ('A' for Active; 'I' for Inactive)
REMARK    1  A    between atoms: C_2  and  C_4
REMARK    2  A    between atoms: N_6  and  C_7
REMARK    3  A    between atoms: C_7  and  C_8
REMARK                            x       y       z     vdW  Elec       q    Type
REMARK                         _______ _______ _______ _____ _____    ______ ____
ROOT
ATOM      1  C   UNL     1      -0.344  -0.115  -0.930  0.00  0.00    +0.160 C 
ENDROOT
BRANCH   1   2
ATOM      2  C   UNL     1      -1.700  -0.229  -0.306  0.00  0.00    +0.057 A 
ATOM      3  C   UNL     1      -2.692  -0.684  -1.168  0.00  0.00    +0.140 A 
ATOM      4  F   UNL     1      -2.438  -1.649  -2.100  0.00  0.00    -0.204 F 
ATOM      5  C   UNL     1      -4.032  -0.378  -0.976  0.00  0.00    +0.030 A 
ATOM      6  C   UNL     1      -4.321   0.813  -0.320  0.00  0.00    +0.005 A 
ATOM      7  C   UNL     1      -3.431   1.157   0.687  0.00  0.00    +0.030 A 
ATOM      8  C   UNL     1      -2.100   0.777   0.565  0.00  0.00    +0.140 A 
ATOM      9  F   UNL     1      -1.203   1.478   1.283  0.00  0.00    -0.204 F 
ENDBRANCH   1   2
BRANCH   1  13
ATOM     10  C   UNL     1       2.836  -0.239   0.614  0.00  0.00    +0.180 A 
ATOM     11  N   UNL     1       2.662  -1.477   0.094  0.00  0.00    -0.124 NA
ATOM     12  N   UNL     1       1.345  -1.681   0.059  0.00  0.00    -0.063 NA
ATOM     13  N   UNL     1       0.707  -0.512   0.001  0.00  0.00    -0.225 N 
ATOM     14  C   UNL     1       1.618   0.387   0.447  0.00  0.00    +0.123 A 
BRANCH  10  16
ATOM     15  N   UNL     1       4.009   1.450   1.941  0.00  0.00    -0.082 NA
ATOM     16  C   UNL     1       4.114   0.368   1.007  0.00  0.00    +0.305 C 
ATOM     17  O   UNL     1       4.968   0.536   0.085  0.00  0.00    -0.265 OA
ENDBRANCH  10  16
ENDBRANCH   1  13
TORSDOF 3
