REMARK  Name = 
REMARK  5 active torsions:
REMARK  status: ('A' for Active; 'I' for Inactive)
REMARK    1  A    between atoms: C_3  and  C_4
REMARK    2  A    between atoms: CA_5  and  C_6
REMARK    3  A    between atoms: CA_12  and  N_13
REMARK    4  A    between atoms: C_14  and  CA_16
REMARK    5  A    between atoms: CA_16  and  C_18
REMARK                            x       y       z     vdW  Elec       q    Type
REMARK                         _______ _______ _______ _____ _____    ______ ____
ROOT
ATOM      1  C   UNL     1      -3.935  -0.111   0.631  0.00  0.00    +0.009 C 
ATOM      2  C   UNL     1      -3.073  -0.084   1.855  0.00  0.00    +0.087 C 
ATOM      3  S   UNL     1      -1.428  -0.750   1.423  0.00  0.00    -0.114 S 
ATOM      4  C   UNL     1      -1.798  -1.670  -0.208  0.00  0.00    +0.157 C 
ATOM      5  N   UNL     1      -2.096  -0.366  -0.932  0.00  0.00    -0.242 N 
ATOM      6  C   UNL     1      -0.708   0.035  -1.083  0.00  0.00    +0.253 C 
ATOM      7  O   UNL     1      -0.393   0.653  -2.161  0.00  0.00    -0.273 OA
ATOM      8  CA  UNL     1      -0.340  -1.553  -1.069  0.00  0.00    +0.200 C 
ATOM      9  CA  UNL     1      -3.385   0.135  -0.559  0.00  0.00    +0.132 C 
ENDROOT
BRANCH   1  12
ATOM     10  C   UNL     1      -6.087  -1.230   0.624  0.00  0.00    +0.031 C 
ATOM     11  C   UNL     1      -6.177  -0.719   0.574  0.00  0.00    -0.026 C 
ATOM     12  C   UNL     1      -5.338   0.286   0.790  0.00  0.00    -0.007 C 
ENDBRANCH   1  12
BRANCH   8  13
ATOM     13  N   UNL     1       0.616  -1.538   0.210  0.00  0.00    -0.194 NA
ATOM     14  C   UNL     1       1.753  -0.745   0.166  0.00  0.00    +0.264 C 
ATOM     15  O   UNL     1       1.608   0.390  -0.288  0.00  0.00    -0.271 OA
BRANCH  14  16
ATOM     16  CA  UNL     1       3.165  -1.480  -0.225  0.00  0.00    +0.191 C 
ATOM     17  N   UNL     1       3.319  -2.063   1.260  0.00  0.00    -0.118 NA
BRANCH  16  18
ATOM     18  C   UNL     1       4.064  -0.157   0.152  0.00  0.00    +0.004 A 
ATOM     19  C   UNL     1       5.372  -0.514   0.480  0.00  0.00    +0.001 A 
ATOM     20  C   UNL     1       6.352   0.467   0.382  0.00  0.00    +0.042 A 
ATOM     21  C   UNL     1       5.987   1.760   0.024  0.00  0.00    +0.196 A 
ATOM     22  O   UNL     1       6.701   2.880   0.465  0.00  0.00    -0.287 OA
ATOM     23  C   UNL     1       4.792   1.917  -0.657  0.00  0.00    +0.042 A 
ATOM     24  C   UNL     1       4.016   0.784  -0.880  0.00  0.00    +0.001 A 
ENDBRANCH  16  18
ENDBRANCH  14  16
ENDBRANCH   8  13
BRANCH   9  25
ATOM     25  C   UNL     1      -4.035   0.991  -1.560  0.00  0.00    +0.401 C 
ATOM     26  OXT UNL     1      -5.078   0.442  -2.314  0.00  0.00    -0.239 OA
ATOM     27  O   UNL     1      -3.874   2.241  -1.564  0.00  0.00    -0.239 OA
ENDBRANCH   9  25
TORSDOF 5
