REMARK  Name = 
REMARK  3 active torsions:
REMARK  status: ('A' for Active; 'I' for Inactive)
REMARK    1  A    between atoms: C_2  and  C_3
REMARK    2  A    between atoms: C_5  and  O_6
REMARK    3  A    between atoms: O_6  and  C_7
REMARK                            x       y       z     vdW  Elec       q    Type
REMARK                         _______ _______ _______ _____ _____    ______ ____
ROOT
ATOM      1  C   UNL     1      -2.280   0.884  -0.275  0.00  0.00    +0.185 C 
ATOM      2  C   UNL     1      -3.241  -0.298   0.454  0.00  0.00    +0.215 C 
ATOM      3  O   UNL     1      -3.636  -0.830  -0.908  0.00  0.00    -0.218 OA
ATOM      4  C   UNL     1      -2.232  -1.630   0.718  0.00  0.00    +0.221 C 
ATOM      5  O   UNL     1      -1.560  -1.033   1.940  0.00  0.00    -0.217 OA
ATOM      6  C   UNL     1      -0.877  -1.497  -0.280  0.00  0.00    +0.254 C 
ATOM      7  O   UNL     1      -1.648  -2.008  -1.472  0.00  0.00    -0.213 OA
ATOM      8  C   UNL     1      -0.999   0.085  -0.874  0.00  0.00    +0.322 C 
ATOM      9  O   UNL     1      -1.038   0.643   0.555  0.00  0.00    -0.316 OA
ENDROOT
BRANCH   1  11
ATOM     10  O   UNL     1      -2.424   3.058  -0.213  0.00  0.00    -0.218 OA
ATOM     11  C   UNL     1      -2.771   2.132   0.675  0.00  0.00    +0.214 C 
ENDBRANCH   1  11
BRANCH   8  12
ATOM     12  O   UNL     1       0.513   0.237  -1.028  0.00  0.00    -0.450 OA
BRANCH  12  13
ATOM     13  C   UNL     1       1.399   0.429  -0.045  0.00  0.00    +0.142 A 
ATOM     14  C   UNL     1       1.879  -0.638   0.713  0.00  0.00    +0.040 A 
ATOM     15  C   UNL     1       3.241  -0.920   0.787  0.00  0.00    +0.045 A 
ATOM     16  C   UNL     1       4.136  -0.251  -0.048  0.00  0.00    +0.196 A 
ATOM     17  O   UNL     1       5.366  -0.807  -0.181  0.00  0.00    -0.287 OA
ATOM     18  C   UNL     1       3.763   1.059  -0.264  0.00  0.00    +0.045 A 
ATOM     19  C   UNL     1       2.407   1.384  -0.252  0.00  0.00    +0.040 A 
ENDBRANCH  12  13
ENDBRANCH   8  12
TORSDOF 3
