REMARK  Name = 
REMARK  6 active torsions:
REMARK  status: ('A' for Active; 'I' for Inactive)
REMARK    1  A    between atoms: O_2  and  C_3
REMARK    2  A    between atoms: C_15  and  C_16
REMARK    3  A    between atoms: N_17  and  N_18
REMARK    4  A    between atoms: N_21  and  C_22
REMARK    5  A    between atoms: C_55  and  O_56
REMARK    6  A    between atoms: O_56  and  C_57
REMARK                            x       y       z     vdW  Elec       q    Type
REMARK                         _______ _______ _______ _____ _____    ______ ____
ROOT
ATOM      1  C   UNL     1      -5.783   0.721  -2.697  0.00  0.00    +0.144 C 
ATOM      2  C   UNL     1      -5.603   1.395  -1.121  0.00  0.00    +0.072 C 
ATOM      3  C   UNL     1      -6.454   2.689  -1.540  0.00  0.00    +0.007 C 
ATOM      4  C   UNL     1      -6.983   0.525  -0.637  0.00  0.00    +0.174 C 
ATOM      5  C   UNL     1      -6.713   0.682   1.043  0.00  0.00    +0.071 C 
ATOM      6  C   UNL     1      -6.462   2.272   1.043  0.00  0.00    +0.006 C 
ATOM      7  C   UNL     1      -5.041   0.325   1.001  0.00  0.00    +0.158 C 
ATOM      8  O   UNL     1      -5.319  -1.047   1.603  0.00  0.00    -0.223 OA
ATOM      9  C   UNL     1      -4.856   1.051   2.539  0.00  0.00    +0.061 C 
ATOM     10  C   UNL     1      -3.753   2.098   2.010  0.00  0.00    +0.005 C 
ATOM     11  C   UNL     1      -3.772  -0.135   3.136  0.00  0.00    +0.158 C 
ATOM     12  O   UNL     1      -2.815  -0.050   1.959  0.00  0.00    -0.223 OA
ATOM     13  C   UNL     1      -2.879   1.023   4.056  0.00  0.00    +0.053 C 
ATOM     14  C   UNL     1      -3.893   0.879   5.334  0.00  0.00    +0.007 C 
ATOM     15  C   UNL     1      -1.916  -0.132   4.625  0.00  0.00    -0.024 C 
ATOM     16  C   UNL     1      -0.853  -0.201   3.818  0.00  0.00    -0.005 C 
ATOM     17  C   UNL     1      -0.169   1.038   3.624  0.00  0.00    -0.000 C 
ATOM     18  C   UNL     1       0.445   1.474   2.528  0.00  0.00    +0.033 C 
ATOM     19  C   UNL     1       0.103   2.903   2.198  0.00  0.00    +0.036 C 
ATOM     20  C   UNL     1       1.807   1.036   2.148  0.00  0.00    +0.265 C 
ATOM     21  O   UNL     1       2.724   1.868   2.474  0.00  0.00    -0.268 OA
ATOM     22  N   UNL     1       1.965  -0.252   1.751  0.00  0.00    -0.172 NA
ATOM     23  C   UNL     1       2.495  -1.041   0.725  0.00  0.00    +0.117 A 
ATOM     24  C   UNL     1       1.800  -2.225   0.457  0.00  0.00    +0.214 A 
ATOM     25  C   UNL     1       1.169  -2.315  -0.787  0.00  0.00    +0.082 A 
ATOM     26  C   UNL     1       1.369  -1.325  -1.767  0.00  0.00    +0.051 A 
ATOM     27  C   UNL     1       2.592  -0.666  -1.650  0.00  0.00    +0.199 A 
ATOM     28  O   UNL     1       3.553  -0.639  -2.688  0.00  0.00    -0.286 OA
ATOM     29  C   UNL     1       0.199  -0.884  -2.315  0.00  0.00    +0.079 A 
ATOM     30  C   UNL     1      -0.157  -0.107  -3.446  0.00  0.00    +0.251 C 
ATOM     31  C   UNL     1      -1.543   0.384  -3.133  0.00  0.00    +0.326 C 
ATOM     32  O   UNL     1      -1.925  -0.281  -1.943  0.00  0.00    -0.443 OA
ATOM     33  C   UNL     1      -1.413   1.861  -3.011  0.00  0.00    +0.100 C 
ATOM     34  O   UNL     1      -2.495  -0.027  -4.076  0.00  0.00    -0.440 OA
ATOM     35  C   UNL     1      -3.819  -0.337  -3.752  0.00  0.00    +0.174 C 
ATOM     36  O   UNL     1       0.190  -0.007  -4.664  0.00  0.00    -0.284 OA
ATOM     37  C   UNL     1      -1.036  -1.355  -1.845  0.00  0.00    +0.145 A 
ATOM     38  C   UNL     1      -1.174  -2.661  -1.362  0.00  0.00    +0.051 A 
ATOM     39  C   UNL     1      -2.477  -3.202  -0.934  0.00  0.00    +0.038 C 
ATOM     40  C   UNL     1       0.049  -3.141  -0.892  0.00  0.00    +0.198 A 
ATOM     41  O   UNL     1       0.061  -4.352  -0.233  0.00  0.00    -0.287 OA
ATOM     42  O   UNL     1       1.932  -3.459   1.105  0.00  0.00    -0.285 OA
ATOM     43  C   UNL     1       3.216  -0.573  -0.388  0.00  0.00    +0.078 A 
ATOM     44  C   UNL     1      -4.383  -0.130  -2.587  0.00  0.00    +0.043 C 
ENDROOT
BRANCH  43  45
ATOM     45  C   UNL     1       4.674  -0.294  -0.308  0.00  0.00    +0.122 C 
ATOM     46  N   UNL     1       5.170   0.874  -0.461  0.00  0.00    -0.180 NA
BRANCH  46  47
ATOM     47  N   UNL     1       6.497   0.972  -0.923  0.00  0.00    -0.230 N 
ATOM     48  C   UNL     1       7.308  -0.200  -1.174  0.00  0.00    +0.128 C 
ATOM     49  C   UNL     1       8.502  -0.322  -0.304  0.00  0.00    +0.096 C 
ATOM     50  N   UNL     1       9.018   0.890   0.250  0.00  0.00    -0.271 NA
ATOM     51  C   UNL     1       7.984   1.819   0.699  0.00  0.00    +0.096 C 
ATOM     52  C   UNL     1       7.202   2.191  -0.560  0.00  0.00    +0.128 C 
BRANCH  50  53
ATOM     53  C   UNL     1       9.863   0.511   1.382  0.00  0.00    +0.058 C 
ATOM     54  C   UNL     1      10.629   1.711   1.924  0.00  0.00    +0.016 C 
ATOM     55  C   UNL     1      11.138   1.131   3.241  0.00  0.00    +0.001 C 
ATOM     56  C   UNL     1      10.077   0.154   3.696  0.00  0.00    +0.001 C 
ATOM     57  C   UNL     1       9.019   0.160   2.602  0.00  0.00    +0.016 C 
ENDBRANCH  50  53
ENDBRANCH  46  47
ENDBRANCH  43  45
BRANCH   1  59
ATOM     58  C   UNL     1      -5.740   2.338  -3.897  0.00  0.00    +0.174 C 
ATOM     59  O   UNL     1      -5.050   1.902  -3.364  0.00  0.00    -0.349 OA
ENDBRANCH   1  59
BRANCH   4  60
ATOM     60  O   UNL     1      -6.245  -0.834  -0.710  0.00  0.00    -0.452 OA
BRANCH  60  61
ATOM     61  C   UNL     1      -7.130  -1.827  -1.089  0.00  0.00    +0.317 C 
ATOM     62  O   UNL     1      -7.796  -1.631  -2.141  0.00  0.00    -0.250 OA
ATOM     63  C   UNL     1      -7.105  -3.228  -0.573  0.00  0.00    +0.121 C 
ENDBRANCH  60  61
ENDBRANCH   4  60
TORSDOF 6
