REMARK  Name = 
REMARK  5 active torsions:
REMARK  status: ('A' for Active; 'I' for Inactive)
REMARK    1  A    between atoms: C_4  and  C_5
REMARK    2  A    between atoms: C_4  and  C_11
REMARK    3  A    between atoms: N_19  and  C_20
REMARK    4  A    between atoms: C_20  and  O_21
REMARK    5  A    between atoms: O_21  and  P_22
REMARK                            x       y       z     vdW  Elec       q    Type
REMARK                         _______ _______ _______ _____ _____    ______ ____
ROOT
ATOM      1  O   UNL     1       0.755  -2.342   2.479  0.00  0.00    -0.250 OA
ATOM      2  C   UNL     1       0.474  -1.422   1.654  0.00  0.00    +0.332 C 
ATOM      3  N   UNL     1       1.262  -0.855   0.624  0.00  0.00    -0.183 N 
ATOM      4  C   UNL     1       0.336  -0.521  -0.417  0.00  0.00    +0.260 C 
ATOM      5  O   UNL     1       0.711   0.048  -1.486  0.00  0.00    -0.272 OA
ATOM      6  C   UNL     1      -0.940  -0.211   0.267  0.00  0.00    +0.186 C 
ATOM      7  N   UNL     1      -0.789  -0.752   1.615  0.00  0.00    -0.174 NA
ENDROOT
BRANCH   6   8
ATOM      8  C   UNL     1      -1.096   1.252   0.369  0.00  0.00    +0.008 A 
ATOM      9  C   UNL     1      -1.054   2.077  -0.741  0.00  0.00    -0.002 A 
ATOM     10  C   UNL     1      -1.108   3.451  -0.555  0.00  0.00    -0.000 A 
ATOM     11  C   UNL     1      -1.427   3.963   0.696  0.00  0.00    -0.000 A 
ATOM     12  C   UNL     1      -2.031   3.081   1.576  0.00  0.00    -0.000 A 
ATOM     13  C   UNL     1      -1.657   1.762   1.528  0.00  0.00    -0.002 A 
ENDBRANCH   6   8
BRANCH   6  14
ATOM     14  C   UNL     1      -2.115  -0.817  -0.431  0.00  0.00    +0.008 A 
ATOM     15  C   UNL     1      -3.097   0.018  -0.950  0.00  0.00    -0.002 A 
ATOM     16  C   UNL     1      -4.424  -0.385  -1.044  0.00  0.00    -0.000 A 
ATOM     17  C   UNL     1      -4.836  -1.519  -0.354  0.00  0.00    -0.000 A 
ATOM     18  C   UNL     1      -3.858  -2.489  -0.166  0.00  0.00    -0.000 A 
ATOM     19  C   UNL     1      -2.519  -2.119  -0.171  0.00  0.00    -0.002 A 
ENDBRANCH   6  14
BRANCH   3  20
ATOM     20  C   UNL     1       2.697  -0.957   0.582  0.00  0.00    +0.260 C 
BRANCH  20  21
ATOM     21  O   UNL     1       3.278  -0.249  -0.451  0.00  0.00    -0.248 OA
BRANCH  21  22
ATOM     22  P   UNL     1       4.960  -0.298  -0.202  0.00  0.00    +0.534 P 
ATOM     23  O   UNL     1       5.343   0.739   1.089  0.00  0.00    -0.115 OA
ATOM     24  O   UNL     1       5.781   0.264  -1.580  0.00  0.00    -0.115 OA
ATOM     25  O   UNL     1       5.354  -1.720   0.137  0.00  0.00    -0.222 OA
ENDBRANCH  21  22
ENDBRANCH  20  21
ENDBRANCH   3  20
TORSDOF 5
