REMARK  Name = 
REMARK  5 active torsions:
REMARK  status: ('A' for Active; 'I' for Inactive)
REMARK    1  A    between atoms: C_3  and  C_5
REMARK    2  A    between atoms: C_8  and  N_9
REMARK    3  A    between atoms: N_12  and  C_13
REMARK    4  A    between atoms: C_16  and  C_17
REMARK    5  A    between atoms: C_19  and  C_20
REMARK                            x       y       z     vdW  Elec       q    Type
REMARK                         _______ _______ _______ _____ _____    ______ ____
ROOT
ATOM      1  N   UNL     1       1.273  -1.057  -0.408  0.00  0.00    -0.265 N 
ATOM      2  C   UNL     1       0.863  -0.320   0.783  0.00  0.00    +0.133 C 
ATOM      3  C   UNL     1       1.720  -0.815   1.913  0.00  0.00    +0.030 C 
ATOM      4  C   UNL     1       0.987   1.163   0.562  0.00  0.00    +0.030 C 
ATOM      5  C   UNL     1      -0.554  -0.712   0.898  0.00  0.00    +0.251 C 
ATOM      6  O   UNL     1      -1.236  -0.687   1.948  0.00  0.00    -0.272 OA
ATOM      7  N   UNL     1      -1.041  -0.761  -0.448  0.00  0.00    -0.218 N 
ATOM      8  C   UNL     1       0.107  -1.093  -1.237  0.00  0.00    +0.152 C 
ATOM      9  S   UNL     1       0.098  -1.271  -2.869  0.00  0.00    -0.017 S 
ENDROOT
BRANCH   1  14
ATOM     10  C   UNL     1       5.220  -0.007  -0.466  0.00  0.00    +0.083 A 
ATOM     11  C   UNL     1       4.907  -1.251   0.069  0.00  0.00    +0.146 A 
ATOM     12  F   UNL     1       5.690  -1.734   1.075  0.00  0.00    -0.204 F 
ATOM     13  C   UNL     1       3.611  -1.749  -0.031  0.00  0.00    +0.045 A 
ATOM     14  C   UNL     1       2.648  -1.113  -0.808  0.00  0.00    +0.055 A 
ATOM     15  C   UNL     1       3.173  -0.219  -1.736  0.00  0.00    +0.015 A 
ATOM     16  C   UNL     1       4.388   0.413  -1.496  0.00  0.00    +0.008 A 
BRANCH  10  19
ATOM     17  C   UNL     1       6.282   3.422   0.790  0.00  0.00    +0.139 C 
ATOM     18  N   UNL     1       5.993   2.340  -0.116  0.00  0.00    -0.200 NA
ATOM     19  C   UNL     1       6.047   0.964   0.263  0.00  0.00    +0.267 C 
ATOM     20  O   UNL     1       6.439   0.750   1.446  0.00  0.00    -0.268 OA
ENDBRANCH  10  19
ENDBRANCH   1  14
BRANCH   7  21
ATOM     21  C   UNL     1      -2.393  -0.576  -0.880  0.00  0.00    +0.060 A 
ATOM     22  C   UNL     1      -3.072   0.607  -0.658  0.00  0.00    +0.020 A 
ATOM     23  C   UNL     1      -4.420   0.573  -0.328  0.00  0.00    +0.082 A 
ATOM     24  C   UNL     1      -5.153  -0.608  -0.334  0.00  0.00    +0.072 A 
ATOM     25  C   UNL     1      -4.518  -1.735  -0.839  0.00  0.00    +0.012 A 
ATOM     26  C   UNL     1      -3.151  -1.720  -1.083  0.00  0.00    +0.016 A 
BRANCH  23  27
ATOM     27  C   UNL     1      -5.045   1.861   0.106  0.00  0.00    +0.419 C 
ATOM     28  F   UNL     1      -4.551   2.256   1.336  0.00  0.00    -0.166 F 
ATOM     29  F   UNL     1      -4.666   2.849  -0.796  0.00  0.00    -0.166 F 
ATOM     30  F   UNL     1      -6.418   1.806   0.076  0.00  0.00    -0.166 F 
ENDBRANCH  23  27
BRANCH  24  31
ATOM     31  C   UNL     1      -6.210  -0.734   0.644  0.00  0.00    +0.100 C 
ATOM     32  N   UNL     1      -7.018  -0.841   1.481  0.00  0.00    -0.191 NA
ENDBRANCH  24  31
ENDBRANCH   7  21
TORSDOF 5
