REMARK  Name = 
REMARK  6 active torsions:
REMARK  status: ('A' for Active; 'I' for Inactive)
REMARK    1  A    between atoms: C_3  and  O_4
REMARK    2  A    between atoms: O_4  and  C_5
REMARK    3  A    between atoms: C_5  and  C_6
REMARK    4  A    between atoms: C_13  and  C_14
REMARK    5  A    between atoms: C_14  and  S_15
REMARK    6  A    between atoms: S_15  and  C_17
REMARK                            x       y       z     vdW  Elec       q    Type
REMARK                         _______ _______ _______ _____ _____    ______ ____
ROOT
ATOM      1  C   UNL     1       1.860   2.108   0.569  0.00  0.00    +0.035 C 
ATOM      2  C   UNL     1       1.746   0.972  -0.205  0.00  0.00    +0.027 A 
ATOM      3  C   UNL     1       0.640   0.866  -1.037  0.00  0.00    +0.072 A 
ATOM      4  N   UNL     1       0.425  -0.277  -1.726  0.00  0.00    -0.247 NA
ATOM      5  C   UNL     1       1.278  -1.308  -1.573  0.00  0.00    +0.102 A 
ATOM      6  C   UNL     1       2.563  -1.055  -1.154  0.00  0.00    +0.057 A 
ATOM      7  C   UNL     1       2.774   0.054  -0.372  0.00  0.00    +0.138 A 
ENDROOT
BRANCH   3   8
ATOM      8  C   UNL     1      -0.470   1.849  -0.890  0.00  0.00    +0.145 C 
BRANCH   8   9
ATOM      9  S   UNL     1      -0.975   1.877   0.882  0.00  0.00    +0.107 S 
ATOM     10  O   UNL     1      -1.410   3.368   1.006  0.00  0.00    -0.248 OA
BRANCH   9  11
ATOM     11  C   UNL     1      -2.570   1.031   0.770  0.00  0.00    +0.221 A 
ATOM     12  N   UNL     1      -3.761   1.525   0.462  0.00  0.00    -0.218 NA
ATOM     13  C   UNL     1      -4.617   0.513   0.204  0.00  0.00    +0.101 A 
ATOM     14  C   UNL     1      -3.940  -0.649   0.461  0.00  0.00    +0.101 A 
ATOM     15  C   UNL     1      -4.542  -1.849   0.107  0.00  0.00    +0.021 A 
ATOM     16  C   UNL     1      -5.801  -1.888  -0.454  0.00  0.00    +0.002 A 
ATOM     17  C   UNL     1      -6.350  -0.687  -0.840  0.00  0.00    +0.002 A 
ATOM     18  C   UNL     1      -5.802   0.532  -0.509  0.00  0.00    +0.021 A 
ATOM     19  N   UNL     1      -2.686  -0.310   0.836  0.00  0.00    -0.218 NA
ENDBRANCH   9  11
ENDBRANCH   8   9
ENDBRANCH   3   8
BRANCH   7  20
ATOM     20  O   UNL     1       3.962   0.336   0.274  0.00  0.00    -0.467 OA
BRANCH  20  21
ATOM     21  C   UNL     1       5.195  -0.272  -0.017  0.00  0.00    +0.308 C 
BRANCH  21  22
ATOM     22  C   UNL     1       5.526  -1.401   0.925  0.00  0.00    +0.438 C 
ATOM     23  F   UNL     1       4.475  -2.301   0.982  0.00  0.00    -0.166 F 
ATOM     24  F   UNL     1       5.853  -0.974   2.188  0.00  0.00    -0.166 F 
ATOM     25  F   UNL     1       6.627  -2.060   0.412  0.00  0.00    -0.166 F 
ENDBRANCH  21  22
ENDBRANCH  20  21
ENDBRANCH   7  20
TORSDOF 6
