REMARK  Name = 
REMARK  8 active torsions:
REMARK  status: ('A' for Active; 'I' for Inactive)
REMARK    1  A    between atoms: O_2  and  C_3
REMARK    2  A    between atoms: C_3  and  C_5
REMARK    3  A    between atoms: C_15  and  N_16
REMARK    4  A    between atoms: C_15  and  C_35
REMARK    5  A    between atoms: N_16  and  C_17
REMARK    6  A    between atoms: C_20  and  N_21
REMARK    7  A    between atoms: C_23  and  C_25
REMARK    8  A    between atoms: C_25  and  N_26
REMARK                            x       y       z     vdW  Elec       q    Type
REMARK                         _______ _______ _______ _____ _____    ______ ____
ROOT
ATOM      1  C   UNL     1      -6.665   0.597   0.934  0.00  0.00    +0.077 A 
ATOM      2  C   UNL     1      -6.258   1.830   0.466  0.00  0.00    +0.023 A 
ATOM      3  C   UNL     1      -4.988   1.898  -0.092  0.00  0.00    +0.074 A 
ATOM      4  N   UNL     1      -4.305   3.046  -0.605  0.00  0.00    -0.175 NA
ATOM      5  C   UNL     1      -2.973   2.650  -0.940  0.00  0.00    +0.270 C 
ATOM      6  C   UNL     1      -2.821   1.247  -0.566  0.00  0.00    +0.072 C 
ATOM      7  C   UNL     1      -1.683   0.553  -0.588  0.00  0.00    +0.075 C 
ATOM      8  O   UNL     1      -2.083   3.352  -1.491  0.00  0.00    -0.268 OA
ATOM      9  C   UNL     1      -4.150   0.791  -0.142  0.00  0.00    +0.021 A 
ATOM     10  C   UNL     1      -4.584  -0.415   0.394  0.00  0.00    +0.002 A 
ATOM     11  C   UNL     1      -5.711  -0.361   1.204  0.00  0.00    +0.007 A 
ENDROOT
BRANCH   7  12
ATOM     12  C   UNL     1      -1.789  -0.889  -0.556  0.00  0.00    +0.015 A 
ATOM     13  C   UNL     1      -1.431  -1.632   0.549  0.00  0.00    +0.001 A 
ATOM     14  C   UNL     1      -1.426  -3.009   0.546  0.00  0.00    +0.000 A 
ATOM     15  C   UNL     1      -2.157  -3.632  -0.449  0.00  0.00    +0.000 A 
ATOM     16  C   UNL     1      -2.357  -2.982  -1.648  0.00  0.00    +0.000 A 
ATOM     17  C   UNL     1      -2.222  -1.599  -1.662  0.00  0.00    +0.001 A 
ENDBRANCH   7  12
BRANCH   1  18
ATOM     18  C   UNL     1      -8.105   0.340   1.058  0.00  0.00    +0.341 C 
ATOM     19  O   UNL     1      -8.515  -0.756   1.535  0.00  0.00    -0.245 OA
BRANCH  18  21
ATOM     20  C   UNL     1     -10.399   0.777   0.408  0.00  0.00    +0.256 C 
ATOM     21  O   UNL     1      -9.018   1.061   0.303  0.00  0.00    -0.441 OA
ENDBRANCH  18  21
ENDBRANCH   1  18
BRANCH   7  22
ATOM     22  N   UNL     1      -0.489   1.282  -0.400  0.00  0.00    -0.212 NA
BRANCH  22  23
ATOM     23  C   UNL     1       0.812   0.772  -0.597  0.00  0.00    +0.071 A 
ATOM     24  C   UNL     1       1.857   1.480  -0.018  0.00  0.00    +0.018 A 
ATOM     25  C   UNL     1       3.084   0.885   0.131  0.00  0.00    +0.016 A 
ATOM     26  C   UNL     1       3.276  -0.395  -0.365  0.00  0.00    +0.054 A 
ATOM     27  C   UNL     1       2.350  -0.861  -1.289  0.00  0.00    +0.016 A 
ATOM     28  C   UNL     1       1.124  -0.237  -1.480  0.00  0.00    +0.018 A 
BRANCH  26  29
ATOM     29  N   UNL     1       4.292  -1.258   0.158  0.00  0.00    -0.256 N 
ATOM     30  C   UNL     1       4.998  -0.823   1.326  0.00  0.00    +0.246 C 
ATOM     31  O   UNL     1       4.567  -1.285   2.423  0.00  0.00    -0.273 OA
ATOM     32  C   UNL     1       4.067  -2.697   0.059  0.00  0.00    +0.120 C 
BRANCH  30  33
ATOM     33  C   UNL     1       5.599   0.536   1.369  0.00  0.00    +0.159 C 
BRANCH  33  34
ATOM     34  N   UNL     1       6.797   0.640   0.576  0.00  0.00    -0.263 NA
ATOM     35  C   UNL     1       6.987  -0.489  -0.311  0.00  0.00    +0.090 C 
ATOM     36  C   UNL     1       8.069  -0.093  -1.308  0.00  0.00    +0.090 C 
ATOM     37  N   UNL     1       9.302   0.248  -0.634  0.00  0.00    -0.269 NA
ATOM     38  C   UNL     1       9.838  -0.995  -0.083  0.00  0.00    +0.090 C 
ATOM     39  C   UNL     1       9.118   1.213   0.420  0.00  0.00    +0.090 C 
ATOM     40  C   UNL     1       7.990   0.829   1.364  0.00  0.00    +0.090 C 
ENDBRANCH  33  34
ENDBRANCH  30  33
ENDBRANCH  26  29
ENDBRANCH  22  23
ENDBRANCH   7  22
TORSDOF 8
