REMARK  Name = 
REMARK  10 active torsions:
REMARK  status: ('A' for Active; 'I' for Inactive)
REMARK    1  A    between atoms: C_2  and  C_3
REMARK    2  A    between atoms: C_3  and  C_4
REMARK    3  A    between atoms: C_4  and  C_5
REMARK    4  A    between atoms: C_5  and  C_6
REMARK    5  A    between atoms: C_6  and  O_7
REMARK    6  A    between atoms: O_7  and  C_8
REMARK    7  A    between atoms: C_8  and  C_10
REMARK    8  A    between atoms: C_10  and  C_11
REMARK    9  A    between atoms: C_11  and  C_12
REMARK   10  A    between atoms: C_12  and  C_14
REMARK                            x       y       z     vdW  Elec       q    Type
REMARK                         _______ _______ _______ _____ _____    ______ ____
ROOT
ATOM      1  C   UNL     1      -0.123  -0.080   0.160  0.00  0.00    +0.317 C 
ATOM      2  O   UNL     1       0.639   0.689   0.792  0.00  0.00    -0.250 OA
ENDROOT
BRANCH   1   3
ATOM      3  C   UNL     1      -1.459  -0.404   0.750  0.00  0.00    +0.117 C 
BRANCH   3   4
ATOM      4  C   UNL     1      -2.494   0.486   0.077  0.00  0.00    +0.078 C 
BRANCH   4   5
ATOM      5  C   UNL     1      -3.697  -0.327  -0.264  0.00  0.00    +0.170 C 
ATOM      6  O   UNL     1      -3.635  -1.544  -0.347  0.00  0.00    -0.294 OA
BRANCH   5   7
ATOM      7  C   UNL     1      -5.007   0.372  -0.414  0.00  0.00    +0.173 C 
ATOM      8  N   UNL     1      -6.008  -0.583  -0.812  0.00  0.00    -0.123 NA
ENDBRANCH   5   7
ENDBRANCH   4   5
ENDBRANCH   3   4
ENDBRANCH   1   3
BRANCH   1   9
ATOM      9  O   UNL     1       0.225  -0.569  -1.096  0.00  0.00    -0.448 OA
BRANCH   9  10
ATOM     10  C   UNL     1       1.419  -0.067  -1.694  0.00  0.00    +0.208 C 
BRANCH  10  11
ATOM     11  C   UNL     1       2.408   0.125  -0.556  0.00  0.00    +0.047 C 
BRANCH  11  12
ATOM     12  C   UNL     1       3.357   1.282  -0.830  0.00  0.00    +0.004 C 
BRANCH  12  13
ATOM     13  C   UNL     1       4.271   1.373   0.386  0.00  0.00    +0.000 C 
BRANCH  13  15
ATOM     14  C   UNL     1       4.768  -1.073   0.110  0.00  0.00    +0.000 C 
ATOM     15  C   UNL     1       5.336   0.319   0.287  0.00  0.00    +0.000 C 
ENDBRANCH  13  15
ENDBRANCH  12  13
ENDBRANCH  11  12
ENDBRANCH  10  11
ENDBRANCH   9  10
ENDBRANCH   1   9
TORSDOF 10
