REMARK  Name = 
REMARK  2 active torsions:
REMARK  status: ('A' for Active; 'I' for Inactive)
REMARK    1  A    between atoms: CA_2  and  CB_3
REMARK    2  A    between atoms: CA_2  and  C_5
REMARK                            x       y       z     vdW  Elec       q    Type
REMARK                         _______ _______ _______ _____ _____    ______ ____
ROOT
ATOM      1  N   SER A   1      -0.732  -0.687   1.361  0.00  0.00    -0.118 NA
ATOM      2  CA  SER A   1       0.023  -1.082   0.014  0.00  0.00    +0.227 C 
ENDROOT
BRANCH   2   3
ATOM      3  C   SER A   1       0.952   0.253   0.050  0.00  0.00    +0.385 C 
ATOM      4  OXT SER A   1       2.257   0.049  -0.348  0.00  0.00    -0.244 OA
ATOM      5  O   SER A   1       0.387   1.324   0.237  0.00  0.00    -0.244 OA
ENDBRANCH   2   3
BRANCH   2   6
ATOM      6  CB  SER A   1      -1.093  -0.392  -0.999  0.00  0.00    +0.213 C 
ATOM      7  OG  SER A   1      -1.794   0.535  -0.315  0.00  0.00    -0.218 OA
ENDBRANCH   2   6
TORSDOF 2
