REMARK  Name = 
REMARK  5 active torsions:
REMARK  status: ('A' for Active; 'I' for Inactive)
REMARK    1  A    between atoms: C_2  and  C_3
REMARK    2  A    between atoms: C_3  and  N_4
REMARK    3  A    between atoms: N_4  and  C_6
REMARK    4  A    between atoms: C_6  and  C_8
REMARK    5  A    between atoms: C_8  and  C_9
REMARK                            x       y       z     vdW  Elec       q    Type
REMARK                         _______ _______ _______ _____ _____    ______ ____
ROOT
ATOM      1  C   UNL     1      -0.791   0.703  -0.707  0.00  0.00    +0.063 C 
ATOM      2  C   UNL     1      -1.013   2.324  -1.057  0.00  0.00    +0.018 C 
ENDROOT
BRANCH   1   3
ATOM      3  N   UNL     1      -2.182   0.630   0.083  0.00  0.00    -0.261 NA
ATOM      4  C   UNL     1      -2.216   1.756   0.944  0.00  0.00    +0.090 C 
BRANCH   3   5
ATOM      5  C   UNL     1      -2.180  -0.652   0.728  0.00  0.00    +0.151 C 
BRANCH   5   7
ATOM      6  C   UNL     1      -3.414  -2.358  -0.917  0.00  0.00    -0.013 C 
ATOM      7  C   UNL     1      -2.923  -1.591  -0.132  0.00  0.00    -0.060 C 
ENDBRANCH   5   7
ENDBRANCH   3   5
ENDBRANCH   1   3
BRANCH   1   8
ATOM      8  C   UNL     1       0.061   1.071   0.684  0.00  0.00    +0.042 C 
BRANCH   8   9
ATOM      9  C   UNL     1       1.412   0.524   0.445  0.00  0.00    -0.021 A 
ATOM     10  C   UNL     1       2.064   0.741  -0.746  0.00  0.00    -0.004 A 
ATOM     11  C   UNL     1       3.116  -0.092  -1.097  0.00  0.00    -0.000 A 
ATOM     12  C   UNL     1       3.369  -1.234  -0.384  0.00  0.00    -0.000 A 
ATOM     13  C   UNL     1       2.812  -1.370   0.858  0.00  0.00    -0.000 A 
ATOM     14  C   UNL     1       1.887  -0.452   1.299  0.00  0.00    -0.004 A 
ENDBRANCH   8   9
ENDBRANCH   1   8
TORSDOF 5
