REMARK  Name = 
REMARK  10 active torsions:
REMARK  status: ('A' for Active; 'I' for Inactive)
REMARK    1  A    between atoms: N_2  and  C_3
REMARK    2  A    between atoms: C_3  and  N_8
REMARK    3  A    between atoms: C_4  and  N_5
REMARK    4  A    between atoms: N_8  and  C_9
REMARK    5  A    between atoms: C_9  and  C_10
REMARK    6  A    between atoms: C_10  and  S_11
REMARK    7  A    between atoms: S_11  and  C_12
REMARK    8  A    between atoms: C_12  and  C_13
REMARK    9  A    between atoms: C_16  and  C_17
REMARK   10  A    between atoms: C_17  and  N_18
REMARK                            x       y       z     vdW  Elec       q    Type
REMARK                         _______ _______ _______ _____ _____    ______ ____
ROOT
ATOM      1  S   UNL     1       0.102  -1.758  -0.242  0.00  0.00    -0.129 S 
ENDROOT
BRANCH   1   2
ATOM      2  C   UNL     1      -1.308  -1.688  -1.365  0.00  0.00    +0.104 C 
BRANCH   2   3
ATOM      3  C   UNL     1      -2.531  -1.517  -0.516  0.00  0.00    +0.077 A 
ATOM      4  N   UNL     1      -3.394  -0.521  -0.721  0.00  0.00    -0.245 NA
ATOM      5  C   UNL     1      -4.144  -0.256   0.367  0.00  0.00    +0.104 A 
ATOM      6  S   UNL     1      -4.382  -1.848   0.964  0.00  0.00    -0.069 S 
ATOM      7  C   UNL     1      -3.164  -2.628   0.036  0.00  0.00    +0.052 A 
BRANCH   5   8
ATOM      8  C   UNL     1      -4.687   1.059   0.832  0.00  0.00    +0.126 C 
BRANCH   8   9
ATOM      9  N   UNL     1      -6.038   1.281   0.384  0.00  0.00    -0.265 NA
ATOM     10  C   UNL     1      -6.949   0.740   1.390  0.00  0.00    +0.090 C 
ATOM     11  C   UNL     1      -6.252   2.728   0.407  0.00  0.00    +0.090 C 
ENDBRANCH   8   9
ENDBRANCH   5   8
ENDBRANCH   2   3
ENDBRANCH   1   2
BRANCH   1  12
ATOM     12  C   UNL     1       1.683  -1.831  -1.114  0.00  0.00    +0.113 C 
BRANCH  12  13
ATOM     13  C   UNL     1       2.223  -0.447  -1.354  0.00  0.00    +0.263 C 
BRANCH  13  14
ATOM     14  N   UNL     1       2.445   0.301  -0.140  0.00  0.00    -0.027 NA
BRANCH  14  15
ATOM     15  C   UNL     1       3.744   0.537   0.412  0.00  0.00    +0.424 C 
ATOM     16  C   UNL     1       4.420   1.589  -0.008  0.00  0.00    +0.447 C 
BRANCH  16  17
ATOM     17  N   UNL     1       5.756   1.843   0.387  0.00  0.00    +0.096 N 
ATOM     18  O   UNL     1       6.108   2.328   1.625  0.00  0.00    -0.576 OA
ATOM     19  O   UNL     1       6.592   1.974  -0.543  0.00  0.00    +0.042 OA
ENDBRANCH  16  17
BRANCH  15  21
ATOM     20  C   UNL     1       5.291  -1.262  -0.233  0.00  0.00    +0.306 C 
ATOM     21  N   UNL     1       4.486  -0.626   0.799  0.00  0.00    -0.023 NA
ENDBRANCH  15  21
ENDBRANCH  14  15
ENDBRANCH  13  14
ENDBRANCH  12  13
ENDBRANCH   1  12
TORSDOF 10
