REMARK  Name = 
REMARK  11 active torsions:
REMARK  status: ('A' for Active; 'I' for Inactive)
REMARK    1  A    between atoms: C_2  and  C_3
REMARK    2  A    between atoms: C_3  and  C_5
REMARK    3  A    between atoms: C_5  and  O_7
REMARK    4  A    between atoms: O_7  and  C_8
REMARK    5  A    between atoms: C_18  and  C_19
REMARK    6  A    between atoms: C_19  and  C_20
REMARK    7  A    between atoms: C_20  and  C_21
REMARK    8  A    between atoms: C_21  and  C_23
REMARK    9  A    between atoms: C_23  and  C_24
REMARK   10  A    between atoms: C_24  and  C_26
REMARK   11  A    between atoms: C_26  and  C_27
REMARK                            x       y       z     vdW  Elec       q    Type
REMARK                         _______ _______ _______ _____ _____    ______ ____
ROOT
ATOM      1  C   UNL     1      -2.428  -0.296   1.073  0.00  0.00    +0.176 C 
ATOM      2  C   UNL     1      -0.834  -0.339   0.427  0.00  0.00    +0.063 C 
ATOM      3  C   UNL     1      -1.220   0.463  -0.869  0.00  0.00    -0.021 C 
ATOM      4  C   UNL     1      -1.450   1.848  -0.798  0.00  0.00    -0.009 C 
ATOM      5  C   UNL     1      -0.535   2.591  -0.169  0.00  0.00    -0.027 C 
ATOM      6  C   UNL     1       0.741   1.772   0.377  0.00  0.00    +0.022 C 
ATOM      7  C   UNL     1       0.825   0.792  -0.912  0.00  0.00    +0.005 C 
ATOM      8  C   UNL     1      -1.542  -0.587  -1.458  0.00  0.00    +0.002 C 
ATOM      9  C   UNL     1      -2.588  -1.767  -1.126  0.00  0.00    +0.177 C 
ATOM     10  O   UNL     1      -1.493  -2.851  -1.188  0.00  0.00    -0.218 OA
ATOM     11  C   UNL     1      -0.214   0.854   1.433  0.00  0.00    +0.012 C 
ATOM     12  C   UNL     1      -2.568  -1.822   0.526  0.00  0.00    +0.081 C 
ENDROOT
BRANCH   1  13
ATOM     13  O   UNL     1      -3.224   0.303  -0.102  0.00  0.00    -0.452 OA
BRANCH  13  14
ATOM     14  C   UNL     1      -4.479   0.313   0.174  0.00  0.00    +0.316 C 
ATOM     15  O   UNL     1      -4.977   0.346   1.342  0.00  0.00    -0.250 OA
BRANCH  14  16
ATOM     16  C   UNL     1      -5.748   0.627  -0.740  0.00  0.00    +0.099 C 
ATOM     17  C   UNL     1      -5.115   0.286  -2.216  0.00  0.00    +0.012 C 
BRANCH  16  19
ATOM     18  C   UNL     1      -5.992  -1.161  -0.329  0.00  0.00    +0.001 C 
ATOM     19  C   UNL     1      -6.308  -0.916  -0.544  0.00  0.00    +0.011 C 
ENDBRANCH  16  19
ENDBRANCH  14  16
ENDBRANCH  13  14
ENDBRANCH   1  13
BRANCH  11  20
ATOM     20  C   UNL     1       0.965  -0.163   1.877  0.00  0.00    +0.003 C 
BRANCH  20  21
ATOM     21  C   UNL     1       2.258   0.463   1.899  0.00  0.00    +0.033 C 
BRANCH  21  22
ATOM     22  C   UNL     1       3.438  -0.680   1.694  0.00  0.00    +0.155 C 
ATOM     23  O   UNL     1       2.595  -1.573   0.791  0.00  0.00    -0.223 OA
BRANCH  22  24
ATOM     24  C   UNL     1       4.121   0.151   0.437  0.00  0.00    +0.066 C 
BRANCH  24  25
ATOM     25  C   UNL     1       4.538  -1.093  -0.571  0.00  0.00    +0.166 C 
ATOM     26  O   UNL     1       4.955  -0.118  -1.666  0.00  0.00    -0.222 OA
BRANCH  25  27
ATOM     27  C   UNL     1       6.090  -1.196  -0.003  0.00  0.00    +0.147 C 
BRANCH  27  28
ATOM     28  C   UNL     1       6.562   0.184   0.172  0.00  0.00    +0.367 C 
ATOM     29  O   UNL     1       7.153   0.882  -0.876  0.00  0.00    -0.246 OA
ATOM     30  O   UNL     1       6.480   0.627   1.346  0.00  0.00    -0.246 OA
ENDBRANCH  27  28
ENDBRANCH  25  27
ENDBRANCH  24  25
ENDBRANCH  22  24
ENDBRANCH  21  22
ENDBRANCH  20  21
ENDBRANCH  11  20
TORSDOF 11
