REMARK  Name = 
REMARK  4 active torsions:
REMARK  status: ('A' for Active; 'I' for Inactive)
REMARK    1  A    between atoms: C_3  and  C_5
REMARK    2  A    between atoms: C_5  and  O_7
REMARK    3  A    between atoms: O_7  and  C_8
REMARK    4  A    between atoms: C_17  and  C_18
REMARK                            x       y       z     vdW  Elec       q    Type
REMARK                         _______ _______ _______ _____ _____    ______ ____
ROOT
ATOM      1  C   UNL     1       1.632  -0.174   0.541  0.00  0.00    +0.218 C 
ATOM      2  C   UNL     1       0.329  -0.595  -0.392  0.00  0.00    +0.207 C 
ATOM      3  C   UNL     1      -0.468   0.586  -0.158  0.00  0.00    +0.102 C 
ATOM      4  C   UNL     1      -0.910   1.407  -1.474  0.00  0.00    +0.013 C 
ATOM      5  C   UNL     1      -0.952   2.883  -0.754  0.00  0.00    +0.001 C 
ATOM      6  C   UNL     1      -2.529   1.269  -1.406  0.00  0.00    +0.001 C 
ATOM      7  C   UNL     1      -3.072   1.920  -0.007  0.00  0.00    +0.001 C 
ATOM      8  C   UNL     1      -4.657   1.389  -0.258  0.00  0.00    +0.001 C 
ATOM      9  C   UNL     1      -5.429   2.215   0.774  0.00  0.00    +0.000 C 
ATOM     10  C   UNL     1      -5.137   0.861  -1.399  0.00  0.00    +0.000 C 
ATOM     11  C   UNL     1      -3.672   0.494   0.776  0.00  0.00    +0.011 C 
ATOM     12  C   UNL     1      -2.796  -0.489  -0.295  0.00  0.00    +0.079 C 
ATOM     13  C   UNL     1      -2.609  -1.822   0.573  0.00  0.00    -0.023 C 
ATOM     14  C   UNL     1      -1.430  -2.337   0.091  0.00  0.00    +0.017 C 
ATOM     15  C   UNL     1      -1.577   0.192   0.506  0.00  0.00    +0.160 C 
ATOM     16  O   UNL     1      -1.554   0.080   1.685  0.00  0.00    -0.295 OA
ATOM     17  C   UNL     1       0.250   1.514   0.768  0.00  0.00    -0.022 C 
ATOM     18  O   UNL     1       0.655  -1.120  -1.504  0.00  0.00    -0.218 OA
ATOM     19  C   UNL     1      -0.078  -1.716   0.767  0.00  0.00    +0.205 C 
ATOM     20  O   UNL     1       0.821  -2.782   0.154  0.00  0.00    -0.216 OA
ATOM     21  C   UNL     1       1.449   1.411   0.246  0.00  0.00    -0.006 C 
ATOM     22  C   UNL     1       2.484   2.385   0.706  0.00  0.00    +0.030 C 
ENDROOT
BRANCH  14  23
ATOM     23  C   UNL     1      -1.470  -3.835   0.209  0.00  0.00    +0.207 C 
ATOM     24  O   UNL     1      -1.288  -4.418  -1.036  0.00  0.00    -0.215 OA
ENDBRANCH  14  23
BRANCH   1  25
ATOM     25  O   UNL     1       2.712  -0.275  -0.560  0.00  0.00    -0.442 OA
BRANCH  25  26
ATOM     26  C   UNL     1       3.921  -0.104   0.129  0.00  0.00    +0.337 C 
ATOM     27  O   UNL     1       4.137  -0.716   1.219  0.00  0.00    -0.245 OA
BRANCH  26  30
ATOM     28  C   UNL     1       4.765  -0.320  -2.330  0.00  0.00    +0.031 C 
ATOM     29  C   UNL     1       5.268   0.379  -1.737  0.00  0.00    -0.024 C 
ATOM     30  C   UNL     1       5.104   0.531  -0.442  0.00  0.00    +0.050 C 
ATOM     31  C   UNL     1       6.101   1.186   0.462  0.00  0.00    +0.037 C 
ENDBRANCH  26  30
ENDBRANCH  25  26
ENDBRANCH   1  25
TORSDOF 4
