REMARK  Name = 
REMARK  10 active torsions:
REMARK  status: ('A' for Active; 'I' for Inactive)
REMARK    1  A    between atoms: C_2  and  O_3
REMARK    2  A    between atoms: O_3  and  C_4
REMARK    3  A    between atoms: C_4  and  C_6
REMARK    4  A    between atoms: C_6  and  C_7
REMARK    5  A    between atoms: N_15  and  C_16
REMARK    6  A    between atoms: C_16  and  C_17
REMARK    7  A    between atoms: C_17  and  C_18
REMARK    8  A    between atoms: C_18  and  C_19
REMARK    9  A    between atoms: C_18  and  C_21
REMARK   10  A    between atoms: C_18  and  C_27
REMARK                            x       y       z     vdW  Elec       q    Type
REMARK                         _______ _______ _______ _____ _____    ______ ____
ROOT
ATOM      1  C   UNL     1       2.965  -0.419  -0.447  0.00  0.00    +0.111 C 
ATOM      2  C   UNL     1       1.853   0.472   0.027  0.00  0.00    +0.032 C 
ATOM      3  C   UNL     1       0.708  -0.274   0.643  0.00  0.00    +0.073 C 
ATOM      4  N   UNL     1       0.266  -1.409  -0.079  0.00  0.00    -0.273 NA
ATOM      5  C   UNL     1       1.251  -2.255  -0.635  0.00  0.00    +0.073 C 
ATOM      6  C   UNL     1       2.446  -1.588  -1.227  0.00  0.00    +0.032 C 
ENDROOT
BRANCH   1   7
ATOM      7  C   UNL     1       3.842  -0.827   0.691  0.00  0.00    -0.013 A 
ATOM      8  C   UNL     1       4.044  -2.141   1.033  0.00  0.00    -0.004 A 
ATOM      9  C   UNL     1       5.256  -2.450   1.637  0.00  0.00    -0.000 A 
ATOM     10  C   UNL     1       6.145  -1.463   2.029  0.00  0.00    -0.000 A 
ATOM     11  C   UNL     1       5.618  -0.187   2.136  0.00  0.00    -0.000 A 
ATOM     12  C   UNL     1       4.513   0.161   1.371  0.00  0.00    -0.004 A 
ENDBRANCH   1   7
BRANCH   1  13
ATOM     13  C   UNL     1       3.839   0.368  -1.373  0.00  0.00    +0.320 C 
ATOM     14  O   UNL     1       4.558  -0.304  -2.172  0.00  0.00    -0.250 OA
BRANCH  13  15
ATOM     15  O   UNL     1       4.411   1.518  -0.837  0.00  0.00    -0.448 OA
BRANCH  15  17
ATOM     16  C   UNL     1       5.570   3.558  -0.780  0.00  0.00    +0.051 C 
ATOM     17  C   UNL     1       5.209   2.352  -1.640  0.00  0.00    +0.209 C 
ENDBRANCH  15  17
ENDBRANCH  13  15
ENDBRANCH   1  13
BRANCH   4  18
ATOM     18  C   UNL     1      -0.956  -1.275  -0.796  0.00  0.00    +0.074 C 
BRANCH  18  19
ATOM     19  C   UNL     1      -1.477   0.133  -0.888  0.00  0.00    +0.040 C 
BRANCH  19  20
ATOM     20  C   UNL     1      -2.740   0.354  -0.097  0.00  0.00    +0.118 C 
BRANCH  20  21
ATOM     21  C   UNL     1      -3.640   1.331  -0.787  0.00  0.00    -0.006 A 
ATOM     22  C   UNL     1      -3.132   2.408  -1.485  0.00  0.00    -0.003 A 
ATOM     23  C   UNL     1      -3.854   3.571  -1.551  0.00  0.00    -0.000 A 
ATOM     24  C   UNL     1      -5.035   3.742  -0.860  0.00  0.00    -0.000 A 
ATOM     25  C   UNL     1      -5.621   2.643  -0.278  0.00  0.00    -0.000 A 
ATOM     26  C   UNL     1      -4.923   1.445  -0.274  0.00  0.00    -0.003 A 
ENDBRANCH  20  21
BRANCH  20  27
ATOM     27  C   UNL     1      -3.526  -0.907   0.049  0.00  0.00    -0.006 A 
ATOM     28  C   UNL     1      -4.574  -1.223  -0.806  0.00  0.00    -0.003 A 
ATOM     29  C   UNL     1      -5.565  -2.111  -0.404  0.00  0.00    -0.000 A 
ATOM     30  C   UNL     1      -5.405  -2.818   0.769  0.00  0.00    -0.000 A 
ATOM     31  C   UNL     1      -4.122  -2.871   1.292  0.00  0.00    -0.000 A 
ATOM     32  C   UNL     1      -3.259  -1.811   1.049  0.00  0.00    -0.003 A 
ENDBRANCH  20  27
BRANCH  20  33
ATOM     33  C   UNL     1      -2.381   0.867   1.237  0.00  0.00    +0.079 C 
ATOM     34  N   UNL     1      -2.284   1.409   2.267  0.00  0.00    -0.195 NA
ENDBRANCH  20  33
ENDBRANCH  19  20
ENDBRANCH  18  19
ENDBRANCH   4  18
TORSDOF 10
