REMARK  Name = 
REMARK  7 active torsions:
REMARK  status: ('A' for Active; 'I' for Inactive)
REMARK    1  A    between atoms: C_2  and  C_4
REMARK    2  A    between atoms: C_8  and  C_9
REMARK    3  A    between atoms: C_12  and  S_13
REMARK    4  A    between atoms: S_13  and  C_14
REMARK    5  A    between atoms: C_17  and  C_18
REMARK    6  A    between atoms: N_20  and  C_21
REMARK    7  A    between atoms: C_25  and  C_26
REMARK                            x       y       z     vdW  Elec       q    Type
REMARK                         _______ _______ _______ _____ _____    ______ ____
ROOT
ATOM      1  C   UNL     1      -0.293  -0.942  -0.772  0.00  0.00    +0.071 C 
ATOM      2  C   UNL     1       0.605  -1.386   0.469  0.00  0.00    +0.039 C 
ATOM      3  C   UNL     1       1.615  -0.218  -0.131  0.00  0.00    +0.152 C 
ATOM      4  N   UNL     1       2.031  -1.198  -1.298  0.00  0.00    -0.209 NA
ATOM      5  C   UNL     1       0.720  -1.666  -1.751  0.00  0.00    +0.100 C 
ENDROOT
BRANCH   3   6
ATOM      6  C   UNL     1       2.794  -0.577   0.905  0.00  0.00    +0.261 C 
ATOM      7  N   UNL     1       3.712  -1.561   0.710  0.00  0.00    -0.178 NA
ATOM      8  O   UNL     1       3.225   0.528   1.366  0.00  0.00    -0.271 OA
BRANCH   7   9
ATOM      9  C   UNL     1       5.146  -1.344   0.646  0.00  0.00    +0.074 A 
ATOM     10  C   UNL     1       5.671  -0.083   0.913  0.00  0.00    +0.023 A 
ATOM     11  C   UNL     1       6.605   0.509   0.069  0.00  0.00    +0.081 A 
ATOM     12  C   UNL     1       6.961  -0.085  -1.132  0.00  0.00    +0.007 A 
ATOM     13  C   UNL     1       6.422  -1.310  -1.435  0.00  0.00    +0.002 A 
ATOM     14  C   UNL     1       5.732  -1.988  -0.441  0.00  0.00    +0.017 A 
BRANCH  11  15
ATOM     15  C   UNL     1       6.963   1.931   0.207  0.00  0.00    +0.388 C 
ATOM     16  O   UNL     1       8.102   2.349   0.862  0.00  0.00    -0.241 OA
ATOM     17  O   UNL     1       6.079   2.787  -0.075  0.00  0.00    -0.241 OA
ENDBRANCH  11  15
ENDBRANCH   7   9
ENDBRANCH   3   6
BRANCH   1  18
ATOM     18  S   UNL     1      -1.653  -2.270  -0.594  0.00  0.00    -0.116 S 
BRANCH  18  23
ATOM     19  C   UNL     1      -6.413   0.111  -0.638  0.00  0.00    +0.126 C 
ATOM     20  C   UNL     1      -5.246  -0.471   0.415  0.00  0.00    +0.096 C 
ATOM     21  N   UNL     1      -4.334   0.590  -0.251  0.00  0.00    -0.254 N 
ATOM     22  C   UNL     1      -3.118  -0.038   0.139  0.00  0.00    +0.136 C 
ATOM     23  C   UNL     1      -3.099  -1.300  -0.228  0.00  0.00    +0.024 C 
ATOM     24  C   UNL     1      -4.601  -1.728  -0.535  0.00  0.00    +0.049 C 
ATOM     25  C   UNL     1      -4.617  -0.980  -1.975  0.00  0.00    +0.007 C 
ATOM     26  C   UNL     1      -5.361   1.249  -0.941  0.00  0.00    +0.233 C 
ATOM     27  O   UNL     1      -5.304   2.182  -1.734  0.00  0.00    -0.274 OA
BRANCH  19  29
ATOM     28  C   UNL     1      -7.642   2.184  -0.386  0.00  0.00    +0.036 C 
ATOM     29  C   UNL     1      -7.045   1.053   0.646  0.00  0.00    +0.162 C 
ATOM     30  O   UNL     1      -8.340   0.277   0.654  0.00  0.00    -0.223 OA
ENDBRANCH  19  29
BRANCH  22  31
ATOM     31  C   UNL     1      -2.016   0.749   0.693  0.00  0.00    +0.401 C 
ATOM     32  O   UNL     1      -1.590   1.847  -0.054  0.00  0.00    -0.239 OA
ATOM     33  O   UNL     1      -1.711   0.799   1.924  0.00  0.00    -0.239 OA
ENDBRANCH  22  31
ENDBRANCH  18  23
ENDBRANCH   1  18
TORSDOF 7
