REMARK  Name = 
REMARK  1 active torsions:
REMARK  status: ('A' for Active; 'I' for Inactive)
REMARK    1  A    between atoms: C_7  and  C_8
REMARK                            x       y       z     vdW  Elec       q    Type
REMARK                         _______ _______ _______ _____ _____    ______ ____
ROOT
ATOM      1  C   UNL     1      -0.076   2.200  -0.714  0.00  0.00    +0.408 C 
ATOM      2  N   UNL     1      -0.645   0.936  -0.301  0.00  0.00    -0.157 N 
ATOM      3  C   UNL     1       0.062   0.202   0.592  0.00  0.00    +0.249 A 
ATOM      4  C   UNL     1      -0.662  -0.734   1.321  0.00  0.00    +0.071 A 
ATOM      5  C   UNL     1      -1.819  -1.244   0.737  0.00  0.00    +0.012 A 
ATOM      6  C   UNL     1      -2.160  -0.880  -0.562  0.00  0.00    +0.076 A 
ATOM      7  C   UNL     1      -1.716   0.387  -0.924  0.00  0.00    +0.290 A 
ENDROOT
BRANCH   3   8
ATOM      8  C   UNL     1       1.530   0.247   0.627  0.00  0.00    +0.214 C 
ATOM      9  N   UNL     1       2.111  -0.613  -0.150  0.00  0.00    -0.021 NA
ATOM     10  O   UNL     1       3.376  -0.502  -0.625  0.00  0.00    -0.143 OA
ENDBRANCH   3   8
TORSDOF 1
