REMARK  Name = 
REMARK  7 active torsions:
REMARK  status: ('A' for Active; 'I' for Inactive)
REMARK    1  A    between atoms: O_2  and  C_3
REMARK    2  A    between atoms: C_7  and  C_8
REMARK    3  A    between atoms: C_8  and  S_9
REMARK    4  A    between atoms: S_9  and  C_11
REMARK    5  A    between atoms: C_16  and  O_17
REMARK    6  A    between atoms: O_17  and  C_18
REMARK    7  A    between atoms: C_24  and  O_25
REMARK                            x       y       z     vdW  Elec       q    Type
REMARK                         _______ _______ _______ _____ _____    ______ ____
ROOT
ATOM      1  S   UNL     1       1.280  -1.421   0.331  0.00  0.00    +0.107 S 
ATOM      2  O   UNL     1       0.613  -2.646   1.024  0.00  0.00    -0.248 OA
ENDROOT
BRANCH   1   3
ATOM      3  C   UNL     1      -0.141  -0.313   0.144  0.00  0.00    +0.221 A 
ATOM      4  N   UNL     1      -0.943   0.145   1.105  0.00  0.00    -0.218 NA
ATOM      5  C   UNL     1      -2.103   0.621   0.588  0.00  0.00    +0.104 A 
ATOM      6  C   UNL     1      -1.913   0.608  -0.788  0.00  0.00    +0.101 A 
ATOM      7  C   UNL     1      -3.022   0.685  -1.621  0.00  0.00    +0.024 A 
ATOM      8  C   UNL     1      -4.295   0.371  -1.159  0.00  0.00    +0.039 A 
ATOM      9  C   UNL     1      -4.484   0.292   0.215  0.00  0.00    +0.146 A 
ATOM     10  C   UNL     1      -3.416   0.567   1.039  0.00  0.00    +0.058 A 
ATOM     11  N   UNL     1      -0.661   0.136  -1.008  0.00  0.00    -0.218 NA
BRANCH   9  12
ATOM     12  O   UNL     1      -5.647  -0.341   0.663  0.00  0.00    -0.424 OA
BRANCH  12  13
ATOM     13  C   UNL     1      -6.915   0.055   0.182  0.00  0.00    +0.509 C 
ATOM     14  F   UNL     1      -7.002   1.437   0.204  0.00  0.00    -0.155 F 
ATOM     15  F   UNL     1      -7.189  -0.471  -1.055  0.00  0.00    -0.155 F 
ENDBRANCH  12  13
ENDBRANCH   9  12
ENDBRANCH   1   3
BRANCH   1  16
ATOM     16  C   UNL     1       2.105  -0.645   1.782  0.00  0.00    +0.148 C 
BRANCH  16  19
ATOM     17  C   UNL     1       4.893   0.453  -0.385  0.00  0.00    +0.175 A 
ATOM     18  C   UNL     1       3.967  -0.368   0.233  0.00  0.00    +0.187 A 
ATOM     19  C   UNL     1       3.159   0.232   1.190  0.00  0.00    +0.110 A 
ATOM     20  N   UNL     1       2.851   1.546   1.056  0.00  0.00    -0.244 NA
ATOM     21  C   UNL     1       3.586   2.349   0.253  0.00  0.00    +0.102 A 
ATOM     22  C   UNL     1       4.702   1.810  -0.369  0.00  0.00    +0.061 A 
BRANCH  17  24
ATOM     23  C   UNL     1       6.462  -0.538  -1.163  0.00  0.00    +0.253 C 
ATOM     24  O   UNL     1       5.983  -0.153  -1.002  0.00  0.00    -0.468 OA
ENDBRANCH  17  24
BRANCH  18  25
ATOM     25  O   UNL     1       3.682  -1.634  -0.289  0.00  0.00    -0.467 OA
ATOM     26  C   UNL     1       4.448  -2.774   0.005  0.00  0.00    +0.253 C 
ENDBRANCH  18  25
ENDBRANCH  16  19
ENDBRANCH   1  16
TORSDOF 7
