REMARK  Name = 
REMARK  4 active torsions:
REMARK  status: ('A' for Active; 'I' for Inactive)
REMARK    1  A    between atoms: C_2  and  N_4
REMARK    2  A    between atoms: N_4  and  C_5
REMARK    3  A    between atoms: C_5  and  C_6
REMARK    4  A    between atoms: C_6  and  C_8
REMARK                            x       y       z     vdW  Elec       q    Type
REMARK                         _______ _______ _______ _____ _____    ______ ____
ROOT
ATOM      1  C   UNL     1      -0.570  -0.229   0.045  0.00  0.00    +0.013 A 
ATOM      2  C   UNL     1      -1.350   0.649   0.794  0.00  0.00    +0.044 A 
ATOM      3  C   UNL     1      -2.733   0.543   0.699  0.00  0.00    +0.234 A 
ATOM      4  O   UNL     1      -3.557   1.542   1.166  0.00  0.00    -0.283 OA
ATOM      5  C   UNL     1      -3.279  -0.333  -0.227  0.00  0.00    +0.234 A 
ATOM      6  O   UNL     1      -4.493  -0.112  -0.848  0.00  0.00    -0.283 OA
ATOM      7  C   UNL     1      -2.525  -1.443  -0.565  0.00  0.00    +0.045 A 
ATOM      8  C   UNL     1      -1.189  -1.433  -0.259  0.00  0.00    +0.002 A 
ENDROOT
BRANCH   1   9
ATOM      9  C   UNL     1       0.901  -0.458   0.769  0.00  0.00    +0.192 C 
ATOM     10  O   UNL     1       1.399  -1.338  -0.411  0.00  0.00    -0.217 OA
BRANCH   9  11
ATOM     11  C   UNL     1       1.491   0.956   0.066  0.00  0.00    +0.126 C 
BRANCH  11  12
ATOM     12  N   UNL     1       2.770   0.622  -0.441  0.00  0.00    -0.216 NA
BRANCH  12  14
ATOM     13  C   UNL     1       4.833   1.521   0.280  0.00  0.00    +0.019 C 
ATOM     14  C   UNL     1       3.823   0.426   0.495  0.00  0.00    +0.073 C 
ATOM     15  C   UNL     1       4.477  -0.914   0.172  0.00  0.00    +0.019 C 
ENDBRANCH  12  14
ENDBRANCH  11  12
ENDBRANCH   9  11
ENDBRANCH   1   9
TORSDOF 4
