REMARK  Name = 
REMARK  6 active torsions:
REMARK  status: ('A' for Active; 'I' for Inactive)
REMARK    1  A    between atoms: C_5  and  C_6
REMARK    2  A    between atoms: C_6  and  S_7
REMARK    3  A    between atoms: S_7  and  C_8
REMARK    4  A    between atoms: C_8  and  C_9
REMARK    5  A    between atoms: C_8  and  C_15
REMARK    6  A    between atoms: C_9  and  N_10
REMARK                            x       y       z     vdW  Elec       q    Type
REMARK                         _______ _______ _______ _____ _____    ______ ____
ROOT
ATOM      1  C   UNL     1      -1.266  -0.411  -0.214  0.00  0.00    +0.093 C 
ENDROOT
BRANCH   1   2
ATOM      2  C   UNL     1      -1.540   1.101   0.095  0.00  0.00    +0.000 A 
ATOM      3  C   UNL     1      -2.862   1.485  -0.089  0.00  0.00    +0.055 A 
ATOM      4 CL   UNL     1      -4.133   0.295  -0.342  0.00  0.00    -0.083 Cl
ATOM      5  C   UNL     1      -3.112   2.836  -0.288  0.00  0.00    +0.022 A 
ATOM      6  C   UNL     1      -2.077   3.726  -0.518  0.00  0.00    +0.058 A 
ATOM      7 CL   UNL     1      -2.428   5.426  -0.770  0.00  0.00    -0.082 Cl
ATOM      8  C   UNL     1      -0.825   3.213  -0.804  0.00  0.00    +0.011 A 
ATOM      9  C   UNL     1      -0.547   1.934  -0.409  0.00  0.00    -0.002 A 
ENDBRANCH   1   2
BRANCH   1  10
ATOM     10  S   UNL     1       0.378  -0.460   0.767  0.00  0.00    -0.130 S 
BRANCH  10  11
ATOM     11  C   UNL     1       1.602  -0.982  -0.463  0.00  0.00    +0.084 C 
BRANCH  11  16
ATOM     12 CL   UNL     1       7.135   0.544   0.693  0.00  0.00    -0.082 Cl
ATOM     13  C   UNL     1       5.489   0.248   0.653  0.00  0.00    +0.058 A 
ATOM     14  C   UNL     1       4.991  -0.966   1.109  0.00  0.00    +0.011 A 
ATOM     15  C   UNL     1       3.678  -1.335   0.870  0.00  0.00    -0.003 A 
ATOM     16  C   UNL     1       2.946  -0.551  -0.014  0.00  0.00    -0.011 A 
ATOM     17  C   UNL     1       3.282   0.783  -0.192  0.00  0.00    -0.003 A 
ATOM     18  C   UNL     1       4.561   1.157   0.199  0.00  0.00    +0.011 A 
ENDBRANCH  11  16
ENDBRANCH  10  11
ENDBRANCH   1  10
BRANCH   1  19
ATOM     19  C   UNL     1      -2.144  -0.949   1.006  0.00  0.00    +0.123 C 
BRANCH  19  20
ATOM     20  N   UNL     1      -2.221  -2.377   0.840  0.00  0.00    -0.307 N 
ATOM     21  C   UNL     1      -3.115  -3.171   1.473  0.00  0.00    +0.179 A 
ATOM     22  N   UNL     1      -3.491  -4.170   0.636  0.00  0.00    -0.222 NA
ATOM     23  C   UNL     1      -2.594  -4.207  -0.378  0.00  0.00    +0.119 A 
ATOM     24  C   UNL     1      -1.706  -3.168  -0.128  0.00  0.00    +0.098 A 
ENDBRANCH  19  20
ENDBRANCH   1  19
TORSDOF 6
