REMARK  Name = 
REMARK  11 active torsions:
REMARK  status: ('A' for Active; 'I' for Inactive)
REMARK    1  A    between atoms: C_2  and  C_3
REMARK    2  A    between atoms: C_3  and  C_4
REMARK    3  A    between atoms: C_4  and  C_5
REMARK    4  A    between atoms: C_5  and  C_8
REMARK    5  A    between atoms: C_17  and  C_18
REMARK    6  A    between atoms: C_18  and  C_19
REMARK    7  A    between atoms: C_19  and  C_20
REMARK    8  A    between atoms: C_20  and  C_21
REMARK    9  A    between atoms: C_21  and  C_22
REMARK   10  A    between atoms: C_22  and  C_23
REMARK   11  A    between atoms: C_23  and  C_24
REMARK                            x       y       z     vdW  Elec       q    Type
REMARK                         _______ _______ _______ _____ _____    ______ ____
ROOT
ATOM      1  C   UNL     1      -3.214  -0.721   0.334  0.00  0.00    +0.275 C 
ATOM      2  O   UNL     1      -2.311   0.098   0.975  0.00  0.00    -0.330 OA
ATOM      3  C   UNL     1      -1.153  -0.808   1.401  0.00  0.00    +0.126 C 
ATOM      4  C   UNL     1      -0.069   0.450   1.378  0.00  0.00    +0.094 C 
ATOM      5  C   UNL     1       1.047  -0.109   0.596  0.00  0.00    +0.153 C 
ATOM      6  C   UNL     1       0.702  -1.665   0.348  0.00  0.00    +0.060 C 
ATOM      7  O   UNL     1       1.607   0.601  -0.197  0.00  0.00    -0.296 OA
ATOM      8  C   UNL     1      -0.808  -1.158  -0.248  0.00  0.00    +0.035 C 
ATOM      9  C   UNL     1      -1.530  -2.586  -0.108  0.00  0.00    +0.008 C 
ATOM     10  C   UNL     1      -2.916  -2.154   0.245  0.00  0.00    +0.065 C 
ATOM     11  O   UNL     1      -4.381  -0.659   1.124  0.00  0.00    -0.189 OA
ENDROOT
BRANCH   1  12
ATOM     12  C   UNL     1      -3.577  -0.033  -0.969  0.00  0.00    +0.312 C 
ATOM     13  F   UNL     1      -2.916   1.187  -1.103  0.00  0.00    -0.199 F 
ATOM     14  F   UNL     1      -3.339  -0.801  -2.071  0.00  0.00    -0.199 F 
BRANCH  12  15
ATOM     15  C   UNL     1      -5.049   0.355  -1.022  0.00  0.00    +0.072 C 
BRANCH  15  16
ATOM     16  C   UNL     1      -5.395   1.414  -0.010  0.00  0.00    +0.006 C 
BRANCH  16  18
ATOM     17  C   UNL     1      -5.368   3.877  -0.086  0.00  0.00    +0.000 C 
ATOM     18  C   UNL     1      -6.028   2.637  -0.594  0.00  0.00    +0.000 C 
ENDBRANCH  16  18
ENDBRANCH  15  16
ENDBRANCH  12  15
ENDBRANCH   1  12
BRANCH   6  19
ATOM     19  C   UNL     1       1.341  -1.763  -1.169  0.00  0.00    +0.007 C 
BRANCH  19  20
ATOM     20  C   UNL     1       2.802  -1.471  -1.040  0.00  0.00    +0.000 C 
BRANCH  20  21
ATOM     21  C   UNL     1       3.409  -1.827   0.280  0.00  0.00    +0.000 C 
BRANCH  21  22
ATOM     22  C   UNL     1       4.885  -1.461   0.211  0.00  0.00    +0.001 C 
BRANCH  22  23
ATOM     23  C   UNL     1       5.190  -0.146   0.862  0.00  0.00    +0.012 C 
BRANCH  23  24
ATOM     24  C   UNL     1       5.560   0.957  -0.074  0.00  0.00    +0.114 C 
BRANCH  24  25
ATOM     25  C   UNL     1       6.793   1.681   0.263  0.00  0.00    +0.365 C 
ATOM     26  O   UNL     1       6.851   3.076   0.316  0.00  0.00    -0.246 OA
ATOM     27  O   UNL     1       7.866   1.030   0.463  0.00  0.00    -0.246 OA
ENDBRANCH  24  25
ENDBRANCH  23  24
ENDBRANCH  22  23
ENDBRANCH  21  22
ENDBRANCH  20  21
ENDBRANCH  19  20
ENDBRANCH   6  19
TORSDOF 11
