REMARK  Name = 
REMARK  12 active torsions:
REMARK  status: ('A' for Active; 'I' for Inactive)
REMARK    1  A    between atoms: N_4  and  C_5
REMARK    2  A    between atoms: N_4  and  C_10
REMARK    3  A    between atoms: C_5  and  C_6
REMARK    4  A    between atoms: C_6  and  C_8
REMARK    5  A    between atoms: C_13  and  C_14
REMARK    6  A    between atoms: N_16  and  C_17
REMARK    7  A    between atoms: C_17  and  C_18
REMARK    8  A    between atoms: C_18  and  C_20
REMARK    9  A    between atoms: C_24  and  C_25
REMARK   10  A    between atoms: N_27  and  C_28
REMARK   11  A    between atoms: C_28  and  C_29
REMARK   12  A    between atoms: C_29  and  C_31
REMARK                            x       y       z     vdW  Elec       q    Type
REMARK                         _______ _______ _______ _____ _____    ______ ____
ROOT
ATOM      1  C   UNL     1      -1.652  -0.564   0.469  0.00  0.00    +0.065 A 
ATOM      2  C   UNL     1      -1.057   0.683   0.415  0.00  0.00    +0.049 A 
ATOM      3  I   UNL     1      -1.818   2.244  -0.794  0.00  0.00    -0.041 I 
ATOM      4  C   UNL     1       0.247   0.768   0.880  0.00  0.00    +0.067 A 
ATOM      5  C   UNL     1       0.963  -0.402   1.068  0.00  0.00    +0.040 A 
ATOM      6  I   UNL     1       2.911  -0.341   1.821  0.00  0.00    -0.042 I 
ATOM      7  C   UNL     1       0.492  -1.650   0.679  0.00  0.00    +0.067 A 
ATOM      8  C   UNL     1      -0.893  -1.721   0.552  0.00  0.00    +0.049 A 
ATOM      9  I   UNL     1      -1.708  -3.585  -0.045  0.00  0.00    -0.041 I 
ENDROOT
BRANCH   1  12
ATOM     10  C   UNL     1      -4.325   0.051  -1.938  0.00  0.00    +0.095 C 
ATOM     11  C   UNL     1      -3.195  -0.530  -1.363  0.00  0.00    +0.230 C 
ATOM     12  N   UNL     1      -3.025  -0.602   0.055  0.00  0.00    -0.255 N 
ATOM     13  O   UNL     1      -2.413  -1.155  -2.115  0.00  0.00    -0.275 OA
BRANCH  12  14
ATOM     14  C   UNL     1      -3.934   0.157   0.917  0.00  0.00    +0.134 C 
BRANCH  14  15
ATOM     15  C   UNL     1      -5.348  -0.750   0.849  0.00  0.00    +0.205 C 
ATOM     16  O   UNL     1      -5.998   0.100   1.966  0.00  0.00    -0.218 OA
BRANCH  15  17
ATOM     17  C   UNL     1      -4.758  -1.846   1.980  0.00  0.00    +0.217 C 
ATOM     18  O   UNL     1      -5.416  -2.989   1.495  0.00  0.00    -0.218 OA
ENDBRANCH  15  17
ENDBRANCH  14  15
ENDBRANCH  12  14
ENDBRANCH   1  12
BRANCH   4  19
ATOM     19  C   UNL     1       0.982   2.014   0.599  0.00  0.00    +0.266 C 
ATOM     20  N   UNL     1       0.472   3.268   1.072  0.00  0.00    -0.199 NA
ATOM     21  O   UNL     1       1.444   2.047  -0.584  0.00  0.00    -0.268 OA
BRANCH  20  22
ATOM     22  C   UNL     1       0.675   4.518   0.344  0.00  0.00    +0.151 C 
BRANCH  22  23
ATOM     23  C   UNL     1       2.034   5.089   1.157  0.00  0.00    +0.206 C 
ATOM     24  O   UNL     1       2.981   4.352   0.180  0.00  0.00    -0.218 OA
BRANCH  23  25
ATOM     25  C   UNL     1       2.091   6.499   0.242  0.00  0.00    +0.217 C 
ATOM     26  O   UNL     1       1.858   6.095  -1.046  0.00  0.00    -0.218 OA
ENDBRANCH  23  25
ENDBRANCH  22  23
ENDBRANCH  20  22
ENDBRANCH   4  19
BRANCH   7  27
ATOM     27  C   UNL     1       1.376  -2.643   0.053  0.00  0.00    +0.266 C 
ATOM     28  N   UNL     1       2.649  -2.387  -0.472  0.00  0.00    -0.199 NA
ATOM     29  O   UNL     1       0.802  -3.758  -0.158  0.00  0.00    -0.268 OA
BRANCH  28  30
ATOM     30  C   UNL     1       3.079  -3.240  -1.508  0.00  0.00    +0.151 C 
BRANCH  30  31
ATOM     31  C   UNL     1       4.374  -2.514  -2.289  0.00  0.00    +0.206 C 
ATOM     32  O   UNL     1       4.119  -1.103  -1.700  0.00  0.00    -0.218 OA
BRANCH  31  33
ATOM     33  C   UNL     1       5.412  -2.910  -1.025  0.00  0.00    +0.217 C 
ATOM     34  O   UNL     1       6.578  -3.195  -1.758  0.00  0.00    -0.218 OA
ENDBRANCH  31  33
ENDBRANCH  30  31
ENDBRANCH  28  30
ENDBRANCH   7  27
TORSDOF 12
