REMARK  Name = 
REMARK  1 active torsions:
REMARK  status: ('A' for Active; 'I' for Inactive)
REMARK    1  A    between atoms: C_5  and  C_6
REMARK                            x       y       z     vdW  Elec       q    Type
REMARK                         _______ _______ _______ _____ _____    ______ ____
ROOT
ATOM      1  N   UNL     1       3.244  -0.509  -0.920  0.00  0.00    -0.128 NA
ATOM      2  C   UNL     1       2.125  -0.041  -0.161  0.00  0.00    +0.092 A 
ATOM      3  C   UNL     1       1.312   0.988  -0.620  0.00  0.00    +0.060 A 
ATOM      4  C   UNL     1      -0.044   0.985  -0.322  0.00  0.00    +0.203 A 
ATOM      5  O   UNL     1      -0.888   2.025  -0.709  0.00  0.00    -0.286 OA
ATOM      6  C   UNL     1      -0.578  -0.027   0.466  0.00  0.00    +0.119 A 
ATOM      7  C   UNL     1       0.273  -0.844   1.175  0.00  0.00    +0.011 A 
ATOM      8  C   UNL     1       1.637  -0.742   0.935  0.00  0.00    +0.018 A 
ENDROOT
BRANCH   6   9
ATOM      9  C   UNL     1      -1.960  -0.456   0.231  0.00  0.00    +0.391 C 
ATOM     10  O   UNL     1      -2.759   0.190  -0.716  0.00  0.00    -0.240 OA
ATOM     11  O   UNL     1      -2.362  -1.569   0.639  0.00  0.00    -0.240 OA
ENDBRANCH   6   9
TORSDOF 1
