REMARK  Name = 
REMARK  5 active torsions:
REMARK  status: ('A' for Active; 'I' for Inactive)
REMARK    1  A    between atoms: C_2  and  C_4
REMARK    2  A    between atoms: C_8  and  C_9
REMARK    3  A    between atoms: C_12  and  S_13
REMARK    4  A    between atoms: S_13  and  C_14
REMARK    5  A    between atoms: C_17  and  C_18
REMARK                            x       y       z     vdW  Elec       q    Type
REMARK                         _______ _______ _______ _____ _____    ______ ____
ROOT
ATOM      1  C   UNL     1      -4.008   0.179   1.269  0.00  0.00    +0.126 C 
ATOM      2  C   UNL     1      -3.406   1.088  -0.035  0.00  0.00    +0.096 C 
ATOM      3  N   UNL     1      -2.624  -0.220  -0.360  0.00  0.00    -0.254 N 
ATOM      4  C   UNL     1      -1.527   0.409  -1.028  0.00  0.00    +0.136 C 
ATOM      5  C   UNL     1      -1.053   1.442  -0.423  0.00  0.00    +0.024 C 
ATOM      6  C   UNL     1      -2.050   1.765   0.802  0.00  0.00    +0.049 C 
ATOM      7  C   UNL     1      -1.597   0.398   1.593  0.00  0.00    +0.007 C 
ATOM      8  C   UNL     1      -3.496  -1.049   0.404  0.00  0.00    +0.233 C 
ATOM      9  O   UNL     1      -3.243  -2.183   0.884  0.00  0.00    -0.274 OA
ENDROOT
BRANCH   1  11
ATOM     10  C   UNL     1      -5.822  -1.487   0.793  0.00  0.00    +0.036 C 
ATOM     11  C   UNL     1      -5.605   0.158   0.600  0.00  0.00    +0.162 C 
ATOM     12  O   UNL     1      -6.259   0.418   1.966  0.00  0.00    -0.223 OA
ENDBRANCH   1  11
BRANCH   4  13
ATOM     13  C   UNL     1      -0.849  -0.230  -2.157  0.00  0.00    +0.401 C 
ATOM     14  O   UNL     1      -0.882   0.394  -3.407  0.00  0.00    -0.239 OA
ATOM     15  O   UNL     1      -0.469  -1.407  -2.107  0.00  0.00    -0.239 OA
ENDBRANCH   4  13
BRANCH   5  16
ATOM     16  S   UNL     1       0.716   1.755  -0.259  0.00  0.00    -0.116 S 
BRANCH  16  17
ATOM     17  C   UNL     1       1.611   0.062  -0.289  0.00  0.00    +0.071 C 
ATOM     18  C   UNL     1       3.098   0.610  -0.438  0.00  0.00    +0.039 C 
ATOM     19  C   UNL     1       3.630  -0.930  -0.040  0.00  0.00    +0.150 C 
ATOM     20  N   UNL     1       2.873  -0.939   1.366  0.00  0.00    -0.209 NA
ATOM     21  C   UNL     1       1.880   0.007   1.277  0.00  0.00    +0.100 C 
BRANCH  19  22
ATOM     22  C   UNL     1       5.001  -0.348   0.654  0.00  0.00    +0.242 C 
ATOM     23  N   UNL     1       5.842   0.187  -0.326  0.00  0.00    -0.275 N 
ATOM     24  C   UNL     1       5.753   1.554  -0.691  0.00  0.00    +0.115 C 
ATOM     25  C   UNL     1       7.055  -0.528  -0.689  0.00  0.00    +0.115 C 
ATOM     26  O   UNL     1       5.430  -1.106   1.548  0.00  0.00    -0.273 OA
ENDBRANCH  19  22
ENDBRANCH  16  17
ENDBRANCH   5  16
TORSDOF 5
