REMARK  Name = 
REMARK  8 active torsions:
REMARK  status: ('A' for Active; 'I' for Inactive)
REMARK    1  A    between atoms: O_2  and  C_3
REMARK    2  A    between atoms: C_9  and  N_10
REMARK    3  A    between atoms: N_10  and  C_11
REMARK    4  A    between atoms: C_21  and  O_22
REMARK    5  A    between atoms: O_22  and  C_23
REMARK    6  A    between atoms: C_23  and  C_24
REMARK    7  A    between atoms: C_24  and  C_25
REMARK    8  A    between atoms: C_25  and  N_26
REMARK                            x       y       z     vdW  Elec       q    Type
REMARK                         _______ _______ _______ _____ _____    ______ ____
ROOT
ATOM      1  C   UNL     1       1.096   0.412   1.677  0.00  0.00    +0.174 A 
ATOM      2  C   UNL     1       0.942  -0.765   0.954  0.00  0.00    +0.172 A 
ATOM      3  C   UNL     1      -0.150  -0.906   0.108  0.00  0.00    +0.044 A 
ATOM      4  C   UNL     1      -1.034   0.157  -0.027  0.00  0.00    +0.054 A 
ATOM      5  C   UNL     1      -0.737   1.405   0.507  0.00  0.00    +0.089 A 
ATOM      6  N   UNL     1      -1.092   2.543  -0.135  0.00  0.00    -0.224 NA
ATOM      7  C   UNL     1      -1.897   2.455  -1.220  0.00  0.00    +0.200 A 
ATOM      8  N   UNL     1      -2.412   1.257  -1.588  0.00  0.00    -0.207 NA
ATOM      9  C   UNL     1      -2.006   0.119  -1.012  0.00  0.00    +0.155 A 
ATOM     10  C   UNL     1       0.152   1.428   1.575  0.00  0.00    +0.059 A 
ENDROOT
BRANCH   1  12
ATOM     11  C   UNL     1       2.429   1.562   3.385  0.00  0.00    +0.253 C 
ATOM     12  O   UNL     1       2.000   0.363   2.743  0.00  0.00    -0.468 OA
ENDBRANCH   1  12
BRANCH   2  13
ATOM     13  O   UNL     1       2.068  -1.538   0.652  0.00  0.00    -0.472 OA
BRANCH  13  14
ATOM     14  C   UNL     1       3.142  -0.875   0.039  0.00  0.00    +0.207 C 
BRANCH  14  15
ATOM     15  C   UNL     1       3.461  -1.428  -1.341  0.00  0.00    +0.065 C 
BRANCH  15  16
ATOM     16  C   UNL     1       4.899  -1.108  -1.729  0.00  0.00    +0.076 C 
BRANCH  16  17
ATOM     17  N   UNL     1       5.521  -0.477  -0.597  0.00  0.00    -0.268 NA
ATOM     18  C   UNL     1       6.360   0.640  -0.935  0.00  0.00    +0.105 C 
ATOM     19  C   UNL     1       6.747   1.305   0.382  0.00  0.00    +0.159 C 
ATOM     20  O   UNL     1       7.270   0.397   1.290  0.00  0.00    -0.351 OA
ATOM     21  C   UNL     1       6.401  -0.632   1.607  0.00  0.00    +0.159 C 
ATOM     22  C   UNL     1       6.138  -1.403   0.318  0.00  0.00    +0.105 C 
ENDBRANCH  16  17
ENDBRANCH  15  16
ENDBRANCH  14  15
ENDBRANCH  13  14
ENDBRANCH   2  13
BRANCH   9  23
ATOM     23  N   UNL     1      -2.590  -1.152  -1.280  0.00  0.00    -0.194 NA
BRANCH  23  24
ATOM     24  C   UNL     1      -3.946  -1.328  -0.897  0.00  0.00    +0.073 A 
ATOM     25  C   UNL     1      -4.603  -0.445  -0.065  0.00  0.00    +0.030 A 
ATOM     26  C   UNL     1      -5.976  -0.388  -0.048  0.00  0.00    +0.086 A 
ATOM     27 CL   UNL     1      -6.722   0.830   0.960  0.00  0.00    -0.080 Cl
ATOM     28  C   UNL     1      -6.738  -1.149  -0.927  0.00  0.00    +0.151 A 
ATOM     29  F   UNL     1      -7.947  -0.673  -1.272  0.00  0.00    -0.203 F 
ATOM     30  C   UNL     1      -6.080  -2.160  -1.587  0.00  0.00    +0.032 A 
ATOM     31  C   UNL     1      -4.698  -2.280  -1.538  0.00  0.00    +0.019 A 
ENDBRANCH  23  24
ENDBRANCH   9  23
TORSDOF 8
