REMARK  Name = 
REMARK  5 active torsions:
REMARK  status: ('A' for Active; 'I' for Inactive)
REMARK    1  A    between atoms: N_4  and  C_5
REMARK    2  A    between atoms: C_9  and  N_10
REMARK    3  A    between atoms: N_13  and  C_14
REMARK    4  A    between atoms: C_20  and  N_21
REMARK    5  A    between atoms: N_21  and  C_22
REMARK                            x       y       z     vdW  Elec       q    Type
REMARK                         _______ _______ _______ _____ _____    ______ ____
ROOT
ATOM      1  N   UNL     1       1.485  -0.326  -0.543  0.00  0.00    -0.260 N 
ATOM      2  C   UNL     1       0.547  -0.261   0.421  0.00  0.00    +0.076 A 
ATOM      3  C   UNL     1      -0.782  -0.013   0.171  0.00  0.00    +0.104 A 
ATOM      4  C   UNL     1      -1.710   0.227   1.177  0.00  0.00    +0.141 A 
ATOM      5  N   UNL     1      -1.224   0.177   2.441  0.00  0.00    -0.281 N 
ATOM      6  C   UNL     1      -0.044  -0.437   2.687  0.00  0.00    +0.259 A 
ATOM      7  O   UNL     1       0.194  -0.976   3.808  0.00  0.00    -0.267 OA
ATOM      8  C   UNL     1      -2.053   0.464   3.600  0.00  0.00    +0.135 C 
ATOM      9  C   UNL     1      -1.143   0.263  -1.135  0.00  0.00    +0.268 A 
ATOM     10  O   UNL     1      -2.257   0.750  -1.455  0.00  0.00    -0.267 OA
ATOM     11  N   UNL     1      -0.268  -0.145  -2.085  0.00  0.00    -0.250 N 
ATOM     12  C   UNL     1       0.893  -0.633   1.701  0.00  0.00    +0.051 A 
ATOM     13  C   UNL     1       2.310  -0.940   1.984  0.00  0.00    +0.038 C 
ATOM     14  C   UNL     1       1.055  -0.268  -1.826  0.00  0.00    +0.338 A 
ATOM     15  O   UNL     1       1.905   0.028  -2.719  0.00  0.00    -0.246 OA
ENDROOT
BRANCH   1  18
ATOM     16  C   UNL     1       5.140  -0.247  -0.889  0.00  0.00    +0.075 A 
ATOM     17  C   UNL     1       3.808  -0.643  -0.910  0.00  0.00    +0.034 A 
ATOM     18  C   UNL     1       2.828   0.048  -0.199  0.00  0.00    +0.069 A 
ATOM     19  C   UNL     1       3.043   1.424  -0.179  0.00  0.00    +0.018 A 
ATOM     20  C   UNL     1       4.292   1.969  -0.449  0.00  0.00    +0.003 A 
ATOM     21  C   UNL     1       5.342   1.125  -0.790  0.00  0.00    +0.017 A 
BRANCH  16  24
ATOM     22  C   UNL     1       8.012  -1.449   1.205  0.00  0.00    +0.097 C 
ATOM     23  C   UNL     1       7.380  -0.709   0.077  0.00  0.00    +0.246 C 
ATOM     24  N   UNL     1       6.201  -1.161  -0.582  0.00  0.00    -0.179 NA
ATOM     25  O   UNL     1       7.574   0.543   0.062  0.00  0.00    -0.273 OA
ENDBRANCH  16  24
ENDBRANCH   1  18
BRANCH  11  26
ATOM     26  C   UNL     1      -0.728  -0.421  -3.428  0.00  0.00    +0.093 C 
ATOM     27  C   UNL     1      -2.239  -0.535  -3.619  0.00  0.00    +0.025 C 
ATOM     28  C   UNL     1      -1.473   0.623  -4.188  0.00  0.00    +0.025 C 
ENDBRANCH  11  26
BRANCH   4  29
ATOM     29  N   UNL     1      -2.748   1.151   0.932  0.00  0.00    -0.193 NA
BRANCH  29  30
ATOM     30  C   UNL     1      -4.125   0.891   1.086  0.00  0.00    +0.099 A 
ATOM     31  C   UNL     1      -4.679  -0.382   1.017  0.00  0.00    +0.156 A 
ATOM     32  F   UNL     1      -3.786  -1.412   0.956  0.00  0.00    -0.203 F 
ATOM     33  C   UNL     1      -5.868  -0.584   0.327  0.00  0.00    +0.037 A 
ATOM     34  C   UNL     1      -6.806   0.411   0.370  0.00  0.00    +0.032 A 
ATOM     35  I   UNL     1      -8.736   0.124  -0.432  0.00  0.00    -0.042 I 
ATOM     36  C   UNL     1      -6.350   1.697   0.630  0.00  0.00    +0.007 A 
ATOM     37  C   UNL     1      -4.990   1.933   0.776  0.00  0.00    +0.019 A 
ENDBRANCH  29  30
ENDBRANCH   4  29
TORSDOF 5
