REMARK  Name = 
REMARK  3 active torsions:
REMARK  status: ('A' for Active; 'I' for Inactive)
REMARK    1  A    between atoms: C_2  and  C_3
REMARK    2  A    between atoms: C_3  and  N_4
REMARK    3  A    between atoms: C_12  and  C_13
REMARK                            x       y       z     vdW  Elec       q    Type
REMARK                         _______ _______ _______ _____ _____    ______ ____
ROOT
ATOM      1  N   UNL     1       0.733   0.587  -0.611  0.00  0.00    -0.265 NA
ATOM      2  C   UNL     1      -0.743   1.079  -0.468  0.00  0.00    +0.124 C 
ATOM      3  C   UNL     1      -1.020   0.016   0.845  0.00  0.00    +0.202 C 
ATOM      4  O   UNL     1      -2.452   0.457   0.961  0.00  0.00    -0.219 OA
ATOM      5  C   UNL     1      -1.478  -1.230  -0.230  0.00  0.00    +0.215 C 
ATOM      6  O   UNL     1      -1.773  -2.162   0.908  0.00  0.00    -0.218 OA
ATOM      7  C   UNL     1       0.133  -1.817  -0.359  0.00  0.00    +0.201 C 
ATOM      8  O   UNL     1      -0.252  -2.649  -1.569  0.00  0.00    -0.219 OA
ATOM      9  C   UNL     1       0.612  -0.583  -1.328  0.00  0.00    +0.108 C 
ENDROOT
BRANCH   2  10
ATOM     10  C   UNL     1      -0.333   2.336   0.495  0.00  0.00    +0.201 C 
ATOM     11  O   UNL     1      -0.985   3.414  -0.129  0.00  0.00    -0.219 OA
ENDBRANCH   2  10
BRANCH   1  12
ATOM     12  C   UNL     1       1.393   0.669   0.609  0.00  0.00    +0.108 C 
BRANCH  12  14
ATOM     13  O   UNL     1       3.281  -0.707   0.577  0.00  0.00    -0.219 OA
ATOM     14  C   UNL     1       2.884   0.590   0.300  0.00  0.00    +0.199 C 
ENDBRANCH  12  14
ENDBRANCH   1  12
TORSDOF 3
