REMARK  Name = 
REMARK  2 active torsions:
REMARK  status: ('A' for Active; 'I' for Inactive)
REMARK    1  A    between atoms: C_2  and  C_3
REMARK    2  A    between atoms: C_21  and  C_22
REMARK                            x       y       z     vdW  Elec       q    Type
REMARK                         _______ _______ _______ _____ _____    ______ ____
ROOT
ATOM      1  C   UNL     1      -2.887  -0.522   0.782  0.00  0.00    +0.180 C 
ATOM      2  C   UNL     1      -2.032  -0.435  -0.389  0.00  0.00    +0.037 C 
ATOM      3  C   UNL     1      -0.615  -1.128   0.034  0.00  0.00    +0.003 C 
ATOM      4  C   UNL     1       0.039  -0.285  -1.278  0.00  0.00    +0.001 C 
ATOM      5  C   UNL     1       0.702   1.126  -0.688  0.00  0.00    +0.004 C 
ATOM      6  C   UNL     1      -0.614   1.672   0.098  0.00  0.00    +0.000 C 
ATOM      7  C   UNL     1       1.701   0.745   0.609  0.00  0.00    +0.019 C 
ATOM      8  C   UNL     1       2.896   0.730  -0.492  0.00  0.00    -0.042 C 
ATOM      9  C   UNL     1       4.009   0.603   0.171  0.00  0.00    +0.029 C 
ATOM     10  C   UNL     1       3.963  -0.009   1.511  0.00  0.00    +0.173 C 
ATOM     11  C   UNL     1       2.833  -0.903   1.846  0.00  0.00    +0.069 C 
ATOM     12  O   UNL     1       5.005  -0.229   2.170  0.00  0.00    -0.291 OA
ATOM     13  C   UNL     1       2.522  -0.035  -1.736  0.00  0.00    +0.022 C 
ATOM     14  C   UNL     1       1.829  -0.867   0.697  0.00  0.00    +0.012 C 
ATOM     15  C   UNL     1       1.447  -1.071  -1.498  0.00  0.00    +0.004 C 
ATOM     16  C   UNL     1      -0.652  -0.114   1.290  0.00  0.00    +0.004 C 
ATOM     17  C   UNL     1      -1.771   1.072  -0.465  0.00  0.00    +0.003 C 
ATOM     18  C   UNL     1      -1.907  -0.561   1.953  0.00  0.00    +0.043 C 
ATOM     19  O   UNL     1      -3.759  -1.583   0.862  0.00  0.00    -0.212 OA
ENDROOT
BRANCH   1  21
ATOM     20  C   UNL     1      -3.988   1.555   0.739  0.00  0.00    -0.012 C 
ATOM     21  C   UNL     1      -3.689   0.731   0.892  0.00  0.00    -0.049 C 
ENDBRANCH   1  21
BRANCH   2  22
ATOM     22  C   UNL     1      -2.438  -0.856  -1.714  0.00  0.00    +0.003 C 
ATOM     23  C   UNL     1      -2.595   0.363  -2.629  0.00  0.00    +0.000 C 
ENDBRANCH   2  22
TORSDOF 2
