REMARK  Name = 
REMARK  2 active torsions:
REMARK  status: ('A' for Active; 'I' for Inactive)
REMARK    1  A    between atoms: C_2  and  C_4
REMARK    2  A    between atoms: C_4  and  C_6
REMARK                            x       y       z     vdW  Elec       q    Type
REMARK                         _______ _______ _______ _____ _____    ______ ____
ROOT
ATOM      1  C   UNL     1      -1.407  -0.283   0.355  0.00  0.00    +0.147 C 
ATOM      2  N   UNL     1      -0.422   0.414  -0.636  0.00  0.00    -0.228 NA
ATOM      3  C   UNL     1       0.949   0.038  -0.440  0.00  0.00    +0.157 A 
ATOM      4  C   UNL     1       1.338  -0.571   0.750  0.00  0.00    +0.170 A 
ATOM      5  N   UNL     1       2.660  -0.816   0.895  0.00  0.00    -0.193 NA
ATOM      6  C   UNL     1       3.512  -0.682  -0.144  0.00  0.00    +0.260 A 
ATOM      7  N   UNL     1       3.205   0.235  -1.095  0.00  0.00    -0.171 NA
ATOM      8  N   UNL     1       4.660  -1.525  -0.226  0.00  0.00    -0.086 NA
ATOM      9  N   UNL     1       0.436  -0.530   1.843  0.00  0.00    -0.217 NA
ATOM     10  C   UNL     1       1.905   0.536  -1.326  0.00  0.00    +0.299 A 
ATOM     11  O   UNL     1       1.602   1.538  -2.047  0.00  0.00    -0.264 OA
ATOM     12  C   UNL     1      -0.688   0.377   1.660  0.00  0.00    +0.138 C 
ENDROOT
BRANCH   1  13
ATOM     13  C   UNL     1      -2.517   1.005   0.256  0.00  0.00    +0.203 C 
ATOM     14  O   UNL     1      -3.158   0.609   1.549  0.00  0.00    -0.219 OA
BRANCH  13  16
ATOM     15  C   UNL     1      -3.683  -1.222   0.152  0.00  0.00    +0.038 C 
ATOM     16  C   UNL     1      -3.582   0.130  -0.776  0.00  0.00    +0.184 C 
ATOM     17  O   UNL     1      -4.811   0.745  -0.147  0.00  0.00    -0.220 OA
ENDBRANCH  13  16
ENDBRANCH   1  13
TORSDOF 2
