REMARK  Name = 
REMARK  2 active torsions:
REMARK  status: ('A' for Active; 'I' for Inactive)
REMARK    1  A    between atoms: C_3  and  C_4
REMARK    2  A    between atoms: C_9  and  N_10
REMARK                            x       y       z     vdW  Elec       q    Type
REMARK                         _______ _______ _______ _____ _____    ______ ____
ROOT
ATOM      1  N   UNL     1      -0.131  -0.334  -0.183  0.00  0.00    -0.292 N 
ATOM      2  C   UNL     1      -1.289   0.219   0.263  0.00  0.00    +0.171 A 
ATOM      3  N   UNL     1      -1.771   0.509   1.481  0.00  0.00    -0.192 NA
ATOM      4  C   UNL     1      -3.109   0.634   1.685  0.00  0.00    +0.261 A 
ATOM      5  N   UNL     1      -4.020   0.356   0.721  0.00  0.00    -0.171 NA
ATOM      6  C   UNL     1      -3.579   0.288  -0.559  0.00  0.00    +0.302 A 
ATOM      7  O   UNL     1      -4.383  -0.186  -1.416  0.00  0.00    -0.263 OA
ATOM      8  N   UNL     1      -3.633   1.114   2.914  0.00  0.00    -0.086 NA
ATOM      9  C   UNL     1      -2.218   0.186  -0.762  0.00  0.00    +0.175 A 
ATOM     10  N   UNL     1      -1.583  -0.385  -1.796  0.00  0.00    -0.217 NA
ATOM     11  C   UNL     1      -0.323  -0.682  -1.405  0.00  0.00    +0.180 A 
ENDROOT
BRANCH   1  14
ATOM     12  C   UNL     1       1.950  -0.017  -1.592  0.00  0.00    -0.007 C 
ATOM     13  C   UNL     1       2.070   0.274  -0.957  0.00  0.00    -0.019 C 
ATOM     14  C   UNL     1       1.233   0.194   0.464  0.00  0.00    +0.110 C 
ATOM     15  C   UNL     1       1.736  -1.350   0.810  0.00  0.00    +0.060 C 
ATOM     16  C   UNL     1       3.182  -1.399   0.017  0.00  0.00    +0.160 C 
ATOM     17  O   UNL     1       3.973  -1.522   1.327  0.00  0.00    -0.223 OA
ATOM     18  C   UNL     1       3.341   0.326   0.031  0.00  0.00    +0.083 C 
BRANCH  18  19
ATOM     19  C   UNL     1       4.418   0.300  -1.203  0.00  0.00    +0.189 C 
ATOM     20  O   UNL     1       4.135   1.474  -1.877  0.00  0.00    -0.220 OA
ENDBRANCH  18  19
ENDBRANCH   1  14
TORSDOF 2
