REMARK  Name = 
REMARK  4 active torsions:
REMARK  status: ('A' for Active; 'I' for Inactive)
REMARK    1  A    between atoms: O_2  and  C_3
REMARK    2  A    between atoms: C_3  and  C_5
REMARK    3  A    between atoms: C_5  and  C_6
REMARK    4  A    between atoms: C_5  and  C_12
REMARK                            x       y       z     vdW  Elec       q    Type
REMARK                         _______ _______ _______ _____ _____    ______ ____
ROOT
ATOM      1  C   UNL     1       0.124   0.665  -0.760  0.00  0.00    +0.137 C 
ENDROOT
BRANCH   1   2
ATOM      2  C   UNL     1       1.205  -0.048   0.393  0.00  0.00    +0.087 C 
ATOM      3  N   UNL     1       2.437   0.241  -0.551  0.00  0.00    -0.219 NA
ATOM      4  C   UNL     1       3.455  -0.531   0.163  0.00  0.00    +0.089 C 
ATOM      5  C   UNL     1       3.360  -1.928  -0.444  0.00  0.00    +0.019 C 
ATOM      6  C   UNL     1       1.966  -2.032  -1.052  0.00  0.00    +0.003 C 
ATOM      7  C   UNL     1       0.931  -1.567  -0.157  0.00  0.00    +0.018 C 
ENDBRANCH   1   2
BRANCH   1   8
ATOM      8  C   UNL     1      -1.137  -0.227  -0.319  0.00  0.00    -0.011 A 
ATOM      9  C   UNL     1      -1.327  -0.503   0.984  0.00  0.00    -0.004 A 
ATOM     10  C   UNL     1      -2.350  -1.400   1.280  0.00  0.00    -0.000 A 
ATOM     11  C   UNL     1      -3.088  -1.946   0.235  0.00  0.00    -0.000 A 
ATOM     12  C   UNL     1      -3.182  -1.168  -0.915  0.00  0.00    -0.000 A 
ATOM     13  C   UNL     1      -2.207  -0.211  -1.169  0.00  0.00    -0.004 A 
ENDBRANCH   1   8
BRANCH   1  14
ATOM     14  C   UNL     1      -0.278   1.846   0.262  0.00  0.00    +0.322 C 
ATOM     15  O   UNL     1      -1.360   2.414   0.017  0.00  0.00    -0.250 OA
BRANCH  14  17
ATOM     16  C   UNL     1       0.648   3.815   1.317  0.00  0.00    +0.256 C 
ATOM     17  O   UNL     1       0.806   2.580   0.714  0.00  0.00    -0.444 OA
ENDBRANCH  14  17
ENDBRANCH   1  14
TORSDOF 4
