REMARK  Name = 
REMARK  5 active torsions:
REMARK  status: ('A' for Active; 'I' for Inactive)
REMARK    1  A    between atoms: N_14  and  C_15
REMARK    2  A    between atoms: C_15  and  C_16
REMARK    3  A    between atoms: C_16  and  C_18
REMARK    4  A    between atoms: C_18  and  C_20
REMARK    5  A    between atoms: C_20  and  C_22
REMARK                            x       y       z     vdW  Elec       q    Type
REMARK                         _______ _______ _______ _____ _____    ______ ____
ROOT
ATOM      1  C   UNL     1      -3.640  -3.994  -1.021  0.00  0.00    +0.031 C 
ATOM      2  C   UNL     1      -2.999  -2.915  -0.205  0.00  0.00    -0.024 A 
ATOM      3  C   UNL     1      -1.781  -3.198   0.402  0.00  0.00    -0.024 A 
ATOM      4  C   UNL     1      -1.756  -4.456   1.179  0.00  0.00    +0.031 C 
ATOM      5  C   UNL     1      -0.731  -2.287   0.370  0.00  0.00    +0.014 A 
ATOM      6  C   UNL     1      -1.060  -0.984   0.012  0.00  0.00    +0.079 A 
ATOM      7  C   UNL     1      -2.392  -0.605  -0.117  0.00  0.00    +0.097 A 
ATOM      8  N   UNL     1      -2.798   0.656   0.172  0.00  0.00    -0.236 NA
ATOM      9  C   UNL     1      -1.838   1.590   0.203  0.00  0.00    +0.173 A 
ATOM     10  C   UNL     1      -0.483   1.224  -0.237  0.00  0.00    +0.171 A 
ATOM     11  N   UNL     1       0.420   2.192  -0.398  0.00  0.00    -0.172 NA
ATOM     12  C   UNL     1       0.053   3.447  -0.059  0.00  0.00    +0.373 A 
ATOM     13  O   UNL     1       0.682   4.417  -0.556  0.00  0.00    -0.242 OA
ATOM     14  N   UNL     1      -1.041   3.713   0.677  0.00  0.00    -0.150 NA
ATOM     15  C   UNL     1      -1.998   2.793   0.880  0.00  0.00    +0.304 A 
ATOM     16  O   UNL     1      -2.887   2.897   1.760  0.00  0.00    -0.263 OA
ATOM     17  N   UNL     1      -0.121  -0.063  -0.266  0.00  0.00    -0.307 N 
ATOM     18  C   UNL     1      -3.292  -1.591  -0.506  0.00  0.00    +0.016 A 
ENDROOT
BRANCH  17  19
ATOM     19  C   UNL     1       1.222  -0.510  -0.475  0.00  0.00    +0.143 C 
BRANCH  19  20
ATOM     20  C   UNL     1       1.973   0.783  -1.149  0.00  0.00    +0.207 C 
ATOM     21  O   UNL     1       1.966   0.159  -2.524  0.00  0.00    -0.218 OA
BRANCH  20  22
ATOM     22  C   UNL     1       3.579   0.257  -0.811  0.00  0.00    +0.217 C 
ATOM     23  O   UNL     1       3.362  -1.171  -1.203  0.00  0.00    -0.218 OA
BRANCH  22  24
ATOM     24  C   UNL     1       3.213   0.029   0.851  0.00  0.00    +0.217 C 
ATOM     25  O   UNL     1       4.214   1.092   1.248  0.00  0.00    -0.217 OA
BRANCH  24  26
ATOM     26  C   UNL     1       4.337  -1.140   1.061  0.00  0.00    +0.217 C 
ATOM     27  O   UNL     1       3.797  -2.337   0.712  0.00  0.00    -0.217 OA
ENDBRANCH  24  26
ENDBRANCH  22  24
ENDBRANCH  20  22
ENDBRANCH  19  20
ENDBRANCH  17  19
TORSDOF 5
