REMARK  Name = 
REMARK  9 active torsions:
REMARK  status: ('A' for Active; 'I' for Inactive)
REMARK    1  A    between atoms: O_2  and  C_3
REMARK    2  A    between atoms: C_5  and  C_6
REMARK    3  A    between atoms: C_6  and  C_7
REMARK    4  A    between atoms: C_7  and  C_9
REMARK    5  A    between atoms: C_20  and  O_21
REMARK    6  A    between atoms: C_37  and  O_38
REMARK    7  A    between atoms: C_64  and  O_65
REMARK    8  A    between atoms: O_65  and  C_66
REMARK    9  A    between atoms: C_66  and  C_67
REMARK                            x       y       z     vdW  Elec       q    Type
REMARK                         _______ _______ _______ _____ _____    ______ ____
ROOT
ATOM      1  C   UNL     1       1.887   0.437   0.609  0.00  0.00    +0.176 C 
ATOM      2  O   UNL     1       2.631  -0.854   0.330  0.00  0.00    -0.451 OA
ATOM      3  C   UNL     1       2.219  -1.924   0.817  0.00  0.00    +0.335 C 
ATOM      4  O   UNL     1       2.096  -2.492   1.951  0.00  0.00    -0.248 OA
ATOM      5  C   UNL     1       1.164  -2.435  -0.313  0.00  0.00    +0.175 C 
ATOM      6  N   UNL     1       1.725  -3.902  -0.221  0.00  0.00    -0.265 N 
ATOM      7  C   UNL     1       3.048  -4.182   0.141  0.00  0.00    +0.094 C 
ATOM      8  C   UNL     1       4.039  -3.451  -0.669  0.00  0.00    +0.022 C 
ATOM      9  C   UNL     1       3.433  -2.410  -1.465  0.00  0.00    +0.004 C 
ATOM     10  C   UNL     1       1.078  -4.663  -1.232  0.00  0.00    +0.289 C 
ATOM     11  O   UNL     1       1.617  -5.762  -1.584  0.00  0.00    -0.267 OA
ATOM     12  C   UNL     1      -0.386  -4.710  -1.031  0.00  0.00    +0.279 C 
ATOM     13  O   UNL     1      -1.077  -5.507  -1.721  0.00  0.00    -0.281 OA
ATOM     14  C   UNL     1      -1.063  -4.041   0.065  0.00  0.00    +0.279 C 
ATOM     15  O   UNL     1      -2.215  -3.644  -0.353  0.00  0.00    -0.329 OA
ATOM     16  C   UNL     1      -3.014  -2.786   0.601  0.00  0.00    +0.121 C 
ATOM     17  C   UNL     1      -2.238  -3.070   2.032  0.00  0.00    +0.030 C 
ATOM     18  C   UNL     1      -2.059  -4.450   2.285  0.00  0.00    +0.008 C 
ATOM     19  C   UNL     1      -4.036  -4.019   0.972  0.00  0.00    +0.063 C 
ATOM     20  C   UNL     1      -5.106  -4.075  -0.277  0.00  0.00    +0.136 C 
ATOM     21  C   UNL     1      -5.967  -2.795   0.254  0.00  0.00    -0.017 C 
ATOM     22  C   UNL     1      -7.001  -3.497   1.101  0.00  0.00    +0.029 C 
ATOM     23  C   UNL     1      -5.366  -1.789   0.673  0.00  0.00    -0.006 C 
ATOM     24  C   UNL     1      -5.226  -0.440   0.198  0.00  0.00    -0.001 C 
ATOM     25  C   UNL     1      -6.278  -0.027  -0.511  0.00  0.00    -0.000 C 
ATOM     26  C   UNL     1      -7.111   0.883   0.295  0.00  0.00    -0.005 C 
ATOM     27  C   UNL     1      -6.568   2.087   0.412  0.00  0.00    -0.026 C 
ATOM     28  C   UNL     1      -6.514   2.759  -1.048  0.00  0.00    +0.022 C 
ATOM     29  C   UNL     1      -4.901   2.534  -1.188  0.00  0.00    +0.005 C 
ATOM     30  C   UNL     1      -6.356   4.294  -0.513  0.00  0.00    +0.012 C 
ATOM     31  C   UNL     1      -5.376   4.145   0.781  0.00  0.00    +0.061 C 
ATOM     32  C   UNL     1      -6.322   5.137   1.677  0.00  0.00    +0.008 C 
ATOM     33  C   UNL     1      -4.348   5.332   0.405  0.00  0.00    +0.180 C 
ATOM     34  O   UNL     1      -4.587   6.013  -0.518  0.00  0.00    -0.293 OA
ATOM     35  C   UNL     1      -2.966   4.494   0.452  0.00  0.00    +0.206 C 
ATOM     36  C   UNL     1      -1.906   5.854   0.467  0.00  0.00    +0.204 C 
ATOM     37  O   UNL     1      -2.397   6.401  -0.853  0.00  0.00    -0.216 OA
ATOM     38  C   UNL     1      -0.734   5.061  -0.314  0.00  0.00    -0.015 C 
ATOM     39  C   UNL     1       0.326   6.136  -0.472  0.00  0.00    +0.029 C 
ATOM     40  C   UNL     1      -0.301   3.954   0.014  0.00  0.00    -0.025 C 
ATOM     41  C   UNL     1      -0.814   2.487  -0.369  0.00  0.00    +0.079 C 
ATOM     42  C   UNL     1      -1.359   2.893  -1.866  0.00  0.00    +0.012 C 
ATOM     43  C   UNL     1       0.635   2.005  -0.889  0.00  0.00    +0.158 C 
ATOM     44  O   UNL     1       1.136   2.577  -1.789  0.00  0.00    -0.296 OA
ATOM     45  O   UNL     1      -0.522  -3.382   0.953  0.00  0.00    -0.187 OA
ATOM     46  C   UNL     1      -1.571  -5.313   0.992  0.00  0.00    +0.062 C 
ATOM     47  C   UNL     1      -0.118  -5.628   1.665  0.00  0.00    +0.006 C 
ATOM     48  C   UNL     1       2.077  -2.169  -1.663  0.00  0.00    +0.031 C 
ATOM     49  C   UNL     1       0.952   0.553  -0.736  0.00  0.00    +0.108 C 
ENDROOT
BRANCH  35  50
ATOM     50  O   UNL     1      -2.978   4.477   1.964  0.00  0.00    -0.343 OA
ATOM     51  C   UNL     1      -3.395   3.223   2.352  0.00  0.00    +0.175 C 
ENDBRANCH  35  50
BRANCH   1  52
ATOM     52  C   UNL     1       3.197   1.258  -0.155  0.00  0.00    +0.041 C 
ATOM     53  C   UNL     1       3.064   2.539   0.815  0.00  0.00    +0.004 C 
BRANCH  52  54
ATOM     54  C   UNL     1       4.368   0.609   0.768  0.00  0.00    +0.004 C 
BRANCH  54  59
ATOM     55  C   UNL     1       7.081   1.564   0.350  0.00  0.00    +0.142 C 
ATOM     56  C   UNL     1       8.342   0.378   0.164  0.00  0.00    +0.142 C 
ATOM     57  C   UNL     1       7.410  -0.841  -0.378  0.00  0.00    +0.032 C 
ATOM     58  C   UNL     1       6.217  -1.028   0.429  0.00  0.00    +0.003 C 
ATOM     59  C   UNL     1       5.125  -0.185  -0.453  0.00  0.00    +0.003 C 
ATOM     60  C   UNL     1       6.094   1.032  -0.813  0.00  0.00    +0.032 C 
BRANCH  55  62
ATOM     61  C   UNL     1       6.983   1.229   2.259  0.00  0.00    +0.174 C 
ATOM     62  O   UNL     1       6.547   0.894   1.597  0.00  0.00    -0.351 OA
ENDBRANCH  55  62
BRANCH  56  63
ATOM     63  O   UNL     1       8.595   0.871  -1.241  0.00  0.00    -0.351 OA
BRANCH  63  64
ATOM     64  C   UNL     1       8.713   2.243  -1.173  0.00  0.00    +0.178 C 
BRANCH  64  65
ATOM     65  C   UNL     1       9.624   2.569  -0.021  0.00  0.00    +0.214 C 
ATOM     66  O   UNL     1       9.480   3.899   0.330  0.00  0.00    -0.218 OA
ENDBRANCH  64  65
ENDBRANCH  63  64
ENDBRANCH  56  63
ENDBRANCH  54  59
ENDBRANCH  52  54
ENDBRANCH   1  52
BRANCH  20  67
ATOM     67  O   UNL     1      -4.317  -3.239  -1.282  0.00  0.00    -0.349 OA
ATOM     68  C   UNL     1      -4.411  -4.112  -2.382  0.00  0.00    +0.174 C 
ENDBRANCH  20  67
TORSDOF 9
