REMARK  Name = 
REMARK  3 active torsions:
REMARK  status: ('A' for Active; 'I' for Inactive)
REMARK    1  A    between atoms: O_2  and  C_3
REMARK    2  A    between atoms: C_49  and  O_50
REMARK    3  A    between atoms: O_50  and  C_51
REMARK                            x       y       z     vdW  Elec       q    Type
REMARK                         _______ _______ _______ _____ _____    ______ ____
ROOT
ATOM      1  C   UNL     1       4.333  -3.488   0.162  0.00  0.00    +0.144 C 
ATOM      2  C   UNL     1       5.279  -2.124  -0.227  0.00  0.00    +0.072 C 
ATOM      3  C   UNL     1       4.628  -1.948  -1.678  0.00  0.00    +0.007 C 
ATOM      4  C   UNL     1       4.292  -0.998   0.542  0.00  0.00    +0.174 C 
ATOM      5  C   UNL     1       5.019   0.295  -0.279  0.00  0.00    +0.071 C 
ATOM      6  C   UNL     1       5.270   1.221   1.006  0.00  0.00    +0.006 C 
ATOM      7  C   UNL     1       3.452   0.831  -0.629  0.00  0.00    +0.158 C 
ATOM      8  O   UNL     1       3.761   0.923  -2.099  0.00  0.00    -0.223 OA
ATOM      9  C   UNL     1       3.726   2.488  -0.452  0.00  0.00    +0.061 C 
ATOM     10  C   UNL     1       3.155   2.641   1.041  0.00  0.00    +0.005 C 
ATOM     11  C   UNL     1       2.260   2.804  -1.246  0.00  0.00    +0.158 C 
ATOM     12  O   UNL     1       1.463   1.873  -0.385  0.00  0.00    -0.223 OA
ATOM     13  C   UNL     1       1.894   4.208  -0.339  0.00  0.00    +0.053 C 
ATOM     14  C   UNL     1       2.006   5.139  -1.666  0.00  0.00    +0.007 C 
ATOM     15  C   UNL     1       0.313   4.142  -0.469  0.00  0.00    -0.024 C 
ATOM     16  C   UNL     1      -0.110   3.264   0.370  0.00  0.00    -0.005 C 
ATOM     17  C   UNL     1      -1.376   3.262   0.889  0.00  0.00    -0.000 C 
ATOM     18  C   UNL     1      -2.422   3.825   0.414  0.00  0.00    +0.033 C 
ATOM     19  C   UNL     1      -3.243   4.911   1.062  0.00  0.00    +0.036 C 
ATOM     20  C   UNL     1      -2.144   3.877  -1.032  0.00  0.00    +0.265 C 
ATOM     21  O   UNL     1      -2.552   4.848  -1.759  0.00  0.00    -0.268 OA
ATOM     22  N   UNL     1      -1.802   2.597  -1.474  0.00  0.00    -0.171 NA
ATOM     23  C   UNL     1      -2.577   1.548  -0.941  0.00  0.00    +0.130 A 
ATOM     24  C   UNL     1      -2.518   0.541  -1.932  0.00  0.00    +0.215 A 
ATOM     25  C   UNL     1      -2.582  -0.800  -1.579  0.00  0.00    +0.081 A 
ATOM     26  C   UNL     1      -2.148  -1.012  -0.258  0.00  0.00    +0.031 A 
ATOM     27  C   UNL     1      -2.534  -0.049   0.672  0.00  0.00    +0.101 A 
ATOM     28  N   UNL     1      -2.683   0.095   2.021  0.00  0.00    -0.226 NA
ATOM     29  C   UNL     1      -3.847   0.750   2.262  0.00  0.00    +0.147 A 
ATOM     30  N   UNL     1      -4.164   1.262   1.044  0.00  0.00    -0.288 N 
ATOM     31  C   UNL     1      -5.418   1.723   0.820  0.00  0.00    +0.081 A 
ATOM     32  C   UNL     1      -6.263   1.770   1.923  0.00  0.00    +0.015 A 
ATOM     33  C   UNL     1      -6.074   0.935   3.018  0.00  0.00    -0.017 A 
ATOM     34  C   UNL     1      -7.172   0.137   3.634  0.00  0.00    +0.031 C 
ATOM     35  C   UNL     1      -4.734   0.719   3.318  0.00  0.00    +0.033 A 
ATOM     36  C   UNL     1      -1.808  -2.325  -0.026  0.00  0.00    +0.077 A 
ATOM     37  C   UNL     1      -0.578  -2.816   0.623  0.00  0.00    +0.251 C 
ATOM     38  C   UNL     1       0.125  -3.432  -0.512  0.00  0.00    +0.326 C 
ATOM     39  O   UNL     1      -0.967  -4.208  -1.013  0.00  0.00    -0.443 OA
ATOM     40  C   UNL     1       0.367  -2.322  -1.504  0.00  0.00    +0.100 C 
ATOM     41  O   UNL     1       1.172  -4.272  -0.269  0.00  0.00    -0.440 OA
ATOM     42  C   UNL     1       2.349  -3.872  -0.924  0.00  0.00    +0.174 C 
ATOM     43  O   UNL     1      -0.366  -3.150   1.830  0.00  0.00    -0.284 OA
ATOM     44  C   UNL     1      -2.034  -3.298  -1.018  0.00  0.00    +0.145 A 
ATOM     45  C   UNL     1      -3.075  -3.044  -1.913  0.00  0.00    +0.051 A 
ATOM     46  C   UNL     1      -3.548  -4.145  -2.767  0.00  0.00    +0.038 C 
ATOM     47  C   UNL     1      -3.360  -1.727  -2.268  0.00  0.00    +0.198 A 
ATOM     48  O   UNL     1      -3.820  -1.378  -3.533  0.00  0.00    -0.287 OA
ATOM     49  O   UNL     1      -2.684   0.780  -3.293  0.00  0.00    -0.285 OA
ATOM     50  C   UNL     1      -3.034   1.225   0.252  0.00  0.00    +0.101 A 
ATOM     51  C   UNL     1       2.898  -2.854  -0.249  0.00  0.00    +0.043 C 
ENDROOT
BRANCH   1  53
ATOM     52  C   UNL     1       3.667  -4.182   2.230  0.00  0.00    +0.174 C 
ATOM     53  O   UNL     1       4.156  -3.101   1.617  0.00  0.00    -0.349 OA
ENDBRANCH   1  53
BRANCH   4  54
ATOM     54  O   UNL     1       5.176  -0.985   1.776  0.00  0.00    -0.452 OA
BRANCH  54  55
ATOM     55  C   UNL     1       6.516  -1.076   1.697  0.00  0.00    +0.317 C 
ATOM     56  O   UNL     1       7.056  -1.277   0.581  0.00  0.00    -0.250 OA
ATOM     57  C   UNL     1       7.299  -0.749   2.929  0.00  0.00    +0.121 C 
ENDBRANCH  54  55
ENDBRANCH   4  54
TORSDOF 3
