REMARK  Name = 
REMARK  7 active torsions:
REMARK  status: ('A' for Active; 'I' for Inactive)
REMARK    1  A    between atoms: S_2  and  O_5
REMARK    2  A    between atoms: O_5  and  C_6
REMARK    3  A    between atoms: C_6  and  C_7
REMARK    4  A    between atoms: C_7  and  C_8
REMARK    5  A    between atoms: C_8  and  C_9
REMARK    6  A    between atoms: C_9  and  O_10
REMARK    7  A    between atoms: O_10  and  S_11
REMARK                            x       y       z     vdW  Elec       q    Type
REMARK                         _______ _______ _______ _____ _____    ______ ____
ROOT
ATOM      1  C   UNL     1      -0.591   0.418   0.888  0.00  0.00    +0.037 C 
ENDROOT
BRANCH   1   2
ATOM      2  C   UNL     1      -1.442  -0.417  -0.034  0.00  0.00    +0.174 C 
BRANCH   2   3
ATOM      3  O   UNL     1      -2.229   0.478  -0.774  0.00  0.00    -0.224 OA
BRANCH   3   5
ATOM      4  C   UNL     1      -4.126   0.570   1.313  0.00  0.00    +0.210 C 
ATOM      5  S   UNL     1      -3.836   0.133  -0.382  0.00  0.00    +0.096 S 
ATOM      6  O   UNL     1      -4.030  -1.352  -0.575  0.00  0.00    -0.146 OA
ATOM      7  O   UNL     1      -4.697   0.934  -1.313  0.00  0.00    -0.146 OA
ENDBRANCH   3   5
ENDBRANCH   2   3
ENDBRANCH   1   2
BRANCH   1   8
ATOM      8  C   UNL     1       0.867   0.129   0.717  0.00  0.00    +0.037 C 
BRANCH   8   9
ATOM      9  C   UNL     1       1.272  -0.153  -0.701  0.00  0.00    +0.174 C 
BRANCH   9  10
ATOM     10  O   UNL     1       2.454  -0.911  -0.701  0.00  0.00    -0.224 OA
BRANCH  10  11
ATOM     11  S   UNL     1       3.720  -0.109   0.032  0.00  0.00    +0.096 S 
ATOM     12  O   UNL     1       4.460   0.756  -0.959  0.00  0.00    -0.146 OA
ATOM     13  O   UNL     1       3.289   0.790   1.142  0.00  0.00    -0.146 OA
ATOM     14  C   UNL     1       4.888  -1.264   0.735  0.00  0.00    +0.210 C 
ENDBRANCH  10  11
ENDBRANCH   9  10
ENDBRANCH   8   9
ENDBRANCH   1   8
TORSDOF 7
