REMARK  Name = 
REMARK  3 active torsions:
REMARK  status: ('A' for Active; 'I' for Inactive)
REMARK    1  A    between atoms: C_2  and  C_3
REMARK    2  A    between atoms: C_2  and  N_18
REMARK    3  A    between atoms: C_3  and  N_4
REMARK                            x       y       z     vdW  Elec       q    Type
REMARK                         _______ _______ _______ _____ _____    ______ ____
ROOT
ATOM      1  N   UNL     1       0.110   0.243  -0.556  0.00  0.00    -0.285 N 
ATOM      2  C   UNL     1      -0.351  -1.100  -0.560  0.00  0.00    +0.058 A 
ATOM      3  C   UNL     1      -1.697  -1.442  -0.541  0.00  0.00    +0.043 A 
ATOM      4  C   UNL     1      -2.145  -2.445   0.310  0.00  0.00    +0.008 A 
ATOM      5  C   UNL     1      -1.224  -3.444   0.597  0.00  0.00    +0.001 A 
ATOM      6  C   UNL     1       0.061  -3.386   0.068  0.00  0.00    +0.001 A 
ATOM      7  S   UNL     1      -2.830  -0.173  -1.122  0.00  0.00    -0.084 S 
ATOM      8  C   UNL     1      -2.089   1.371  -0.579  0.00  0.00    +0.043 A 
ATOM      9  C   UNL     1      -2.944   2.215   0.121  0.00  0.00    +0.008 A 
ATOM     10  C   UNL     1      -2.457   3.179   0.994  0.00  0.00    +0.001 A 
ATOM     11  C   UNL     1      -1.101   3.439   0.890  0.00  0.00    +0.001 A 
ATOM     12  C   UNL     1      -0.261   2.503   0.340  0.00  0.00    +0.015 A 
ATOM     13  C   UNL     1       0.517  -2.150  -0.298  0.00  0.00    +0.015 A 
ATOM     14  C   UNL     1      -0.752   1.325  -0.210  0.00  0.00    +0.058 A 
ENDROOT
BRANCH   1  15
ATOM     15  C   UNL     1       1.530   0.528  -0.666  0.00  0.00    +0.111 C 
BRANCH  15  17
ATOM     16  C   UNL     1       3.290  -0.851  -1.468  0.00  0.00    +0.019 C 
ATOM     17  C   UNL     1       2.300  -0.828  -0.157  0.00  0.00    +0.078 C 
BRANCH  17  18
ATOM     18  N   UNL     1       3.364  -0.051   0.691  0.00  0.00    -0.270 NA
ATOM     19  C   UNL     1       3.681   1.167   0.100  0.00  0.00    +0.090 C 
ATOM     20  C   UNL     1       2.997  -0.103   2.047  0.00  0.00    +0.090 C 
ENDBRANCH  17  18
ENDBRANCH  15  17
ENDBRANCH   1  15
TORSDOF 3
