REMARK  Name = 
REMARK  2 active torsions:
REMARK  status: ('A' for Active; 'I' for Inactive)
REMARK    1  A    between atoms: P_2  and  O_5
REMARK    2  A    between atoms: O_5  and  P_6
REMARK                            x       y       z     vdW  Elec       q    Type
REMARK                         _______ _______ _______ _____ _____    ______ ____
ROOT
ATOM      1  O   UNL     1       0.032  -0.201  -1.103  0.00  0.00    -0.180 OA
ENDROOT
BRANCH   1   3
ATOM      2  O   UNL     1       1.364   1.419   0.389  0.00  0.00    -0.222 OA
ATOM      3  P   UNL     1       1.388  -0.014  -0.092  0.00  0.00    +0.540 P 
ATOM      4  O   UNL     1       1.142  -1.059   1.225  0.00  0.00    -0.114 OA
ATOM      5  O   UNL     1       2.803  -0.381  -0.929  0.00  0.00    -0.114 OA
ENDBRANCH   1   3
BRANCH   1   6
ATOM      6  P   UNL     1      -1.340  -0.017  -0.139  0.00  0.00    +0.540 P 
ATOM      7  O   UNL     1      -2.184   1.389  -0.529  0.00  0.00    -0.114 OA
ATOM      8  O   UNL     1      -0.943   0.055   1.514  0.00  0.00    -0.114 OA
ATOM      9  O   UNL     1      -2.262  -1.192  -0.337  0.00  0.00    -0.222 OA
ENDBRANCH   1   6
TORSDOF 2
