REMARK  Name = 
REMARK  2 active torsions:
REMARK  status: ('A' for Active; 'I' for Inactive)
REMARK    1  A    between atoms: C_2  and  C_3
REMARK    2  A    between atoms: C_22  and  C_23
REMARK                            x       y       z     vdW  Elec       q    Type
REMARK                         _______ _______ _______ _____ _____    ______ ____
ROOT
ATOM      1  C   UNL     1      -3.581   0.076   0.018  0.00  0.00    +0.180 C 
ATOM      2  C   UNL     1      -2.097  -0.285   0.152  0.00  0.00    +0.037 C 
ATOM      3  C   UNL     1      -1.695   1.257   0.377  0.00  0.00    +0.003 C 
ATOM      4  C   UNL     1      -0.014   1.224   0.136  0.00  0.00    +0.001 C 
ATOM      5  C   UNL     1       0.261  -0.387   0.505  0.00  0.00    +0.004 C 
ATOM      6  C   UNL     1      -0.456  -0.271   1.941  0.00  0.00    +0.000 C 
ATOM      7  C   UNL     1       1.819  -0.036   1.038  0.00  0.00    +0.019 C 
ATOM      8  C   UNL     1       2.273   0.567  -0.369  0.00  0.00    -0.043 C 
ATOM      9  C   UNL     1       3.574   0.679  -0.419  0.00  0.00    +0.010 C 
ATOM     10  C   UNL     1       4.422  -0.177   0.421  0.00  0.00    +0.101 C 
ATOM     11  C   UNL     1       3.825  -1.426   0.929  0.00  0.00    +0.050 C 
ATOM     12  N   UNL     1       5.584   0.245   0.713  0.00  0.00    -0.034 NA
ATOM     13  O   UNL     1       6.580   0.420  -0.224  0.00  0.00    -0.143 OA
ATOM     14  C   UNL     1       1.431   0.275  -1.549  0.00  0.00    +0.022 C 
ATOM     15  C   UNL     1       2.356  -1.519   0.644  0.00  0.00    +0.010 C 
ATOM     16  C   UNL     1       0.059   0.924  -1.446  0.00  0.00    +0.004 C 
ATOM     17  C   UNL     1      -2.138   1.650  -1.141  0.00  0.00    +0.004 C 
ATOM     18  C   UNL     1      -1.778  -0.886   1.464  0.00  0.00    +0.003 C 
ATOM     19  C   UNL     1      -3.520   1.101  -1.097  0.00  0.00    +0.043 C 
ATOM     20  O   UNL     1      -4.001   0.592   1.216  0.00  0.00    -0.212 OA
ENDROOT
BRANCH   1  22
ATOM     21  C   UNL     1      -4.935  -1.704  -0.682  0.00  0.00    -0.012 C 
ATOM     22  C   UNL     1      -4.378  -1.069  -0.451  0.00  0.00    -0.049 C 
ENDBRANCH   1  22
BRANCH   2  23
ATOM     23  C   UNL     1      -1.764  -0.854  -1.087  0.00  0.00    +0.003 C 
ATOM     24  C   UNL     1      -1.829  -2.334  -1.089  0.00  0.00    +0.000 C 
ENDBRANCH   2  23
TORSDOF 2
