REMARK  Name = 
REMARK  4 active torsions:
REMARK  status: ('A' for Active; 'I' for Inactive)
REMARK    1  A    between atoms: N_4  and  N_5
REMARK    2  A    between atoms: C_6  and  C_7
REMARK    3  A    between atoms: C_10  and  C_11
REMARK    4  A    between atoms: C_14  and  N_15
REMARK                            x       y       z     vdW  Elec       q    Type
REMARK                         _______ _______ _______ _____ _____    ______ ____
ROOT
ATOM      1  C   UNL     1       1.105  -0.268  -0.612  0.00  0.00    +0.166 A 
ATOM      2  O   UNL     1       0.065  -0.227   0.201  0.00  0.00    -0.452 OA
ATOM      3  C   UNL     1      -0.824   0.634  -0.211  0.00  0.00    +0.145 A 
ATOM      4  C   UNL     1      -0.093   1.581  -0.920  0.00  0.00    +0.041 A 
ATOM      5  C   UNL     1       0.992   0.865  -1.409  0.00  0.00    +0.042 A 
ENDROOT
BRANCH   3   6
ATOM      6  C   UNL     1      -2.213   0.760   0.252  0.00  0.00    +0.035 A 
ATOM      7  C   UNL     1      -3.110   1.557  -0.404  0.00  0.00    +0.009 A 
ATOM      8  C   UNL     1      -4.460   1.370  -0.145  0.00  0.00    +0.075 A 
ATOM      9  C   UNL     1      -4.902   0.294   0.608  0.00  0.00    +0.290 A 
ATOM     10  C   UNL     1      -4.006  -0.472   1.335  0.00  0.00    +0.075 A 
ATOM     11  C   UNL     1      -2.668  -0.119   1.219  0.00  0.00    +0.009 A 
BRANCH   9  12
ATOM     12  N   UNL     1      -6.192  -0.256   0.340  0.00  0.00    +0.081 N 
ATOM     13  O   UNL     1      -6.237  -1.485  -0.258  0.00  0.00    -0.576 OA
ATOM     14  O   UNL     1      -7.159   0.513   0.216  0.00  0.00    +0.041 OA
ENDBRANCH   9  12
ENDBRANCH   3   6
BRANCH   1  16
ATOM     15  N   UNL     1       2.779  -1.825  -0.162  0.00  0.00    -0.169 NA
ATOM     16  C   UNL     1       1.774  -1.536  -0.937  0.00  0.00    +0.155 C 
BRANCH  15  22
ATOM     17  O   UNL     1       5.616   2.051   0.300  0.00  0.00    -0.271 OA
ATOM     18  C   UNL     1       5.257   0.844   0.349  0.00  0.00    +0.272 C 
ATOM     19  N   UNL     1       5.961  -0.335   0.015  0.00  0.00    -0.125 NA
ATOM     20  C   UNL     1       5.132  -1.178  -0.506  0.00  0.00    +0.349 C 
ATOM     21  O   UNL     1       5.553  -2.333  -1.173  0.00  0.00    -0.249 OA
ATOM     22  N   UNL     1       3.789  -0.842  -0.138  0.00  0.00    -0.154 N 
ATOM     23  C   UNL     1       3.843   0.407   0.573  0.00  0.00    +0.208 C 
ENDBRANCH  15  22
ENDBRANCH   1  16
TORSDOF 4
