REMARK  Name = 
REMARK  7 active torsions:
REMARK  status: ('A' for Active; 'I' for Inactive)
REMARK    1  A    between atoms: C_2  and  C_3
REMARK    2  A    between atoms: C_2  and  C_16
REMARK    3  A    between atoms: C_5  and  C_6
REMARK    4  A    between atoms: C_9  and  C_10
REMARK    5  A    between atoms: C_16  and  C_18
REMARK    6  A    between atoms: C_16  and  C_24
REMARK    7  A    between atoms: C_18  and  N_19
REMARK                            x       y       z     vdW  Elec       q    Type
REMARK                         _______ _______ _______ _____ _____    ______ ____
ROOT
ATOM      1  C   UNL     1      -2.146   0.597   0.207  0.00  0.00    +0.175 C 
ATOM      2  O   UNL     1      -2.827   1.212  -0.866  0.00  0.00    -0.219 OA
ENDROOT
BRANCH   1   3
ATOM      3  C   UNL     1      -2.260  -0.825   0.073  0.00  0.00    +0.037 A 
ATOM      4  C   UNL     1      -2.015  -1.583   1.218  0.00  0.00    +0.139 A 
ATOM      5  F   UNL     1      -1.715  -0.994   2.415  0.00  0.00    -0.204 F 
ATOM      6  C   UNL     1      -2.520  -2.873   1.349  0.00  0.00    +0.032 A 
ATOM      7  C   UNL     1      -3.484  -3.332   0.463  0.00  0.00    +0.032 A 
ATOM      8  C   UNL     1      -4.017  -2.442  -0.460  0.00  0.00    +0.140 A 
ATOM      9  F   UNL     1      -5.292  -2.588  -0.926  0.00  0.00    -0.204 F 
ATOM     10  C   UNL     1      -3.210  -1.374  -0.785  0.00  0.00    +0.030 A 
ENDBRANCH   1   3
BRANCH   1  12
ATOM     11  C   UNL     1      -0.254   1.518   1.401  0.00  0.00    +0.010 C 
ATOM     12  C   UNL     1      -0.641   1.134  -0.167  0.00  0.00    +0.080 C 
BRANCH  12  13
ATOM     13  C   UNL     1       0.096  -0.321  -0.051  0.00  0.00    +0.091 A 
ATOM     14  S   UNL     1       0.043  -1.349  -1.429  0.00  0.00    -0.070 S 
ATOM     15  C   UNL     1       1.697  -1.815  -1.448  0.00  0.00    +0.056 A 
ATOM     16  C   UNL     1       2.200  -1.089  -0.378  0.00  0.00    +0.088 A 
ATOM     17  N   UNL     1       1.409  -0.170   0.077  0.00  0.00    -0.243 NA
BRANCH  16  18
ATOM     18  C   UNL     1       3.669  -0.922  -0.261  0.00  0.00    +0.018 A 
ATOM     19  C   UNL     1       4.144  -0.727   1.032  0.00  0.00    +0.002 A 
ATOM     20  C   UNL     1       5.455  -0.349   1.239  0.00  0.00    +0.010 A 
ATOM     21  C   UNL     1       6.258   0.107   0.203  0.00  0.00    +0.068 A 
ATOM     22  C   UNL     1       5.595   0.379  -0.987  0.00  0.00    +0.010 A 
ATOM     23  C   UNL     1       4.322  -0.123  -1.195  0.00  0.00    +0.002 A 
BRANCH  21  24
ATOM     24  C   UNL     1       7.684  -0.134   0.218  0.00  0.00    +0.100 C 
ATOM     25  N   UNL     1       8.763  -0.539   0.307  0.00  0.00    -0.191 NA
ENDBRANCH  21  24
ENDBRANCH  16  18
ENDBRANCH  12  13
ENDBRANCH   1  12
BRANCH   1  26
ATOM     26  C   UNL     1      -2.648   1.259   1.409  0.00  0.00    +0.164 C 
BRANCH  26  27
ATOM     27  N   UNL     1      -3.107   2.620   1.143  0.00  0.00    -0.227 N 
ATOM     28  N   UNL     1      -4.412   2.900   1.192  0.00  0.00    -0.145 NA
ATOM     29  C   UNL     1      -4.649   4.011   0.499  0.00  0.00    +0.221 A 
ATOM     30  N   UNL     1      -3.539   4.312  -0.218  0.00  0.00    -0.201 NA
ATOM     31  C   UNL     1      -2.597   3.503   0.266  0.00  0.00    +0.197 A 
ENDBRANCH  26  27
ENDBRANCH   1  26
TORSDOF 7
