REMARK  Name = 
REMARK  1 active torsions:
REMARK  status: ('A' for Active; 'I' for Inactive)
REMARK    1  A    between atoms: C_14  and  C_15
REMARK                            x       y       z     vdW  Elec       q    Type
REMARK                         _______ _______ _______ _____ _____    ______ ____
ROOT
ATOM      1  C   UNL     1      -3.984   0.077   1.773  0.00  0.00    +0.074 C 
ATOM      2  C   UNL     1      -3.342  -0.958   0.934  0.00  0.00    +0.147 A 
ATOM      3  N   UNL     1      -2.118  -0.847   0.403  0.00  0.00    -0.279 N 
ATOM      4  C   UNL     1      -1.407   0.397   0.399  0.00  0.00    +0.068 A 
ATOM      5  C   UNL     1      -0.143   0.591  -0.148  0.00  0.00    +0.034 A 
ATOM      6  C   UNL     1       0.859  -0.414  -0.529  0.00  0.00    +0.079 C 
ATOM      7  N   UNL     1       0.639  -1.695  -0.464  0.00  0.00    -0.262 NA
ATOM      8  C   UNL     1      -0.530  -2.422  -0.869  0.00  0.00    +0.191 C 
ATOM      9  C   UNL     1       0.291   1.848  -0.554  0.00  0.00    +0.014 A 
ATOM     10  C   UNL     1      -0.651   2.863  -0.661  0.00  0.00    +0.058 A 
ATOM     11 CL   UNL     1      -0.518   4.129  -1.877  0.00  0.00    -0.082 Cl
ATOM     12  C   UNL     1      -1.863   2.706   0.003  0.00  0.00    +0.013 A 
ATOM     13  C   UNL     1      -2.230   1.496   0.579  0.00  0.00    +0.019 A 
ATOM     14  C   UNL     1      -1.733  -2.057  -0.067  0.00  0.00    +0.172 A 
ATOM     15  N   UNL     1      -2.893  -2.720  -0.279  0.00  0.00    -0.131 NA
ATOM     16  N   UNL     1      -3.812  -2.137   0.488  0.00  0.00    -0.133 NA
ENDROOT
BRANCH   6  17
ATOM     17  C   UNL     1       2.227   0.051  -0.268  0.00  0.00    +0.028 A 
ATOM     18  C   UNL     1       2.876  -0.587   0.782  0.00  0.00    +0.059 A 
ATOM     19 CL   UNL     1       1.919  -1.363   2.042  0.00  0.00    -0.082 Cl
ATOM     20  C   UNL     1       4.255  -0.539   0.860  0.00  0.00    +0.011 A 
ATOM     21  C   UNL     1       4.957   0.048  -0.179  0.00  0.00    +0.001 A 
ATOM     22  C   UNL     1       4.276   0.876  -1.063  0.00  0.00    +0.000 A 
ATOM     23  C   UNL     1       2.927   0.656  -1.303  0.00  0.00    +0.002 A 
ENDBRANCH   6  17
TORSDOF 1
