REMARK  Name = 
REMARK  3 active torsions:
REMARK  status: ('A' for Active; 'I' for Inactive)
REMARK    1  A    between atoms: C_2  and  C_3
REMARK    2  A    between atoms: C_3  and  C_4
REMARK    3  A    between atoms: C_3  and  N_7
REMARK                            x       y       z     vdW  Elec       q    Type
REMARK                         _______ _______ _______ _____ _____    ______ ____
ROOT
ATOM      1  C   UNL     1      -0.883   0.450  -0.857  0.00  0.00    +0.155 C 
ENDROOT
BRANCH   1   2
ATOM      2  N   UNL     1       0.461  -0.123  -0.278  0.00  0.00    -0.273 N 
ATOM      3  C   UNL     1       1.641   0.672  -0.331  0.00  0.00    +0.226 C 
ATOM      4  O   UNL     1       1.867   1.725  -0.993  0.00  0.00    -0.275 OA
ATOM      5  C   UNL     1       2.716  -0.172   0.229  0.00  0.00    +0.087 C 
ATOM      6  C   UNL     1       1.957  -1.091   1.138  0.00  0.00    +0.031 C 
ATOM      7  C   UNL     1       0.547  -1.169   0.678  0.00  0.00    +0.094 C 
ENDBRANCH   1   2
BRANCH   1   8
ATOM      8  C   UNL     1      -1.537   0.633   0.602  0.00  0.00    +0.279 C 
ATOM      9  O   UNL     1      -2.086  -0.286   1.171  0.00  0.00    -0.270 OA
ATOM     10  N   UNL     1      -2.024   1.969   0.772  0.00  0.00    -0.086 NA
ENDBRANCH   1   8
BRANCH   1  12
ATOM     11  C   UNL     1      -1.147  -1.558  -1.002  0.00  0.00    +0.002 C 
ATOM     12  C   UNL     1      -1.511  -1.049  -1.130  0.00  0.00    +0.029 C 
ENDBRANCH   1  12
TORSDOF 3
