REMARK  Name = 
REMARK  8 active torsions:
REMARK  status: ('A' for Active; 'I' for Inactive)
REMARK    1  A    between atoms: O_2  and  C_3
REMARK    2  A    between atoms: C_3  and  C_5
REMARK    3  A    between atoms: C_11  and  C_12
REMARK    4  A    between atoms: C_12  and  O_14
REMARK    5  A    between atoms: O_14  and  C_15
REMARK    6  A    between atoms: C_15  and  C_16
REMARK    7  A    between atoms: C_19  and  C_20
REMARK    8  A    between atoms: C_25  and  N_26
REMARK                            x       y       z     vdW  Elec       q    Type
REMARK                         _______ _______ _______ _____ _____    ______ ____
ROOT
ATOM      1  C   UNL     1      -1.566   1.306  -0.210  0.00  0.00    +0.073 C 
ATOM      2  C   UNL     1      -0.440   0.282  -0.797  0.00  0.00    +0.087 C 
ATOM      3  C   UNL     1       0.839   0.857   0.063  0.00  0.00    +0.073 C 
ATOM      4  C   UNL     1       0.968   2.129  -0.341  0.00  0.00    +0.051 C 
ATOM      5  C   UNL     1       2.317   2.732  -0.590  0.00  0.00    +0.049 C 
ATOM      6  N   UNL     1      -0.021   2.932   0.265  0.00  0.00    -0.221 NA
ATOM      7  C   UNL     1      -1.233   2.237   0.592  0.00  0.00    +0.051 C 
ATOM      8  C   UNL     1      -2.372   2.953   1.251  0.00  0.00    +0.049 C 
ENDROOT
BRANCH   2   9
ATOM      9  C   UNL     1      -0.776  -0.852   0.335  0.00  0.00    +0.055 A 
ATOM     10  C   UNL     1      -1.640  -1.827  -0.111  0.00  0.00    +0.287 A 
ATOM     11  C   UNL     1      -2.384  -2.494   0.852  0.00  0.00    +0.075 A 
ATOM     12  C   UNL     1      -2.200  -2.232   2.206  0.00  0.00    +0.006 A 
ATOM     13  C   UNL     1      -1.188  -1.359   2.577  0.00  0.00    +0.000 A 
ATOM     14  C   UNL     1      -0.846  -0.416   1.616  0.00  0.00    +0.002 A 
BRANCH  10  15
ATOM     15  N   UNL     1      -1.280  -2.442  -1.355  0.00  0.00    +0.081 N 
ATOM     16  O   UNL     1      -1.103  -1.736  -2.510  0.00  0.00    -0.576 OA
ATOM     17  O   UNL     1      -0.859  -3.613  -1.321  0.00  0.00    +0.041 OA
ENDBRANCH  10  15
ENDBRANCH   2   9
BRANCH   1  18
ATOM     18  C   UNL     1      -2.827   1.169  -0.942  0.00  0.00    +0.339 C 
ATOM     19  O   UNL     1      -2.730   1.228  -2.206  0.00  0.00    -0.245 OA
BRANCH  18  21
ATOM     20  C   UNL     1      -5.045   2.162  -1.063  0.00  0.00    +0.256 C 
ATOM     21  O   UNL     1      -3.945   1.790  -0.404  0.00  0.00    -0.442 OA
ENDBRANCH  18  21
ENDBRANCH   1  18
BRANCH   3  22
ATOM     22  C   UNL     1       1.992   0.024  -0.321  0.00  0.00    +0.339 C 
ATOM     23  O   UNL     1       2.275   0.050  -1.557  0.00  0.00    -0.245 OA
BRANCH  22  24
ATOM     24  O   UNL     1       3.041  -0.299   0.516  0.00  0.00    -0.446 OA
BRANCH  24  25
ATOM     25  C   UNL     1       4.391  -0.026   0.256  0.00  0.00    +0.209 C 
BRANCH  25  26
ATOM     26  C   UNL     1       5.280  -1.208   0.114  0.00  0.00    +0.044 C 
ATOM     27  C   UNL     1       6.595  -0.867   0.809  0.00  0.00    +0.004 C 
ATOM     28  C   UNL     1       4.757  -2.479   0.694  0.00  0.00    +0.004 C 
ENDBRANCH  25  26
ENDBRANCH  24  25
ENDBRANCH  22  24
ENDBRANCH   3  22
TORSDOF 8
