REMARK  Name = 
REMARK  4 active torsions:
REMARK  status: ('A' for Active; 'I' for Inactive)
REMARK    1  A    between atoms: C_2  and  C_3
REMARK    2  A    between atoms: C_3  and  C_4
REMARK    3  A    between atoms: C_4  and  C_5
REMARK    4  A    between atoms: C_5  and  C_6
REMARK                            x       y       z     vdW  Elec       q    Type
REMARK                         _______ _______ _______ _____ _____    ______ ____
ROOT
ATOM      1  C   UNL     1      -0.121   0.300  -0.198  0.00  0.00    +0.145 C 
ATOM      2  C   UNL     1       0.355  -0.818  -1.074  0.00  0.00    +0.257 C 
ATOM      3  O   UNL     1      -0.132  -0.841  -2.245  0.00  0.00    -0.272 OA
ATOM      4  N   UNL     1       1.764  -1.073  -0.997  0.00  0.00    -0.125 NA
ATOM      5  C   UNL     1       2.304  -1.163   0.326  0.00  0.00    +0.352 C 
ATOM      6  O   UNL     1       3.475  -1.573   0.443  0.00  0.00    -0.248 OA
ATOM      7  N   UNL     1       1.420  -0.914   1.406  0.00  0.00    -0.125 NA
ATOM      8  C   UNL     1       0.325  -0.017   1.195  0.00  0.00    +0.257 C 
ATOM      9  O   UNL     1      -0.074   0.732   2.137  0.00  0.00    -0.272 OA
ENDROOT
BRANCH   1  10
ATOM     10  C   UNL     1       0.641   1.520  -0.633  0.00  0.00    +0.044 C 
BRANCH  10  12
ATOM     11  C   UNL     1       0.164   3.748   0.231  0.00  0.00    -0.005 C 
ATOM     12  C   UNL     1      -0.164   2.759  -0.610  0.00  0.00    -0.025 C 
ENDBRANCH  10  12
ENDBRANCH   1  10
BRANCH   1  13
ATOM     13  C   UNL     1      -1.610   0.465  -0.246  0.00  0.00    +0.018 C 
BRANCH  13  14
ATOM     14  C   UNL     1      -2.218  -0.886   0.106  0.00  0.00    +0.001 C 
ATOM     15  C   UNL     1      -3.213  -0.716   1.222  0.00  0.00    +0.000 C 
ATOM     16  C   UNL     1      -2.915  -1.523  -1.062  0.00  0.00    +0.000 C 
ENDBRANCH  13  14
ENDBRANCH   1  13
TORSDOF 4
