REMARK  Name = 
REMARK  26 active torsions:
REMARK  status: ('A' for Active; 'I' for Inactive)
REMARK    1  A    between atoms: O_2  and  C_3
REMARK    2  A    between atoms: C_6  and  C_7
REMARK    3  A    between atoms: C_7  and  C_8
REMARK    4  A    between atoms: C_11  and  O_12
REMARK    5  A    between atoms: C_14  and  O_15
REMARK    6  A    between atoms: N_21  and  C_23
REMARK    7  A    between atoms: C_23  and  C_24
REMARK    8  A    between atoms: C_24  and  C_25
REMARK    9  A    between atoms: C_25  and  O_27
REMARK   10  A    between atoms: O_27  and  C_28
REMARK   11  A    between atoms: C_28  and  C_29
REMARK   12  A    between atoms: C_29  and  C_30
REMARK   13  A    between atoms: C_30  and  C_31
REMARK   14  A    between atoms: C_31  and  C_32
REMARK   15  A    between atoms: C_32  and  O_33
REMARK   16  A    between atoms: O_33  and  C_34
REMARK   17  A    between atoms: C_34  and  C_36
REMARK   18  A    between atoms: C_36  and  C_37
REMARK   19  A    between atoms: C_37  and  N_38
REMARK   20  A    between atoms: C_44  and  O_45
REMARK   21  A    between atoms: C_47  and  O_48
REMARK   22  A    between atoms: C_52  and  C_53
REMARK   23  A    between atoms: C_53  and  C_54
REMARK   24  A    between atoms: C_57  and  O_58
REMARK   25  A    between atoms: C_60  and  O_61
REMARK   26  A    between atoms: C_65  and  O_66
REMARK                            x       y       z     vdW  Elec       q    Type
REMARK                         _______ _______ _______ _____ _____    ______ ____
ROOT
ATOM      1  C   UNL     1       0.524  -0.709  -0.145  0.00  0.00    +0.008 C 
ENDROOT
BRANCH   1   2
ATOM      2  C   UNL     1       1.054   0.388   0.771  0.00  0.00    +0.048 C 
BRANCH   2   3
ATOM      3  C   UNL     1       2.196   1.078   0.035  0.00  0.00    +0.208 C 
BRANCH   3   4
ATOM      4  O   UNL     1       2.928   0.001  -0.546  0.00  0.00    -0.448 OA
BRANCH   4   5
ATOM      5  C   UNL     1       3.247  -1.069   0.299  0.00  0.00    +0.323 C 
ATOM      6  O   UNL     1       3.059  -0.984   1.545  0.00  0.00    -0.250 OA
BRANCH   5   7
ATOM      7  C   UNL     1       4.202  -2.053  -0.245  0.00  0.00    +0.170 C 
BRANCH   7   8
ATOM      8  C   UNL     1       5.169  -2.604   0.738  0.00  0.00    +0.121 C 
BRANCH   8   9
ATOM      9  N   UNL     1       6.239  -1.665   1.104  0.00  0.00    +0.301 N 
ATOM     10  C   UNL     1       5.924  -0.413   0.175  0.00  0.00    +0.086 C 
ATOM     11  C   UNL     1       7.265  -0.535  -0.761  0.00  0.00    +0.027 A 
ATOM     12  C   UNL     1       7.274  -1.738  -1.481  0.00  0.00    -0.012 A 
ATOM     13  C   UNL     1       8.204  -1.800  -2.517  0.00  0.00    +0.036 A 
ATOM     14  C   UNL     1       8.804  -0.645  -3.007  0.00  0.00    +0.172 A 
ATOM     15  C   UNL     1       8.093   0.525  -2.755  0.00  0.00    +0.172 A 
ATOM     16  C   UNL     1       7.247  -2.945  -0.584  0.00  0.00    +0.087 C 
ATOM     17  C   UNL     1       7.201   0.522  -1.682  0.00  0.00    +0.041 A 
ATOM     18  C   UNL     1       7.433  -2.270   0.778  0.00  0.00    +0.114 C 
ATOM     19  C   UNL     1       5.932  -1.320   2.433  0.00  0.00    +0.171 C 
BRANCH  14  20
ATOM     20  O   UNL     1      10.121  -0.626  -3.481  0.00  0.00    -0.468 OA
ATOM     21  C   UNL     1      11.143  -1.188  -2.660  0.00  0.00    +0.253 C 
ENDBRANCH  14  20
BRANCH  15  22
ATOM     22  O   UNL     1       8.786   1.711  -3.030  0.00  0.00    -0.468 OA
ATOM     23  C   UNL     1       9.985   2.054  -2.337  0.00  0.00    +0.253 C 
ENDBRANCH  15  22
BRANCH  10  24
ATOM     24  C   UNL     1       6.594   0.719   1.182  0.00  0.00    +0.086 C 
BRANCH  24  25
ATOM     25  C   UNL     1       7.917   0.320   1.626  0.00  0.00    -0.013 A 
ATOM     26  C   UNL     1       9.095   0.558   0.910  0.00  0.00    +0.036 A 
ATOM     27  C   UNL     1      10.326   0.288   1.439  0.00  0.00    +0.172 A 
ATOM     28  C   UNL     1      10.458   0.495   2.799  0.00  0.00    +0.172 A 
ATOM     29  C   UNL     1       9.325   0.689   3.579  0.00  0.00    +0.040 A 
ATOM     30  C   UNL     1       8.153   0.858   2.907  0.00  0.00    -0.001 A 
BRANCH  28  31
ATOM     31  O   UNL     1      11.694   0.510   3.398  0.00  0.00    -0.468 OA
ATOM     32  C   UNL     1      12.873   0.515   2.614  0.00  0.00    +0.253 C 
ENDBRANCH  28  31
BRANCH  27  33
ATOM     33  O   UNL     1      11.444  -0.030   0.689  0.00  0.00    -0.468 OA
ATOM     34  C   UNL     1      11.234  -0.867  -0.446  0.00  0.00    +0.253 C 
ENDBRANCH  27  33
ENDBRANCH  24  25
ENDBRANCH  10  24
ENDBRANCH   8   9
ENDBRANCH   7   8
ENDBRANCH   5   7
ENDBRANCH   4   5
ENDBRANCH   3   4
ENDBRANCH   2   3
ENDBRANCH   1   2
BRANCH   1  35
ATOM     35  C   UNL     1      -0.429  -0.177  -1.175  0.00  0.00    +0.048 C 
BRANCH  35  36
ATOM     36  C   UNL     1      -0.469   1.342  -1.049  0.00  0.00    +0.208 C 
BRANCH  36  37
ATOM     37  O   UNL     1      -1.769   1.818  -0.812  0.00  0.00    -0.448 OA
BRANCH  37  38
ATOM     38  C   UNL     1      -2.779   0.947  -0.390  0.00  0.00    +0.323 C 
ATOM     39  O   UNL     1      -2.453   0.032   0.390  0.00  0.00    -0.250 OA
BRANCH  38  40
ATOM     40  C   UNL     1      -4.191   1.443  -0.386  0.00  0.00    +0.170 C 
BRANCH  40  41
ATOM     41  C   UNL     1      -4.926   0.803   0.751  0.00  0.00    +0.121 C 
BRANCH  41  43
ATOM     42  C   UNL     1      -7.045  -0.203   0.023  0.00  0.00    +0.086 C 
ATOM     43  N   UNL     1      -5.553  -0.408   0.520  0.00  0.00    +0.301 N 
ATOM     44  C   UNL     1      -5.076  -1.026  -0.726  0.00  0.00    +0.171 C 
ATOM     45  C   UNL     1      -5.499  -1.400   1.506  0.00  0.00    +0.114 C 
ATOM     46  C   UNL     1      -6.378  -2.593   1.297  0.00  0.00    +0.087 C 
ATOM     47  C   UNL     1      -7.743  -2.032   1.566  0.00  0.00    -0.012 A 
ATOM     48  C   UNL     1      -8.845  -2.800   1.781  0.00  0.00    +0.036 A 
ATOM     49  C   UNL     1     -10.104  -2.221   1.689  0.00  0.00    +0.172 A 
ATOM     50  C   UNL     1     -10.135  -0.840   1.852  0.00  0.00    +0.172 A 
ATOM     51  C   UNL     1      -9.006  -0.062   1.607  0.00  0.00    +0.041 A 
ATOM     52  C   UNL     1      -7.752  -0.644   1.435  0.00  0.00    +0.027 A 
BRANCH  50  53
ATOM     53  O   UNL     1     -11.374  -0.278   2.143  0.00  0.00    -0.468 OA
ATOM     54  C   UNL     1     -12.059   0.588   1.248  0.00  0.00    +0.253 C 
ENDBRANCH  50  53
BRANCH  49  55
ATOM     55  O   UNL     1     -11.134  -2.844   0.970  0.00  0.00    -0.468 OA
ATOM     56  C   UNL     1     -11.179  -2.783  -0.457  0.00  0.00    +0.253 C 
ENDBRANCH  49  55
BRANCH  42  57
ATOM     57  C   UNL     1      -7.120   1.409   0.431  0.00  0.00    +0.086 C 
BRANCH  57  61
ATOM     58  C   UNL     1     -10.561   2.109  -1.789  0.00  0.00    +0.172 A 
ATOM     59  C   UNL     1      -9.511   1.483  -2.453  0.00  0.00    +0.172 A 
ATOM     60  C   UNL     1      -8.273   1.367  -1.822  0.00  0.00    +0.036 A 
ATOM     61  C   UNL     1      -8.010   1.985  -0.604  0.00  0.00    -0.013 A 
ATOM     62  C   UNL     1      -8.882   3.026  -0.299  0.00  0.00    -0.001 A 
ATOM     63  C   UNL     1     -10.157   3.057  -0.855  0.00  0.00    +0.040 A 
BRANCH  58  65
ATOM     64  C   UNL     1     -12.107   0.529  -0.862  0.00  0.00    +0.253 C 
ATOM     65  O   UNL     1     -11.827   1.522  -1.679  0.00  0.00    -0.468 OA
ENDBRANCH  58  65
BRANCH  59  66
ATOM     66  O   UNL     1      -9.864   0.486  -3.369  0.00  0.00    -0.468 OA
ATOM     67  C   UNL     1      -8.930  -0.479  -3.829  0.00  0.00    +0.253 C 
ENDBRANCH  59  66
ENDBRANCH  57  61
ENDBRANCH  42  57
ENDBRANCH  41  43
ENDBRANCH  40  41
ENDBRANCH  38  40
ENDBRANCH  37  38
ENDBRANCH  36  37
ENDBRANCH  35  36
ENDBRANCH   1  35
TORSDOF 26
