REMARK  Name = 
REMARK  12 active torsions:
REMARK  status: ('A' for Active; 'I' for Inactive)
REMARK    1  A    between atoms: C_14  and  N_15
REMARK    2  A    between atoms: N_15  and  C_16
REMARK    3  A    between atoms: C_16  and  C_17
REMARK    4  A    between atoms: C_17  and  N_18
REMARK    5  A    between atoms: N_18  and  C_19
REMARK    6  A    between atoms: C_19  and  C_20
REMARK    7  A    between atoms: C_24  and  N_25
REMARK    8  A    between atoms: N_25  and  C_26
REMARK    9  A    between atoms: C_26  and  C_27
REMARK   10  A    between atoms: C_27  and  N_28
REMARK   11  A    between atoms: N_28  and  C_29
REMARK   12  A    between atoms: C_29  and  C_30
REMARK                            x       y       z     vdW  Elec       q    Type
REMARK                         _______ _______ _______ _____ _____    ______ ____
ROOT
ATOM      1  O   UNL     1      -2.715  -1.043   1.288  0.00  0.00    -0.286 OA
ATOM      2  C   UNL     1      -1.553  -1.291   0.861  0.00  0.00    +0.200 C 
ATOM      3  C   UNL     1      -0.673  -0.234   0.346  0.00  0.00    +0.058 A 
ATOM      4  C   UNL     1       0.641  -0.498  -0.012  0.00  0.00    +0.058 A 
ATOM      5  C   UNL     1       1.350   0.315  -0.885  0.00  0.00    +0.069 A 
ATOM      6  C   UNL     1       0.714   1.462  -1.314  0.00  0.00    +0.018 A 
ATOM      7  C   UNL     1      -0.582   1.788  -0.933  0.00  0.00    +0.018 A 
ATOM      8  C   UNL     1       1.258  -1.734   0.486  0.00  0.00    +0.200 C 
ATOM      9  O   UNL     1       2.395  -2.033   0.014  0.00  0.00    -0.286 OA
ATOM     10  C   UNL     1       0.379  -2.780   1.024  0.00  0.00    +0.084 A 
ATOM     11  C   UNL     1       0.933  -4.050   1.132  0.00  0.00    +0.199 A 
ATOM     12  O   UNL     1       2.280  -4.080   1.511  0.00  0.00    -0.286 OA
ATOM     13  C   UNL     1       0.110  -5.159   1.278  0.00  0.00    +0.045 A 
ATOM     14  C   UNL     1      -1.245  -4.961   1.180  0.00  0.00    +0.045 A 
ATOM     15  C   UNL     1      -1.845  -3.733   1.106  0.00  0.00    +0.199 A 
ATOM     16  O   UNL     1      -3.170  -3.483   1.404  0.00  0.00    -0.286 OA
ATOM     17  C   UNL     1      -1.311   0.872  -0.203  0.00  0.00    +0.069 A 
ATOM     18  C   UNL     1      -1.000  -2.648   0.913  0.00  0.00    +0.084 A 
ENDROOT
BRANCH   5  19
ATOM     19  N   UNL     1       2.315  -0.293  -1.739  0.00  0.00    -0.236 NA
BRANCH  19  20
ATOM     20  C   UNL     1       3.430   0.401  -2.323  0.00  0.00    +0.131 C 
BRANCH  20  21
ATOM     21  C   UNL     1       4.254   1.164  -1.321  0.00  0.00    +0.112 C 
BRANCH  21  22
ATOM     22  N   UNL     1       5.250   1.914  -2.085  0.00  0.00    -0.213 NA
BRANCH  22  23
ATOM     23  C   UNL     1       5.187   3.307  -1.655  0.00  0.00    +0.124 C 
BRANCH  23  24
ATOM     24  C   UNL     1       5.167   3.270  -0.131  0.00  0.00    +0.201 C 
ATOM     25  O   UNL     1       6.235   4.046   0.316  0.00  0.00    -0.219 OA
ENDBRANCH  23  24
ENDBRANCH  22  23
ENDBRANCH  21  22
ENDBRANCH  20  21
ENDBRANCH  19  20
ENDBRANCH   5  19
BRANCH  17  26
ATOM     26  N   UNL     1      -2.719   1.078  -0.044  0.00  0.00    -0.236 NA
BRANCH  26  27
ATOM     27  C   UNL     1      -3.671   0.821  -1.094  0.00  0.00    +0.131 C 
BRANCH  27  28
ATOM     28  C   UNL     1      -4.325   2.065  -1.628  0.00  0.00    +0.112 C 
BRANCH  28  29
ATOM     29  N   UNL     1      -4.044   3.232  -0.833  0.00  0.00    -0.213 NA
BRANCH  29  30
ATOM     30  C   UNL     1      -4.763   3.146   0.435  0.00  0.00    +0.124 C 
BRANCH  30  31
ATOM     31  C   UNL     1      -4.697   4.542   1.038  0.00  0.00    +0.201 C 
ATOM     32  O   UNL     1      -3.584   4.596   1.871  0.00  0.00    -0.219 OA
ENDBRANCH  30  31
ENDBRANCH  29  30
ENDBRANCH  28  29
ENDBRANCH  27  28
ENDBRANCH  26  27
ENDBRANCH  17  26
TORSDOF 12
