REMARK  Name = 
REMARK  18 active torsions:
REMARK  status: ('A' for Active; 'I' for Inactive)
REMARK    1  A    between atoms: C_2  and  C_4
REMARK    2  A    between atoms: C_6  and  C_7
REMARK    3  A    between atoms: C_7  and  N_8
REMARK    4  A    between atoms: N_12  and  C_13
REMARK    5  A    between atoms: C_13  and  C_14
REMARK    6  A    between atoms: C_13  and  C_46
REMARK    7  A    between atoms: N_16  and  C_17
REMARK    8  A    between atoms: C_17  and  C_18
REMARK    9  A    between atoms: C_17  and  C_25
REMARK   10  A    between atoms: C_18  and  C_19
REMARK   11  A    between atoms: C_25  and  C_26
REMARK   12  A    between atoms: C_26  and  C_28
REMARK   13  A    between atoms: C_28  and  C_29
REMARK   14  A    between atoms: C_28  and  N_36
REMARK   15  A    between atoms: C_29  and  C_30
REMARK   16  A    between atoms: C_37  and  O_39
REMARK   17  A    between atoms: O_39  and  C_40
REMARK   18  A    between atoms: C_40  and  C_41
REMARK                            x       y       z     vdW  Elec       q    Type
REMARK                         _______ _______ _______ _____ _____    ______ ____
ROOT
ATOM      1  C   UNL     1      -0.918  -2.017  -0.904  0.00  0.00    +0.102 C 
ENDROOT
BRANCH   1   3
ATOM      2  C   UNL     1       1.515  -1.701  -0.203  0.00  0.00    +0.261 C 
ATOM      3  N   UNL     1       0.374  -1.109  -0.827  0.00  0.00    -0.205 NA
ATOM      4  O   UNL     1       1.210  -2.659   0.575  0.00  0.00    -0.271 OA
BRANCH   2   5
ATOM      5  C   UNL     1       2.712  -2.097  -1.225  0.00  0.00    +0.174 C 
BRANCH   5   8
ATOM      6  N   UNL     1       4.402   1.130   0.072  0.00  0.00    -0.255 N 
ATOM      7  C   UNL     1       3.539  -0.016   0.011  0.00  0.00    +0.324 C 
ATOM      8  N   UNL     1       3.334  -0.648  -1.207  0.00  0.00    -0.181 NA
ATOM      9  O   UNL     1       2.912  -0.395   1.019  0.00  0.00    -0.251 OA
ATOM     10  C   UNL     1       4.674   1.900  -1.133  0.00  0.00    +0.117 C 
BRANCH   6  11
ATOM     11  C   UNL     1       5.418   1.060   1.105  0.00  0.00    +0.141 C 
BRANCH  11  15
ATOM     12  C   UNL     1       8.854   1.498   0.038  0.00  0.00    +0.088 A 
ATOM     13  S   UNL     1       8.462   3.171   0.038  0.00  0.00    -0.071 S 
ATOM     14  C   UNL     1       6.779   3.022   0.358  0.00  0.00    +0.053 A 
ATOM     15  C   UNL     1       6.713   1.663   0.652  0.00  0.00    +0.086 A 
ATOM     16  N   UNL     1       7.615   0.964  -0.027  0.00  0.00    -0.245 NA
BRANCH  12  18
ATOM     17  C   UNL     1      10.527  -0.322   0.093  0.00  0.00    +0.007 C 
ATOM     18  C   UNL     1      10.079   0.929  -0.610  0.00  0.00    +0.047 C 
ATOM     19  C   UNL     1      11.163   1.981  -0.602  0.00  0.00    +0.007 C 
ENDBRANCH  12  18
ENDBRANCH  11  15
ENDBRANCH   6  11
ENDBRANCH   5   8
BRANCH   5  20
ATOM     20  C   UNL     1       3.696  -2.643  -0.015  0.00  0.00    +0.029 C 
ATOM     21  C   UNL     1       5.076  -2.506  -0.589  0.00  0.00    +0.002 C 
ATOM     22  C   UNL     1       3.314  -4.089   0.184  0.00  0.00    +0.002 C 
ENDBRANCH   5  20
ENDBRANCH   2   5
ENDBRANCH   1   3
BRANCH   1  23
ATOM     23  C   UNL     1      -2.031  -0.844  -1.165  0.00  0.00    +0.057 C 
BRANCH  23  24
ATOM     24  C   UNL     1      -1.154   0.523  -1.324  0.00  0.00    +0.174 C 
ATOM     25  O   UNL     1      -0.972   0.680   0.174  0.00  0.00    -0.221 OA
BRANCH  24  26
ATOM     26  C   UNL     1      -2.596   1.464  -1.421  0.00  0.00    +0.133 C 
BRANCH  26  27
ATOM     27  N   UNL     1      -3.237   0.965  -0.084  0.00  0.00    -0.168 NA
ATOM     28  C   UNL     1      -4.527   0.414  -0.175  0.00  0.00    +0.421 C 
ATOM     29  O   UNL     1      -5.033  -0.002  -1.250  0.00  0.00    -0.225 OA
BRANCH  28  30
ATOM     30  O   UNL     1      -5.020  -0.273   0.914  0.00  0.00    -0.428 OA
BRANCH  30  31
ATOM     31  C   UNL     1      -6.301  -0.493   1.226  0.00  0.00    +0.245 C 
BRANCH  31  32
ATOM     32  C   UNL     1      -7.409  -0.187   0.374  0.00  0.00    +0.071 A 
ATOM     33  S   UNL     1      -8.881  -1.065   0.542  0.00  0.00    -0.065 S 
ATOM     34  C   UNL     1      -9.824  -0.143  -0.561  0.00  0.00    +0.134 A 
ATOM     35  N   UNL     1      -9.113   1.001  -0.533  0.00  0.00    -0.235 NA
ATOM     36  C   UNL     1      -7.821   0.836  -0.416  0.00  0.00    +0.105 A 
ENDBRANCH  31  32
ENDBRANCH  30  31
ENDBRANCH  28  30
ENDBRANCH  26  27
BRANCH  26  37
ATOM     37  C   UNL     1      -1.895   2.751  -0.699  0.00  0.00    +0.051 C 
BRANCH  37  38
ATOM     38  C   UNL     1      -3.102   3.546  -0.306  0.00  0.00    -0.020 A 
ATOM     39  C   UNL     1      -4.171   3.658  -1.158  0.00  0.00    -0.004 A 
ATOM     40  C   UNL     1      -5.237   4.492  -0.891  0.00  0.00    -0.000 A 
ATOM     41  C   UNL     1      -5.043   5.560  -0.023  0.00  0.00    -0.000 A 
ATOM     42  C   UNL     1      -3.988   5.436   0.863  0.00  0.00    -0.000 A 
ATOM     43  C   UNL     1      -3.079   4.389   0.798  0.00  0.00    -0.004 A 
ENDBRANCH  37  38
ENDBRANCH  26  37
ENDBRANCH  24  26
ENDBRANCH  23  24
ENDBRANCH   1  23
BRANCH   1  44
ATOM     44  C   UNL     1      -1.145  -1.947   0.728  0.00  0.00    +0.048 C 
BRANCH  44  45
ATOM     45  C   UNL     1      -1.782  -3.258   1.077  0.00  0.00    -0.020 A 
ATOM     46  C   UNL     1      -2.032  -4.238   0.122  0.00  0.00    -0.004 A 
ATOM     47  C   UNL     1      -1.961  -5.592   0.434  0.00  0.00    -0.000 A 
ATOM     48  C   UNL     1      -1.233  -5.969   1.557  0.00  0.00    -0.000 A 
ATOM     49  C   UNL     1      -1.200  -5.055   2.604  0.00  0.00    -0.000 A 
ATOM     50  C   UNL     1      -1.664  -3.763   2.368  0.00  0.00    -0.004 A 
ENDBRANCH  44  45
ENDBRANCH   1  44
TORSDOF 18
