REMARK  Name = 
REMARK  4 active torsions:
REMARK  status: ('A' for Active; 'I' for Inactive)
REMARK    1  A    between atoms: N_12  and  C_13
REMARK    2  A    between atoms: C_13  and  C_14
REMARK    3  A    between atoms: C_19  and  C_20
REMARK    4  A    between atoms: C_20  and  N_21
REMARK                            x       y       z     vdW  Elec       q    Type
REMARK                         _______ _______ _______ _____ _____    ______ ____
ROOT
ATOM      1  C   UNL     1      -1.578  -0.104   0.201  0.00  0.00    +0.022 C 
ATOM      2  C   UNL     1      -0.127   0.109  -0.675  0.00  0.00    +0.018 C 
ATOM      3  C   UNL     1      -0.418   1.563  -1.329  0.00  0.00    +0.001 C 
ATOM      4  C   UNL     1      -0.414   2.636  -0.342  0.00  0.00    +0.000 C 
ATOM      5  C   UNL     1      -1.441   2.401   0.699  0.00  0.00    +0.000 C 
ATOM      6  C   UNL     1      -1.418   1.082   1.284  0.00  0.00    +0.002 C 
ENDROOT
BRANCH   1   7
ATOM      7  C   UNL     1      -2.496   0.741  -0.830  0.00  0.00    +0.101 C 
BRANCH   7  10
ATOM      8  O   UNL     1      -4.015   0.495   1.474  0.00  0.00    -0.274 OA
ATOM      9  C   UNL     1      -4.271   0.670   0.900  0.00  0.00    +0.231 C 
ATOM     10  N   UNL     1      -3.874   0.564  -0.428  0.00  0.00    -0.230 N 
ATOM     11  C   UNL     1      -4.852   1.307  -1.041  0.00  0.00    +0.231 C 
ATOM     12  O   UNL     1      -4.936   2.011  -2.091  0.00  0.00    -0.274 OA
ATOM     13  C   UNL     1      -6.261   0.672  -0.622  0.00  0.00    +0.086 C 
ATOM     14  C   UNL     1      -5.613  -0.836  -0.076  0.00  0.00    +0.009 C 
ATOM     15  C   UNL     1      -7.033  -1.565   0.127  0.00  0.00    +0.001 C 
ATOM     16  C   UNL     1      -5.762  -0.829  -0.272  0.00  0.00    +0.009 C 
ATOM     17  C   UNL     1      -4.697  -1.955   0.174  0.00  0.00    +0.001 C 
ATOM     18  C   UNL     1      -5.064  -1.633  -1.339  0.00  0.00    +0.001 C 
ATOM     19  C   UNL     1      -5.845   0.351   1.010  0.00  0.00    +0.086 C 
ENDBRANCH   7  10
ENDBRANCH   1   7
BRANCH   2  20
ATOM     20  C   UNL     1       0.756   0.736   0.514  0.00  0.00    +0.072 C 
BRANCH  20  21
ATOM     21  N   UNL     1       0.988  -0.106   1.574  0.00  0.00    -0.270 NA
ATOM     22  C   UNL     1       1.260  -1.486   1.337  0.00  0.00    +0.094 C 
ATOM     23  C   UNL     1       2.734  -1.631   0.976  0.00  0.00    +0.110 C 
ATOM     24  N   UNL     1       3.125  -0.499   0.134  0.00  0.00    -0.290 N 
ATOM     25  C   UNL     1       4.345  -0.699  -0.602  0.00  0.00    +0.140 A 
ATOM     26  C   UNL     1       5.598  -0.847  -0.027  0.00  0.00    +0.040 A 
ATOM     27  C   UNL     1       6.602  -0.502  -0.909  0.00  0.00    +0.050 A 
ATOM     28  C   UNL     1       7.878  -0.141  -0.520  0.00  0.00    +0.008 A 
ATOM     29  C   UNL     1       8.216  -0.263   0.822  0.00  0.00    +0.001 A 
ATOM     30  C   UNL     1       7.226  -0.675   1.706  0.00  0.00    +0.000 A 
ATOM     31  S   UNL     1       5.865  -0.876  -2.411  0.00  0.00    +0.014 S 
ATOM     32  C   UNL     1       5.899  -0.678   1.323  0.00  0.00    +0.003 A 
ATOM     33  N   UNL     1       4.310  -1.243  -1.843  0.00  0.00    -0.194 NA
ATOM     34  C   UNL     1       3.076   0.767   0.869  0.00  0.00    +0.110 C 
ATOM     35  C   UNL     1       2.237   0.462   2.111  0.00  0.00    +0.094 C 
ENDBRANCH  20  21
ENDBRANCH   2  20
TORSDOF 4
