REMARK  Name = 
REMARK  4 active torsions:
REMARK  status: ('A' for Active; 'I' for Inactive)
REMARK    1  A    between atoms: N_2  and  N_3
REMARK    2  A    between atoms: N_3  and  C_4
REMARK    3  A    between atoms: C_4  and  C_5
REMARK    4  A    between atoms: N_9  and  C_10
REMARK                            x       y       z     vdW  Elec       q    Type
REMARK                         _______ _______ _______ _____ _____    ______ ____
ROOT
ATOM      1  N   UNL     1       1.861  -0.720   0.650  0.00  0.00    -0.127 N 
ATOM      2  C   UNL     1       0.510  -0.939   0.237  0.00  0.00    +0.345 C 
ATOM      3  N   UNL     1      -0.539  -0.020   0.466  0.00  0.00    -0.189 NA
ATOM      4  O   UNL     1       0.294  -1.904  -0.543  0.00  0.00    -0.249 OA
ENDROOT
BRANCH   3   5
ATOM      5  C   UNL     1      -1.533   0.227  -0.537  0.00  0.00    +0.097 C 
ATOM      6  C   UNL     1      -2.703  -0.691  -0.500  0.00  0.00    +0.022 C 
ATOM      7  C   UNL     1      -3.849  -0.222   0.342  0.00  0.00    +0.002 C 
ATOM      8  C   UNL     1      -3.605   1.172   0.853  0.00  0.00    +0.000 C 
ATOM      9  C   UNL     1      -3.209   2.085  -0.276  0.00  0.00    +0.002 C 
ATOM     10  C   UNL     1      -1.852   1.669  -0.755  0.00  0.00    +0.022 C 
ENDBRANCH   3   5
BRANCH   1  12
ATOM     11  O   UNL     1       2.740  -2.785   0.360  0.00  0.00    -0.126 OA
ATOM     12  N   UNL     1       2.535  -1.845   1.164  0.00  0.00    +0.053 NA
ENDBRANCH   1  12
BRANCH   1  13
ATOM     13  C   UNL     1       2.672   0.159  -0.189  0.00  0.00    +0.141 C 
BRANCH  13  14
ATOM     14  C   UNL     1       2.515   1.590   0.313  0.00  0.00    +0.119 C 
ATOM     15 CL   UNL     1       4.163   2.225   0.562  0.00  0.00    -0.112 Cl
ENDBRANCH  13  14
ENDBRANCH   1  13
TORSDOF 4
