REMARK  Name = 
REMARK  8 active torsions:
REMARK  status: ('A' for Active; 'I' for Inactive)
REMARK    1  A    between atoms: C_2  and  N_3
REMARK    2  A    between atoms: N_3  and  C_4
REMARK    3  A    between atoms: N_3  and  C_6
REMARK    4  A    between atoms: C_6  and  C_7
REMARK    5  A    between atoms: C_7  and  C_8
REMARK    6  A    between atoms: C_8  and  C_9
REMARK    7  A    between atoms: C_9  and  N_11
REMARK    8  A    between atoms: N_11  and  C_12
REMARK                            x       y       z     vdW  Elec       q    Type
REMARK                         _______ _______ _______ _____ _____    ______ ____
ROOT
ATOM      1  N   UNL     1      -0.178  -0.496  -1.012  0.00  0.00    -0.239 NA
ENDROOT
BRANCH   1   2
ATOM      2  C   UNL     1      -1.363  -1.043  -0.474  0.00  0.00    +0.068 A 
ATOM      3  C   UNL     1      -2.466  -0.265  -0.191  0.00  0.00    +0.033 A 
ATOM      4  C   UNL     1      -3.674  -0.834   0.159  0.00  0.00    +0.083 A 
ATOM      5  C   UNL     1      -4.851  -0.099   0.093  0.00  0.00    +0.031 A 
ATOM      6  C   UNL     1      -4.843   1.249  -0.142  0.00  0.00    +0.059 A 
ATOM      7  C   UNL     1      -3.621   1.814  -0.444  0.00  0.00    +0.012 A 
ATOM      8 CL   UNL     1      -6.315   2.212  -0.060  0.00  0.00    -0.082 Cl
ATOM      9  N   UNL     1      -3.693  -2.167   0.335  0.00  0.00    -0.244 NA
ATOM     10  C   UNL     1      -2.580  -2.901   0.352  0.00  0.00    +0.100 A 
ATOM     11  C   UNL     1      -2.516   1.024  -0.665  0.00  0.00    +0.004 A 
ATOM     12  C   UNL     1      -1.390  -2.369  -0.058  0.00  0.00    +0.037 A 
ENDBRANCH   1   2
BRANCH   1  13
ATOM     13  C   UNL     1       0.994  -0.299   0.053  0.00  0.00    +0.093 C 
ATOM     14  C   UNL     1       1.818  -1.617  -0.544  0.00  0.00    +0.023 C 
BRANCH  13  15
ATOM     15  C   UNL     1       1.800   0.734  -0.969  0.00  0.00    +0.023 C 
BRANCH  15  16
ATOM     16  C   UNL     1       3.044   1.134  -0.301  0.00  0.00    +0.019 C 
BRANCH  16  17
ATOM     17  C   UNL     1       3.542   0.299   0.821  0.00  0.00    +0.072 C 
BRANCH  17  18
ATOM     18  N   UNL     1       4.994   0.485   0.855  0.00  0.00    -0.273 NA
BRANCH  18  19
ATOM     19  C   UNL     1       5.419   1.591   0.036  0.00  0.00    +0.072 C 
ATOM     20  C   UNL     1       4.876   2.928   0.516  0.00  0.00    +0.019 C 
ENDBRANCH  18  19
BRANCH  18  22
ATOM     21  C   UNL     1       5.466  -0.669  -1.039  0.00  0.00    +0.019 C 
ATOM     22  C   UNL     1       5.537  -0.712   0.212  0.00  0.00    +0.072 C 
ENDBRANCH  18  22
ENDBRANCH  17  18
ENDBRANCH  16  17
ENDBRANCH  15  16
ENDBRANCH  13  15
ENDBRANCH   1  13
TORSDOF 8
