REMARK  Name = 
REMARK  11 active torsions:
REMARK  status: ('A' for Active; 'I' for Inactive)
REMARK    1  A    between atoms: C_2  and  C_3
REMARK    2  A    between atoms: C_3  and  C_4
REMARK    3  A    between atoms: C_4  and  C_5
REMARK    4  A    between atoms: C_5  and  C_8
REMARK    5  A    between atoms: C_17  and  C_18
REMARK    6  A    between atoms: C_18  and  C_19
REMARK    7  A    between atoms: C_19  and  C_20
REMARK    8  A    between atoms: C_20  and  C_21
REMARK    9  A    between atoms: C_21  and  C_22
REMARK   10  A    between atoms: C_22  and  C_23
REMARK   11  A    between atoms: C_23  and  C_24
REMARK                            x       y       z     vdW  Elec       q    Type
REMARK                         _______ _______ _______ _____ _____    ______ ____
ROOT
ATOM      1  C   UNL     1      -2.768  -0.401  -0.437  0.00  0.00    +0.275 C 
ATOM      2  O   UNL     1      -2.111  -1.175  -1.430  0.00  0.00    -0.330 OA
ATOM      3  C   UNL     1      -1.014  -0.136  -1.453  0.00  0.00    +0.126 C 
ATOM      4  C   UNL     1      -0.046  -0.678  -2.647  0.00  0.00    +0.094 C 
ATOM      5  C   UNL     1       0.919   0.251  -1.911  0.00  0.00    +0.153 C 
ATOM      6  C   UNL     1       1.319  -0.873  -0.846  0.00  0.00    +0.060 C 
ATOM      7  O   UNL     1       1.580   1.146  -2.313  0.00  0.00    -0.296 OA
ATOM      8  C   UNL     1      -0.247  -1.045  -0.231  0.00  0.00    +0.035 C 
ATOM      9  C   UNL     1      -0.474   0.352   0.544  0.00  0.00    +0.008 C 
ATOM     10  C   UNL     1      -2.001   0.293   0.575  0.00  0.00    +0.065 C 
ATOM     11  O   UNL     1      -3.211   0.625  -1.323  0.00  0.00    -0.189 OA
ENDROOT
BRANCH   1  12
ATOM     12  C   UNL     1      -3.981  -1.011   0.162  0.00  0.00    +0.312 C 
ATOM     13  F   UNL     1      -3.974  -1.340   1.463  0.00  0.00    -0.199 F 
ATOM     14  F   UNL     1      -4.486  -2.008  -0.600  0.00  0.00    -0.199 F 
BRANCH  12  15
ATOM     15  C   UNL     1      -5.018   0.110   0.145  0.00  0.00    +0.072 C 
BRANCH  15  16
ATOM     16  C   UNL     1      -6.386  -0.305   0.564  0.00  0.00    +0.006 C 
BRANCH  16  18
ATOM     17  C   UNL     1      -6.119   0.271   2.373  0.00  0.00    +0.000 C 
ATOM     18  C   UNL     1      -6.458   0.050   2.052  0.00  0.00    +0.000 C 
ENDBRANCH  16  18
ENDBRANCH  15  16
ENDBRANCH  12  15
ENDBRANCH   1  12
BRANCH   6  19
ATOM     19  C   UNL     1       1.839  -0.050   0.427  0.00  0.00    +0.007 C 
BRANCH  19  20
ATOM     20  C   UNL     1       2.184   1.214   0.640  0.00  0.00    +0.000 C 
BRANCH  20  21
ATOM     21  C   UNL     1       3.123   1.167   1.867  0.00  0.00    +0.000 C 
BRANCH  21  22
ATOM     22  C   UNL     1       4.511   0.834   1.576  0.00  0.00    +0.001 C 
BRANCH  22  23
ATOM     23  C   UNL     1       4.841  -0.504   1.022  0.00  0.00    +0.012 C 
BRANCH  23  24
ATOM     24  C   UNL     1       5.674  -0.447  -0.223  0.00  0.00    +0.114 C 
BRANCH  24  25
ATOM     25  C   UNL     1       6.997   0.180  -0.029  0.00  0.00    +0.365 C 
ATOM     26  O   UNL     1       7.904   0.173  -1.065  0.00  0.00    -0.246 OA
ATOM     27  O   UNL     1       7.401   0.528   1.099  0.00  0.00    -0.246 OA
ENDBRANCH  24  25
ENDBRANCH  23  24
ENDBRANCH  22  23
ENDBRANCH  21  22
ENDBRANCH  20  21
ENDBRANCH  19  20
ENDBRANCH   6  19
TORSDOF 11
