REMARK  Name = 
REMARK  7 active torsions:
REMARK  status: ('A' for Active; 'I' for Inactive)
REMARK    1  A    between atoms: C_2  and  N_3
REMARK    2  A    between atoms: C_2  and  C_20
REMARK    3  A    between atoms: N_3  and  C_4
REMARK    4  A    between atoms: C_4  and  C_5
REMARK    5  A    between atoms: C_8  and  O_9
REMARK    6  A    between atoms: O_9  and  C_10
REMARK    7  A    between atoms: C_10  and  C_11
REMARK                            x       y       z     vdW  Elec       q    Type
REMARK                         _______ _______ _______ _____ _____    ______ ____
ROOT
ATOM      1  C   UNL     1       2.107  -1.550  -0.362  0.00  0.00    -0.005 A 
ATOM      2  C   UNL     1       1.077  -1.733  -1.285  0.00  0.00    +0.000 A 
ATOM      3  C   UNL     1      -0.256  -1.577  -0.927  0.00  0.00    +0.037 A 
ATOM      4  C   UNL     1      -0.482  -1.195   0.391  0.00  0.00    +0.139 A 
ATOM      5  C   UNL     1       0.545  -1.178   1.326  0.00  0.00    +0.037 A 
ATOM      6  C   UNL     1       1.692  -1.857   0.933  0.00  0.00    +0.000 A 
ENDROOT
BRANCH   1   7
ATOM      7  C   UNL     1       3.447  -1.838  -0.876  0.00  0.00    +0.115 C 
BRANCH   7   8
ATOM      8  N   UNL     1       4.525  -1.092  -0.363  0.00  0.00    -0.205 NA
BRANCH   8  10
ATOM      9  C   UNL     1       4.604  -0.779   1.957  0.00  0.00    +0.029 C 
ATOM     10  C   UNL     1       3.916  -0.003   0.641  0.00  0.00    +0.152 C 
BRANCH  10  11
ATOM     11  C   UNL     1       5.242   0.955   0.473  0.00  0.00    +0.277 C 
ATOM     12  O   UNL     1       5.419   1.319  -0.710  0.00  0.00    -0.270 OA
ATOM     13  N   UNL     1       5.227   1.926   1.521  0.00  0.00    -0.087 NA
ENDBRANCH  10  11
ENDBRANCH   8  10
ENDBRANCH   7   8
ENDBRANCH   1   7
BRANCH   4  14
ATOM     14  O   UNL     1      -1.730  -0.715   0.800  0.00  0.00    -0.471 OA
BRANCH  14  15
ATOM     15  C   UNL     1      -1.962   0.689   0.857  0.00  0.00    +0.232 C 
BRANCH  15  16
ATOM     16  C   UNL     1      -3.392   0.924   0.497  0.00  0.00    +0.023 A 
ATOM     17  C   UNL     1      -3.698   1.877  -0.466  0.00  0.00    +0.029 A 
ATOM     18  C   UNL     1      -4.988   1.938  -0.919  0.00  0.00    +0.140 A 
ATOM     19  F   UNL     1      -5.355   2.699  -1.973  0.00  0.00    -0.204 F 
ATOM     20  C   UNL     1      -5.978   1.158  -0.335  0.00  0.00    +0.030 A 
ATOM     21  C   UNL     1      -5.638   0.048   0.415  0.00  0.00    +0.002 A 
ATOM     22  C   UNL     1      -4.321  -0.018   0.834  0.00  0.00    -0.001 A 
ENDBRANCH  15  16
ENDBRANCH  14  15
ENDBRANCH   4  14
TORSDOF 7
