REMARK  Name = 
REMARK  8 active torsions:
REMARK  status: ('A' for Active; 'I' for Inactive)
REMARK    1  A    between atoms: C_2  and  O_3
REMARK    2  A    between atoms: C_2  and  C_24
REMARK    3  A    between atoms: O_3  and  C_4
REMARK    4  A    between atoms: N_8  and  C_9
REMARK    5  A    between atoms: C_9  and  C_10
REMARK    6  A    between atoms: C_16  and  C_17
REMARK    7  A    between atoms: C_26  and  C_27
REMARK    8  A    between atoms: C_32  and  C_33
REMARK                            x       y       z     vdW  Elec       q    Type
REMARK                         _______ _______ _______ _____ _____    ______ ____
ROOT
ATOM      1  C   UNL     1      -0.267   1.510  -1.053  0.00  0.00    +0.255 C 
ATOM      2  C   UNL     1      -1.792   1.982  -0.354  0.00  0.00    +0.138 C 
ATOM      3  N   UNL     1      -2.544   1.125  -1.424  0.00  0.00    -0.258 NA
ATOM      4  C   UNL     1      -2.160  -0.164  -1.500  0.00  0.00    +0.105 C 
ATOM      5  C   UNL     1      -0.718  -0.522  -1.718  0.00  0.00    +0.162 C 
ATOM      6  O   UNL     1      -0.228   0.083  -0.527  0.00  0.00    -0.328 OA
ENDROOT
BRANCH   2   7
ATOM      7  C   UNL     1      -1.907   0.985   0.866  0.00  0.00    -0.003 A 
ATOM      8  C   UNL     1      -1.751  -0.250   1.089  0.00  0.00    -0.001 A 
ATOM      9  C   UNL     1      -2.459  -1.194   1.748  0.00  0.00    +0.029 A 
ATOM     10  C   UNL     1      -3.707  -0.763   2.199  0.00  0.00    +0.140 A 
ATOM     11  F   UNL     1      -4.781  -1.587   1.985  0.00  0.00    -0.204 F 
ATOM     12  C   UNL     1      -3.828   0.619   2.311  0.00  0.00    +0.029 A 
ATOM     13  C   UNL     1      -2.954   1.492   1.655  0.00  0.00    -0.001 A 
ENDBRANCH   2   7
BRANCH   3  14
ATOM     14  C   UNL     1      -3.900   1.359  -1.372  0.00  0.00    +0.141 C 
BRANCH  14  15
ATOM     15  C   UNL     1      -4.749   0.133  -1.441  0.00  0.00    +0.182 A 
ATOM     16  N   UNL     1      -5.942   0.147  -0.793  0.00  0.00    -0.171 NA
ATOM     17  C   UNL     1      -6.051  -1.018  -0.104  0.00  0.00    +0.388 A 
ATOM     18  O   UNL     1      -6.705  -1.248   0.956  0.00  0.00    -0.241 OA
ATOM     19  N   UNL     1      -5.307  -1.877  -0.841  0.00  0.00    -0.087 NA
ATOM     20  N   UNL     1      -4.500  -1.163  -1.602  0.00  0.00    -0.127 NA
ENDBRANCH  14  15
ENDBRANCH   3  14
BRANCH   1  21
ATOM     21  O   UNL     1       0.572   2.202   0.009  0.00  0.00    -0.327 OA
BRANCH  21  23
ATOM     22  C   UNL     1       1.674   2.275   1.928  0.00  0.00    +0.037 C 
ATOM     23  C   UNL     1       1.115   1.106   0.891  0.00  0.00    +0.140 C 
BRANCH  23  24
ATOM     24  C   UNL     1       2.514   0.911   0.079  0.00  0.00    +0.005 A 
ATOM     25  C   UNL     1       2.644  -0.413  -0.345  0.00  0.00    +0.002 A 
ATOM     26  C   UNL     1       3.654  -1.261  -0.081  0.00  0.00    +0.071 A 
ATOM     27  C   UNL     1       4.742  -0.741   0.611  0.00  0.00    +0.008 A 
ATOM     28  C   UNL     1       4.872   0.643   0.650  0.00  0.00    +0.071 A 
ATOM     29  C   UNL     1       3.669   1.352   0.629  0.00  0.00    +0.002 A 
BRANCH  26  30
ATOM     30  C   UNL     1       3.705  -2.595  -0.759  0.00  0.00    +0.419 C 
ATOM     31  F   UNL     1       4.978  -2.936  -1.143  0.00  0.00    -0.166 F 
ATOM     32  F   UNL     1       2.955  -2.489  -1.927  0.00  0.00    -0.166 F 
ATOM     33  F   UNL     1       3.147  -3.543   0.063  0.00  0.00    -0.166 F 
ENDBRANCH  26  30
BRANCH  28  34
ATOM     34  C   UNL     1       6.185   1.329   0.481  0.00  0.00    +0.419 C 
ATOM     35  F   UNL     1       6.230   1.957  -0.760  0.00  0.00    -0.166 F 
ATOM     36  F   UNL     1       7.147   0.324   0.408  0.00  0.00    -0.166 F 
ATOM     37  F   UNL     1       6.446   2.230   1.467  0.00  0.00    -0.166 F 
ENDBRANCH  28  34
ENDBRANCH  23  24
ENDBRANCH  21  23
ENDBRANCH   1  21
TORSDOF 8
