REMARK  Name = 
REMARK  2 active torsions:
REMARK  status: ('A' for Active; 'I' for Inactive)
REMARK    1  A    between atoms: C_2  and  C_4
REMARK    2  A    between atoms: C_4  and  C_5
REMARK                            x       y       z     vdW  Elec       q    Type
REMARK                         _______ _______ _______ _____ _____    ______ ____
ROOT
ATOM      1  C   UNL     1       0.245  -0.037  -0.011  0.00  0.00    -0.021 A 
ATOM      2  C   UNL     1      -0.464   0.516  -1.081  0.00  0.00    -0.001 A 
ATOM      3  C   UNL     1      -1.822   0.666  -1.042  0.00  0.00    +0.042 A 
ATOM      4  C   UNL     1      -2.555   0.062  -0.058  0.00  0.00    +0.196 A 
ATOM      5  O   UNL     1      -3.779   0.607   0.347  0.00  0.00    -0.287 OA
ATOM      6  C   UNL     1      -1.899  -0.711   0.872  0.00  0.00    +0.042 A 
ATOM      7  C   UNL     1      -0.547  -0.866   0.786  0.00  0.00    -0.001 A 
ENDROOT
BRANCH   1   8
ATOM      8  C   UNL     1       1.569  -0.628  -0.384  0.00  0.00    +0.045 C 
BRANCH   8  10
ATOM      9  C   UNL     1       3.832  -0.845   0.247  0.00  0.00    +0.021 C 
ATOM     10  C   UNL     1       2.530  -0.013   0.797  0.00  0.00    +0.096 C 
ATOM     11  N   UNL     1       2.890   1.248  -0.072  0.00  0.00    -0.133 NA
ENDBRANCH   8  10
ENDBRANCH   1   8
TORSDOF 2
