REMARK  Name = 
REMARK  9 active torsions:
REMARK  status: ('A' for Active; 'I' for Inactive)
REMARK    1  A    between atoms: O_2  and  C_3
REMARK    2  A    between atoms: C_5  and  C_6
REMARK    3  A    between atoms: N_8  and  S_9
REMARK    4  A    between atoms: S_9  and  C_12
REMARK    5  A    between atoms: C_21  and  C_22
REMARK    6  A    between atoms: C_22  and  C_23
REMARK    7  A    between atoms: C_30  and  N_31
REMARK    8  A    between atoms: C_32  and  O_34
REMARK    9  A    between atoms: O_34  and  C_35
REMARK                            x       y       z     vdW  Elec       q    Type
REMARK                         _______ _______ _______ _____ _____    ______ ____
ROOT
ATOM      1  C   UNL     1      -1.348  -2.212  -0.757  0.00  0.00    +0.135 A 
ATOM      2  C   UNL     1      -0.363  -1.742   0.101  0.00  0.00    +0.016 A 
ATOM      3  C   UNL     1      -0.785  -0.957   1.165  0.00  0.00    -0.001 A 
ATOM      4  C   UNL     1      -2.058  -1.176   1.674  0.00  0.00    +0.005 A 
ATOM      5  C   UNL     1      -3.075  -1.633   0.845  0.00  0.00    +0.062 A 
ATOM      6  C   UNL     1      -2.680  -2.150  -0.377  0.00  0.00    +0.041 A 
ENDROOT
BRANCH   5   7
ATOM      7  C   UNL     1      -4.449  -1.194   1.106  0.00  0.00    +0.297 C 
ATOM      8  N   UNL     1      -5.064  -0.347   0.335  0.00  0.00    -0.086 NA
ATOM      9  O   UNL     1      -4.840  -1.202   2.448  0.00  0.00    -0.264 OA
BRANCH   8  10
ATOM     10  S   UNL     1      -6.077   0.901   0.937  0.00  0.00    +0.103 S 
ATOM     11  O   UNL     1      -5.399   2.218   0.640  0.00  0.00    -0.146 OA
ATOM     12  O   UNL     1      -6.305   0.775   2.423  0.00  0.00    -0.146 OA
BRANCH  10  13
ATOM     13  C   UNL     1      -7.628   0.933   0.153  0.00  0.00    +0.125 A 
ATOM     14  C   UNL     1      -8.034   0.000  -0.778  0.00  0.00    -0.003 A 
ATOM     15  C   UNL     1      -7.203  -1.208  -0.975  0.00  0.00    +0.032 C 
ATOM     16  C   UNL     1      -9.190   0.250  -1.504  0.00  0.00    -0.003 A 
ATOM     17  C   UNL     1      -9.751   1.518  -1.460  0.00  0.00    -0.000 A 
ATOM     18  C   UNL     1      -9.579   2.246  -0.293  0.00  0.00    +0.001 A 
ATOM     19  C   UNL     1      -8.524   1.901   0.521  0.00  0.00    +0.020 A 
ENDBRANCH  10  13
ENDBRANCH   8  10
ENDBRANCH   5   7
BRANCH   1  21
ATOM     20  C   UNL     1      -1.924  -3.170  -2.868  0.00  0.00    +0.252 C 
ATOM     21  O   UNL     1      -0.967  -3.010  -1.827  0.00  0.00    -0.472 OA
ENDBRANCH   1  21
BRANCH   2  22
ATOM     22  C   UNL     1       1.046  -2.172  -0.073  0.00  0.00    +0.057 C 
BRANCH  22  23
ATOM     23  C   UNL     1       1.805  -1.156  -0.867  0.00  0.00    +0.001 A 
ATOM     24  C   UNL     1       2.849  -0.342  -0.443  0.00  0.00    +0.015 A 
ATOM     25  C   UNL     1       2.956   0.713  -1.341  0.00  0.00    +0.060 A 
ATOM     26  C   UNL     1       3.493   1.893  -0.841  0.00  0.00    +0.019 A 
ATOM     27  C   UNL     1       4.246   1.890   0.327  0.00  0.00    +0.018 A 
ATOM     28  C   UNL     1       4.434   0.723   1.058  0.00  0.00    +0.077 A 
ATOM     29  N   UNL     1       2.121   0.457  -2.357  0.00  0.00    -0.324 N 
ATOM     30  C   UNL     1       1.877   1.388  -3.440  0.00  0.00    +0.130 C 
ATOM     31  C   UNL     1       3.530  -0.292   0.767  0.00  0.00    +0.018 A 
ATOM     32  C   UNL     1       1.315  -0.564  -2.025  0.00  0.00    +0.072 A 
BRANCH  28  33
ATOM     33  N   UNL     1       5.692   0.433   1.681  0.00  0.00    -0.142 NA
ATOM     34  C   UNL     1       6.864   1.204   1.433  0.00  0.00    +0.425 C 
ATOM     35  O   UNL     1       6.677   2.438   1.220  0.00  0.00    -0.224 OA
BRANCH  34  36
ATOM     36  O   UNL     1       8.102   0.660   1.163  0.00  0.00    -0.437 OA
BRANCH  36  37
ATOM     37  C   UNL     1       9.122   1.346   0.440  0.00  0.00    +0.171 C 
ATOM     38  C   UNL     1       8.898   0.994  -1.026  0.00  0.00    +0.044 C 
ATOM     39  C   UNL     1       9.246  -0.485  -1.019  0.00  0.00    +0.004 C 
ATOM     40  C   UNL     1      10.516  -0.537  -0.193  0.00  0.00    +0.004 C 
ATOM     41  C   UNL     1      10.454   0.668   0.720  0.00  0.00    +0.044 C 
ENDBRANCH  36  37
ENDBRANCH  34  36
ENDBRANCH  28  33
ENDBRANCH  22  23
ENDBRANCH   2  22
TORSDOF 9
