REMARK  Name = 
REMARK  7 active torsions:
REMARK  status: ('A' for Active; 'I' for Inactive)
REMARK    1  A    between atoms: C_2  and  C_3
REMARK    2  A    between atoms: C_3  and  C_4
REMARK    3  A    between atoms: C_6  and  C_7
REMARK    4  A    between atoms: N_9  and  C_10
REMARK    5  A    between atoms: C_10  and  C_11
REMARK    6  A    between atoms: C_10  and  C_14
REMARK    7  A    between atoms: C_16  and  S_17
REMARK                            x       y       z     vdW  Elec       q    Type
REMARK                         _______ _______ _______ _____ _____    ______ ____
ROOT
ATOM      1  C   UNL     1       0.902  -0.773  -0.634  0.00  0.00    +0.155 C 
ENDROOT
BRANCH   1   2
ATOM      2  C   UNL     1       1.859   0.249   0.365  0.00  0.00    +0.172 C 
ATOM      3  C   UNL     1       2.421   1.258  -0.920  0.00  0.00    +0.213 C 
ATOM      4  O   UNL     1       1.898   0.396  -2.074  0.00  0.00    -0.218 OA
ATOM      5  C   UNL     1       4.068   0.858  -1.253  0.00  0.00    +0.218 C 
ATOM      6  O   UNL     1       3.831  -0.595  -1.701  0.00  0.00    -0.217 OA
ATOM      7  C   UNL     1       4.890   0.360   0.187  0.00  0.00    +0.222 C 
ATOM      8  O   UNL     1       5.449   1.750   0.506  0.00  0.00    -0.217 OA
ATOM      9  C   UNL     1       3.665   0.410   1.354  0.00  0.00    +0.195 C 
ATOM     10  O   UNL     1       3.086  -0.575   0.378  0.00  0.00    -0.341 OA
BRANCH   9  11
ATOM     11  S   UNL     1       3.001   2.168   0.918  0.00  0.00    -0.108 S 
ATOM     12  C   UNL     1       4.017   3.412   1.562  0.00  0.00    +0.072 C 
ENDBRANCH   9  11
ENDBRANCH   1   2
BRANCH   1  13
ATOM     13  C   UNL     1       0.632  -2.043   0.494  0.00  0.00    +0.174 C 
ATOM     14  O   UNL     1       1.308  -1.405   1.706  0.00  0.00    -0.221 OA
ATOM     15  C   UNL     1       2.010  -2.881   0.057  0.00  0.00    +0.037 C 
ENDBRANCH   1  13
BRANCH   1  17
ATOM     16  C   UNL     1      -1.635  -0.726  -0.329  0.00  0.00    +0.256 C 
ATOM     17  N   UNL     1      -0.397  -0.026  -0.184  0.00  0.00    -0.201 NA
ATOM     18  O   UNL     1      -1.457  -1.881  -0.746  0.00  0.00    -0.272 OA
BRANCH  16  23
ATOM     19  C   UNL     1      -4.833   0.265   1.143  0.00  0.00    +0.018 C 
ATOM     20  C   UNL     1      -4.915  -1.302   0.667  0.00  0.00    +0.073 C 
ATOM     21  N   UNL     1      -3.648  -1.712   0.350  0.00  0.00    -0.265 NA
ATOM     22  C   UNL     1      -3.239  -2.890   1.120  0.00  0.00    +0.090 C 
ATOM     23  C   UNL     1      -2.685  -0.577   0.922  0.00  0.00    +0.137 C 
ATOM     24  C   UNL     1      -3.565   0.599   0.138  0.00  0.00    +0.027 C 
BRANCH  19  25
ATOM     25  C   UNL     1      -5.977   0.686   0.022  0.00  0.00    +0.001 C 
BRANCH  25  27
ATOM     26  C   UNL     1      -5.203   3.039   0.317  0.00  0.00    +0.000 C 
ATOM     27  C   UNL     1      -5.485   1.934  -0.625  0.00  0.00    +0.000 C 
ENDBRANCH  25  27
ENDBRANCH  19  25
ENDBRANCH  16  23
ENDBRANCH   1  17
TORSDOF 7
