REMARK  Name = 
REMARK  0 active torsions:
REMARK  status: ('A' for Active; 'I' for Inactive)
REMARK                            x       y       z     vdW  Elec       q    Type
REMARK                         _______ _______ _______ _____ _____    ______ ____
ROOT
ATOM      1  C   UNL     1       0.757  -1.654  -0.217  0.00  0.00    +0.000 C 
ATOM      2  C   UNL     1       0.850  -0.430   0.098  0.00  0.00    +0.007 C 
ATOM      3  C   UNL     1      -0.351   0.155   0.752  0.00  0.00    +0.052 C 
ATOM      4  C   UNL     1      -1.288  -0.421  -0.264  0.00  0.00    +0.150 C 
ATOM      5  C   UNL     1      -0.877   0.243  -1.482  0.00  0.00    +0.064 C 
ATOM      6  O   UNL     1      -1.856  -1.468  -0.110  0.00  0.00    -0.296 OA
ATOM      7  C   UNL     1      -0.565  -0.268   2.129  0.00  0.00    +0.007 C 
ATOM      8  C   UNL     1      -0.281   1.605   0.461  0.00  0.00    +0.007 C 
ATOM      9  C   UNL     1       0.688   1.833  -0.635  0.00  0.00    +0.001 C 
ATOM     10  C   UNL     1       0.760   0.349  -1.351  0.00  0.00    +0.008 C 
ATOM     11  C   UNL     1       2.163   0.056   0.619  0.00  0.00    +0.000 C 
ENDROOT
TORSDOF 0
