REMARK  Name = 
REMARK  3 active torsions:
REMARK  status: ('A' for Active; 'I' for Inactive)
REMARK    1  A    between atoms: C_2  and  N_3
REMARK    2  A    between atoms: N_3  and  C_4
REMARK    3  A    between atoms: C_13  and  S_14
REMARK                            x       y       z     vdW  Elec       q    Type
REMARK                         _______ _______ _______ _____ _____    ______ ____
ROOT
ATOM      1  C   UNL     1      -1.582   0.788   0.812  0.00  0.00    +0.098 C 
ATOM      2  C   UNL     1      -0.290   0.352  -0.068  0.00  0.00    +0.019 A 
ATOM      3  C   UNL     1      -0.512  -1.011  -0.291  0.00  0.00    +0.134 A 
ATOM      4  S   UNL     1       1.056  -1.486  -0.789  0.00  0.00    -0.049 S 
ATOM      5  C   UNL     1       1.942  -0.122  -0.228  0.00  0.00    +0.155 A 
ATOM      6  S   UNL     1      -1.944  -1.860   0.148  0.00  0.00    +0.012 S 
ATOM      7  O   UNL     1      -1.943  -2.503   1.465  0.00  0.00    -0.168 OA
ATOM      8  O   UNL     1      -2.177  -2.931  -0.894  0.00  0.00    -0.168 OA
ATOM      9  C   UNL     1      -3.425  -0.750  -0.051  0.00  0.00    +0.136 C 
ATOM     10  C   UNL     1      -3.622  -0.378   1.489  0.00  0.00    +0.026 C 
ATOM     11  C   UNL     1       0.955   0.472   0.550  0.00  0.00    +0.026 A 
ATOM     12  C   UNL     1      -2.615   0.561  -0.451  0.00  0.00    +0.046 C 
ENDROOT
BRANCH   5  13
ATOM     13  S   UNL     1       3.676  -0.031   0.092  0.00  0.00    +0.099 S 
ATOM     14  O   UNL     1       4.257   1.041  -0.765  0.00  0.00    -0.150 OA
ATOM     15  O   UNL     1       4.343  -1.356  -0.177  0.00  0.00    -0.150 OA
ATOM     16  N   UNL     1       3.893   0.329   1.766  0.00  0.00    +0.040 NA
ENDBRANCH   5  13
BRANCH   1  17
ATOM     17  N   UNL     1      -1.514   2.329   0.510  0.00  0.00    -0.215 NA
BRANCH  17  19
ATOM     18  C   UNL     1      -0.181   3.832   0.059  0.00  0.00    +0.020 C 
ATOM     19  C   UNL     1      -0.318   2.724  -0.053  0.00  0.00    +0.089 C 
ENDBRANCH  17  19
ENDBRANCH   1  17
TORSDOF 3
