REMARK  Name = 
REMARK  3 active torsions:
REMARK  status: ('A' for Active; 'I' for Inactive)
REMARK    1  A    between atoms: N_2  and  C_3
REMARK    2  A    between atoms: C_3  and  C_4
REMARK    3  A    between atoms: C_4  and  O_7
REMARK                            x       y       z     vdW  Elec       q    Type
REMARK                         _______ _______ _______ _____ _____    ______ ____
ROOT
ATOM      1  C   UNL     1      -0.459   0.139  -0.218  0.00  0.00    +0.180 C 
ATOM      2  C   UNL     1      -1.063   1.512   0.019  0.00  0.00    +0.038 C 
ATOM      3  C   UNL     1      -0.191  -0.456   1.138  0.00  0.00    +0.038 C 
ENDROOT
BRANCH   1   4
ATOM      4  O   UNL     1      -1.414  -0.604  -0.929  0.00  0.00    -0.348 OA
ATOM      5  C   UNL     1      -2.433  -1.044  -0.090  0.00  0.00    +0.174 C 
ENDBRANCH   1   4
BRANCH   1   6
ATOM      6  C   UNL     1       0.764   0.229  -1.080  0.00  0.00    +0.438 C 
BRANCH   6   8
ATOM      7  C   UNL     1       2.897   0.253   0.243  0.00  0.00    -0.236 C 
ATOM      8  N   UNL     1       1.899  -0.029  -0.292  0.00  0.00    -0.285 NA
ENDBRANCH   6   8
ENDBRANCH   1   6
TORSDOF 3
