REMARK  Name = 
REMARK  2 active torsions:
REMARK  status: ('A' for Active; 'I' for Inactive)
REMARK    1  A    between atoms: C_2  and  C_3
REMARK    2  A    between atoms: C_21  and  C_22
REMARK                            x       y       z     vdW  Elec       q    Type
REMARK                         _______ _______ _______ _____ _____    ______ ____
ROOT
ATOM      1  C   UNL     1      -3.486  -0.316  -0.198  0.00  0.00    +0.180 C 
ATOM      2  C   UNL     1      -2.087  -0.433   0.271  0.00  0.00    +0.037 C 
ATOM      3  C   UNL     1      -1.455   0.591  -0.844  0.00  0.00    +0.003 C 
ATOM      4  C   UNL     1      -0.082   0.904   0.126  0.00  0.00    +0.001 C 
ATOM      5  C   UNL     1       0.742  -0.394  -0.582  0.00  0.00    +0.004 C 
ATOM      6  C   UNL     1       0.079  -1.473   0.425  0.00  0.00    +0.000 C 
ATOM      7  C   UNL     1       2.068  -0.155   0.477  0.00  0.00    +0.019 C 
ATOM      8  C   UNL     1       2.711   0.966  -0.499  0.00  0.00    -0.042 C 
ATOM      9  C   UNL     1       4.016   1.079  -0.305  0.00  0.00    +0.029 C 
ATOM     10  C   UNL     1       4.883  -0.009   0.089  0.00  0.00    +0.173 C 
ATOM     11  C   UNL     1       4.217  -1.282   0.509  0.00  0.00    +0.069 C 
ATOM     12  O   UNL     1       6.047  -0.162  -0.394  0.00  0.00    -0.291 OA
ATOM     13  C   UNL     1       1.943   2.239  -0.545  0.00  0.00    +0.022 C 
ATOM     14  C   UNL     1       2.924  -1.362  -0.256  0.00  0.00    +0.012 C 
ATOM     15  C   UNL     1       0.506   1.957  -0.955  0.00  0.00    +0.004 C 
ATOM     16  C   UNL     1      -2.312   1.821  -0.173  0.00  0.00    +0.004 C 
ATOM     17  C   UNL     1      -1.354  -1.671   0.021  0.00  0.00    +0.003 C 
ATOM     18  C   UNL     1      -3.701   1.193  -0.184  0.00  0.00    +0.043 C 
ATOM     19  O   UNL     1      -4.320  -0.939   0.738  0.00  0.00    -0.212 OA
ENDROOT
BRANCH   1  21
ATOM     20  C   UNL     1      -4.065  -1.218  -2.540  0.00  0.00    -0.012 C 
ATOM     21  C   UNL     1      -3.676  -0.860  -1.538  0.00  0.00    -0.049 C 
ENDBRANCH   1  21
BRANCH   2  22
ATOM     22  C   UNL     1      -1.947   0.219   1.594  0.00  0.00    +0.003 C 
ATOM     23  C   UNL     1      -1.651  -0.695   2.736  0.00  0.00    +0.000 C 
ENDBRANCH   2  22
TORSDOF 2
