REMARK  Name = 
REMARK  10 active torsions:
REMARK  status: ('A' for Active; 'I' for Inactive)
REMARK    1  A    between atoms: O_2  and  C_3
REMARK    2  A    between atoms: C_3  and  C_4
REMARK    3  A    between atoms: C_4  and  O_5
REMARK    4  A    between atoms: O_5  and  C_6
REMARK    5  A    between atoms: C_6  and  C_8
REMARK    6  A    between atoms: C_14  and  C_15
REMARK    7  A    between atoms: C_15  and  O_17
REMARK    8  A    between atoms: O_17  and  C_18
REMARK    9  A    between atoms: C_21  and  C_22
REMARK   10  A    between atoms: C_26  and  N_27
REMARK                            x       y       z     vdW  Elec       q    Type
REMARK                         _______ _______ _______ _____ _____    ______ ____
ROOT
ATOM      1  C   UNL     1       1.421   0.047  -0.184  0.00  0.00    +0.073 C 
ATOM      2  C   UNL     1       0.002   0.390  -0.876  0.00  0.00    +0.082 C 
ATOM      3  C   UNL     1      -0.551   1.274   0.352  0.00  0.00    +0.073 C 
ATOM      4  C   UNL     1       0.288   2.026   1.000  0.00  0.00    +0.051 C 
ATOM      5  C   UNL     1      -0.263   2.779   2.171  0.00  0.00    +0.049 C 
ATOM      6  N   UNL     1       1.635   2.240   0.555  0.00  0.00    -0.221 NA
ATOM      7  C   UNL     1       2.167   1.151  -0.198  0.00  0.00    +0.051 C 
ATOM      8  C   UNL     1       3.506   1.273  -0.793  0.00  0.00    +0.049 C 
ENDROOT
BRANCH   2   9
ATOM      9  C   UNL     1      -0.670  -0.970  -0.319  0.00  0.00    -0.008 A 
ATOM     10  C   UNL     1      -2.027  -0.862  -0.027  0.00  0.00    +0.072 A 
ATOM     11  C   UNL     1      -2.757  -1.996   0.216  0.00  0.00    +0.290 A 
ATOM     12  C   UNL     1      -2.203  -3.208  -0.129  0.00  0.00    +0.075 A 
ATOM     13  C   UNL     1      -0.929  -3.281  -0.678  0.00  0.00    +0.006 A 
ATOM     14  C   UNL     1      -0.413  -2.072  -1.134  0.00  0.00    -0.003 A 
BRANCH  11  15
ATOM     15  N   UNL     1      -4.094  -1.937   0.667  0.00  0.00    +0.081 N 
ATOM     16  O   UNL     1      -4.623  -0.784   1.201  0.00  0.00    -0.576 OA
ATOM     17  O   UNL     1      -4.863  -2.873   0.384  0.00  0.00    +0.041 OA
ENDBRANCH  11  15
ENDBRANCH   2   9
BRANCH   1  18
ATOM     18  C   UNL     1       2.094  -1.148  -0.708  0.00  0.00    +0.339 C 
ATOM     19  O   UNL     1       2.580  -1.164  -1.879  0.00  0.00    -0.245 OA
BRANCH  18  20
ATOM     20  O   UNL     1       2.502  -2.171   0.133  0.00  0.00    -0.443 OA
BRANCH  20  21
ATOM     21  C   UNL     1       3.693  -2.898  -0.015  0.00  0.00    +0.241 C 
BRANCH  21  22
ATOM     22  C   UNL     1       4.825  -2.144   0.649  0.00  0.00    +0.190 C 
BRANCH  22  24
ATOM     23  C   UNL     1       6.555  -1.091  -0.477  0.00  0.00    +0.174 C 
ATOM     24  O   UNL     1       6.022  -2.274  -0.025  0.00  0.00    -0.347 OA
ENDBRANCH  22  24
ENDBRANCH  21  22
ENDBRANCH  20  21
ENDBRANCH  18  20
ENDBRANCH   1  18
BRANCH   3  25
ATOM     25  C   UNL     1      -1.855   1.877   0.012  0.00  0.00    +0.339 C 
ATOM     26  O   UNL     1      -2.655   2.125   0.965  0.00  0.00    -0.245 OA
BRANCH  25  27
ATOM     27  O   UNL     1      -2.062   2.632  -1.134  0.00  0.00    -0.449 OA
BRANCH  27  28
ATOM     28  C   UNL     1      -2.561   3.968  -1.119  0.00  0.00    +0.169 C 
ATOM     29  C   UNL     1      -1.387   4.932  -0.993  0.00  0.00    +0.047 C 
ATOM     30  C   UNL     1      -3.379   4.160   0.152  0.00  0.00    +0.047 C 
ENDBRANCH  27  28
ENDBRANCH  25  27
ENDBRANCH   3  25
TORSDOF 10
