REMARK  Name = 
REMARK  7 active torsions:
REMARK  status: ('A' for Active; 'I' for Inactive)
REMARK    1  A    between atoms: C_5  and  S_6
REMARK    2  A    between atoms: S_6  and  C_7
REMARK    3  A    between atoms: C_7  and  C_8
REMARK    4  A    between atoms: CA_9  and  C_10
REMARK    5  A    between atoms: CA_16  and  N_17
REMARK    6  A    between atoms: C_18  and  C_20
REMARK    7  A    between atoms: C_20  and  N_21
REMARK                            x       y       z     vdW  Elec       q    Type
REMARK                         _______ _______ _______ _____ _____    ______ ____
ROOT
ATOM      1  C   UNL     1       1.586  -1.178  -1.759  0.00  0.00    -0.002 C 
ATOM      2  C   UNL     1       0.654  -2.323  -1.498  0.00  0.00    +0.083 C 
ATOM      3  S   UNL     1      -0.473  -1.747  -0.188  0.00  0.00    -0.114 S 
ATOM      4  C   UNL     1       0.664  -0.555   0.778  0.00  0.00    +0.157 C 
ATOM      5  N   UNL     1       0.560   0.501  -0.313  0.00  0.00    -0.242 N 
ATOM      6  C   UNL     1      -0.786   0.924   0.024  0.00  0.00    +0.253 C 
ATOM      7  O   UNL     1      -1.198   2.122  -0.107  0.00  0.00    -0.273 OA
ATOM      8  CA  UNL     1      -0.442   0.480   1.562  0.00  0.00    +0.200 C 
ATOM      9  CA  UNL     1       1.247   0.085  -1.499  0.00  0.00    +0.129 C 
ENDROOT
BRANCH   8  10
ATOM     10  N   UNL     1      -1.631  -0.594   1.666  0.00  0.00    -0.193 NA
ATOM     11  C   UNL     1      -2.911  -0.080   1.370  0.00  0.00    +0.267 C 
ATOM     12  O   UNL     1      -3.195   1.101   1.707  0.00  0.00    -0.271 OA
BRANCH  11  13
ATOM     13  C   UNL     1      -3.992  -1.116   1.407  0.00  0.00    +0.217 C 
BRANCH  13  14
ATOM     14  N   UNL     1      -5.278  -0.567   1.043  0.00  0.00    -0.201 N 
ATOM     15  N   UNL     1      -5.851   0.552   1.487  0.00  0.00    -0.042 NA
ATOM     16  N   UNL     1      -7.139   0.325   1.738  0.00  0.00    -0.023 NA
ATOM     17  N   UNL     1      -7.443  -0.918   1.391  0.00  0.00    -0.105 NA
ATOM     18  C   UNL     1      -6.330  -1.376   0.768  0.00  0.00    +0.222 A 
ENDBRANCH  13  14
ENDBRANCH  11  13
ENDBRANCH   8  10
BRANCH   9  19
ATOM     19  C   UNL     1       1.485   1.158  -2.475  0.00  0.00    +0.401 C 
ATOM     20  OXT UNL     1       1.941   2.386  -1.985  0.00  0.00    -0.239 OA
ATOM     21  O   UNL     1       0.818   1.238  -3.551  0.00  0.00    -0.239 OA
ENDBRANCH   9  19
BRANCH   1  22
ATOM     22  C   UNL     1       2.474  -1.390  -2.948  0.00  0.00    +0.088 C 
BRANCH  22  23
ATOM     23  S   UNL     1       4.202  -1.085  -2.576  0.00  0.00    -0.082 S 
BRANCH  23  27
ATOM     24  C   UNL     1       6.168   0.009   2.754  0.00  0.00    +0.061 C 
ATOM     25  C   UNL     1       5.626  -0.055   1.382  0.00  0.00    +0.112 A 
ATOM     26  S   UNL     1       5.414  -1.383   0.310  0.00  0.00    -0.044 S 
ATOM     27  C   UNL     1       4.454  -0.579  -0.870  0.00  0.00    +0.159 A 
ATOM     28  N   UNL     1       4.665   0.698  -0.459  0.00  0.00    -0.135 NA
ATOM     29  N   UNL     1       4.711   0.790   0.844  0.00  0.00    -0.145 NA
ENDBRANCH  23  27
ENDBRANCH  22  23
ENDBRANCH   1  22
TORSDOF 7
