REMARK  Name = 
REMARK  5 active torsions:
REMARK  status: ('A' for Active; 'I' for Inactive)
REMARK    1  A    between atoms: C_6  and  O_7
REMARK    2  A    between atoms: O_7  and  C_8
REMARK    3  A    between atoms: C_8  and  C_10
REMARK    4  A    between atoms: C_10  and  C_12
REMARK    5  A    between atoms: C_10  and  C_17
REMARK                            x       y       z     vdW  Elec       q    Type
REMARK                         _______ _______ _______ _____ _____    ______ ____
ROOT
ATOM      1  C   UNL     1      -0.609  -0.216   0.725  0.00  0.00    +0.354 C 
ATOM      2  O   UNL     1      -0.252   0.920   1.184  0.00  0.00    -0.247 OA
ENDROOT
BRANCH   1   3
ATOM      3  C   UNL     1      -2.089  -0.287   0.619  0.00  0.00    +0.263 C 
ATOM      4  O   UNL     1      -2.429  -0.343   1.993  0.00  0.00    -0.204 OA
BRANCH   3   5
ATOM      5  C   UNL     1      -2.663  -1.492   0.045  0.00  0.00    +0.049 A 
ATOM      6  S   UNL     1      -2.973  -3.078   0.581  0.00  0.00    -0.088 S 
ATOM      7  C   UNL     1      -4.267  -3.524  -0.470  0.00  0.00    +0.035 A 
ATOM      8  C   UNL     1      -3.917  -2.629  -1.497  0.00  0.00    +0.007 A 
ATOM      9  C   UNL     1      -3.575  -1.410  -1.001  0.00  0.00    +0.006 A 
ENDBRANCH   3   5
BRANCH   3  10
ATOM     10  C   UNL     1      -2.677   0.986   0.094  0.00  0.00    +0.049 A 
ATOM     11  S   UNL     1      -4.169   1.758   0.101  0.00  0.00    -0.088 S 
ATOM     12  C   UNL     1      -3.699   3.381  -0.230  0.00  0.00    +0.035 A 
ATOM     13  C   UNL     1      -2.444   3.124  -0.746  0.00  0.00    +0.007 A 
ATOM     14  C   UNL     1      -1.866   2.010  -0.335  0.00  0.00    +0.006 A 
ENDBRANCH   3  10
ENDBRANCH   1   3
BRANCH   1  15
ATOM     15  O   UNL     1       0.348  -0.804  -0.075  0.00  0.00    -0.450 OA
BRANCH  15  23
ATOM     16  C   UNL     1       2.947  -1.724   1.024  0.00  0.00    +0.170 C 
ATOM     17  N   UNL     1       3.575  -0.568   1.021  0.00  0.00    +0.302 N 
ATOM     18  C   UNL     1       3.157   0.451  -0.058  0.00  0.00    +0.093 C 
ATOM     19  C   UNL     1       4.449   1.508   0.348  0.00  0.00    +0.197 C 
ATOM     20  C   UNL     1       4.920   0.295  -0.769  0.00  0.00    +0.197 C 
ATOM     21  O   UNL     1       4.417   1.809  -1.299  0.00  0.00    -0.342 OA
ATOM     22  C   UNL     1       1.804   0.941   0.558  0.00  0.00    +0.101 C 
ATOM     23  C   UNL     1       1.282   0.134  -0.842  0.00  0.00    +0.181 C 
ATOM     24  C   UNL     1       2.546  -0.968  -1.110  0.00  0.00    +0.101 C 
ATOM     25  C   UNL     1       3.268   0.172  -0.316  0.00  0.00    +0.093 C 
ATOM     26  C   UNL     1       4.914  -0.446   1.325  0.00  0.00    +0.170 C 
ENDBRANCH  15  23
ENDBRANCH   1  15
TORSDOF 5
