REMARK  Name = 
REMARK  12 active torsions:
REMARK  status: ('A' for Active; 'I' for Inactive)
REMARK    1  A    between atoms: C_2  and  C_4
REMARK    2  A    between atoms: C_5  and  C_6
REMARK    3  A    between atoms: N_8  and  C_9
REMARK    4  A    between atoms: C_15  and  C_16
REMARK    5  A    between atoms: C_22  and  C_23
REMARK    6  A    between atoms: N_30  and  C_31
REMARK    7  A    between atoms: C_31  and  C_32
REMARK    8  A    between atoms: C_32  and  C_33
REMARK    9  A    between atoms: C_33  and  C_35
REMARK   10  A    between atoms: C_35  and  C_36
REMARK   11  A    between atoms: C_36  and  C_38
REMARK   12  A    between atoms: C_38  and  C_39
REMARK                            x       y       z     vdW  Elec       q    Type
REMARK                         _______ _______ _______ _____ _____    ______ ____
ROOT
ATOM      1  C   UNL     1      -0.233   0.918  -0.458  0.00  0.00    +0.041 A 
ATOM      2  N   UNL     1       0.584  -0.163  -0.416  0.00  0.00    -0.330 N 
ATOM      3  C   UNL     1      -0.112  -1.227   0.051  0.00  0.00    +0.060 A 
ATOM      4  C   UNL     1      -1.301  -0.696   0.536  0.00  0.00    +0.021 A 
ATOM      5  C   UNL     1      -1.499   0.575   0.005  0.00  0.00    +0.068 A 
ENDROOT
BRANCH   3   6
ATOM      6  C   UNL     1       0.077  -2.652  -0.254  0.00  0.00    +0.016 A 
ATOM      7  C   UNL     1      -0.829  -3.355  -1.042  0.00  0.00    +0.004 A 
ATOM      8  C   UNL     1      -1.048  -4.700  -0.916  0.00  0.00    +0.030 A 
ATOM      9  C   UNL     1      -0.282  -5.404  -0.011  0.00  0.00    +0.140 A 
ATOM     10  F   UNL     1      -0.735  -6.574   0.480  0.00  0.00    -0.204 F 
ATOM     11  C   UNL     1       0.916  -4.825   0.380  0.00  0.00    +0.030 A 
ATOM     12  C   UNL     1       0.961  -3.438   0.454  0.00  0.00    +0.004 A 
ENDBRANCH   3   6
BRANCH   4  13
ATOM     13  C   UNL     1      -2.187  -1.308   1.502  0.00  0.00    +0.002 A 
ATOM     14  C   UNL     1      -2.120  -0.975   2.850  0.00  0.00    +0.000 A 
ATOM     15  C   UNL     1      -2.471  -1.954   3.769  0.00  0.00    +0.000 A 
ATOM     16  C   UNL     1      -3.142  -3.084   3.354  0.00  0.00    +0.000 A 
ATOM     17  C   UNL     1      -3.657  -3.075   2.075  0.00  0.00    +0.000 A 
ATOM     18  C   UNL     1      -3.251  -2.130   1.151  0.00  0.00    +0.000 A 
ENDBRANCH   4  13
BRANCH   1  20
ATOM     19  C   UNL     1       0.141   2.403  -1.096  0.00  0.00    +0.006 C 
ATOM     20  C   UNL     1      -0.041   2.201  -1.200  0.00  0.00    +0.038 C 
ATOM     21  C   UNL     1       0.016   1.963  -2.702  0.00  0.00    +0.006 C 
ENDBRANCH   1  20
BRANCH   5  22
ATOM     22  C   UNL     1      -2.790   1.071  -0.499  0.00  0.00    +0.270 C 
ATOM     23  N   UNL     1      -3.684   1.789   0.322  0.00  0.00    -0.175 NA
ATOM     24  O   UNL     1      -3.005   1.145  -1.748  0.00  0.00    -0.268 OA
BRANCH  23  25
ATOM     25  C   UNL     1      -4.392   2.924  -0.157  0.00  0.00    +0.074 A 
ATOM     26  C   UNL     1      -4.709   3.889   0.791  0.00  0.00    +0.017 A 
ATOM     27  C   UNL     1      -5.560   4.915   0.402  0.00  0.00    +0.001 A 
ATOM     28  C   UNL     1      -6.353   4.788  -0.732  0.00  0.00    +0.000 A 
ATOM     29  C   UNL     1      -5.923   3.874  -1.669  0.00  0.00    +0.001 A 
ATOM     30  C   UNL     1      -4.802   3.082  -1.454  0.00  0.00    +0.017 A 
ENDBRANCH  23  25
ENDBRANCH   5  22
BRANCH   2  31
ATOM     31  C   UNL     1       1.847  -0.274  -1.128  0.00  0.00    +0.108 C 
BRANCH  31  32
ATOM     32  C   UNL     1       3.022  -0.207  -0.192  0.00  0.00    +0.057 C 
BRANCH  32  33
ATOM     33  C   UNL     1       4.232   0.452  -1.103  0.00  0.00    +0.156 C 
ATOM     34  O   UNL     1       3.551   1.811  -1.120  0.00  0.00    -0.223 OA
BRANCH  33  35
ATOM     35  C   UNL     1       5.114   0.846   0.239  0.00  0.00    +0.066 C 
BRANCH  35  36
ATOM     36  C   UNL     1       6.481   0.081  -0.287  0.00  0.00    +0.166 C 
ATOM     37  O   UNL     1       6.353  -0.997   0.778  0.00  0.00    -0.222 OA
BRANCH  36  38
ATOM     38  C   UNL     1       7.451   0.998   0.686  0.00  0.00    +0.147 C 
BRANCH  38  39
ATOM     39  C   UNL     1       7.779   2.115  -0.240  0.00  0.00    +0.367 C 
ATOM     40  O   UNL     1       7.247   3.377  -0.069  0.00  0.00    -0.246 OA
ATOM     41  O   UNL     1       8.351   1.823  -1.334  0.00  0.00    -0.246 OA
ENDBRANCH  38  39
ENDBRANCH  36  38
ENDBRANCH  35  36
ENDBRANCH  33  35
ENDBRANCH  32  33
ENDBRANCH  31  32
ENDBRANCH   2  31
TORSDOF 12
