REMARK  Name = 
REMARK  7 active torsions:
REMARK  status: ('A' for Active; 'I' for Inactive)
REMARK    1  A    between atoms: N_2  and  C_3
REMARK    2  A    between atoms: C_3  and  C_5
REMARK    3  A    between atoms: C_10  and  O_11
REMARK    4  A    between atoms: O_11  and  C_12
REMARK    5  A    between atoms: C_15  and  O_16
REMARK    6  A    between atoms: O_16  and  C_17
REMARK    7  A    between atoms: C_23  and  N_24
REMARK                            x       y       z     vdW  Elec       q    Type
REMARK                         _______ _______ _______ _____ _____    ______ ____
ROOT
ATOM      1  C   UNL     1       1.175  -1.141  -0.042  0.00  0.00    +0.168 C 
ATOM      2  C   UNL     1       0.426  -0.789  -1.535  0.00  0.00    +0.123 C 
ATOM      3  N   UNL     1       1.730  -1.050  -2.355  0.00  0.00    -0.130 NA
ATOM      4  C   UNL     1       0.018  -2.370  -1.542  0.00  0.00    +0.043 C 
ATOM      5  C   UNL     1      -1.133  -2.501  -0.382  0.00  0.00    +0.123 C 
ATOM      6  N   UNL     1      -0.240  -2.758   0.881  0.00  0.00    -0.130 NA
ATOM      7  C   UNL     1      -1.355  -0.814  -0.221  0.00  0.00    +0.168 C 
ATOM      8  C   UNL     1      -0.098  -0.435   0.863  0.00  0.00    +0.209 C 
ATOM      9  O   UNL     1       0.046   0.918   0.221  0.00  0.00    -0.218 OA
ENDROOT
BRANCH   1  10
ATOM     10  O   UNL     1       2.155   0.007  -0.004  0.00  0.00    -0.328 OA
BRANCH  10  13
ATOM     11  C   UNL     1       4.041   1.124  -0.342  0.00  0.00    +0.134 C 
ATOM     12  O   UNL     1       4.389  -0.297  -0.623  0.00  0.00    -0.331 OA
ATOM     13  C   UNL     1       3.194  -1.118  -0.189  0.00  0.00    +0.253 C 
ATOM     14  C   UNL     1       3.769  -1.159   1.457  0.00  0.00    +0.148 C 
ATOM     15  N   UNL     1       2.480  -1.845   2.011  0.00  0.00    -0.128 NA
ATOM     16  C   UNL     1       3.307   0.335   1.908  0.00  0.00    +0.027 C 
ATOM     17  C   UNL     1       4.450   1.060   1.251  0.00  0.00    +0.033 C 
BRANCH  11  18
ATOM     18  C   UNL     1       5.625   1.660  -0.748  0.00  0.00    +0.100 C 
ATOM     19  C   UNL     1       5.631   0.945  -2.213  0.00  0.00    +0.021 C 
BRANCH  18  21
ATOM     20  C   UNL     1       6.608   0.301   0.003  0.00  0.00    +0.107 C 
ATOM     21  N   UNL     1       6.413   0.489  -0.072  0.00  0.00    -0.215 NA
ENDBRANCH  18  21
ENDBRANCH  11  18
ENDBRANCH  10  13
ENDBRANCH   1  10
BRANCH   7  22
ATOM     22  O   UNL     1      -2.392  -1.045   0.852  0.00  0.00    -0.327 OA
BRANCH  22  23
ATOM     23  C   UNL     1      -3.387  -0.345  -0.082  0.00  0.00    +0.268 C 
ATOM     24  C   UNL     1      -4.553  -0.256   1.189  0.00  0.00    +0.226 C 
ATOM     25  O   UNL     1      -3.889   0.793   2.020  0.00  0.00    -0.216 OA
ATOM     26  C   UNL     1      -5.644   0.780   0.364  0.00  0.00    +0.138 C 
ATOM     27  C   UNL     1      -4.672   2.041   0.064  0.00  0.00    +0.171 C 
ATOM     28  O   UNL     1      -5.519   2.632  -0.904  0.00  0.00    -0.222 OA
ATOM     29  C   UNL     1      -4.714   2.990   1.205  0.00  0.00    +0.037 C 
ATOM     30  C   UNL     1      -3.488   1.741  -0.630  0.00  0.00    +0.176 C 
ATOM     31  O   UNL     1      -2.712   1.000   0.184  0.00  0.00    -0.326 OA
BRANCH  26  32
ATOM     32  N   UNL     1      -5.434   0.158  -1.067  0.00  0.00    -0.213 NA
ATOM     33  C   UNL     1      -6.228  -1.050  -0.988  0.00  0.00    +0.108 C 
ENDBRANCH  26  32
ENDBRANCH  22  23
ENDBRANCH   7  22
TORSDOF 7
