REMARK  Name = 
REMARK  7 active torsions:
REMARK  status: ('A' for Active; 'I' for Inactive)
REMARK    1  A    between atoms: C_2  and  O_4
REMARK    2  A    between atoms: O_4  and  C_5
REMARK    3  A    between atoms: C_8  and  C_9
REMARK    4  A    between atoms: C_9  and  C_10
REMARK    5  A    between atoms: C_9  and  C_20
REMARK    6  A    between atoms: C_13  and  O_14
REMARK    7  A    between atoms: O_14  and  C_15
REMARK                            x       y       z     vdW  Elec       q    Type
REMARK                         _______ _______ _______ _____ _____    ______ ____
ROOT
ATOM      1  C   UNL     1       0.342   1.108  -0.969  0.00  0.00    +0.085 C 
ENDROOT
BRANCH   1   2
ATOM      2  C   UNL     1      -0.206   2.486  -0.772  0.00  0.00    +0.067 A 
ATOM      3  N   UNL     1       0.090   3.217   0.311  0.00  0.00    -0.248 NA
ATOM      4  C   UNL     1      -0.599   4.299   0.693  0.00  0.00    +0.098 A 
ATOM      5  C   UNL     1      -1.470   4.851  -0.211  0.00  0.00    +0.021 A 
ATOM      6  C   UNL     1      -1.689   4.233  -1.426  0.00  0.00    +0.003 A 
ATOM      7  C   UNL     1      -1.175   2.965  -1.643  0.00  0.00    +0.015 A 
ENDBRANCH   1   2
BRANCH   1   8
ATOM      8  C   UNL     1       1.261   0.821   0.176  0.00  0.00    -0.013 A 
ATOM      9  C   UNL     1       2.609   1.149   0.101  0.00  0.00    -0.000 A 
ATOM     10  C   UNL     1       3.579   0.339   0.677  0.00  0.00    +0.037 A 
ATOM     11  C   UNL     1       3.232  -0.812   1.346  0.00  0.00    +0.148 A 
ATOM     12  C   UNL     1       1.894  -0.952   1.674  0.00  0.00    +0.037 A 
ATOM     13  C   UNL     1       0.924  -0.091   1.169  0.00  0.00    -0.000 A 
BRANCH  11  14
ATOM     14  O   UNL     1       3.974  -1.990   1.280  0.00  0.00    -0.424 OA
BRANCH  14  15
ATOM     15  C   UNL     1       5.177  -1.960   0.569  0.00  0.00    +0.322 C 
ATOM     16  O   UNL     1       5.958  -1.010   0.875  0.00  0.00    -0.250 OA
ATOM     17  C   UNL     1       5.662  -3.180  -0.146  0.00  0.00    +0.122 C 
ENDBRANCH  14  15
ENDBRANCH  11  14
ENDBRANCH   1   8
BRANCH   1  21
ATOM     18  C   UNL     1      -3.101  -1.351  -0.668  0.00  0.00    +0.148 A 
ATOM     19  C   UNL     1      -2.474  -1.206  -1.891  0.00  0.00    +0.037 A 
ATOM     20  C   UNL     1      -1.379  -0.370  -2.055  0.00  0.00    -0.000 A 
ATOM     21  C   UNL     1      -0.842   0.199  -0.932  0.00  0.00    -0.013 A 
ATOM     22  C   UNL     1      -1.631   0.266   0.210  0.00  0.00    -0.000 A 
ATOM     23  C   UNL     1      -2.845  -0.376   0.289  0.00  0.00    +0.037 A 
BRANCH  18  24
ATOM     24  O   UNL     1      -4.293  -2.049  -0.509  0.00  0.00    -0.424 OA
BRANCH  24  26
ATOM     25  C   UNL     1      -5.548  -3.761   0.801  0.00  0.00    +0.122 C 
ATOM     26  C   UNL     1      -4.268  -3.115   0.388  0.00  0.00    +0.322 C 
ATOM     27  O   UNL     1      -3.184  -3.710   0.664  0.00  0.00    -0.250 OA
ENDBRANCH  24  26
ENDBRANCH  18  24
ENDBRANCH   1  21
TORSDOF 7
