REMARK  Name = 
REMARK  2 active torsions:
REMARK  status: ('A' for Active; 'I' for Inactive)
REMARK    1  A    between atoms: C_6  and  N_7
REMARK    2  A    between atoms: C_20  and  C_21
REMARK                            x       y       z     vdW  Elec       q    Type
REMARK                         _______ _______ _______ _____ _____    ______ ____
ROOT
ATOM      1  C   UNL     1       0.292  -0.804  -2.670  0.00  0.00    +0.028 C 
ATOM      2  C   UNL     1       1.515  -1.844  -2.211  0.00  0.00    +0.129 C 
ATOM      3  N   UNL     1       1.928  -1.033  -0.904  0.00  0.00    -0.321 N 
ATOM      4  C   UNL     1       1.012  -0.366  -0.260  0.00  0.00    +0.099 A 
ATOM      5  C   UNL     1       1.368   0.648   0.626  0.00  0.00    +0.060 A 
ATOM      6  C   UNL     1       2.630   1.220   0.497  0.00  0.00    +0.205 A 
ATOM      7  C   UNL     1       3.550   0.552  -0.300  0.00  0.00    +0.136 A 
ATOM      8  O   UNL     1       2.813   2.446   0.701  0.00  0.00    -0.286 OA
ATOM      9  C   UNL     1       0.323   1.509   0.953  0.00  0.00    +0.036 A 
ATOM     10  C   UNL     1      -1.000   1.201   0.678  0.00  0.00    +0.157 A 
ATOM     11  F   UNL     1      -1.976   2.141   0.573  0.00  0.00    -0.203 F 
ATOM     12  C   UNL     1      -1.245  -0.154   0.494  0.00  0.00    +0.112 A 
ATOM     13  C   UNL     1      -0.220  -0.953   0.002  0.00  0.00    +0.170 A 
ATOM     14  O   UNL     1      -0.483  -2.069  -0.790  0.00  0.00    -0.471 OA
ATOM     15  C   UNL     1       3.196  -0.591  -0.994  0.00  0.00    +0.086 A 
ATOM     16  C   UNL     1       0.493  -2.850  -1.365  0.00  0.00    +0.228 C 
ENDROOT
BRANCH  12  17
ATOM     17  N   UNL     1      -2.598  -0.588   0.392  0.00  0.00    -0.301 N 
ATOM     18  C   UNL     1      -3.219  -0.805  -0.874  0.00  0.00    +0.108 C 
ATOM     19  C   UNL     1      -4.556  -0.182  -1.058  0.00  0.00    +0.094 C 
ATOM     20  N   UNL     1      -5.321   0.013   0.127  0.00  0.00    -0.269 NA
ATOM     21  C   UNL     1      -6.308  -1.019   0.368  0.00  0.00    +0.090 C 
ATOM     22  C   UNL     1      -4.567   0.371   1.292  0.00  0.00    +0.094 C 
ATOM     23  C   UNL     1      -3.443  -0.606   1.563  0.00  0.00    +0.108 C 
ENDBRANCH  12  17
BRANCH   7  24
ATOM     24  C   UNL     1       4.890   1.089  -0.523  0.00  0.00    +0.392 C 
ATOM     25  O   UNL     1       5.056   2.393  -0.951  0.00  0.00    -0.240 OA
ATOM     26  O   UNL     1       5.868   0.283  -0.473  0.00  0.00    -0.240 OA
ENDBRANCH   7  24
TORSDOF 2
