REMARK  Name = 
REMARK  2 active torsions:
REMARK  status: ('A' for Active; 'I' for Inactive)
REMARK    1  A    between atoms: C_5  and  S_6
REMARK    2  A    between atoms: S_6  and  N_9
REMARK                            x       y       z     vdW  Elec       q    Type
REMARK                         _______ _______ _______ _____ _____    ______ ____
ROOT
ATOM      1  S   UNL     1       0.128  -1.124  -0.321  0.00  0.00    +0.096 S 
ATOM      2  O   UNL     1      -0.194  -0.688  -1.725  0.00  0.00    -0.148 OA
ATOM      3  O   UNL     1       0.384  -2.615  -0.295  0.00  0.00    -0.148 OA
ENDROOT
BRANCH   1   8
ATOM      4  N   UNL     1       5.318   1.506   0.633  0.00  0.00    -0.128 NA
ATOM      5  C   UNL     1       4.091   0.950   0.205  0.00  0.00    +0.089 A 
ATOM      6  C   UNL     1       4.041  -0.383  -0.121  0.00  0.00    +0.019 A 
ATOM      7  C   UNL     1       2.821  -0.971  -0.334  0.00  0.00    +0.022 A 
ATOM      8  C   UNL     1       1.655  -0.351   0.091  0.00  0.00    +0.127 A 
ATOM      9  C   UNL     1       1.680   1.035   0.077  0.00  0.00    +0.022 A 
ATOM     10  C   UNL     1       2.900   1.660   0.298  0.00  0.00    +0.019 A 
ENDBRANCH   1   8
BRANCH   1  11
ATOM     11  N   UNL     1      -1.101  -0.727   0.796  0.00  0.00    -0.058 NA
ATOM     12  C   UNL     1      -2.380  -0.233   0.470  0.00  0.00    +0.259 A 
ATOM     13  N   UNL     1      -2.892   0.771   1.224  0.00  0.00    -0.210 NA
ATOM     14  C   UNL     1      -4.117   1.282   1.004  0.00  0.00    +0.104 A 
ATOM     15  C   UNL     1      -4.957   0.539   0.185  0.00  0.00    +0.041 A 
ATOM     16  C   UNL     1      -4.331  -0.138  -0.851  0.00  0.00    +0.104 A 
ATOM     17  N   UNL     1      -3.046  -0.514  -0.658  0.00  0.00    -0.210 NA
ENDBRANCH   1  11
TORSDOF 2
