REMARK  Name = 
REMARK  0 active torsions:
REMARK  status: ('A' for Active; 'I' for Inactive)
REMARK                            x       y       z     vdW  Elec       q    Type
REMARK                         _______ _______ _______ _____ _____    ______ ____
ROOT
ATOM      1  C   UNL     1      -2.152   1.081   0.843  0.00  0.00    +0.007 C 
ATOM      2  C   UNL     1      -2.656  -0.244   0.399  0.00  0.00    +0.052 C 
ATOM      3  C   UNL     1      -4.032  -0.121  -0.007  0.00  0.00    +0.150 C 
ATOM      4  O   UNL     1      -4.715   0.894   0.206  0.00  0.00    -0.296 OA
ATOM      5  C   UNL     1      -4.003  -0.337  -1.510  0.00  0.00    +0.064 C 
ATOM      6  C   UNL     1      -2.684   0.396  -1.791  0.00  0.00    +0.008 C 
ATOM      7  C   UNL     1      -1.899  -0.743  -0.943  0.00  0.00    +0.007 C 
ATOM      8  C   UNL     1      -0.546   0.190  -0.604  0.00  0.00    +0.005 C 
ATOM      9  C   UNL     1       0.198  -0.167  -1.980  0.00  0.00    +0.025 C 
ATOM     10  C   UNL     1       1.541   0.427  -1.646  0.00  0.00    -0.035 C 
ATOM     11  C   UNL     1       1.783   0.734  -0.361  0.00  0.00    -0.047 C 
ATOM     12  C   UNL     1       1.452  -0.276   0.650  0.00  0.00    +0.015 C 
ATOM     13  C   UNL     1       1.423   0.148   2.040  0.00  0.00    +0.004 C 
ATOM     14  C   UNL     1       2.612  -1.269   0.550  0.00  0.00    +0.006 C 
ATOM     15  C   UNL     1       3.843  -0.520   0.972  0.00  0.00    +0.034 C 
ATOM     16  C   UNL     1       4.237   0.396  -0.341  0.00  0.00    +0.156 C 
ATOM     17  O   UNL     1       5.248   1.194   0.463  0.00  0.00    -0.223 OA
ATOM     18  C   UNL     1       3.039   1.480  -0.009  0.00  0.00    +0.055 C 
ATOM     19  C   UNL     1       0.155  -1.120   0.199  0.00  0.00    +0.004 C 
ATOM     20  C   UNL     1      -0.695  -0.878   1.559  0.00  0.00    +0.001 C 
ATOM     21  C   UNL     1      -2.148  -1.264   1.310  0.00  0.00    +0.007 C 
ENDROOT
TORSDOF 0
