REMARK  Name = 
REMARK  7 active torsions:
REMARK  status: ('A' for Active; 'I' for Inactive)
REMARK    1  A    between atoms: N_2  and  C_3
REMARK    2  A    between atoms: C_3  and  C_4
REMARK    3  A    between atoms: C_4  and  C_5
REMARK    4  A    between atoms: C_5  and  O_6
REMARK    5  A    between atoms: C_5  and  C_17
REMARK    6  A    between atoms: O_6  and  C_7
REMARK    7  A    between atoms: C_10  and  C_11
REMARK                            x       y       z     vdW  Elec       q    Type
REMARK                         _______ _______ _______ _____ _____    ______ ____
ROOT
ATOM      1  C   UNL     1      -1.865   0.627  -0.296  0.00  0.00    +0.190 C 
ENDROOT
BRANCH   1   2
ATOM      2  C   UNL     1      -2.852  -0.465   0.441  0.00  0.00    +0.017 A 
ATOM      3  C   UNL     1      -2.294  -1.248   1.391  0.00  0.00    -0.001 A 
ATOM      4  C   UNL     1      -3.006  -2.391   1.748  0.00  0.00    -0.000 A 
ATOM      5  C   UNL     1      -3.718  -2.978   0.707  0.00  0.00    -0.000 A 
ATOM      6  C   UNL     1      -4.462  -2.098  -0.073  0.00  0.00    -0.000 A 
ATOM      7  C   UNL     1      -3.944  -0.826  -0.305  0.00  0.00    -0.001 A 
ENDBRANCH   1   2
BRANCH   1   8
ATOM      8  C   UNL     1      -1.286   1.181   1.186  0.00  0.00    +0.067 C 
BRANCH   8   9
ATOM      9  C   UNL     1      -2.370   2.191   1.547  0.00  0.00    +0.093 C 
BRANCH   9  11
ATOM     10  C   UNL     1      -3.202   3.417   0.388  0.00  0.00    +0.107 C 
ATOM     11  N   UNL     1      -2.785   2.958   0.398  0.00  0.00    -0.216 NA
ENDBRANCH   9  11
ENDBRANCH   8   9
ENDBRANCH   1   8
BRANCH   1  12
ATOM     12  O   UNL     1      -0.689  -0.408  -0.449  0.00  0.00    -0.475 OA
BRANCH  12  13
ATOM     13  C   UNL     1       0.567   0.164  -0.504  0.00  0.00    +0.139 A 
ATOM     14  C   UNL     1       1.406  -0.297  -1.514  0.00  0.00    +0.037 A 
ATOM     15  C   UNL     1       2.731  -0.621  -1.302  0.00  0.00    +0.007 A 
ATOM     16  C   UNL     1       3.347  -0.172  -0.169  0.00  0.00    +0.072 A 
ATOM     17  C   UNL     1       2.588   0.393   0.823  0.00  0.00    +0.007 A 
ATOM     18  C   UNL     1       1.225   0.350   0.708  0.00  0.00    +0.037 A 
BRANCH  16  19
ATOM     19  C   UNL     1       4.809  -0.005  -0.096  0.00  0.00    +0.419 C 
ATOM     20  F   UNL     1       5.063   1.354   0.059  0.00  0.00    -0.166 F 
ATOM     21  F   UNL     1       5.349  -0.679   0.967  0.00  0.00    -0.166 F 
ATOM     22  F   UNL     1       5.388  -0.448  -1.280  0.00  0.00    -0.166 F 
ENDBRANCH  16  19
ENDBRANCH  12  13
ENDBRANCH   1  12
TORSDOF 7
