REMARK  Name = 
REMARK  0 active torsions:
REMARK  status: ('A' for Active; 'I' for Inactive)
REMARK                            x       y       z     vdW  Elec       q    Type
REMARK                         _______ _______ _______ _____ _____    ______ ____
ROOT
ATOM      1  C   UNL     1      -1.664  -0.596   0.453  0.00  0.00    +0.058 C 
ATOM      2  C   UNL     1      -0.441   0.047  -0.112  0.00  0.00    +0.087 C 
ATOM      3  N   UNL     1       0.740  -0.660  -0.455  0.00  0.00    -0.203 NA
ATOM      4  O   UNL     1       1.899  -0.054  -0.062  0.00  0.00    -0.403 OA
ATOM      5  O   UNL     1      -0.533   1.263  -0.383  0.00  0.00    -0.540 OA
ENDROOT
TORSDOF 0
