REMARK  Name = 
REMARK  0 active torsions:
REMARK  status: ('A' for Active; 'I' for Inactive)
REMARK                            x       y       z     vdW  Elec       q    Type
REMARK                         _______ _______ _______ _____ _____    ______ ____
ROOT
ATOM      1  N   UNL     1      -1.768   3.166  -0.005  0.00  0.00    +0.144 NA
ATOM      2  C   UNL     1      -0.561   2.496   0.157  0.00  0.00    +0.447 C 
ATOM      3  N   UNL     1      -0.349   1.110  -0.130  0.00  0.00    -0.169 N 
ATOM      4  C   UNL     1       0.880   0.828   0.810  0.00  0.00    +0.204 C 
ATOM      5  C   UNL     1       1.567  -0.163  -0.264  0.00  0.00    +0.012 A 
ATOM      6  C   UNL     1       1.127  -1.481  -0.207  0.00  0.00    -0.019 A 
ATOM      7  C   UNL     1      -0.168  -1.935  -0.718  0.00  0.00    +0.055 C 
ATOM      8  C   UNL     1      -1.332  -1.169  -0.256  0.00  0.00    +0.011 A 
ATOM      9  C   UNL     1      -2.473  -1.929  -0.021  0.00  0.00    -0.001 A 
ATOM     10  C   UNL     1      -3.540  -1.346   0.651  0.00  0.00    -0.000 A 
ATOM     11  C   UNL     1      -3.804  -0.020   0.329  0.00  0.00    +0.003 A 
ATOM     12  C   UNL     1      -2.670   0.771   0.169  0.00  0.00    +0.031 A 
ATOM     13  C   UNL     1       2.067  -2.501  -0.333  0.00  0.00    -0.004 A 
ATOM     14  C   UNL     1       3.411  -2.271  -0.063  0.00  0.00    -0.000 A 
ATOM     15  C   UNL     1       3.852  -0.973  -0.026  0.00  0.00    -0.000 A 
ATOM     16  C   UNL     1       2.935   0.052  -0.174  0.00  0.00    -0.001 A 
ATOM     17  C   UNL     1       1.670   2.136   0.215  0.00  0.00    +0.262 C 
ATOM     18  C   UNL     1      -1.440   0.186  -0.109  0.00  0.00    +0.109 A 
ATOM     19  N   UNL     1       0.594   3.041  -0.025  0.00  0.00    -0.092 NA
ENDROOT
TORSDOF 0
