REMARK  Name = 
REMARK  9 active torsions:
REMARK  status: ('A' for Active; 'I' for Inactive)
REMARK    1  A    between atoms: C_2  and  C_3
REMARK    2  A    between atoms: C_3  and  C_4
REMARK    3  A    between atoms: C_4  and  O_5
REMARK    4  A    between atoms: O_5  and  C_6
REMARK    5  A    between atoms: C_9  and  O_10
REMARK    6  A    between atoms: O_10  and  C_11
REMARK    7  A    between atoms: C_11  and  C_12
REMARK    8  A    between atoms: C_12  and  C_13
REMARK    9  A    between atoms: C_13  and  N_14
REMARK                            x       y       z     vdW  Elec       q    Type
REMARK                         _______ _______ _______ _____ _____    ______ ____
ROOT
ATOM      1  C   UNL     1      -3.010  -1.034  -0.136  0.00  0.00    +0.139 A 
ATOM      2  C   UNL     1      -2.555  -1.414   1.111  0.00  0.00    +0.040 A 
ATOM      3  C   UNL     1      -1.244  -1.134   1.430  0.00  0.00    +0.040 A 
ATOM      4  C   UNL     1      -0.526  -0.287   0.623  0.00  0.00    +0.139 A 
ATOM      5  C   UNL     1      -1.268   0.591  -0.157  0.00  0.00    +0.040 A 
ATOM      6  C   UNL     1      -2.437   0.096  -0.706  0.00  0.00    +0.040 A 
ENDROOT
BRANCH   1   7
ATOM      7  O   UNL     1      -4.146  -1.568  -0.721  0.00  0.00    -0.475 OA
BRANCH   7   8
ATOM      8  C   UNL     1      -5.431  -1.177  -0.271  0.00  0.00    +0.205 C 
BRANCH   8   9
ATOM      9  C   UNL     1      -5.378   0.139   0.455  0.00  0.00    +0.047 C 
BRANCH   9  11
ATOM     10  C   UNL     1      -5.344   2.553   0.166  0.00  0.00    +0.000 C 
ATOM     11  C   UNL     1      -5.610   1.245  -0.556  0.00  0.00    +0.004 C 
ENDBRANCH   9  11
ENDBRANCH   8   9
ENDBRANCH   7   8
ENDBRANCH   1   7
BRANCH   4  12
ATOM     12  O   UNL     1       0.852  -0.128   0.802  0.00  0.00    -0.475 OA
BRANCH  12  13
ATOM     13  C   UNL     1       1.359   1.175   0.521  0.00  0.00    +0.207 C 
BRANCH  13  14
ATOM     14  C   UNL     1       1.802   1.283  -0.933  0.00  0.00    +0.065 C 
BRANCH  14  15
ATOM     15  C   UNL     1       3.323   1.192  -0.915  0.00  0.00    +0.076 C 
BRANCH  15  16
ATOM     16  N   UNL     1       3.662   0.085  -0.041  0.00  0.00    -0.268 NA
ATOM     17  C   UNL     1       3.910  -1.072  -0.861  0.00  0.00    +0.105 C 
ATOM     18  C   UNL     1       5.113  -0.860  -1.736  0.00  0.00    +0.159 C 
ATOM     19  O   UNL     1       6.068  -0.031  -1.177  0.00  0.00    -0.351 OA
ATOM     20  C   UNL     1       6.083  -0.028   0.201  0.00  0.00    +0.159 C 
ATOM     21  C   UNL     1       4.778   0.375   0.826  0.00  0.00    +0.105 C 
ENDBRANCH  15  16
ENDBRANCH  14  15
ENDBRANCH  13  14
ENDBRANCH  12  13
ENDBRANCH   4  12
TORSDOF 9
