REMARK  Name = 
REMARK  2 active torsions:
REMARK  status: ('A' for Active; 'I' for Inactive)
REMARK    1  A    between atoms: C_5  and  S_6
REMARK    2  A    between atoms: S_6  and  N_9
REMARK                            x       y       z     vdW  Elec       q    Type
REMARK                         _______ _______ _______ _____ _____    ______ ____
ROOT
ATOM      1  S   UNL     1      -0.090  -1.899  -0.590  0.00  0.00    +0.096 S 
ATOM      2  O   UNL     1      -0.385  -2.327  -2.012  0.00  0.00    -0.148 OA
ATOM      3  O   UNL     1      -0.292  -3.128   0.270  0.00  0.00    -0.148 OA
ENDROOT
BRANCH   1   8
ATOM      4  N   UNL     1      -3.965   2.218   0.994  0.00  0.00    -0.128 NA
ATOM      5  C   UNL     1      -3.002   1.225   0.634  0.00  0.00    +0.089 A 
ATOM      6  C   UNL     1      -2.647   0.255   1.534  0.00  0.00    +0.019 A 
ATOM      7  C   UNL     1      -1.858  -0.802   1.106  0.00  0.00    +0.022 A 
ATOM      8  C   UNL     1      -1.215  -0.648  -0.117  0.00  0.00    +0.127 A 
ATOM      9  C   UNL     1      -2.016  -0.065  -1.095  0.00  0.00    +0.022 A 
ATOM     10  C   UNL     1      -2.794   1.024  -0.718  0.00  0.00    +0.019 A 
ENDBRANCH   1   8
BRANCH   1  11
ATOM     11  N   UNL     1       1.542  -1.440  -0.416  0.00  0.00    -0.058 NA
ATOM     12  C   UNL     1       1.991  -0.086  -0.281  0.00  0.00    +0.259 A 
ATOM     13  N   UNL     1       3.143   0.185  -0.944  0.00  0.00    -0.210 NA
ATOM     14  C   UNL     1       3.733   1.385  -0.843  0.00  0.00    +0.104 A 
ATOM     15  C   UNL     1       3.365   2.131   0.270  0.00  0.00    +0.041 A 
ATOM     16  C   UNL     1       2.539   1.580   1.220  0.00  0.00    +0.104 A 
ATOM     17  N   UNL     1       1.951   0.391   0.989  0.00  0.00    -0.210 NA
ENDBRANCH   1  11
TORSDOF 2
