REMARK  Name = 
REMARK  1 active torsions:
REMARK  status: ('A' for Active; 'I' for Inactive)
REMARK    1  A    between atoms: C_4  and  C_5
REMARK                            x       y       z     vdW  Elec       q    Type
REMARK                         _______ _______ _______ _____ _____    ______ ____
ROOT
ATOM      1  C   UNL     1      -0.156   0.169   0.172  0.00  0.00    -0.021 A 
ATOM      2  C   UNL     1      -0.909   1.345   0.194  0.00  0.00    -0.004 A 
ATOM      3  C   UNL     1      -2.247   1.200  -0.145  0.00  0.00    -0.000 A 
ATOM      4  C   UNL     1      -2.839  -0.052  -0.239  0.00  0.00    -0.000 A 
ATOM      5  C   UNL     1      -2.022  -1.147  -0.116  0.00  0.00    -0.000 A 
ATOM      6  C   UNL     1      -0.815  -0.939   0.544  0.00  0.00    -0.004 A 
ENDROOT
BRANCH   1   9
ATOM      7  N   UNL     1       3.644   0.268   0.164  0.00  0.00    -0.133 NA
ATOM      8  C   UNL     1       2.215  -0.189  -0.452  0.00  0.00    +0.096 C 
ATOM      9  C   UNL     1       1.292   0.507   0.875  0.00  0.00    +0.041 C 
ATOM     10  C   UNL     1       1.838  -1.161   0.959  0.00  0.00    +0.025 C 
ENDBRANCH   1   9
TORSDOF 1
