REMARK  Name = 
REMARK  12 active torsions:
REMARK  status: ('A' for Active; 'I' for Inactive)
REMARK    1  A    between atoms: C_2  and  C_3
REMARK    2  A    between atoms: C_3  and  C_4
REMARK    3  A    between atoms: C_4  and  C_5
REMARK    4  A    between atoms: C_5  and  C_6
REMARK    5  A    between atoms: C_6  and  C_8
REMARK    6  A    between atoms: C_9  and  C_10
REMARK    7  A    between atoms: C_16  and  C_17
REMARK    8  A    between atoms: C_17  and  C_18
REMARK    9  A    between atoms: C_19  and  C_20
REMARK   10  A    between atoms: C_20  and  C_21
REMARK   11  A    between atoms: C_21  and  C_22
REMARK   12  A    between atoms: C_22  and  C_23
REMARK                            x       y       z     vdW  Elec       q    Type
REMARK                         _______ _______ _______ _____ _____    ______ ____
ROOT
ATOM      1  C   UNL     1       0.118  -0.807   0.713  0.00  0.00    +0.060 C 
ATOM      2  C   UNL     1      -0.418  -2.416   0.918  0.00  0.00    +0.068 C 
ATOM      3  C   UNL     1      -0.648  -2.702  -0.656  0.00  0.00    +0.154 C 
ATOM      4  O   UNL     1      -0.381  -3.844  -0.954  0.00  0.00    -0.296 OA
ATOM      5  C   UNL     1      -0.951  -1.472  -1.306  0.00  0.00    +0.098 C 
ATOM      6  C   UNL     1       0.628  -1.083  -0.905  0.00  0.00    +0.164 C 
ATOM      7  O   UNL     1       0.367   0.392  -1.261  0.00  0.00    -0.222 OA
ENDROOT
BRANCH   1   9
ATOM      8  C   UNL     1       2.345  -0.098   1.250  0.00  0.00    +0.002 C 
ATOM      9  C   UNL     1       1.565  -1.159   1.274  0.00  0.00    -0.026 C 
BRANCH   8  10
ATOM     10  C   UNL     1       3.960  -0.490   1.197  0.00  0.00    +0.174 C 
ATOM     11  O   UNL     1       3.948  -0.489  -0.360  0.00  0.00    -0.218 OA
BRANCH  10  12
ATOM     12  C   UNL     1       4.385   1.136   1.341  0.00  0.00    +0.037 C 
BRANCH  12  13
ATOM     13  C   UNL     1       4.380   1.747   0.015  0.00  0.00    +0.003 C 
BRANCH  13  14
ATOM     14  C   UNL     1       5.690   2.391  -0.295  0.00  0.00    +0.000 C 
BRANCH  14  16
ATOM     15  C   UNL     1       7.450   2.416   1.233  0.00  0.00    +0.000 C 
ATOM     16  C   UNL     1       6.863   1.716   0.396  0.00  0.00    +0.000 C 
ENDBRANCH  14  16
ENDBRANCH  13  14
ENDBRANCH  12  13
ENDBRANCH  10  12
ENDBRANCH   8  10
ENDBRANCH   1   9
BRANCH   2  17
ATOM     17  C   UNL     1      -2.014  -2.019   1.092  0.00  0.00    +0.033 C 
BRANCH  17  18
ATOM     18  C   UNL     1      -2.115  -0.655   1.571  0.00  0.00    -0.030 C 
ATOM     19  C   UNL     1      -2.941   0.167   0.909  0.00  0.00    -0.031 C 
BRANCH  19  20
ATOM     20  C   UNL     1      -4.272  -0.382   0.577  0.00  0.00    +0.026 C 
BRANCH  20  21
ATOM     21  C   UNL     1      -4.646  -0.193  -0.876  0.00  0.00    +0.016 C 
BRANCH  21  22
ATOM     22  C   UNL     1      -4.772   1.254  -1.239  0.00  0.00    +0.114 C 
BRANCH  22  23
ATOM     23  C   UNL     1      -5.815   1.971  -0.460  0.00  0.00    +0.365 C 
ATOM     24  O   UNL     1      -7.050   1.393  -0.142  0.00  0.00    -0.246 OA
ATOM     25  O   UNL     1      -5.676   3.227  -0.350  0.00  0.00    -0.246 OA
ENDBRANCH  22  23
ENDBRANCH  21  22
ENDBRANCH  20  21
ENDBRANCH  19  20
ENDBRANCH  17  18
ENDBRANCH   2  17
TORSDOF 12
