REMARK  Name = 
REMARK  5 active torsions:
REMARK  status: ('A' for Active; 'I' for Inactive)
REMARK    1  A    between atoms: C_3  and  C_5
REMARK    2  A    between atoms: C_10  and  S_11
REMARK    3  A    between atoms: S_11  and  C_12
REMARK    4  A    between atoms: C_16  and  C_17
REMARK    5  A    between atoms: C_18  and  C_19
REMARK                            x       y       z     vdW  Elec       q    Type
REMARK                         _______ _______ _______ _____ _____    ______ ____
ROOT
ATOM      1  C   UNL     1      -1.303  -0.093  -0.351  0.00  0.00    +0.031 A 
ATOM      2  C   UNL     1      -0.795  -0.697   0.791  0.00  0.00    +0.027 A 
ATOM      3  C   UNL     1       0.590  -0.806   0.843  0.00  0.00    +0.105 A 
ATOM      4  C   UNL     1       1.411  -0.114  -0.040  0.00  0.00    +0.039 A 
ATOM      5  C   UNL     1       2.690  -0.653   0.026  0.00  0.00    +0.104 A 
ATOM      6  N   UNL     1       2.700  -1.304   1.214  0.00  0.00    -0.148 NA
ATOM      7  C   UNL     1       0.856   0.845  -0.843  0.00  0.00    +0.004 A 
ATOM      8  N   UNL     1       1.452  -1.484   1.640  0.00  0.00    -0.148 NA
ATOM      9  C   UNL     1      -0.530   0.915  -0.911  0.00  0.00    +0.007 A 
ENDROOT
BRANCH   5  10
ATOM     10  C   UNL     1       3.567  -0.876  -1.131  0.00  0.00    +0.023 C 
ATOM     11  C   UNL     1       4.820  -1.217  -0.839  0.00  0.00    +0.021 C 
BRANCH  11  12
ATOM     12  C   UNL     1       5.513  -0.315   0.091  0.00  0.00    +0.081 A 
ATOM     13  N   UNL     1       5.256   1.014   0.042  0.00  0.00    -0.244 NA
ATOM     14  C   UNL     1       6.209   1.950   0.148  0.00  0.00    +0.099 A 
ATOM     15  C   UNL     1       7.543   1.607   0.322  0.00  0.00    +0.021 A 
ATOM     16  C   UNL     1       7.790   0.290   0.668  0.00  0.00    +0.003 A 
ATOM     17  C   UNL     1       6.787  -0.660   0.524  0.00  0.00    +0.019 A 
ENDBRANCH  11  12
ENDBRANCH   5  10
BRANCH   1  18
ATOM     18  S   UNL     1      -2.906  -0.542  -1.026  0.00  0.00    -0.087 S 
BRANCH  18  20
ATOM     19  C   UNL     1      -5.251   0.343   0.068  0.00  0.00    +0.061 A 
ATOM     20  C   UNL     1      -4.116   0.702  -0.644  0.00  0.00    +0.034 A 
ATOM     21  C   UNL     1      -3.652   2.005  -0.508  0.00  0.00    +0.007 A 
ATOM     22  C   UNL     1      -4.390   2.982   0.147  0.00  0.00    +0.001 A 
ATOM     23  C   UNL     1      -5.679   2.661   0.511  0.00  0.00    +0.000 A 
ATOM     24  C   UNL     1      -6.034   1.341   0.604  0.00  0.00    +0.005 A 
BRANCH  19  27
ATOM     25  C   UNL     1      -5.117  -3.413  -0.624  0.00  0.00    +0.139 C 
ATOM     26  N   UNL     1      -4.812  -2.144   0.025  0.00  0.00    -0.200 NA
ATOM     27  C   UNL     1      -5.720  -1.039  -0.059  0.00  0.00    +0.265 C 
ATOM     28  O   UNL     1      -6.881  -1.297  -0.478  0.00  0.00    -0.268 OA
ENDBRANCH  19  27
ENDBRANCH  18  20
ENDBRANCH   1  18
TORSDOF 5
