REMARK  Name = 
REMARK  8 active torsions:
REMARK  status: ('A' for Active; 'I' for Inactive)
REMARK    1  A    between atoms: O_2  and  N_3
REMARK    2  A    between atoms: C_4  and  C_5
REMARK    3  A    between atoms: C_4  and  C_25
REMARK    4  A    between atoms: N_7  and  CA_8
REMARK    5  A    between atoms: CA_12  and  C_13
REMARK    6  A    between atoms: C_16  and  C_17
REMARK    7  A    between atoms: C_17  and  O_18
REMARK    8  A    between atoms: O_18  and  C_19
REMARK                            x       y       z     vdW  Elec       q    Type
REMARK                         _______ _______ _______ _____ _____    ______ ____
ROOT
ATOM      1  CA  UNL     1      -0.574   1.944   0.537  0.00  0.00    +0.201 C 
ATOM      2  C   UNL     1       0.820   1.333   1.299  0.00  0.00    +0.157 C 
ATOM      3  N   UNL     1       1.282   1.140  -0.140  0.00  0.00    -0.242 N 
ATOM      4  CA  UNL     1       2.594   0.584  -0.199  0.00  0.00    +0.131 C 
ATOM      5  C   UNL     1       3.053  -0.347   0.639  0.00  0.00    +0.030 C 
ATOM      6  C   UNL     1       2.132  -1.225   1.429  0.00  0.00    +0.086 C 
ATOM      7  S   UNL     1       0.446  -0.529   1.482  0.00  0.00    -0.114 S 
ATOM      8  C   UNL     1      -0.051   1.017  -0.706  0.00  0.00    +0.253 C 
ATOM      9  O   UNL     1      -0.285   1.556  -1.845  0.00  0.00    -0.273 OA
ENDROOT
BRANCH   4  10
ATOM     10  C   UNL     1       3.380   0.973  -1.381  0.00  0.00    +0.401 C 
ATOM     11  OXT UNL     1       4.426   1.899  -1.282  0.00  0.00    -0.239 OA
ATOM     12  O   UNL     1       2.858   0.776  -2.500  0.00  0.00    -0.239 OA
ENDBRANCH   4  10
BRANCH   1  14
ATOM     13  C   UNL     1      -2.529   0.391   0.209  0.00  0.00    +0.289 C 
ATOM     14  N   UNL     1      -1.608   0.879   1.156  0.00  0.00    -0.190 NA
ATOM     15  O   UNL     1      -1.897  -0.345  -0.609  0.00  0.00    -0.266 OA
BRANCH  13  17
ATOM     16  N   UNL     1      -4.497   1.551  -0.282  0.00  0.00    -0.075 NA
ATOM     17  C   UNL     1      -3.976   0.482   0.254  0.00  0.00    +0.208 C 
BRANCH  17  18
ATOM     18  C   UNL     1      -4.812  -0.729   0.170  0.00  0.00    +0.171 A 
ATOM     19  O   UNL     1      -6.117  -0.762   0.159  0.00  0.00    -0.449 OA
ATOM     20  C   UNL     1      -6.586  -1.847  -0.395  0.00  0.00    +0.180 A 
ATOM     21  C   UNL     1      -5.528  -2.607  -0.818  0.00  0.00    +0.044 A 
ATOM     22  C   UNL     1      -4.393  -1.909  -0.433  0.00  0.00    +0.043 A 
ENDBRANCH  17  18
BRANCH  16  24
ATOM     23  C   UNL     1      -3.617   3.012  -1.639  0.00  0.00    +0.288 C 
ATOM     24  O   UNL     1      -3.700   2.458  -0.963  0.00  0.00    -0.373 OA
ENDBRANCH  16  24
ENDBRANCH  13  17
ENDBRANCH   1  14
BRANCH   5  25
ATOM     25  C   UNL     1       4.342  -0.993   0.221  0.00  0.00    +0.235 C 
BRANCH  25  26
ATOM     26  O   UNL     1       5.000  -1.572   1.318  0.00  0.00    -0.428 OA
BRANCH  26  27
ATOM     27  C   UNL     1       6.130  -2.336   1.014  0.00  0.00    +0.441 C 
ATOM     28  O   UNL     1       6.802  -1.988  -0.004  0.00  0.00    -0.223 OA
ATOM     29  N   UNL     1       6.905  -2.804   2.123  0.00  0.00    -0.048 NA
ENDBRANCH  26  27
ENDBRANCH  25  26
ENDBRANCH   5  25
TORSDOF 8
