REMARK  Name = 
REMARK  2 active torsions:
REMARK  status: ('A' for Active; 'I' for Inactive)
REMARK    1  A    between atoms: C_6  and  C_7
REMARK    2  A    between atoms: C_6  and  C_13
REMARK                            x       y       z     vdW  Elec       q    Type
REMARK                         _______ _______ _______ _____ _____    ______ ____
ROOT
ATOM      1  O   UNL     1      -1.701   3.551   1.218  0.00  0.00    -0.249 OA
ATOM      2  C   UNL     1      -1.012   2.727   0.543  0.00  0.00    +0.347 C 
ATOM      3  N   UNL     1      -0.608   1.458   1.068  0.00  0.00    -0.173 NA
ATOM      4  C   UNL     1      -0.181   0.607  -0.037  0.00  0.00    +0.188 C 
ATOM      5  C   UNL     1      -0.326   1.407  -1.265  0.00  0.00    +0.275 C 
ATOM      6  O   UNL     1      -0.535   0.955  -2.432  0.00  0.00    -0.270 OA
ATOM      7  N   UNL     1      -0.733   2.709  -0.841  0.00  0.00    -0.124 NA
ENDROOT
BRANCH   4   8
ATOM      8  C   UNL     1      -1.045  -0.602  -0.064  0.00  0.00    +0.008 A 
ATOM      9  C   UNL     1      -1.737  -0.990   1.076  0.00  0.00    -0.002 A 
ATOM     10  C   UNL     1      -2.353  -2.218   1.099  0.00  0.00    -0.000 A 
ATOM     11  C   UNL     1      -1.948  -3.212   0.220  0.00  0.00    -0.000 A 
ATOM     12  C   UNL     1      -1.460  -2.785  -1.009  0.00  0.00    -0.000 A 
ATOM     13  C   UNL     1      -1.099  -1.452  -1.161  0.00  0.00    -0.002 A 
ENDBRANCH   4   8
BRANCH   4  14
ATOM     14  C   UNL     1       1.244   0.255   0.239  0.00  0.00    +0.008 A 
ATOM     15  C   UNL     1       1.505  -0.698   1.203  0.00  0.00    -0.002 A 
ATOM     16  C   UNL     1       2.727  -1.356   1.142  0.00  0.00    -0.000 A 
ATOM     17  C   UNL     1       3.550  -1.201   0.032  0.00  0.00    -0.000 A 
ATOM     18  C   UNL     1       3.406   0.014  -0.629  0.00  0.00    -0.000 A 
ATOM     19  C   UNL     1       2.306   0.832  -0.401  0.00  0.00    -0.002 A 
ENDBRANCH   4  14
TORSDOF 2
