REMARK  Name = 
REMARK  1 active torsions:
REMARK  status: ('A' for Active; 'I' for Inactive)
REMARK    1  A    between atoms: C_2  and  C_4
REMARK                            x       y       z     vdW  Elec       q    Type
REMARK                         _______ _______ _______ _____ _____    ______ ____
ROOT
ATOM      1  C   UNL     1       1.466  -0.942   0.716  0.00  0.00    +0.085 C 
ATOM      2  C   UNL     1       0.727   0.061  -0.076  0.00  0.00    +0.252 C 
ATOM      3  O   UNL     1       1.297   1.008  -0.651  0.00  0.00    -0.284 OA
ENDROOT
BRANCH   2   4
ATOM      4  C   UNL     1      -0.737  -0.035  -0.036  0.00  0.00    +0.422 C 
ATOM      5  O   UNL     1      -1.448   0.821   0.792  0.00  0.00    -0.237 OA
ATOM      6  O   UNL     1      -1.305  -0.913  -0.744  0.00  0.00    -0.237 OA
ENDBRANCH   2   4
TORSDOF 1
