REMARK  Name = 
REMARK  9 active torsions:
REMARK  status: ('A' for Active; 'I' for Inactive)
REMARK    1  A    between atoms: C_3  and  C_4
REMARK    2  A    between atoms: C_4  and  C_5
REMARK    3  A    between atoms: C_5  and  C_6
REMARK    4  A    between atoms: C_6  and  C_7
REMARK    5  A    between atoms: C_13  and  N_14
REMARK    6  A    between atoms: N_14  and  C_15
REMARK    7  A    between atoms: N_14  and  C_18
REMARK    8  A    between atoms: C_15  and  C_16
REMARK    9  A    between atoms: C_18  and  C_19
REMARK                            x       y       z     vdW  Elec       q    Type
REMARK                         _______ _______ _______ _____ _____    ______ ____
ROOT
ATOM      1  C   UNL     1       1.397  -1.705   2.071  0.00  0.00    +0.132 C 
ATOM      2  N   UNL     1       1.285  -0.815   0.924  0.00  0.00    -0.313 N 
ATOM      3  C   UNL     1       0.424   0.207   0.760  0.00  0.00    +0.079 A 
ATOM      4  C   UNL     1       0.221   0.427  -0.597  0.00  0.00    +0.100 A 
ATOM      5  C   UNL     1      -0.966   0.990  -1.053  0.00  0.00    +0.035 A 
ATOM      6  C   UNL     1      -2.025   1.159  -0.170  0.00  0.00    +0.050 A 
ATOM      7  C   UNL     1      -1.674   1.335   1.161  0.00  0.00    +0.016 A 
ATOM      8  N   UNL     1       1.282  -0.167  -1.196  0.00  0.00    -0.231 NA
ATOM      9  C   UNL     1      -0.454   0.851   1.618  0.00  0.00    +0.020 A 
ATOM     10  C   UNL     1       1.896  -0.951  -0.275  0.00  0.00    +0.120 A 
ENDROOT
BRANCH   6  11
ATOM     11  N   UNL     1      -3.369   0.866  -0.573  0.00  0.00    -0.305 N 
BRANCH  11  12
ATOM     12  C   UNL     1      -4.208  -0.074   0.159  0.00  0.00    +0.108 C 
BRANCH  12  13
ATOM     13  C   UNL     1      -3.824  -1.503  -0.080  0.00  0.00    +0.116 C 
ATOM     14 CL   UNL     1      -5.319  -2.475  -0.206  0.00  0.00    -0.112 Cl
ENDBRANCH  12  13
ENDBRANCH  11  12
BRANCH  11  15
ATOM     15  C   UNL     1      -3.753   1.398  -1.877  0.00  0.00    +0.108 C 
BRANCH  15  16
ATOM     16  C   UNL     1      -4.681   2.571  -1.593  0.00  0.00    +0.116 C 
ATOM     17 CL   UNL     1      -6.021   1.953  -0.583  0.00  0.00    -0.112 Cl
ENDBRANCH  15  16
ENDBRANCH  11  15
ENDBRANCH   6  11
BRANCH  10  18
ATOM     18  C   UNL     1       3.065  -1.824  -0.508  0.00  0.00    +0.065 C 
BRANCH  18  19
ATOM     19  C   UNL     1       4.005  -1.685   0.657  0.00  0.00    +0.020 C 
BRANCH  19  20
ATOM     20  C   UNL     1       4.577  -0.285   0.732  0.00  0.00    +0.115 C 
BRANCH  20  21
ATOM     21  C   UNL     1       5.676  -0.160  -0.274  0.00  0.00    +0.365 C 
ATOM     22  O   UNL     1       6.261   1.090  -0.386  0.00  0.00    -0.246 OA
ATOM     23  O   UNL     1       6.206  -1.203  -0.735  0.00  0.00    -0.246 OA
ENDBRANCH  20  21
ENDBRANCH  19  20
ENDBRANCH  18  19
ENDBRANCH  10  18
TORSDOF 9
