REMARK  Name = 
REMARK  10 active torsions:
REMARK  status: ('A' for Active; 'I' for Inactive)
REMARK    1  A    between atoms: C_2  and  O_3
REMARK    2  A    between atoms: O_3  and  N_4
REMARK    3  A    between atoms: C_5  and  C_6
REMARK    4  A    between atoms: C_5  and  C_34
REMARK    5  A    between atoms: N_8  and  CA_9
REMARK    6  A    between atoms: CA_13  and  C_14
REMARK    7  A    between atoms: C_17  and  S_18
REMARK    8  A    between atoms: S_18  and  C_19
REMARK    9  A    between atoms: C_21  and  C_22
REMARK   10  A    between atoms: N_38  and  P_39
REMARK                            x       y       z     vdW  Elec       q    Type
REMARK                         _______ _______ _______ _____ _____    ______ ____
ROOT
ATOM      1  CA  UNL     1      -2.021   0.801  -0.739  0.00  0.00    +0.201 C 
ATOM      2  C   UNL     1      -0.740   1.358   0.214  0.00  0.00    +0.157 C 
ATOM      3  N   UNL     1       0.093   0.886  -0.967  0.00  0.00    -0.241 N 
ATOM      4  CA  UNL     1       1.490   1.024  -0.689  0.00  0.00    +0.138 C 
ATOM      5  C   UNL     1       1.973   1.087   0.554  0.00  0.00    +0.040 C 
ATOM      6  C   UNL     1       1.501   0.127   1.603  0.00  0.00    +0.093 C 
ATOM      7  S   UNL     1      -0.261  -0.158   1.267  0.00  0.00    -0.113 S 
ATOM      8  C   UNL     1      -0.861  -0.100  -1.430  0.00  0.00    +0.253 C 
ATOM      9  O   UNL     1      -1.017  -0.254  -2.691  0.00  0.00    -0.273 OA
ENDROOT
BRANCH   4  10
ATOM     10  C   UNL     1       2.369   0.997  -1.868  0.00  0.00    +0.401 C 
ATOM     11  OXT UNL     1       2.280   2.140  -2.672  0.00  0.00    -0.239 OA
ATOM     12  O   UNL     1       2.368  -0.089  -2.526  0.00  0.00    -0.239 OA
ENDBRANCH   4  10
BRANCH   1  14
ATOM     13  C   UNL     1      -3.268  -1.285  -0.417  0.00  0.00    +0.289 C 
ATOM     14  N   UNL     1      -2.538  -0.305   0.281  0.00  0.00    -0.190 NA
ATOM     15  O   UNL     1      -2.533  -2.004  -1.122  0.00  0.00    -0.266 OA
BRANCH  13  17
ATOM     16  N   UNL     1      -5.391  -2.015  -1.052  0.00  0.00    -0.075 NA
ATOM     17  C   UNL     1      -4.592  -1.777  -0.053  0.00  0.00    +0.210 C 
BRANCH  17  18
ATOM     18  C   UNL     1      -5.120  -1.250   1.219  0.00  0.00    +0.197 A 
ATOM     19  N   UNL     1      -5.291   0.090   1.355  0.00  0.00    -0.200 NA
ATOM     20  C   UNL     1      -6.280   0.357   2.235  0.00  0.00    +0.207 A 
ATOM     21  N   UNL     1      -7.239   1.421   2.222  0.00  0.00    -0.114 NA
ATOM     22  S   UNL     1      -5.939  -0.861   3.395  0.00  0.00    +0.051 S 
ATOM     23  N   UNL     1      -4.910  -1.814   2.437  0.00  0.00    -0.185 NA
BRANCH  21  24
ATOM     24  P   UNL     1      -8.474   1.419   0.966  0.00  0.00    +0.502 P 
ATOM     25  O   UNL     1      -7.715   0.850  -0.444  0.00  0.00    -0.121 OA
ATOM     26  O   UNL     1      -9.059   2.959   0.669  0.00  0.00    -0.121 OA
ATOM     27  O   UNL     1      -9.550   0.434   1.328  0.00  0.00    -0.230 OA
ENDBRANCH  21  24
ENDBRANCH  17  18
BRANCH  16  28
ATOM     28  O   UNL     1      -5.102  -1.702  -2.354  0.00  0.00    -0.377 OA
BRANCH  28  30
ATOM     29  C   UNL     1      -7.227  -0.878  -2.726  0.00  0.00    +0.054 C 
ATOM     30  C   UNL     1      -5.962  -0.829  -3.083  0.00  0.00    +0.239 C 
ENDBRANCH  28  30
ENDBRANCH  16  28
ENDBRANCH  13  17
ENDBRANCH   1  14
BRANCH   5  31
ATOM     31  S   UNL     1       3.656   1.694   0.703  0.00  0.00    -0.064 S 
BRANCH  31  32
ATOM     32  C   UNL     1       4.702   0.261   0.470  0.00  0.00    +0.140 A 
ATOM     33  S   UNL     1       4.369  -1.410   0.317  0.00  0.00    -0.059 S 
ATOM     34  C   UNL     1       5.991  -1.927   0.072  0.00  0.00    +0.056 A 
ATOM     35  C   UNL     1       6.680  -0.788   0.474  0.00  0.00    +0.089 A 
ATOM     36  N   UNL     1       5.996   0.320   0.259  0.00  0.00    -0.232 NA
BRANCH  35  37
ATOM     37  C   UNL     1       8.155  -0.769   0.513  0.00  0.00    +0.030 A 
ATOM     38  C   UNL     1       8.770   0.139   1.369  0.00  0.00    +0.077 A 
ATOM     39  C   UNL     1      10.042   0.642   1.119  0.00  0.00    +0.290 A 
ATOM     40  N   UNL     1      10.384   0.778  -0.186  0.00  0.00    -0.153 N 
ATOM     41  C   UNL     1      11.396   1.705  -0.638  0.00  0.00    +0.408 C 
ATOM     42  C   UNL     1       9.979  -0.237  -0.990  0.00  0.00    +0.290 A 
ATOM     43  C   UNL     1       8.899  -1.037  -0.632  0.00  0.00    +0.077 A 
ENDBRANCH  35  37
ENDBRANCH  31  32
ENDBRANCH   5  31
TORSDOF 10
