REMARK  Name = 
REMARK  2 active torsions:
REMARK  status: ('A' for Active; 'I' for Inactive)
REMARK    1  A    between atoms: C_20  and  C_21
REMARK    2  A    between atoms: C_30  and  C_31
REMARK                            x       y       z     vdW  Elec       q    Type
REMARK                         _______ _______ _______ _____ _____    ______ ____
ROOT
ATOM      1  C   UNL     1      -0.287  -4.726  -1.287  0.00  0.00    +0.032 C 
ATOM      2  C   UNL     1      -0.688  -4.051  -1.668  0.00  0.00    -0.005 C 
ATOM      3  C   UNL     1      -0.783  -2.799  -1.188  0.00  0.00    +0.124 C 
ATOM      4  C   UNL     1      -1.688  -1.775  -1.509  0.00  0.00    +0.280 C 
ATOM      5  O   UNL     1      -2.279  -2.366  -2.515  0.00  0.00    -0.267 OA
ATOM      6  N   UNL     1      -2.634  -1.186  -0.521  0.00  0.00    -0.191 NA
ATOM      7  C   UNL     1      -1.757   0.073  -0.806  0.00  0.00    +0.194 C 
ATOM      8  C   UNL     1      -2.427   1.174   0.186  0.00  0.00    +0.337 C 
ATOM      9  O   UNL     1      -3.663   1.212   0.219  0.00  0.00    -0.248 OA
ATOM     10  O   UNL     1      -1.723   2.365  -0.151  0.00  0.00    -0.446 OA
ATOM     11  C   UNL     1      -0.313   2.298   0.462  0.00  0.00    +0.200 C 
ATOM     12  C   UNL     1       0.453   2.289  -0.996  0.00  0.00    +0.135 C 
ATOM     13  C   UNL     1       1.866   1.848  -0.721  0.00  0.00    +0.246 C 
ATOM     14  N   UNL     1       2.299   0.511  -1.011  0.00  0.00    -0.198 NA
ATOM     15  C   UNL     1       3.053  -0.270   0.136  0.00  0.00    +0.173 C 
ATOM     16  C   UNL     1       2.550  -1.713  -0.382  0.00  0.00    +0.262 C 
ATOM     17  N   UNL     1       1.452  -2.273   0.360  0.00  0.00    -0.195 NA
ATOM     18  C   UNL     1       0.275  -1.221   0.354  0.00  0.00    +0.185 C 
ATOM     19  C   UNL     1       0.828  -0.475   1.687  0.00  0.00    +0.100 C 
ATOM     20  S   UNL     1      -0.190  -0.449   3.069  0.00  0.00    -0.080 S 
ATOM     21  S   UNL     1      -0.141   1.175   4.315  0.00  0.00    -0.082 S 
ATOM     22  C   UNL     1      -1.151   2.509   3.595  0.00  0.00    +0.073 C 
ATOM     23  C   UNL     1      -0.139   3.483   3.041  0.00  0.00    +0.038 C 
ATOM     24  C   UNL     1      -0.641   4.195   1.829  0.00  0.00    -0.026 C 
ATOM     25  C   UNL     1      -0.796  -2.082   1.215  0.00  0.00    +0.266 C 
ATOM     26  O   UNL     1      -0.338  -2.697   2.206  0.00  0.00    -0.271 OA
ATOM     27  O   UNL     1       2.958  -2.156  -1.454  0.00  0.00    -0.271 OA
ATOM     28  O   UNL     1       2.595   2.877  -0.896  0.00  0.00    -0.273 OA
ATOM     29  C   UNL     1      -0.207   3.911   0.592  0.00  0.00    +0.013 C 
ATOM     30  N   UNL     1      -1.277  -2.652   0.150  0.00  0.00    -0.173 NA
ENDROOT
BRANCH   7  31
ATOM     31  C   UNL     1      -2.696   0.575  -2.071  0.00  0.00    +0.031 C 
ATOM     32  C   UNL     1      -2.894   1.919  -2.197  0.00  0.00    +0.002 C 
ATOM     33  C   UNL     1      -4.096   0.050  -1.894  0.00  0.00    +0.002 C 
ENDBRANCH   7  31
BRANCH  15  34
ATOM     34  C   UNL     1       4.493  -0.353  -0.656  0.00  0.00    +0.029 C 
ATOM     35  C   UNL     1       4.504   0.525  -1.832  0.00  0.00    +0.002 C 
ATOM     36  C   UNL     1       5.483   0.254   0.339  0.00  0.00    +0.002 C 
ENDBRANCH  15  34
TORSDOF 2
