REMARK  Name = 
REMARK  11 active torsions:
REMARK  status: ('A' for Active; 'I' for Inactive)
REMARK    1  A    between atoms: O_2  and  C_3
REMARK    2  A    between atoms: C_3  and  C_5
REMARK    3  A    between atoms: C_5  and  C_6
REMARK    4  A    between atoms: C_6  and  C_8
REMARK    5  A    between atoms: C_6  and  C_15
REMARK    6  A    between atoms: C_8  and  C_9
REMARK    7  A    between atoms: C_9  and  C_10
REMARK    8  A    between atoms: C_10  and  C_11
REMARK    9  A    between atoms: C_15  and  O_17
REMARK   10  A    between atoms: O_17  and  C_18
REMARK   11  A    between atoms: C_19  and  O_20
REMARK                            x       y       z     vdW  Elec       q    Type
REMARK                         _______ _______ _______ _____ _____    ______ ____
ROOT
ATOM      1  C   UNL     1      -0.350  -1.446  -0.534  0.00  0.00    +0.230 C 
ATOM      2  C   UNL     1      -1.228  -1.133   0.901  0.00  0.00    +0.087 C 
ATOM      3  C   UNL     1      -2.489  -2.029   0.391  0.00  0.00    +0.074 C 
ATOM      4  N   UNL     1      -3.634  -1.528   1.136  0.00  0.00    -0.271 NA
ATOM      5  C   UNL     1      -3.339  -1.393   2.558  0.00  0.00    +0.077 C 
ATOM      6  C   UNL     1      -3.175   0.081   2.916  0.00  0.00    +0.043 C 
ATOM      7  C   UNL     1      -2.686   0.714   1.645  0.00  0.00    -0.021 A 
ATOM      8  C   UNL     1      -3.491   1.825   1.402  0.00  0.00    +0.036 A 
ATOM      9  C   UNL     1      -3.658   2.237   0.083  0.00  0.00    +0.176 A 
ATOM     10  O   UNL     1      -4.558   3.082  -0.573  0.00  0.00    -0.435 OA
ATOM     11  C   UNL     1      -4.386   2.836  -1.967  0.00  0.00    +0.429 C 
ATOM     12  O   UNL     1      -3.062   2.309  -2.055  0.00  0.00    -0.435 OA
ATOM     13  C   UNL     1      -2.606   1.950  -0.781  0.00  0.00    +0.176 A 
ATOM     14  C   UNL     1      -1.624   1.090  -0.292  0.00  0.00    +0.036 A 
ATOM     15  C   UNL     1      -4.620  -2.539   0.920  0.00  0.00    +0.072 C 
ATOM     16  C   UNL     1      -3.822  -3.825   1.006  0.00  0.00    +0.019 C 
ATOM     17  C   UNL     1      -2.362  -3.409   0.832  0.00  0.00    +0.021 C 
ATOM     18  C   UNL     1      -2.586  -1.726  -1.008  0.00  0.00    +0.024 C 
ATOM     19  C   UNL     1      -1.976   0.200   0.557  0.00  0.00    -0.018 A 
ATOM     20  C   UNL     1      -1.571  -1.060  -1.501  0.00  0.00    +0.153 C 
ENDROOT
BRANCH  20  21
ATOM     21  O   UNL     1      -1.242  -1.105  -2.845  0.00  0.00    -0.472 OA
ATOM     22  C   UNL     1      -1.338  -2.282  -3.613  0.00  0.00    +0.252 C 
ENDBRANCH  20  21
BRANCH   1  23
ATOM     23  O   UNL     1       0.382  -0.096  -0.485  0.00  0.00    -0.442 OA
BRANCH  23  24
ATOM     24  C   UNL     1       1.618  -0.044  -1.096  0.00  0.00    +0.346 C 
ATOM     25  O   UNL     1       1.474  -0.309  -2.334  0.00  0.00    -0.247 OA
BRANCH  24  26
ATOM     26  C   UNL     1       2.937   0.091  -0.542  0.00  0.00    +0.225 C 
ATOM     27  O   UNL     1       3.872  -0.328  -1.510  0.00  0.00    -0.214 OA
BRANCH  26  28
ATOM     28  C   UNL     1       3.393   1.499  -0.176  0.00  0.00    +0.042 C 
BRANCH  28  29
ATOM     29  C   UNL     1       4.904   1.331  -0.042  0.00  0.00    +0.006 C 
BRANCH  29  30
ATOM     30  C   UNL     1       5.552   2.209   0.951  0.00  0.00    +0.031 C 
BRANCH  30  31
ATOM     31  C   UNL     1       5.083   3.629   0.752  0.00  0.00    +0.127 C 
ATOM     32  O   UNL     1       4.929   3.834  -0.615  0.00  0.00    -0.226 OA
ATOM     33  C   UNL     1       3.752   3.708   1.492  0.00  0.00    +0.033 C 
ATOM     34  C   UNL     1       6.049   4.645   1.297  0.00  0.00    +0.033 C 
ENDBRANCH  30  31
ENDBRANCH  29  30
ENDBRANCH  28  29
ENDBRANCH  26  28
BRANCH  26  35
ATOM     35  C   UNL     1       3.255  -0.721   0.687  0.00  0.00    +0.151 C 
BRANCH  35  36
ATOM     36  C   UNL     1       3.207  -2.145   0.310  0.00  0.00    +0.320 C 
ATOM     37  O   UNL     1       3.725  -2.565  -0.769  0.00  0.00    -0.250 OA
BRANCH  36  39
ATOM     38  C   UNL     1       2.931  -4.448   0.868  0.00  0.00    +0.256 C 
ATOM     39  O   UNL     1       2.743  -3.135   1.176  0.00  0.00    -0.444 OA
ENDBRANCH  36  39
ENDBRANCH  35  36
ENDBRANCH  26  35
ENDBRANCH  24  26
ENDBRANCH  23  24
ENDBRANCH   1  23
TORSDOF 11
