REMARK  Name = 
REMARK  8 active torsions:
REMARK  status: ('A' for Active; 'I' for Inactive)
REMARK    1  A    between atoms: C_2  and  C_3
REMARK    2  A    between atoms: C_3  and  C_4
REMARK    3  A    between atoms: C_4  and  C_6
REMARK    4  A    between atoms: C_4  and  C_11
REMARK    5  A    between atoms: C_6  and  O_7
REMARK    6  A    between atoms: O_7  and  C_8
REMARK    7  A    between atoms: C_11  and  O_12
REMARK    8  A    between atoms: O_12  and  C_13
REMARK                            x       y       z     vdW  Elec       q    Type
REMARK                         _______ _______ _______ _____ _____    ______ ____
ROOT
ATOM      1  C   UNL     1       0.001   0.316   0.287  0.00  0.00    +0.081 C 
ATOM      2  C   UNL     1       0.364   0.228   1.751  0.00  0.00    +0.007 C 
ENDROOT
BRANCH   1   3
ATOM      3  C   UNL     1      -0.758  -0.913  -0.121  0.00  0.00    +0.214 C 
BRANCH   3   4
ATOM      4  O   UNL     1      -1.943  -1.107   0.645  0.00  0.00    -0.432 OA
BRANCH   4   5
ATOM      5  C   UNL     1      -3.171  -1.225  -0.011  0.00  0.00    +0.441 C 
ATOM      6  O   UNL     1      -3.368  -0.489  -1.000  0.00  0.00    -0.223 OA
ATOM      7  N   UNL     1      -4.128  -2.233   0.327  0.00  0.00    -0.048 NA
ENDBRANCH   4   5
ENDBRANCH   3   4
ENDBRANCH   1   3
BRANCH   1   8
ATOM      8  C   UNL     1      -0.831   1.567   0.026  0.00  0.00    +0.007 C 
BRANCH   8  10
ATOM      9  C   UNL     1      -0.538   3.924  -0.472  0.00  0.00    +0.000 C 
ATOM     10  C   UNL     1       0.131   2.736   0.209  0.00  0.00    +0.000 C 
ENDBRANCH   8  10
ENDBRANCH   1   8
BRANCH   1  11
ATOM     11  C   UNL     1       1.214   0.420  -0.606  0.00  0.00    +0.214 C 
BRANCH  11  12
ATOM     12  O   UNL     1       2.425   0.227   0.084  0.00  0.00    -0.432 OA
BRANCH  12  13
ATOM     13  C   UNL     1       3.260  -0.862  -0.190  0.00  0.00    +0.441 C 
ATOM     14  O   UNL     1       2.662  -1.886  -0.637  0.00  0.00    -0.223 OA
ATOM     15  N   UNL     1       4.678  -0.705  -0.328  0.00  0.00    -0.048 NA
ENDBRANCH  12  13
ENDBRANCH  11  12
ENDBRANCH   1  11
TORSDOF 8
