REMARK  Name = 
REMARK  8 active torsions:
REMARK  status: ('A' for Active; 'I' for Inactive)
REMARK    1  A    between atoms: C_2  and  N_4
REMARK    2  A    between atoms: N_4  and  C_5
REMARK    3  A    between atoms: C_5  and  C_6
REMARK    4  A    between atoms: C_6  and  C_8
REMARK    5  A    between atoms: C_8  and  O_9
REMARK    6  A    between atoms: O_9  and  C_10
REMARK    7  A    between atoms: C_13  and  C_14
REMARK    8  A    between atoms: C_14  and  C_15
REMARK                            x       y       z     vdW  Elec       q    Type
REMARK                         _______ _______ _______ _____ _____    ______ ____
ROOT
ATOM      1  C   UNL     1       0.425  -0.298   0.357  0.00  0.00    +0.139 A 
ATOM      2  C   UNL     1       0.973  -1.570   0.249  0.00  0.00    +0.037 A 
ATOM      3  C   UNL     1       2.312  -1.627  -0.113  0.00  0.00    -0.001 A 
ATOM      4  C   UNL     1       3.030  -0.498  -0.431  0.00  0.00    -0.013 A 
ATOM      5  C   UNL     1       2.503   0.738  -0.139  0.00  0.00    -0.001 A 
ATOM      6  C   UNL     1       1.151   0.847   0.130  0.00  0.00    +0.037 A 
ENDROOT
BRANCH   1   7
ATOM      7  O   UNL     1      -0.971  -0.247   0.334  0.00  0.00    -0.473 OA
BRANCH   7   8
ATOM      8  C   UNL     1      -1.555   0.006  -0.944  0.00  0.00    +0.240 C 
BRANCH   8   9
ATOM      9  C   UNL     1      -2.460   1.361  -0.529  0.00  0.00    +0.213 C 
ATOM     10  O   UNL     1      -2.209   1.999  -1.916  0.00  0.00    -0.218 OA
BRANCH   9  11
ATOM     11  C   UNL     1      -3.874   0.636  -1.078  0.00  0.00    +0.125 C 
BRANCH  11  12
ATOM     12  N   UNL     1      -3.969  -0.480  -0.140  0.00  0.00    -0.217 NA
BRANCH  12  14
ATOM     13  C   UNL     1      -5.472   0.765   0.645  0.00  0.00    +0.019 C 
ATOM     14  C   UNL     1      -5.226  -0.299   0.581  0.00  0.00    +0.073 C 
ATOM     15  C   UNL     1      -6.245  -1.165  -0.151  0.00  0.00    +0.019 C 
ENDBRANCH  12  14
ENDBRANCH  11  12
ENDBRANCH   9  11
ENDBRANCH   8   9
ENDBRANCH   7   8
ENDBRANCH   1   7
BRANCH   4  16
ATOM     16  C   UNL     1       4.210  -0.682  -1.329  0.00  0.00    +0.115 C 
BRANCH  16  17
ATOM     17  C   UNL     1       5.390  -0.012  -0.752  0.00  0.00    +0.265 C 
ATOM     18  O   UNL     1       6.085  -0.639   0.072  0.00  0.00    -0.271 OA
ATOM     19  N   UNL     1       5.901   1.164  -1.362  0.00  0.00    -0.087 NA
ENDBRANCH  16  17
ENDBRANCH   4  16
TORSDOF 8
