REMARK  Name = 
REMARK  7 active torsions:
REMARK  status: ('A' for Active; 'I' for Inactive)
REMARK    1  A    between atoms: C_2  and  C_3
REMARK    2  A    between atoms: C_3  and  N_4
REMARK    3  A    between atoms: N_4  and  C_5
REMARK    4  A    between atoms: C_5  and  C_7
REMARK    5  A    between atoms: N_9  and  C_10
REMARK    6  A    between atoms: C_15  and  C_16
REMARK    7  A    between atoms: C_16  and  O_18
REMARK                            x       y       z     vdW  Elec       q    Type
REMARK                         _______ _______ _______ _____ _____    ______ ____
ROOT
ATOM      1  C   UNL     1      -1.429  -0.811   0.144  0.00  0.00    +0.082 A 
ATOM      2  C   UNL     1      -2.198   0.325   0.279  0.00  0.00    +0.120 A 
ATOM      3  S   UNL     1      -3.717  -0.248   0.828  0.00  0.00    -0.079 S 
ATOM      4  C   UNL     1      -3.237  -1.874   1.091  0.00  0.00    +0.033 A 
ATOM      5  C   UNL     1      -2.092  -1.970   0.352  0.00  0.00    +0.001 A 
ATOM      6  C   UNL     1      -1.582  -3.339  -0.004  0.00  0.00    +0.033 C 
ENDROOT
BRANCH   1   8
ATOM      7  C   UNL     1       1.012  -1.104  -0.273  0.00  0.00    +0.261 C 
ATOM      8  N   UNL     1      -0.269  -0.731  -0.705  0.00  0.00    -0.178 NA
ATOM      9  O   UNL     1       1.113  -2.017   0.534  0.00  0.00    -0.271 OA
BRANCH   7  10
ATOM     10  C   UNL     1       2.151   0.033  -0.324  0.00  0.00    +0.151 C 
ATOM     11  C   UNL     1       2.323   0.083   1.313  0.00  0.00    +0.029 C 
BRANCH  10  12
ATOM     12  N   UNL     1       3.303  -1.032  -0.475  0.00  0.00    -0.210 NA
BRANCH  12  13
ATOM     13  C   UNL     1       4.433  -0.383   0.108  0.00  0.00    +0.089 C 
BRANCH  13  15
ATOM     14  C   UNL     1       4.098   1.839  -0.580  0.00  0.00    +0.002 C 
ATOM     15  C   UNL     1       4.603   1.044  -0.134  0.00  0.00    +0.019 C 
ENDBRANCH  13  15
ENDBRANCH  12  13
ENDBRANCH  10  12
ENDBRANCH   7  10
ENDBRANCH   1   8
BRANCH   2  16
ATOM     16  C   UNL     1      -1.965   1.666  -0.278  0.00  0.00    +0.349 C 
ATOM     17  O   UNL     1      -0.891   1.948  -0.856  0.00  0.00    -0.244 OA
BRANCH  16  18
ATOM     18  O   UNL     1      -2.922   2.643  -0.186  0.00  0.00    -0.441 OA
ATOM     19  C   UNL     1      -2.734   3.929  -0.765  0.00  0.00    +0.256 C 
ENDBRANCH  16  18
ENDBRANCH   2  16
TORSDOF 7
