REMARK  Name = 
REMARK  6 active torsions:
REMARK  status: ('A' for Active; 'I' for Inactive)
REMARK    1  A    between atoms: N_2  and  C_3
REMARK    2  A    between atoms: N_2  and  C_12
REMARK    3  A    between atoms: C_3  and  C_4
REMARK    4  A    between atoms: C_5  and  C_6
REMARK    5  A    between atoms: C_7  and  C_8
REMARK    6  A    between atoms: C_12  and  C_13
REMARK                            x       y       z     vdW  Elec       q    Type
REMARK                         _______ _______ _______ _____ _____    ______ ____
ROOT
ATOM      1  C   UNL     1       0.500   0.485  -1.227  0.00  0.00    +0.090 C 
ATOM      2  N   UNL     1       0.273  -0.120   0.058  0.00  0.00    -0.264 NA
ENDROOT
BRANCH   2   3
ATOM      3  C   UNL     1      -0.863  -0.995   0.105  0.00  0.00    +0.099 C 
BRANCH   3   4
ATOM      4  C   UNL     1      -2.113  -0.303   0.536  0.00  0.00    -0.006 A 
ATOM      5  C   UNL     1      -3.099  -0.050  -0.399  0.00  0.00    -0.003 A 
ATOM      6  C   UNL     1      -4.449  -0.164  -0.092  0.00  0.00    -0.000 A 
ATOM      7  C   UNL     1      -5.416  -0.142  -1.081  0.00  0.00    -0.000 A 
ATOM      8  C   UNL     1      -5.007  -0.312  -2.391  0.00  0.00    -0.000 A 
ATOM      9  C   UNL     1      -3.734   0.132  -2.703  0.00  0.00    -0.000 A 
ATOM     10  C   UNL     1      -4.848  -0.472   1.192  0.00  0.00    -0.000 A 
ATOM     11  C   UNL     1      -3.889  -0.582   2.170  0.00  0.00    -0.000 A 
ATOM     12  C   UNL     1      -2.752   0.133  -1.726  0.00  0.00    -0.000 A 
ATOM     13  C   UNL     1      -2.542  -0.500   1.839  0.00  0.00    -0.003 A 
ENDBRANCH   3   4
ENDBRANCH   2   3
BRANCH   2  14
ATOM     14  C   UNL     1       0.337   0.815   1.156  0.00  0.00    +0.100 C 
BRANCH  14  15
ATOM     15  C   UNL     1       1.768   1.244   1.256  0.00  0.00    +0.000 C 
ATOM     16  C   UNL     1       2.699   0.528   1.844  0.00  0.00    +0.046 C 
BRANCH  16  17
ATOM     17  C   UNL     1       4.031   0.353   1.310  0.00  0.00    -0.064 C 
ATOM     18  C   UNL     1       4.994  -0.031   0.672  0.00  0.00    -0.088 C 
BRANCH  18  19
ATOM     19  C   UNL     1       5.801  -0.681  -0.376  0.00  0.00    +0.054 C 
ATOM     20  C   UNL     1       7.241  -0.321  -0.038  0.00  0.00    +0.013 C 
ATOM     21  C   UNL     1       5.467  -0.107  -1.746  0.00  0.00    +0.013 C 
ATOM     22  C   UNL     1       5.600  -2.176  -0.359  0.00  0.00    +0.013 C 
ENDBRANCH  18  19
ENDBRANCH  16  17
ENDBRANCH  14  15
ENDBRANCH   2  14
TORSDOF 6
