REMARK  Name = 
REMARK  1 active torsions:
REMARK  status: ('A' for Active; 'I' for Inactive)
REMARK    1  A    between atoms: N_2  and  C_3
REMARK                            x       y       z     vdW  Elec       q    Type
REMARK                         _______ _______ _______ _____ _____    ______ ____
ROOT
ATOM      1  C   UNL     1       0.742  -0.258  -0.117  0.00  0.00    +0.059 C 
ATOM      2  C   UNL     1       0.256   1.084   0.394  0.00  0.00    +0.014 C 
ATOM      3  C   UNL     1      -0.005   2.187  -0.392  0.00  0.00    +0.001 C 
ATOM      4  C   UNL     1       0.052   1.069   1.892  0.00  0.00    +0.001 C 
ATOM      5  C   UNL     1      -0.688  -0.151   0.111  0.00  0.00    +0.001 C 
ATOM      6  C   UNL     1      -1.198   0.436  -1.383  0.00  0.00    +0.001 C 
ATOM      7  C   UNL     1      -2.042   0.198   0.813  0.00  0.00    +0.000 C 
ATOM      8  C   UNL     1      -1.617  -1.296   0.315  0.00  0.00    +0.001 C 
ATOM      9  C   UNL     1      -0.532  -0.985  -0.924  0.00  0.00    +0.015 C 
ATOM     10  C   UNL     1       1.028  -1.127   1.078  0.00  0.00    +0.017 C 
ENDROOT
BRANCH   1  12
ATOM     11  C   UNL     1       2.331  -0.906  -0.634  0.00  0.00    +0.107 C 
ATOM     12  N   UNL     1       1.674  -0.250  -1.152  0.00  0.00    -0.219 NA
ENDBRANCH   1  12
TORSDOF 1
