REMARK  Name = 
REMARK  3 active torsions:
REMARK  status: ('A' for Active; 'I' for Inactive)
REMARK    1  A    between atoms: C_2  and  C_3
REMARK    2  A    between atoms: C_3  and  C_4
REMARK    3  A    between atoms: C_4  and  C_5
REMARK                            x       y       z     vdW  Elec       q    Type
REMARK                         _______ _______ _______ _____ _____    ______ ____
ROOT
ATOM      1  C   UNL     1       0.278   0.451  -0.214  0.00  0.00    +0.028 C 
ATOM      2  C   UNL     1       1.481   0.595   0.708  0.00  0.00    +0.002 C 
ATOM      3  C   UNL     1       1.756  -0.698   1.429  0.00  0.00    +0.000 C 
ATOM      4  C   UNL     1       1.573  -1.882   0.488  0.00  0.00    +0.000 C 
ATOM      5  C   UNL     1       1.829  -1.357  -0.917  0.00  0.00    +0.000 C 
ATOM      6  C   UNL     1       0.595  -0.557  -1.311  0.00  0.00    +0.002 C 
ENDROOT
BRANCH   1   8
ATOM      7  N   UNL     1       0.994   2.766  -0.471  0.00  0.00    -0.131 NA
ATOM      8  C   UNL     1      -0.001   1.774  -0.875  0.00  0.00    +0.110 C 
ENDBRANCH   1   8
BRANCH   1   9
ATOM      9  C   UNL     1      -0.875  -0.007   0.627  0.00  0.00    +0.115 C 
BRANCH   9  10
ATOM     10  C   UNL     1      -2.065  -0.396  -0.193  0.00  0.00    +0.365 C 
ATOM     11  O   UNL     1      -2.826   0.674  -0.676  0.00  0.00    -0.246 OA
ATOM     12  O   UNL     1      -2.739  -1.363   0.274  0.00  0.00    -0.246 OA
ENDBRANCH   9  10
ENDBRANCH   1   9
TORSDOF 3
