REMARK  Name = 
REMARK  10 active torsions:
REMARK  status: ('A' for Active; 'I' for Inactive)
REMARK    1  A    between atoms: C_2  and  C_3
REMARK    2  A    between atoms: C_3  and  C_4
REMARK    3  A    between atoms: C_4  and  C_5
REMARK    4  A    between atoms: C_5  and  C_6
REMARK    5  A    between atoms: C_6  and  C_7
REMARK    6  A    between atoms: C_7  and  C_8
REMARK    7  A    between atoms: C_8  and  C_9
REMARK    8  A    between atoms: C_9  and  C_10
REMARK    9  A    between atoms: C_10  and  O_12
REMARK   10  A    between atoms: O_12  and  C_13
REMARK                            x       y       z     vdW  Elec       q    Type
REMARK                         _______ _______ _______ _____ _____    ______ ____
ROOT
ATOM      1  C   UNL     1       0.154  -1.414  -0.538  0.00  0.00    +0.169 C 
ATOM      2  C   UNL     1      -0.784  -0.490   0.430  0.00  0.00    +0.037 C 
ATOM      3  C   UNL     1      -2.013  -1.096  -0.435  0.00  0.00    +0.003 C 
ATOM      4  C   UNL     1      -3.123  -0.440   0.650  0.00  0.00    +0.001 C 
ATOM      5  C   UNL     1      -3.262   0.856  -0.401  0.00  0.00    +0.004 C 
ATOM      6  C   UNL     1      -2.030   1.671   0.228  0.00  0.00    +0.000 C 
ATOM      7  C   UNL     1      -4.365   1.622   0.625  0.00  0.00    +0.019 C 
ATOM      8  C   UNL     1      -5.600   0.922  -0.095  0.00  0.00    -0.042 C 
ATOM      9  C   UNL     1      -6.177   1.357  -1.124  0.00  0.00    +0.029 C 
ATOM     10  C   UNL     1      -6.330   2.785  -1.304  0.00  0.00    +0.173 C 
ATOM     11  C   UNL     1      -5.592   3.618  -0.302  0.00  0.00    +0.069 C 
ATOM     12  O   UNL     1      -6.940   3.346  -2.195  0.00  0.00    -0.291 OA
ATOM     13  C   UNL     1      -5.620  -0.506   0.328  0.00  0.00    +0.022 C 
ATOM     14  C   UNL     1      -4.260   2.966  -0.286  0.00  0.00    +0.012 C 
ATOM     15  C   UNL     1      -4.354  -1.227  -0.021  0.00  0.00    +0.004 C 
ATOM     16  C   UNL     1      -1.887  -2.499   0.349  0.00  0.00    +0.004 C 
ATOM     17  C   UNL     1      -0.762  -0.966   1.773  0.00  0.00    +0.004 C 
ATOM     18  C   UNL     1      -0.768   0.890   0.029  0.00  0.00    +0.003 C 
ATOM     19  C   UNL     1      -0.456  -2.812   0.090  0.00  0.00    +0.044 C 
ENDROOT
BRANCH   1  20
ATOM     20  O   UNL     1       1.319  -1.393   0.477  0.00  0.00    -0.452 OA
BRANCH  20  21
ATOM     21  C   UNL     1       2.479  -1.729  -0.226  0.00  0.00    +0.317 C 
ATOM     22  O   UNL     1       2.804  -0.943  -1.159  0.00  0.00    -0.250 OA
BRANCH  21  23
ATOM     23  C   UNL     1       3.453  -2.745   0.248  0.00  0.00    +0.110 C 
BRANCH  23  24
ATOM     24  C   UNL     1       4.320  -2.127   1.322  0.00  0.00    +0.012 C 
BRANCH  24  25
ATOM     25  C   UNL     1       5.278  -1.196   0.602  0.00  0.00    +0.001 C 
BRANCH  25  26
ATOM     26  C   UNL     1       6.279  -2.076  -0.095  0.00  0.00    +0.000 C 
BRANCH  26  27
ATOM     27  C   UNL     1       7.273  -1.187  -0.786  0.00  0.00    +0.000 C 
BRANCH  27  28
ATOM     28  C   UNL     1       7.993  -0.364   0.249  0.00  0.00    +0.000 C 
BRANCH  28  29
ATOM     29  C   UNL     1       8.527   0.901  -0.412  0.00  0.00    +0.000 C 
BRANCH  29  31
ATOM     30  C   UNL     1       6.781   2.202  -0.202  0.00  0.00    +0.000 C 
ATOM     31  C   UNL     1       7.662   2.071  -0.004  0.00  0.00    +0.000 C 
ENDBRANCH  29  31
ENDBRANCH  28  29
ENDBRANCH  27  28
ENDBRANCH  26  27
ENDBRANCH  25  26
ENDBRANCH  24  25
ENDBRANCH  23  24
ENDBRANCH  21  23
ENDBRANCH  20  21
ENDBRANCH   1  20
TORSDOF 10
