REMARK  Name = 
REMARK  3 active torsions:
REMARK  status: ('A' for Active; 'I' for Inactive)
REMARK    1  A    between atoms: N_8  and  C_9
REMARK    2  A    between atoms: C_12  and  C_13
REMARK    3  A    between atoms: N_17  and  C_18
REMARK                            x       y       z     vdW  Elec       q    Type
REMARK                         _______ _______ _______ _____ _____    ______ ____
ROOT
ATOM      1  N   UNL     1       1.799  -3.577  -0.223  0.00  0.00    -0.086 NA
ATOM      2  C   UNL     1       1.649  -2.626  -0.186  0.00  0.00    +0.259 A 
ATOM      3  N   UNL     1       2.712  -1.788  -0.109  0.00  0.00    -0.193 NA
ATOM      4  C   UNL     1       2.597  -0.453  -0.028  0.00  0.00    +0.171 A 
ATOM      5  N   UNL     1       3.674   0.414   0.292  0.00  0.00    -0.221 NA
ATOM      6  C   UNL     1       1.336   0.108  -0.078  0.00  0.00    +0.150 A 
ATOM      7  N   UNL     1       0.932   1.359  -0.267  0.00  0.00    -0.219 NA
ATOM      8  C   UNL     1      -0.317   1.268  -0.742  0.00  0.00    +0.180 A 
ATOM      9  N   UNL     1      -0.853   0.101  -0.286  0.00  0.00    -0.292 N 
ATOM     10  C   UNL     1       0.222  -0.719  -0.175  0.00  0.00    +0.169 A 
ATOM     11  N   UNL     1       0.435  -2.033  -0.195  0.00  0.00    -0.192 NA
ENDROOT
BRANCH   9  12
ATOM     12  C   UNL     1      -2.176  -0.449  -0.951  0.00  0.00    +0.111 C 
ATOM     13  C   UNL     1      -2.987   0.967  -0.730  0.00  0.00    +0.034 C 
ATOM     14  C   UNL     1      -4.401   0.158  -0.623  0.00  0.00    +0.057 C 
ATOM     15  C   UNL     1      -3.864  -0.579   0.692  0.00  0.00    -0.026 C 
ATOM     16  C   UNL     1      -2.703  -1.036   0.455  0.00  0.00    -0.008 C 
BRANCH  14  17
ATOM     17  C   UNL     1      -5.099   1.364   0.236  0.00  0.00    +0.186 C 
ATOM     18  O   UNL     1      -6.369   0.920   0.556  0.00  0.00    -0.220 OA
ENDBRANCH  14  17
ENDBRANCH   9  12
BRANCH   5  19
ATOM     19  C   UNL     1       3.932   1.599  -0.492  0.00  0.00    +0.094 C 
ATOM     20  C   UNL     1       5.299   2.168  -0.341  0.00  0.00    +0.023 C 
ATOM     21  C   UNL     1       4.179   2.831   0.423  0.00  0.00    +0.023 C 
ENDBRANCH   5  19
TORSDOF 3
