REMARK  Name = 
REMARK  4 active torsions:
REMARK  status: ('A' for Active; 'I' for Inactive)
REMARK    1  A    between atoms: C_2  and  C_3
REMARK    2  A    between atoms: C_12  and  C_13
REMARK    3  A    between atoms: C_12  and  C_15
REMARK    4  A    between atoms: C_15  and  C_16
REMARK                            x       y       z     vdW  Elec       q    Type
REMARK                         _______ _______ _______ _____ _____    ______ ____
ROOT
ATOM      1  C   UNL     1       2.705   1.162   0.144  0.00  0.00    -0.005 A 
ATOM      2  C   UNL     1       1.607   0.368  -0.082  0.00  0.00    +0.077 A 
ATOM      3  C   UNL     1       1.704  -1.011   0.017  0.00  0.00    +0.015 A 
ATOM      4  C   UNL     1       0.420  -1.467  -0.152  0.00  0.00    -0.002 A 
ATOM      5  C   UNL     1      -0.109  -2.841  -0.056  0.00  0.00    +0.060 C 
ATOM      6  C   UNL     1      -1.404  -2.917   0.703  0.00  0.00    +0.147 C 
ATOM      7  O   UNL     1      -1.774  -1.737   1.309  0.00  0.00    -0.352 OA
ATOM      8  C   UNL     1      -1.829  -0.651   0.455  0.00  0.00    +0.138 C 
ATOM      9  C   UNL     1      -0.471  -0.406  -0.123  0.00  0.00    +0.080 A 
ATOM     10  C   UNL     1       2.951  -1.619  -0.040  0.00  0.00    +0.001 A 
ATOM     11  C   UNL     1       4.057  -0.780  -0.008  0.00  0.00    -0.000 A 
ATOM     12  N   UNL     1       0.299   0.703  -0.182  0.00  0.00    -0.248 NA
ATOM     13  C   UNL     1       3.929   0.562   0.294  0.00  0.00    -0.003 A 
ENDROOT
BRANCH   1  15
ATOM     14  C   UNL     1       2.715   3.131  -0.143  0.00  0.00    +0.005 C 
ATOM     15  C   UNL     1       2.600   2.648   0.251  0.00  0.00    +0.028 C 
ENDBRANCH   1  15
BRANCH   8  16
ATOM     16  C   UNL     1      -2.811  -0.820  -0.672  0.00  0.00    +0.034 C 
ATOM     17  C   UNL     1      -4.163  -1.169  -0.070  0.00  0.00    +0.003 C 
ENDBRANCH   8  16
BRANCH   8  18
ATOM     18  C   UNL     1      -2.301   0.531   1.282  0.00  0.00    +0.147 C 
BRANCH  18  19
ATOM     19  C   UNL     1      -2.549   1.732   0.454  0.00  0.00    +0.368 C 
ATOM     20  O   UNL     1      -3.114   2.824   1.118  0.00  0.00    -0.246 OA
ATOM     21  O   UNL     1      -2.462   1.756  -0.792  0.00  0.00    -0.246 OA
ENDBRANCH  18  19
ENDBRANCH   8  18
TORSDOF 4
