REMARK  Name = 
REMARK  5 active torsions:
REMARK  status: ('A' for Active; 'I' for Inactive)
REMARK    1  A    between atoms: C_2  and  O_3
REMARK    2  A    between atoms: O_3  and  C_4
REMARK    3  A    between atoms: C_4  and  C_6
REMARK    4  A    between atoms: N_10  and  C_11
REMARK    5  A    between atoms: C_11  and  C_13
REMARK                            x       y       z     vdW  Elec       q    Type
REMARK                         _______ _______ _______ _____ _____    ______ ____
ROOT
ATOM      1  C   UNL     1       1.434   0.484  -0.723  0.00  0.00    +0.157 A 
ATOM      2  N   UNL     1       0.187  -0.034  -0.861  0.00  0.00    -0.302 N 
ATOM      3  C   UNL     1       0.076  -0.414  -2.089  0.00  0.00    +0.179 A 
ATOM      4  N   UNL     1       1.128   0.004  -2.835  0.00  0.00    -0.222 NA
ATOM      5  C   UNL     1       2.028   0.487  -1.979  0.00  0.00    +0.124 A 
ENDROOT
BRANCH   1   6
ATOM      6  C   UNL     1       2.268   0.561   0.483  0.00  0.00    +0.359 C 
ATOM      7  O   UNL     1       1.640   0.826   1.552  0.00  0.00    -0.243 OA
BRANCH   6   8
ATOM      8  O   UNL     1       3.428  -0.140   0.617  0.00  0.00    -0.444 OA
BRANCH   8  10
ATOM      9  C   UNL     1       4.043  -1.343   1.570  0.00  0.00    +0.051 C 
ATOM     10  C   UNL     1       3.744  -1.002   1.711  0.00  0.00    +0.209 C 
ENDBRANCH   8  10
ENDBRANCH   6   8
ENDBRANCH   1   6
BRANCH   2  11
ATOM     11  C   UNL     1      -0.387  -0.716   0.434  0.00  0.00    +0.110 C 
ATOM     12  C   UNL     1      -1.031  -2.035  -0.323  0.00  0.00    +0.029 C 
BRANCH  11  13
ATOM     13  C   UNL     1      -1.770   0.116   0.375  0.00  0.00    -0.002 A 
ATOM     14  C   UNL     1      -2.375   0.274   1.608  0.00  0.00    -0.002 A 
ATOM     15  C   UNL     1      -3.747   0.489   1.593  0.00  0.00    -0.000 A 
ATOM     16  C   UNL     1      -4.458   0.546   0.409  0.00  0.00    -0.000 A 
ATOM     17  C   UNL     1      -3.756   0.646  -0.768  0.00  0.00    -0.000 A 
ATOM     18  C   UNL     1      -2.454   0.158  -0.775  0.00  0.00    -0.002 A 
ENDBRANCH  11  13
ENDBRANCH   2  11
TORSDOF 5
