REMARK  Name = 
REMARK  2 active torsions:
REMARK  status: ('A' for Active; 'I' for Inactive)
REMARK    1  A    between atoms: C_3  and  C_4
REMARK    2  A    between atoms: N_6  and  C_7
REMARK                            x       y       z     vdW  Elec       q    Type
REMARK                         _______ _______ _______ _____ _____    ______ ____
ROOT
ATOM      1  C   UNL     1      -0.994  -3.104  -1.009  0.00  0.00    +0.139 C 
ATOM      2  N   UNL     1      -1.355  -1.946  -0.240  0.00  0.00    -0.181 N 
ATOM      3  S   UNL     1      -2.981  -1.345  -0.355  0.00  0.00    +0.077 S 
ATOM      4  O   UNL     1      -3.592  -1.668  -1.682  0.00  0.00    -0.150 OA
ATOM      5  O   UNL     1      -3.782  -1.881   0.786  0.00  0.00    -0.150 OA
ATOM      6  C   UNL     1      -2.888   0.378  -0.173  0.00  0.00    +0.129 A 
ATOM      7  C   UNL     1      -1.689   0.994   0.092  0.00  0.00    +0.059 A 
ATOM      8  C   UNL     1      -1.677   2.379   0.224  0.00  0.00    +0.005 A 
ATOM      9  C   UNL     1      -2.654   3.085  -0.423  0.00  0.00    +0.000 A 
ATOM     10  C   UNL     1      -3.897   2.472  -0.523  0.00  0.00    +0.001 A 
ATOM     11  C   UNL     1      -0.664   0.150   0.720  0.00  0.00    +0.216 C 
ATOM     12  O   UNL     1       0.425   0.827   1.284  0.00  0.00    -0.285 OA
ATOM     13  C   UNL     1      -4.031   1.119  -0.276  0.00  0.00    +0.020 A 
ATOM     14  C   UNL     1      -0.339  -1.024   0.172  0.00  0.00    +0.163 C 
ENDROOT
BRANCH  14  15
ATOM     15  C   UNL     1       1.064  -1.438   0.001  0.00  0.00    +0.288 C 
ATOM     16  N   UNL     1       2.117  -0.951   0.800  0.00  0.00    -0.155 NA
ATOM     17  O   UNL     1       1.375  -1.827  -1.166  0.00  0.00    -0.266 OA
BRANCH  16  18
ATOM     18  C   UNL     1       3.368  -0.472   0.288  0.00  0.00    +0.155 A 
ATOM     19  N   UNL     1       3.434   0.417  -0.732  0.00  0.00    -0.227 NA
ATOM     20  C   UNL     1       4.081   1.603  -0.614  0.00  0.00    +0.100 A 
ATOM     21  C   UNL     1       5.077   1.769   0.340  0.00  0.00    +0.021 A 
ATOM     22  C   UNL     1       5.263   0.739   1.218  0.00  0.00    +0.005 A 
ATOM     23  C   UNL     1       4.338  -0.276   1.268  0.00  0.00    +0.036 A 
ENDBRANCH  16  18
ENDBRANCH  14  15
TORSDOF 2
