REMARK  Name = 
REMARK  5 active torsions:
REMARK  status: ('A' for Active; 'I' for Inactive)
REMARK    1  A    between atoms: N_4  and  C_5
REMARK    2  A    between atoms: N_16  and  N_17
REMARK    3  A    between atoms: N_17  and  C_18
REMARK    4  A    between atoms: C_22  and  C_23
REMARK    5  A    between atoms: C_27  and  C_28
REMARK                            x       y       z     vdW  Elec       q    Type
REMARK                         _______ _______ _______ _____ _____    ______ ____
ROOT
ATOM      1  N   UNL     1      -0.003   0.121   0.228  0.00  0.00    -0.114 NA
ENDROOT
BRANCH   1   5
ATOM      2  C   UNL     1       2.770   0.674   3.732  0.00  0.00    +0.056 C 
ATOM      3  C   UNL     1       2.964   0.063   2.382  0.00  0.00    +0.101 C 
ATOM      4  C   UNL     1       1.944  -0.260   1.379  0.00  0.00    +0.171 C 
ATOM      5  N   UNL     1       0.713   0.155   1.425  0.00  0.00    -0.153 NA
ATOM      6  C   UNL     1       2.710  -0.586   0.171  0.00  0.00    +0.292 C 
ATOM      7  O   UNL     1       2.211  -0.782  -0.969  0.00  0.00    -0.266 OA
ATOM      8  N   UNL     1       4.086  -0.435   0.538  0.00  0.00    -0.154 N 
ATOM      9  N   UNL     1       4.131  -0.265   1.935  0.00  0.00    -0.174 NA
BRANCH   8  10
ATOM     10  C   UNL     1       5.147  -0.240  -0.405  0.00  0.00    +0.077 A 
ATOM     11  C   UNL     1       5.278   0.974  -1.069  0.00  0.00    +0.012 A 
ATOM     12  C   UNL     1       6.535   1.460  -1.365  0.00  0.00    -0.024 A 
ATOM     13  C   UNL     1       6.709   2.800  -1.988  0.00  0.00    +0.031 C 
ATOM     14  C   UNL     1       7.697   0.797  -0.993  0.00  0.00    -0.026 A 
ATOM     15  C   UNL     1       8.874   1.593  -0.523  0.00  0.00    +0.031 C 
ATOM     16  C   UNL     1       7.544  -0.527  -0.605  0.00  0.00    -0.003 A 
ATOM     17  C   UNL     1       6.272  -1.055  -0.422  0.00  0.00    +0.016 A 
ENDBRANCH   8  10
ENDBRANCH   1   5
BRANCH   1  18
ATOM     18  C   UNL     1      -1.120  -0.735   0.006  0.00  0.00    +0.130 A 
ATOM     19  C   UNL     1      -2.173  -0.397  -0.823  0.00  0.00    +0.212 A 
ATOM     20  O   UNL     1      -1.959   0.604  -1.771  0.00  0.00    -0.285 OA
ATOM     21  C   UNL     1      -3.440  -0.945  -0.683  0.00  0.00    +0.040 A 
ATOM     22  C   UNL     1      -3.523  -2.065   0.134  0.00  0.00    +0.003 A 
ATOM     23  C   UNL     1      -2.558  -2.352   1.091  0.00  0.00    +0.002 A 
ATOM     24  C   UNL     1      -1.367  -1.686   0.988  0.00  0.00    +0.022 A 
BRANCH  21  25
ATOM     25  C   UNL     1      -4.622  -0.155  -1.045  0.00  0.00    +0.003 A 
ATOM     26  C   UNL     1      -5.873  -0.621  -0.671  0.00  0.00    +0.007 A 
ATOM     27  C   UNL     1      -6.928   0.240  -0.401  0.00  0.00    +0.080 A 
ATOM     28  C   UNL     1      -6.696   1.603  -0.423  0.00  0.00    +0.007 A 
ATOM     29  C   UNL     1      -5.464   2.108  -0.773  0.00  0.00    +0.000 A 
ATOM     30  C   UNL     1      -4.536   1.212  -1.279  0.00  0.00    +0.000 A 
BRANCH  27  31
ATOM     31  C   UNL     1      -8.162  -0.204   0.234  0.00  0.00    +0.388 C 
ATOM     32  O   UNL     1      -8.492  -1.552   0.173  0.00  0.00    -0.241 OA
ATOM     33  O   UNL     1      -8.671   0.461   1.180  0.00  0.00    -0.241 OA
ENDBRANCH  27  31
ENDBRANCH  21  25
ENDBRANCH   1  18
TORSDOF 5
