REMARK  Name = 
REMARK  12 active torsions:
REMARK  status: ('A' for Active; 'I' for Inactive)
REMARK    1  A    between atoms: C_2  and  O_3
REMARK    2  A    between atoms: O_3  and  C_4
REMARK    3  A    between atoms: C_9  and  C_10
REMARK    4  A    between atoms: C_12  and  N_13
REMARK    5  A    between atoms: N_13  and  C_14
REMARK    6  A    between atoms: C_17  and  O_18
REMARK    7  A    between atoms: O_18  and  C_19
REMARK    8  A    between atoms: C_19  and  C_20
REMARK    9  A    between atoms: C_31  and  N_32
REMARK   10  A    between atoms: C_33  and  C_35
REMARK   11  A    between atoms: C_36  and  C_37
REMARK   12  A    between atoms: C_37  and  N_38
REMARK                            x       y       z     vdW  Elec       q    Type
REMARK                         _______ _______ _______ _____ _____    ______ ____
ROOT
ATOM      1  C   UNL     1       3.977  -2.307   0.150  0.00  0.00    +0.155 A 
ATOM      2  C   UNL     1       3.468  -1.053  -0.104  0.00  0.00    +0.108 A 
ATOM      3  C   UNL     1       2.098  -0.827  -0.085  0.00  0.00    +0.023 A 
ATOM      4  C   UNL     1       1.212  -1.798   0.365  0.00  0.00    +0.035 A 
ATOM      5  C   UNL     1       1.750  -3.072   0.502  0.00  0.00    +0.086 A 
ATOM      6  N   UNL     1       0.946  -4.143   0.597  0.00  0.00    -0.243 NA
ATOM      7  C   UNL     1      -0.355  -4.024   0.275  0.00  0.00    +0.110 A 
ATOM      8  C   UNL     1      -0.920  -2.820  -0.097  0.00  0.00    +0.103 A 
ATOM      9  C   UNL     1      -0.159  -1.686   0.157  0.00  0.00    +0.083 A 
ATOM     10  C   UNL     1       3.114  -3.261   0.624  0.00  0.00    +0.057 A 
ENDROOT
BRANCH   2  11
ATOM     11  N   UNL     1       4.363   0.049  -0.294  0.00  0.00    -0.172 NA
ATOM     12  C   UNL     1       4.831   0.793   0.834  0.00  0.00    +0.269 C 
ATOM     13  O   UNL     1       4.005   0.974   1.776  0.00  0.00    -0.268 OA
BRANCH  12  14
ATOM     14  C   UNL     1       5.942   1.718   0.762  0.00  0.00    +0.057 C 
ATOM     15  C   UNL     1       7.150   1.415   0.348  0.00  0.00    -0.004 C 
BRANCH  15  16
ATOM     16  C   UNL     1       7.970   2.261  -0.543  0.00  0.00    +0.099 C 
BRANCH  16  17
ATOM     17  N   UNL     1       8.005   3.645  -0.146  0.00  0.00    -0.267 NA
ATOM     18  C   UNL     1       8.885   3.894   0.974  0.00  0.00    +0.090 C 
ATOM     19  C   UNL     1       6.700   4.229   0.026  0.00  0.00    +0.090 C 
ENDBRANCH  16  17
ENDBRANCH  15  16
ENDBRANCH  12  14
ENDBRANCH   2  11
BRANCH   8  20
ATOM     20  C   UNL     1      -2.200  -2.752  -0.763  0.00  0.00    +0.103 C 
ATOM     21  N   UNL     1      -2.937  -2.797  -1.659  0.00  0.00    -0.191 NA
ENDBRANCH   8  20
BRANCH   1  22
ATOM     22  O   UNL     1       5.305  -2.552  -0.162  0.00  0.00    -0.474 OA
BRANCH  22  24
ATOM     23  C   UNL     1       5.420  -4.972  -0.098  0.00  0.00    +0.051 C 
ATOM     24  C   UNL     1       6.038  -3.654   0.335  0.00  0.00    +0.206 C 
ENDBRANCH  22  24
ENDBRANCH   1  22
BRANCH   9  25
ATOM     25  N   UNL     1      -0.643  -0.413  -0.190  0.00  0.00    -0.212 NA
BRANCH  25  26
ATOM     26  C   UNL     1      -1.995  -0.034  -0.287  0.00  0.00    +0.072 A 
ATOM     27  C   UNL     1      -2.300   0.912  -1.260  0.00  0.00    +0.031 A 
ATOM     28  C   UNL     1      -3.450   1.660  -1.216  0.00  0.00    +0.093 A 
ATOM     29 CL   UNL     1      -4.077   2.365  -2.688  0.00  0.00    -0.079 Cl
ATOM     30  C   UNL     1      -4.187   1.724  -0.059  0.00  0.00    +0.150 A 
ATOM     31  C   UNL     1      -3.812   0.924   1.013  0.00  0.00    +0.039 A 
ATOM     32  C   UNL     1      -2.747   0.068   0.879  0.00  0.00    +0.020 A 
BRANCH  30  33
ATOM     33  O   UNL     1      -5.016   2.833   0.097  0.00  0.00    -0.468 OA
BRANCH  33  34
ATOM     34  C   UNL     1      -5.970   2.948   1.125  0.00  0.00    +0.251 C 
BRANCH  34  35
ATOM     35  C   UNL     1      -7.255   2.374   0.658  0.00  0.00    +0.103 A 
ATOM     36  N   UNL     1      -7.266   1.247  -0.082  0.00  0.00    -0.244 NA
ATOM     37  C   UNL     1      -8.277   0.353  -0.040  0.00  0.00    +0.099 A 
ATOM     38  C   UNL     1      -9.476   0.799   0.462  0.00  0.00    +0.021 A 
ATOM     39  C   UNL     1      -9.649   2.126   0.813  0.00  0.00    +0.003 A 
ATOM     40  C   UNL     1      -8.489   2.850   1.056  0.00  0.00    +0.018 A 
ENDBRANCH  34  35
ENDBRANCH  33  34
ENDBRANCH  30  33
ENDBRANCH  25  26
ENDBRANCH   9  25
TORSDOF 12
