REMARK  Name = 
REMARK  6 active torsions:
REMARK  status: ('A' for Active; 'I' for Inactive)
REMARK    1  A    between atoms: N_2  and  C_4
REMARK    2  A    between atoms: C_4  and  C_5
REMARK    3  A    between atoms: C_5  and  C_6
REMARK    4  A    between atoms: C_6  and  C_7
REMARK    5  A    between atoms: C_7  and  C_8
REMARK    6  A    between atoms: C_19  and  C_20
REMARK                            x       y       z     vdW  Elec       q    Type
REMARK                         _______ _______ _______ _____ _____    ______ ____
ROOT
ATOM      1  C   UNL     1       0.503   0.153  -0.001  0.00  0.00    +0.130 C 
ATOM      2  C   UNL     1      -0.736  -0.624   0.323  0.00  0.00    +0.004 A 
ATOM      3  C   UNL     1      -0.351  -1.941   0.094  0.00  0.00    +0.006 A 
ATOM      4  C   UNL     1      -1.339  -2.888   0.243  0.00  0.00    +0.008 A 
ATOM      5  C   UNL     1      -2.681  -2.537   0.180  0.00  0.00    +0.068 A 
ATOM      6  C   UNL     1      -3.067  -1.211   0.021  0.00  0.00    +0.010 A 
ATOM      7  C   UNL     1       0.955  -1.861  -0.634  0.00  0.00    +0.169 C 
ATOM      8  C   UNL     1      -2.081  -0.272   0.301  0.00  0.00    -0.001 A 
ATOM      9  O   UNL     1       0.966  -0.537  -1.102  0.00  0.00    -0.346 OA
ENDROOT
BRANCH   1  10
ATOM     10  C   UNL     1       0.139   1.556  -0.282  0.00  0.00    +0.006 A 
ATOM     11  C   UNL     1      -0.465   1.926  -1.471  0.00  0.00    +0.001 A 
ATOM     12  C   UNL     1      -1.527   2.822  -1.512  0.00  0.00    +0.029 A 
ATOM     13  C   UNL     1      -1.798   3.600  -0.395  0.00  0.00    +0.140 A 
ATOM     14  F   UNL     1      -2.366   4.809  -0.560  0.00  0.00    -0.204 F 
ATOM     15  C   UNL     1      -1.044   3.408   0.754  0.00  0.00    +0.029 A 
ATOM     16  C   UNL     1      -0.177   2.342   0.819  0.00  0.00    +0.001 A 
ENDBRANCH   1  10
BRANCH   5  17
ATOM     17  C   UNL     1      -3.673  -3.560   0.416  0.00  0.00    +0.100 C 
ATOM     18  N   UNL     1      -4.558  -4.278   0.650  0.00  0.00    -0.191 NA
ENDBRANCH   5  17
BRANCH   1  19
ATOM     19  C   UNL     1       1.501   0.046   1.115  0.00  0.00    +0.037 C 
BRANCH  19  20
ATOM     20  C   UNL     1       2.730   0.834   0.763  0.00  0.00    +0.020 C 
BRANCH  20  21
ATOM     21  C   UNL     1       3.557   0.180  -0.319  0.00  0.00    +0.072 C 
BRANCH  21  23
ATOM     22  C   UNL     1       5.906   0.157  -0.480  0.00  0.00    +0.090 C 
ATOM     23  N   UNL     1       4.811  -0.332   0.181  0.00  0.00    -0.270 NA
ATOM     24  C   UNL     1       4.795  -1.792   0.229  0.00  0.00    +0.090 C 
ENDBRANCH  21  23
ENDBRANCH  20  21
ENDBRANCH  19  20
ENDBRANCH   1  19
TORSDOF 6
