REMARK  Name = 
REMARK  2 active torsions:
REMARK  status: ('A' for Active; 'I' for Inactive)
REMARK    1  A    between atoms: C_2  and  C_4
REMARK    2  A    between atoms: C_4  and  C_5
REMARK                            x       y       z     vdW  Elec       q    Type
REMARK                         _______ _______ _______ _____ _____    ______ ____
ROOT
ATOM      1  C   UNL     1       0.235   0.183   0.476  0.00  0.00    -0.021 A 
ATOM      2  C   UNL     1      -0.618   0.200   1.564  0.00  0.00    -0.001 A 
ATOM      3  C   UNL     1      -1.998   0.105   1.429  0.00  0.00    +0.042 A 
ATOM      4  C   UNL     1      -2.543   0.156   0.156  0.00  0.00    +0.196 A 
ATOM      5  O   UNL     1      -3.783  -0.430  -0.117  0.00  0.00    -0.287 OA
ATOM      6  C   UNL     1      -1.697   0.587  -0.859  0.00  0.00    +0.042 A 
ATOM      7  C   UNL     1      -0.334   0.327  -0.758  0.00  0.00    -0.001 A 
ENDROOT
BRANCH   1   8
ATOM      8  C   UNL     1       1.563  -0.398   0.749  0.00  0.00    +0.045 C 
BRANCH   8  10
ATOM      9  C   UNL     1       3.524  -1.370  -0.138  0.00  0.00    +0.021 C 
ATOM     10  C   UNL     1       2.403  -0.287  -0.651  0.00  0.00    +0.096 C 
ATOM     11  N   UNL     1       3.249   0.927  -0.122  0.00  0.00    -0.133 NA
ENDBRANCH   8  10
ENDBRANCH   1   8
TORSDOF 2
