REMARK  Name = 
REMARK  13 active torsions:
REMARK  status: ('A' for Active; 'I' for Inactive)
REMARK    1  A    between atoms: C_2  and  N_5
REMARK    2  A    between atoms: C_6  and  C_8
REMARK    3  A    between atoms: N_17  and  C_18
REMARK    4  A    between atoms: C_18  and  C_19
REMARK    5  A    between atoms: C_19  and  C_21
REMARK    6  A    between atoms: C_21  and  C_22
REMARK    7  A    between atoms: C_21  and  N_29
REMARK    8  A    between atoms: C_22  and  C_23
REMARK    9  A    between atoms: C_30  and  C_32
REMARK   10  A    between atoms: C_32  and  C_33
REMARK   11  A    between atoms: C_32  and  N_37
REMARK   12  A    between atoms: C_33  and  C_34
REMARK   13  A    between atoms: C_38  and  C_40
REMARK                            x       y       z     vdW  Elec       q    Type
REMARK                         _______ _______ _______ _____ _____    ______ ____
ROOT
ATOM      1  C   UNL     1       0.695  -0.380   0.458  0.00  0.00    +0.131 C 
ENDROOT
BRANCH   1   2
ATOM      2  N   UNL     1      -0.775   0.131   0.571  0.00  0.00    -0.203 NA
ATOM      3  C   UNL     1      -1.767  -0.217  -0.358  0.00  0.00    +0.262 C 
ATOM      4  O   UNL     1      -1.415  -0.749  -1.421  0.00  0.00    -0.271 OA
BRANCH   3   5
ATOM      5  C   UNL     1      -2.715   1.035  -0.791  0.00  0.00    +0.182 C 
BRANCH   5   6
ATOM      6  N   UNL     1      -3.791   0.116  -1.486  0.00  0.00    -0.192 NA
ATOM      7  C   UNL     1      -4.590  -0.729  -0.764  0.00  0.00    +0.283 C 
ATOM      8  O   UNL     1      -4.134  -1.155   0.338  0.00  0.00    -0.267 OA
BRANCH   7   9
ATOM      9  C   UNL     1      -5.994  -0.946  -1.171  0.00  0.00    +0.136 A 
ATOM     10  N   UNL     1      -6.809  -1.457  -0.218  0.00  0.00    -0.241 NA
ATOM     11  C   UNL     1      -8.020  -0.968   0.081  0.00  0.00    +0.081 A 
ATOM     12  C   UNL     1      -8.560   0.090  -0.622  0.00  0.00    +0.018 A 
ATOM     13  C   UNL     1      -9.291   0.980   0.158  0.00  0.00    +0.001 A 
ATOM     14  C   UNL     1     -10.087   0.398   1.139  0.00  0.00    +0.000 A 
ATOM     15  C   UNL     1      -9.960  -0.958   1.416  0.00  0.00    +0.002 A 
ATOM     16  C   UNL     1      -7.898   0.445  -1.771  0.00  0.00    +0.003 A 
ATOM     17  C   UNL     1      -8.762  -1.579   1.079  0.00  0.00    +0.019 A 
ATOM     18  C   UNL     1      -6.626  -0.051  -2.025  0.00  0.00    +0.024 A 
ENDBRANCH   7   9
ENDBRANCH   5   6
BRANCH   5  19
ATOM     19  C   UNL     1      -3.430   1.077   0.697  0.00  0.00    +0.120 C 
BRANCH  19  20
ATOM     20  C   UNL     1      -3.310   2.523   1.057  0.00  0.00    +0.263 C 
ATOM     21  O   UNL     1      -2.664   2.764   2.121  0.00  0.00    -0.272 OA
ATOM     22  N   UNL     1      -3.192   3.521   0.043  0.00  0.00    -0.088 NA
ENDBRANCH  19  20
ENDBRANCH   5  19
ENDBRANCH   3   5
ENDBRANCH   1   2
BRANCH   1  23
ATOM     23  C   UNL     1       1.300   1.236   0.634  0.00  0.00    +0.188 C 
ATOM     24  O   UNL     1       2.196   1.203  -0.584  0.00  0.00    -0.220 OA
BRANCH  23  25
ATOM     25  C   UNL     1       2.489   0.825   1.687  0.00  0.00    +0.107 C 
BRANCH  25  27
ATOM     26  C   UNL     1       4.907   0.828   1.697  0.00  0.00    +0.137 C 
ATOM     27  N   UNL     1       3.601   0.273   0.997  0.00  0.00    -0.264 NA
ATOM     28  C   UNL     1       3.652  -1.080   1.573  0.00  0.00    +0.072 C 
ATOM     29  C   UNL     1       4.542  -1.834   0.448  0.00  0.00    +0.016 C 
ATOM     30  C   UNL     1       5.973  -1.417   1.257  0.00  0.00    +0.003 C 
ATOM     31  C   UNL     1       6.907  -1.976   0.054  0.00  0.00    +0.000 C 
ATOM     32  C   UNL     1       6.354  -3.276  -0.409  0.00  0.00    +0.000 C 
ATOM     33  C   UNL     1       5.605  -4.046   0.639  0.00  0.00    +0.000 C 
ATOM     34  C   UNL     1       4.426  -3.271   1.192  0.00  0.00    +0.001 C 
ATOM     35  C   UNL     1       5.923   0.076   0.630  0.00  0.00    +0.025 C 
BRANCH  26  37
ATOM     36  N   UNL     1       5.661   3.232   1.624  0.00  0.00    -0.208 NA
ATOM     37  C   UNL     1       4.929   2.228   0.890  0.00  0.00    +0.256 C 
ATOM     38  O   UNL     1       5.243   2.221  -0.311  0.00  0.00    -0.272 OA
BRANCH  36  40
ATOM     39  C   UNL     1       6.929   4.893   1.477  0.00  0.00    +0.022 C 
ATOM     40  C   UNL     1       6.471   4.234   0.923  0.00  0.00    +0.079 C 
ATOM     41  C   UNL     1       7.460   3.525  -0.001  0.00  0.00    +0.022 C 
ATOM     42  C   UNL     1       5.468   4.880  -0.031  0.00  0.00    +0.022 C 
ENDBRANCH  36  40
ENDBRANCH  26  37
ENDBRANCH  25  27
ENDBRANCH  23  25
ENDBRANCH   1  23
BRANCH   1  43
ATOM     43  C   UNL     1       0.701  -0.410  -1.173  0.00  0.00    +0.051 C 
BRANCH  43  44
ATOM     44  C   UNL     1       1.437  -1.611  -1.594  0.00  0.00    -0.020 A 
ATOM     45  C   UNL     1       2.084  -1.541  -2.800  0.00  0.00    -0.004 A 
ATOM     46  C   UNL     1       2.990  -2.519  -3.099  0.00  0.00    -0.000 A 
ATOM     47  C   UNL     1       2.699  -3.786  -2.642  0.00  0.00    -0.000 A 
ATOM     48  C   UNL     1       1.745  -3.954  -1.647  0.00  0.00    -0.000 A 
ATOM     49  C   UNL     1       1.402  -2.825  -0.943  0.00  0.00    -0.004 A 
ENDBRANCH  43  44
ENDBRANCH   1  43
TORSDOF 13
