REMARK  Name = 
REMARK  0 active torsions:
REMARK  status: ('A' for Active; 'I' for Inactive)
REMARK                            x       y       z     vdW  Elec       q    Type
REMARK                         _______ _______ _______ _____ _____    ______ ____
ROOT
ATOM      1  C   UNL     1      -1.912   1.709   0.789  0.00  0.00    +0.030 C 
ATOM      2  C   UNL     1      -1.004   0.575   0.397  0.00  0.00    +0.093 C 
ATOM      3  O   UNL     1       0.313   0.964   0.603  0.00  0.00    -0.363 OA
ATOM      4  C   UNL     1       1.207   0.181  -0.101  0.00  0.00    +0.093 C 
ATOM      5  C   UNL     1       2.515  -0.036   0.618  0.00  0.00    +0.030 C 
ATOM      6  C   UNL     1       1.450   0.890  -1.428  0.00  0.00    +0.030 C 
ATOM      7  C   UNL     1       0.583  -1.183  -0.375  0.00  0.00    +0.025 C 
ATOM      8  C   UNL     1      -0.210  -1.693   0.797  0.00  0.00    +0.005 C 
ATOM      9  C   UNL     1      -0.402  -0.938  -1.513  0.00  0.00    +0.005 C 
ATOM     10  C   UNL     1      -1.244  -0.667   1.244  0.00  0.00    +0.027 C 
ATOM     11  C   UNL     1      -1.298   0.197  -1.030  0.00  0.00    +0.027 C 
ENDROOT
TORSDOF 0
