REMARK  Name = 
REMARK  6 active torsions:
REMARK  status: ('A' for Active; 'I' for Inactive)
REMARK    1  A    between atoms: O_2  and  C_3
REMARK    2  A    between atoms: C_9  and  O_10
REMARK    3  A    between atoms: O_10  and  C_11
REMARK    4  A    between atoms: C_14  and  N_15
REMARK    5  A    between atoms: N_18  and  C_19
REMARK    6  A    between atoms: C_27  and  C_28
REMARK                            x       y       z     vdW  Elec       q    Type
REMARK                         _______ _______ _______ _____ _____    ______ ____
ROOT
ATOM      1  C   UNL     1      -5.334   0.376   0.368  0.00  0.00    +0.145 A 
ATOM      2  C   UNL     1      -4.535   0.572   1.471  0.00  0.00    +0.091 A 
ATOM      3  C   UNL     1      -3.159   0.448   1.317  0.00  0.00    +0.012 A 
ATOM      4  C   UNL     1      -2.580   0.217   0.082  0.00  0.00    +0.053 A 
ATOM      5  C   UNL     1      -3.380   0.204  -1.053  0.00  0.00    +0.087 A 
ATOM      6  N   UNL     1      -2.902  -0.349  -2.194  0.00  0.00    -0.244 NA
ATOM      7  C   UNL     1      -1.774  -1.099  -2.198  0.00  0.00    +0.102 A 
ATOM      8  C   UNL     1      -0.938  -1.016  -1.092  0.00  0.00    +0.058 A 
ATOM      9  C   UNL     1      -1.306  -0.337   0.053  0.00  0.00    +0.148 A 
ATOM     10  C   UNL     1      -4.728   0.479  -0.877  0.00  0.00    +0.056 A 
ENDROOT
BRANCH   2  11
ATOM     11  C   UNL     1      -5.127   0.320   2.791  0.00  0.00    +0.287 C 
ATOM     12  O   UNL     1      -5.962   1.150   3.204  0.00  0.00    -0.267 OA
ATOM     13  N   UNL     1      -4.691  -0.763   3.617  0.00  0.00    -0.084 NA
ENDBRANCH   2  11
BRANCH   1  15
ATOM     14  C   UNL     1      -7.339  -0.673  -0.508  0.00  0.00    +0.252 C 
ATOM     15  O   UNL     1      -6.708   0.170   0.442  0.00  0.00    -0.471 OA
ENDBRANCH   1  15
BRANCH   9  16
ATOM     16  O   UNL     1      -0.376   0.213   0.934  0.00  0.00    -0.453 OA
BRANCH  16  17
ATOM     17  C   UNL     1       0.970   0.116   0.565  0.00  0.00    +0.146 A 
ATOM     18  C   UNL     1       1.378   0.897  -0.509  0.00  0.00    +0.050 A 
ATOM     19  C   UNL     1       2.396   0.503  -1.368  0.00  0.00    +0.076 A 
ATOM     20 CL   UNL     1       2.684   1.250  -2.912  0.00  0.00    -0.081 Cl
ATOM     21  C   UNL     1       3.141  -0.591  -1.012  0.00  0.00    +0.086 A 
ATOM     22  C   UNL     1       2.667  -1.477  -0.053  0.00  0.00    +0.021 A 
ATOM     23  C   UNL     1       1.520  -1.158   0.627  0.00  0.00    +0.039 A 
BRANCH  21  24
ATOM     24  N   UNL     1       4.506  -0.685  -1.440  0.00  0.00    -0.160 NA
ATOM     25  C   UNL     1       5.504   0.235  -0.983  0.00  0.00    +0.343 C 
ATOM     26  N   UNL     1       6.741  -0.202  -0.411  0.00  0.00    -0.189 NA
ATOM     27  O   UNL     1       5.109   1.434  -0.854  0.00  0.00    -0.249 OA
BRANCH  26  28
ATOM     28  C   UNL     1       7.763   0.776  -0.133  0.00  0.00    +0.097 C 
ATOM     29  C   UNL     1       7.764   1.579   1.109  0.00  0.00    +0.023 C 
ATOM     30  C   UNL     1       8.695   0.398   1.016  0.00  0.00    +0.023 C 
ENDBRANCH  26  28
ENDBRANCH  21  24
ENDBRANCH  16  17
ENDBRANCH   9  16
TORSDOF 6
