REMARK  Name = 
REMARK  3 active torsions:
REMARK  status: ('A' for Active; 'I' for Inactive)
REMARK    1  A    between atoms: C_2  and  O_3
REMARK    2  A    between atoms: O_3  and  C_4
REMARK    3  A    between atoms: C_4  and  C_6
REMARK                            x       y       z     vdW  Elec       q    Type
REMARK                         _______ _______ _______ _____ _____    ______ ____
ROOT
ATOM      1  C   UNL     1      -0.220  -0.910   0.172  0.00  0.00    +0.076 A 
ATOM      2  C   UNL     1      -0.875  -0.289   1.229  0.00  0.00    +0.008 A 
ATOM      3  C   UNL     1      -2.006   0.488   1.011  0.00  0.00    +0.018 A 
ATOM      4  C   UNL     1      -2.441   0.759  -0.283  0.00  0.00    +0.089 A 
ATOM      5  N   UNL     1      -2.837   2.071  -0.693  0.00  0.00    -0.128 NA
ATOM      6  C   UNL     1      -2.113  -0.238  -1.196  0.00  0.00    +0.018 A 
ATOM      7  C   UNL     1      -0.967  -1.002  -0.998  0.00  0.00    +0.008 A 
ENDROOT
BRANCH   1   8
ATOM      8  C   UNL     1       1.248  -0.971   0.133  0.00  0.00    +0.341 C 
ATOM      9  O   UNL     1       1.832  -1.156  -0.979  0.00  0.00    -0.245 OA
BRANCH   8  10
ATOM     10  O   UNL     1       2.034  -0.312   1.085  0.00  0.00    -0.445 OA
BRANCH  10  12
ATOM     11  C   UNL     1       3.074   1.264  -0.390  0.00  0.00    +0.051 C 
ATOM     12  C   UNL     1       3.272   0.296   0.740  0.00  0.00    +0.209 C 
ENDBRANCH  10  12
ENDBRANCH   8  10
ENDBRANCH   1   8
TORSDOF 3
