REMARK  Name = 
REMARK  3 active torsions:
REMARK  status: ('A' for Active; 'I' for Inactive)
REMARK    1  A    between atoms: C_2  and  C_4
REMARK    2  A    between atoms: C_4  and  C_6
REMARK    3  A    between atoms: C_6  and  C_8
REMARK                            x       y       z     vdW  Elec       q    Type
REMARK                         _______ _______ _______ _____ _____    ______ ____
ROOT
ATOM      1  C   UNL     1       0.489  -0.615   0.706  0.00  0.00    +0.182 C 
ATOM      2  S   UNL     1       0.397  -1.357  -1.046  0.00  0.00    -0.070 S 
ENDROOT
BRANCH   1   4
ATOM      3  O   UNL     1       1.920   1.353   0.630  0.00  0.00    -0.245 OA
ATOM      4  C   UNL     1       1.799   0.174   0.430  0.00  0.00    +0.377 C 
ATOM      5  O   UNL     1       2.919  -0.648   0.602  0.00  0.00    -0.245 OA
ENDBRANCH   1   4
BRANCH   1   6
ATOM      6  C   UNL     1      -0.532   0.666   0.592  0.00  0.00    +0.182 C 
ATOM      7  S   UNL     1      -0.219   1.150  -1.221  0.00  0.00    -0.070 S 
BRANCH   6   8
ATOM      8  C   UNL     1      -1.848  -0.112   0.335  0.00  0.00    +0.377 C 
ATOM      9  O   UNL     1      -3.012   0.649   0.479  0.00  0.00    -0.245 OA
ATOM     10  O   UNL     1      -1.914  -1.261  -0.052  0.00  0.00    -0.245 OA
ENDBRANCH   6   8
ENDBRANCH   1   6
TORSDOF 3
