REMARK  Name = 
REMARK  6 active torsions:
REMARK  status: ('A' for Active; 'I' for Inactive)
REMARK    1  A    between atoms: C_7  and  C_8
REMARK    2  A    between atoms: C_13  and  C_14
REMARK    3  A    between atoms: C_21  and  C_22
REMARK    4  A    between atoms: C_23  and  C_24
REMARK    5  A    between atoms: C_24  and  C_25
REMARK    6  A    between atoms: C_30  and  C_31
REMARK                            x       y       z     vdW  Elec       q    Type
REMARK                         _______ _______ _______ _____ _____    ______ ____
ROOT
ATOM      1  C   UNL     1       0.061  -4.834   2.615  0.00  0.00    +0.032 C 
ATOM      2  C   UNL     1      -0.072  -4.539   1.313  0.00  0.00    -0.005 C 
ATOM      3  C   UNL     1       0.070  -3.268   0.961  0.00  0.00    +0.124 C 
ATOM      4  C   UNL     1      -0.008  -2.738  -0.409  0.00  0.00    +0.280 C 
ATOM      5  O   UNL     1      -0.386  -3.511  -1.313  0.00  0.00    -0.267 OA
ATOM      6  N   UNL     1       0.692  -1.488  -0.585  0.00  0.00    -0.191 NA
ATOM      7  C   UNL     1       2.007  -1.377   0.287  0.00  0.00    +0.194 C 
ATOM      8  C   UNL     1       2.650  -0.057  -0.392  0.00  0.00    +0.337 C 
ATOM      9  O   UNL     1       3.924  -0.034  -0.280  0.00  0.00    -0.248 OA
ATOM     10  O   UNL     1       2.001   0.958   0.328  0.00  0.00    -0.446 OA
ATOM     11  C   UNL     1       0.867   1.274  -0.669  0.00  0.00    +0.198 C 
ATOM     12  C   UNL     1       0.093   2.208   0.449  0.00  0.00    +0.113 C 
ATOM     13  C   UNL     1      -0.977   2.928  -0.218  0.00  0.00    +0.155 C 
ATOM     14  O   UNL     1      -1.103   4.093   0.179  0.00  0.00    -0.296 OA
ATOM     15  C   UNL     1      -1.895   2.566  -1.251  0.00  0.00    +0.074 C 
ATOM     16  C   UNL     1      -2.405   1.025  -1.115  0.00  0.00    +0.086 C 
ATOM     17  C   UNL     1      -2.573   1.028   0.474  0.00  0.00    +0.242 C 
ATOM     18  O   UNL     1      -2.932   2.009   1.084  0.00  0.00    -0.273 OA
ATOM     19  N   UNL     1      -2.960  -0.264   0.954  0.00  0.00    -0.197 NA
ATOM     20  C   UNL     1      -2.011  -1.428   0.499  0.00  0.00    +0.185 C 
ATOM     21  C   UNL     1      -0.856  -1.116   1.576  0.00  0.00    +0.266 C 
ATOM     22  O   UNL     1      -0.855  -0.045   2.191  0.00  0.00    -0.271 OA
ATOM     23  N   UNL     1       0.066  -2.170   1.881  0.00  0.00    -0.173 NA
ENDROOT
BRANCH   7  24
ATOM     24  C   UNL     1       2.905  -2.292  -0.742  0.00  0.00    +0.031 C 
ATOM     25  C   UNL     1       2.506  -2.049  -2.122  0.00  0.00    +0.002 C 
ATOM     26  C   UNL     1       3.160  -3.595  -0.231  0.00  0.00    +0.002 C 
ENDBRANCH   7  24
BRANCH  16  27
ATOM     27  C   UNL     1      -3.967   1.417  -1.403  0.00  0.00    +0.009 C 
ATOM     28  C   UNL     1      -3.946   1.687  -2.908  0.00  0.00    +0.001 C 
ATOM     29  C   UNL     1      -4.302   2.733  -0.825  0.00  0.00    +0.001 C 
ENDBRANCH  16  27
BRANCH  20  30
ATOM     30  C   UNL     1      -2.750  -2.505   1.502  0.00  0.00    +0.100 C 
ATOM     31  S   UNL     1      -3.807  -3.528   0.432  0.00  0.00    -0.080 S 
ENDBRANCH  20  30
BRANCH  11  32
ATOM     32  C   UNL     1       1.590   2.595  -1.268  0.00  0.00    +0.013 C 
ATOM     33  C   UNL     1       2.869   2.667  -1.356  0.00  0.00    -0.026 C 
BRANCH  33  34
ATOM     34  C   UNL     1       3.698   3.910  -1.179  0.00  0.00    +0.038 C 
BRANCH  34  35
ATOM     35  C   UNL     1       4.641   3.591  -0.022  0.00  0.00    +0.073 C 
ATOM     36  S   UNL     1       4.005   4.150   1.564  0.00  0.00    -0.082 S 
ENDBRANCH  34  35
ENDBRANCH  33  34
ENDBRANCH  11  32
TORSDOF 6
