REMARK  Name = 
REMARK  3 active torsions:
REMARK  status: ('A' for Active; 'I' for Inactive)
REMARK    1  A    between atoms: C_2  and  C_3
REMARK    2  A    between atoms: C_6  and  O_7
REMARK    3  A    between atoms: O_7  and  C_8
REMARK                            x       y       z     vdW  Elec       q    Type
REMARK                         _______ _______ _______ _____ _____    ______ ____
ROOT
ATOM      1  C   UNL     1      -0.570   0.240  -0.741  0.00  0.00    +0.000 A 
ATOM      2  C   UNL     1      -1.414   1.217  -0.228  0.00  0.00    +0.000 A 
ATOM      3  C   UNL     1      -2.550   0.818   0.440  0.00  0.00    +0.000 A 
ATOM      4  C   UNL     1      -3.808   1.524   0.721  0.00  0.00    +0.000 C 
ATOM      5  O   UNL     1      -4.790   0.596   0.976  0.00  0.00    +0.000 OA
ATOM      6  B   UNL     1      -4.154  -0.681   1.236  0.00  0.00    +0.000 B 
ATOM      7  O   UNL     1      -4.854  -1.945   1.330  0.00  0.00    +0.000 OA
ATOM      8  C   UNL     1      -2.647  -0.471   0.932  0.00  0.00    +0.000 A 
ATOM      9  C   UNL     1      -1.562  -1.286   0.774  0.00  0.00    +0.000 A 
ATOM     10  C   UNL     1      -0.472  -0.935  -0.012  0.00  0.00    +0.000 A 
ENDROOT
BRANCH   1  11
ATOM     11  O   UNL     1       0.192   0.463  -1.891  0.00  0.00    +0.000 OA
BRANCH  11  15
ATOM     12  C   UNL     1       3.854   0.283  -0.176  0.00  0.00    +0.000 A 
ATOM     13  C   UNL     1       3.339   1.533  -0.493  0.00  0.00    +0.000 A 
ATOM     14  C   UNL     1       2.143   1.639  -1.191  0.00  0.00    +0.000 A 
ATOM     15  C   UNL     1       1.587   0.525  -1.808  0.00  0.00    +0.000 A 
ATOM     16  C   UNL     1       2.344  -0.639  -1.794  0.00  0.00    +0.000 A 
ATOM     17  C   UNL     1       3.411  -0.801  -0.924  0.00  0.00    +0.000 A 
BRANCH  12  19
ATOM     18  N   UNL     1       5.293  -0.266   1.876  0.00  0.00    +0.000 NA
ATOM     19  C   UNL     1       4.658   0.035   0.973  0.00  0.00    +0.000 C 
ENDBRANCH  12  19
ENDBRANCH  11  15
ENDBRANCH   1  11
TORSDOF 3
