REMARK  Name = 
REMARK  5 active torsions:
REMARK  status: ('A' for Active; 'I' for Inactive)
REMARK    1  A    between atoms: C_2  and  N_3
REMARK    2  A    between atoms: N_3  and  C_4
REMARK    3  A    between atoms: C_6  and  C_8
REMARK    4  A    between atoms: C_8  and  C_9
REMARK    5  A    between atoms: C_16  and  C_17
REMARK                            x       y       z     vdW  Elec       q    Type
REMARK                         _______ _______ _______ _____ _____    ______ ____
ROOT
ATOM      1  C   UNL     1      -0.446   0.542  -0.011  0.00  0.00    +0.089 C 
ATOM      2  C   UNL     1      -0.795   1.891  -0.949  0.00  0.00    +0.032 C 
ATOM      3  C   UNL     1      -1.177   1.888   0.701  0.00  0.00    +0.015 C 
ENDROOT
BRANCH   1   4
ATOM      4  C   UNL     1      -1.522  -0.447  -0.088  0.00  0.00    -0.015 A 
ATOM      5  C   UNL     1      -2.104  -0.912  -1.254  0.00  0.00    -0.004 A 
ATOM      6  C   UNL     1      -3.129  -1.850  -1.194  0.00  0.00    -0.000 A 
ATOM      7  C   UNL     1      -3.586  -2.280   0.042  0.00  0.00    -0.000 A 
ATOM      8  C   UNL     1      -2.704  -2.172   1.099  0.00  0.00    -0.000 A 
ATOM      9  C   UNL     1      -1.698  -1.254   1.030  0.00  0.00    -0.004 A 
ENDBRANCH   1   4
BRANCH   1  11
ATOM     10  N   UNL     1       2.016   0.041  -0.339  0.00  0.00    -0.279 N 
ATOM     11  C   UNL     1       0.861   0.347   0.456  0.00  0.00    +0.229 C 
ATOM     12  O   UNL     1       1.048   0.117   1.691  0.00  0.00    -0.275 OA
BRANCH  10  14
ATOM     13  C   UNL     1       3.006  -1.719  -0.519  0.00  0.00    +0.023 C 
ATOM     14  C   UNL     1       2.184  -1.371  -0.680  0.00  0.00    +0.093 C 
ENDBRANCH  10  14
BRANCH  10  15
ATOM     15  C   UNL     1       3.244   0.695   0.111  0.00  0.00    +0.093 C 
ATOM     16  C   UNL     1       3.804  -0.114   1.273  0.00  0.00    +0.023 C 
ENDBRANCH  10  15
ENDBRANCH   1  11
BRANCH   2  17
ATOM     17  C   UNL     1       0.719   2.660  -0.704  0.00  0.00    +0.110 C 
ATOM     18  N   UNL     1       0.280   3.939  -0.160  0.00  0.00    -0.131 NA
ENDBRANCH   2  17
TORSDOF 5
