REMARK  Name = 
REMARK  15 active torsions:
REMARK  status: ('A' for Active; 'I' for Inactive)
REMARK    1  A    between atoms: C_2  and  C_3
REMARK    2  A    between atoms: C_3  and  O_5
REMARK    3  A    between atoms: O_5  and  C_6
REMARK    4  A    between atoms: C_6  and  O_7
REMARK    5  A    between atoms: C_6  and  C_37
REMARK    6  A    between atoms: O_7  and  P_8
REMARK    7  A    between atoms: P_8  and  C_10
REMARK    8  A    between atoms: P_8  and  C_20
REMARK    9  A    between atoms: C_10  and  C_11
REMARK   10  A    between atoms: C_11  and  C_12
REMARK   11  A    between atoms: C_12  and  C_13
REMARK   12  A    between atoms: C_13  and  C_14
REMARK   13  A    between atoms: C_20  and  C_21
REMARK   14  A    between atoms: C_25  and  C_26
REMARK   15  A    between atoms: C_33  and  C_34
REMARK                            x       y       z     vdW  Elec       q    Type
REMARK                         _______ _______ _______ _____ _____    ______ ____
ROOT
ATOM      1  P   UNL     1      -0.749  -0.726  -1.204  0.00  0.00    +0.234 P 
ATOM      2  O   UNL     1       0.406  -1.040  -2.144  0.00  0.00    -0.289 OA
ENDROOT
BRANCH   1   3
ATOM      3  C   UNL     1      -0.113   0.580  -0.096  0.00  0.00    +0.172 C 
BRANCH   3   4
ATOM      4  C   UNL     1       1.053   1.272  -0.743  0.00  0.00    +0.236 C 
ATOM      5  N   UNL     1       2.318   0.777  -0.279  0.00  0.00    -0.271 N 
ATOM      6  C   UNL     1       3.574   1.674  -0.726  0.00  0.00    +0.179 C 
ATOM      7  C   UNL     1       4.684   0.582  -0.131  0.00  0.00    +0.033 C 
ATOM      8  C   UNL     1       3.751  -0.146   1.016  0.00  0.00    +0.022 C 
ATOM      9  C   UNL     1       2.666   1.105   1.109  0.00  0.00    +0.094 C 
ATOM     10  O   UNL     1       0.849   2.521  -0.862  0.00  0.00    -0.274 OA
BRANCH   8  11
ATOM     11  C   UNL     1       4.696   0.383   2.264  0.00  0.00    +0.002 C 
ATOM     12  C   UNL     1       4.239   1.654   2.774  0.00  0.00    +0.000 C 
ATOM     13  C   UNL     1       4.850   2.858   2.108  0.00  0.00    +0.000 C 
ATOM     14  C   UNL     1       6.330   2.693   1.868  0.00  0.00    +0.000 C 
ATOM     15  C   UNL     1       6.873   1.406   2.427  0.00  0.00    +0.000 C 
ATOM     16  C   UNL     1       6.108   0.211   1.871  0.00  0.00    +0.000 C 
ENDBRANCH   8  11
BRANCH   6  17
ATOM     17  C   UNL     1       3.536   1.041  -2.242  0.00  0.00    +0.382 C 
ATOM     18  O   UNL     1       4.145  -0.122  -2.489  0.00  0.00    -0.244 OA
ATOM     19  O   UNL     1       3.622   2.003  -3.065  0.00  0.00    -0.244 OA
ENDBRANCH   6  17
ENDBRANCH   3   4
ENDBRANCH   1   3
BRANCH   1  20
ATOM     20  O   UNL     1      -1.142  -1.999  -0.219  0.00  0.00    -0.276 OA
BRANCH  20  21
ATOM     21  C   UNL     1      -2.141  -2.886  -1.036  0.00  0.00    +0.295 C 
BRANCH  21  22
ATOM     22  C   UNL     1      -0.877  -3.703  -1.838  0.00  0.00    +0.071 C 
ATOM     23  C   UNL     1      -1.259  -3.288  -3.263  0.00  0.00    +0.006 C 
ATOM     24  C   UNL     1      -1.315  -5.147  -1.815  0.00  0.00    +0.006 C 
ENDBRANCH  21  22
BRANCH  21  25
ATOM     25  O   UNL     1      -2.252  -3.985   0.109  0.00  0.00    -0.424 OA
BRANCH  25  26
ATOM     26  C   UNL     1      -1.072  -4.280   0.731  0.00  0.00    +0.319 C 
ATOM     27  O   UNL     1      -0.566  -3.249   1.271  0.00  0.00    -0.250 OA
BRANCH  26  29
ATOM     28  C   UNL     1      -2.085  -6.168   1.721  0.00  0.00    +0.012 C 
ATOM     29  C   UNL     1      -1.036  -5.479   1.621  0.00  0.00    +0.110 C 
ENDBRANCH  26  29
ENDBRANCH  25  26
ENDBRANCH  21  25
ENDBRANCH  20  21
ENDBRANCH   1  20
BRANCH   1  30
ATOM     30  C   UNL     1      -2.154   0.013  -2.048  0.00  0.00    +0.088 C 
BRANCH  30  31
ATOM     31  C   UNL     1      -2.824   0.982  -1.097  0.00  0.00    +0.011 C 
BRANCH  31  32
ATOM     32  C   UNL     1      -3.678   0.181  -0.122  0.00  0.00    +0.005 C 
BRANCH  32  33
ATOM     33  C   UNL     1      -4.247   1.048   0.965  0.00  0.00    +0.026 C 
BRANCH  33  34
ATOM     34  C   UNL     1      -5.079   2.168   0.426  0.00  0.00    -0.022 A 
ATOM     35  C   UNL     1      -4.716   3.498   0.596  0.00  0.00    -0.004 A 
ATOM     36  C   UNL     1      -5.622   4.464   1.015  0.00  0.00    -0.000 A 
ATOM     37  C   UNL     1      -6.968   4.201   0.864  0.00  0.00    -0.000 A 
ATOM     38  C   UNL     1      -7.367   2.958   0.437  0.00  0.00    -0.000 A 
ATOM     39  C   UNL     1      -6.436   1.948   0.225  0.00  0.00    -0.004 A 
ENDBRANCH  33  34
ENDBRANCH  32  33
ENDBRANCH  31  32
ENDBRANCH  30  31
ENDBRANCH   1  30
TORSDOF 15
