REMARK  Name = 
REMARK  14 active torsions:
REMARK  status: ('A' for Active; 'I' for Inactive)
REMARK    1  A    between atoms: C_2  and  C_18
REMARK    2  A    between atoms: C_3  and  C_4
REMARK    3  A    between atoms: C_4  and  C_5
REMARK    4  A    between atoms: C_18  and  C_19
REMARK    5  A    between atoms: C_19  and  C_20
REMARK    6  A    between atoms: C_20  and  C_21
REMARK    7  A    between atoms: C_21  and  C_23
REMARK    8  A    between atoms: C_23  and  C_24
REMARK    9  A    between atoms: C_24  and  C_25
REMARK   10  A    between atoms: C_25  and  C_26
REMARK   11  A    between atoms: C_26  and  C_28
REMARK   12  A    between atoms: C_28  and  C_29
REMARK   13  A    between atoms: C_29  and  C_30
REMARK   14  A    between atoms: C_30  and  C_31
REMARK                            x       y       z     vdW  Elec       q    Type
REMARK                         _______ _______ _______ _____ _____    ______ ____
ROOT
ATOM      1  C   UNL     1      -2.067  -1.450   1.277  0.00  0.00    +0.026 C 
ATOM      2  C   UNL     1      -1.116  -0.928   0.242  0.00  0.00    -0.048 C 
ATOM      3  C   UNL     1      -1.756  -0.309  -0.730  0.00  0.00    -0.030 C 
ENDROOT
BRANCH   2   4
ATOM      4  C   UNL     1       0.241  -0.652   0.743  0.00  0.00    +0.022 C 
BRANCH   4   5
ATOM      5  C   UNL     1       1.213  -0.220  -0.306  0.00  0.00    +0.004 C 
BRANCH   5   6
ATOM      6  C   UNL     1       2.217  -1.301  -0.515  0.00  0.00    +0.000 C 
BRANCH   6   7
ATOM      7  C   UNL     1       3.575  -0.882   0.283  0.00  0.00    +0.000 C 
ATOM      8  C   UNL     1       2.775  -0.551   1.666  0.00  0.00    +0.000 C 
BRANCH   7   9
ATOM      9  C   UNL     1       3.518   0.670  -0.221  0.00  0.00    +0.000 C 
BRANCH   9  10
ATOM     10  C   UNL     1       4.124   0.704  -1.595  0.00  0.00    +0.000 C 
BRANCH  10  11
ATOM     11  C   UNL     1       4.381  -0.647  -2.148  0.00  0.00    +0.000 C 
BRANCH  11  12
ATOM     12  C   UNL     1       5.978  -0.801  -2.442  0.00  0.00    +0.000 C 
ATOM     13  C   UNL     1       6.005  -2.299  -1.792  0.00  0.00    +0.000 C 
BRANCH  12  14
ATOM     14  C   UNL     1       6.411  -0.057  -1.059  0.00  0.00    +0.000 C 
BRANCH  14  15
ATOM     15  C   UNL     1       7.370  -0.898  -0.319  0.00  0.00    +0.000 C 
BRANCH  15  16
ATOM     16  C   UNL     1       8.517  -0.115   0.309  0.00  0.00    +0.000 C 
BRANCH  16  17
ATOM     17  C   UNL     1       9.676  -0.427  -0.635  0.00  0.00    +0.000 C 
ATOM     18  C   UNL     1      10.997  -0.001  -0.105  0.00  0.00    +0.000 C 
ATOM     19  C   UNL     1       9.307   0.141  -1.967  0.00  0.00    +0.000 C 
ENDBRANCH  16  17
ENDBRANCH  15  16
ENDBRANCH  14  15
ENDBRANCH  12  14
ENDBRANCH  11  12
ENDBRANCH  10  11
ENDBRANCH   9  10
ENDBRANCH   7   9
ENDBRANCH   6   7
ENDBRANCH   5   6
ENDBRANCH   4   5
ENDBRANCH   2   4
BRANCH   3  20
ATOM     20  C   UNL     1      -2.780   0.698  -0.563  0.00  0.00    +0.055 C 
BRANCH  20  21
ATOM     21  C   UNL     1      -3.930   0.399   0.290  0.00  0.00    +0.020 C 
ATOM     22  C   UNL     1      -4.905  -0.600  -0.170  0.00  0.00    +0.192 C 
ATOM     23  O   UNL     1      -4.677  -1.332  -1.181  0.00  0.00    -0.287 OA
ATOM     24  C   UNL     1      -6.326  -0.447   0.165  0.00  0.00    +0.042 A 
ATOM     25  C   UNL     1      -6.765   0.581   0.984  0.00  0.00    +0.042 A 
ATOM     26  C   UNL     1      -8.029   0.510   1.555  0.00  0.00    +0.003 A 
ATOM     27  C   UNL     1      -8.603  -0.736   1.776  0.00  0.00    +0.000 A 
ATOM     28  C   UNL     1      -8.234  -1.737   0.906  0.00  0.00    +0.000 A 
ATOM     29  C   UNL     1      -5.812   1.630   1.280  0.00  0.00    +0.192 C 
ATOM     30  O   UNL     1      -6.283   2.722   1.723  0.00  0.00    -0.287 OA
ATOM     31  C   UNL     1      -7.149  -1.553   0.060  0.00  0.00    +0.003 A 
ATOM     32  C   UNL     1      -4.408   1.431   0.994  0.00  0.00    +0.017 C 
ATOM     33  C   UNL     1      -3.465   2.473   1.493  0.00  0.00    +0.034 C 
ENDBRANCH  20  21
ENDBRANCH   3  20
TORSDOF 14
