REMARK  Name = 
REMARK  4 active torsions:
REMARK  status: ('A' for Active; 'I' for Inactive)
REMARK    1  A    between atoms: N_2  and  C_5
REMARK    2  A    between atoms: C_5  and  C_6
REMARK    3  A    between atoms: C_6  and  C_8
REMARK    4  A    between atoms: C_8  and  C_9
REMARK                            x       y       z     vdW  Elec       q    Type
REMARK                         _______ _______ _______ _____ _____    ______ ____
ROOT
ATOM      1  C   UNL     1       0.070  -0.432  -0.656  0.00  0.00    +0.218 C 
ATOM      2  O   UNL     1       0.560  -1.724  -0.021  0.00  0.00    -0.216 OA
ENDROOT
BRANCH   1   3
ATOM      3  C   UNL     1      -1.006  -0.173   0.565  0.00  0.00    +0.143 C 
BRANCH   3   5
ATOM      4  C   UNL     1      -2.800   0.578   0.577  0.00  0.00    +0.171 C 
ATOM      5  N   UNL     1      -2.145   0.477  -0.030  0.00  0.00    +0.313 N 
ATOM      6  C   UNL     1      -1.830   1.836  -0.495  0.00  0.00    +0.171 C 
ATOM      7  C   UNL     1      -2.639  -0.244  -1.204  0.00  0.00    +0.171 C 
ENDBRANCH   3   5
ENDBRANCH   1   3
BRANCH   1   8
ATOM      8  C   UNL     1       1.243   0.440   0.110  0.00  0.00    +0.153 C 
BRANCH   8   9
ATOM      9  C   UNL     1       2.494  -0.003  -0.549  0.00  0.00    +0.368 C 
ATOM     10  O   UNL     1       2.534  -0.500  -1.851  0.00  0.00    -0.246 OA
ATOM     11  O   UNL     1       3.518  -0.255   0.155  0.00  0.00    -0.246 OA
ENDBRANCH   8   9
ENDBRANCH   1   8
TORSDOF 4
