REMARK  Name = 
REMARK  2 active torsions:
REMARK  status: ('A' for Active; 'I' for Inactive)
REMARK    1  A    between atoms: S_2  and  C_5
REMARK    2  A    between atoms: C_7  and  C_8
REMARK                            x       y       z     vdW  Elec       q    Type
REMARK                         _______ _______ _______ _____ _____    ______ ____
ROOT
ATOM      1  C   UNL     1      -2.457  -0.393  -0.032  0.00  0.00    +0.135 A 
ATOM      2  C   UNL     1      -2.415   0.268  -1.253  0.00  0.00    +0.076 A 
ATOM      3 CL   UNL     1      -3.361   1.727  -1.532  0.00  0.00    -0.081 Cl
ATOM      4  C   UNL     1      -1.395  -0.112  -2.117  0.00  0.00    +0.013 A 
ATOM      5  C   UNL     1      -0.283  -0.754  -1.588  0.00  0.00    +0.001 A 
ATOM      6  C   UNL     1      -0.143  -0.988  -0.225  0.00  0.00    +0.030 A 
ATOM      7  C   UNL     1      -1.323  -0.952   0.512  0.00  0.00    +0.021 A 
ENDROOT
BRANCH   6   8
ATOM      8  C   UNL     1       1.197  -0.886   0.434  0.00  0.00    +0.242 C 
ATOM      9  C   UNL     1       2.187  -0.202  -0.441  0.00  0.00    +0.033 A 
ATOM     10  C   UNL     1       2.883   0.745   0.259  0.00  0.00    +0.055 A 
ATOM     11  C   UNL     1       4.125   1.188  -0.178  0.00  0.00    +0.004 A 
ATOM     12  C   UNL     1       4.392   1.103  -1.537  0.00  0.00    +0.000 A 
ATOM     13  C   UNL     1       3.715   0.159  -2.284  0.00  0.00    -0.000 A 
ATOM     14  C   UNL     1       2.107   1.041   1.449  0.00  0.00    +0.267 C 
ATOM     15  O   UNL     1       2.225   2.076   2.172  0.00  0.00    -0.268 OA
ATOM     16  C   UNL     1       2.594  -0.454  -1.742  0.00  0.00    +0.000 A 
ATOM     17  N   UNL     1       1.168  -0.026   1.590  0.00  0.00    -0.167 NA
ATOM     18  O   UNL     1       1.721  -2.139   0.730  0.00  0.00    -0.194 OA
ENDBRANCH   6   8
BRANCH   1  20
ATOM     19  N   UNL     1      -4.891  -0.004   0.103  0.00  0.00    +0.039 NA
ATOM     20  S   UNL     1      -3.995  -0.328   0.819  0.00  0.00    +0.094 S 
ATOM     21  O   UNL     1      -3.816   0.613   1.991  0.00  0.00    -0.150 OA
ATOM     22  O   UNL     1      -4.235  -1.683   1.450  0.00  0.00    -0.150 OA
ENDBRANCH   1  20
TORSDOF 2
