REMARK  Name = 
REMARK  5 active torsions:
REMARK  status: ('A' for Active; 'I' for Inactive)
REMARK    1  A    between atoms: C_2  and  C_3
REMARK    2  A    between atoms: C_4  and  C_5
REMARK    3  A    between atoms: C_14  and  C_15
REMARK    4  A    between atoms: C_16  and  C_17
REMARK    5  A    between atoms: C_19  and  C_20
REMARK                            x       y       z     vdW  Elec       q    Type
REMARK                         _______ _______ _______ _____ _____    ______ ____
ROOT
ATOM      1  C   UNL     1      -0.257  -1.713   2.457  0.00  0.00    +0.031 C 
ATOM      2  C   UNL     1      -0.447  -1.079   1.129  0.00  0.00    -0.022 C 
ATOM      3  C   UNL     1      -1.187  -1.628   0.164  0.00  0.00    -0.004 C 
ENDROOT
BRANCH   3   4
ATOM      4  C   UNL     1      -1.867  -0.667  -0.716  0.00  0.00    -0.001 C 
ATOM      5  C   UNL     1      -3.138  -0.426  -0.432  0.00  0.00    -0.004 C 
BRANCH   5   6
ATOM      6  C   UNL     1      -3.765   0.878  -0.579  0.00  0.00    -0.015 C 
ATOM      7  C   UNL     1      -4.995   0.903  -1.093  0.00  0.00    +0.082 C 
ATOM      8  C   UNL     1      -3.087   2.148  -0.169  0.00  0.00    +0.031 C 
BRANCH   7   9
ATOM      9  C   UNL     1      -5.931  -0.198  -0.836  0.00  0.00    +0.388 C 
ATOM     10  O   UNL     1      -7.234   0.170  -0.488  0.00  0.00    -0.241 OA
ATOM     11  O   UNL     1      -5.435  -1.312  -0.490  0.00  0.00    -0.241 OA
ENDBRANCH   7   9
ENDBRANCH   5   6
ENDBRANCH   3   4
BRANCH   2  12
ATOM     12  C   UNL     1       0.562  -0.122   0.655  0.00  0.00    -0.005 C 
ATOM     13  C   UNL     1       1.789  -0.622   0.514  0.00  0.00    -0.005 C 
BRANCH  13  14
ATOM     14  C   UNL     1       2.946   0.174   0.167  0.00  0.00    -0.031 C 
ATOM     15  C   UNL     1       4.245  -0.134   0.844  0.00  0.00    +0.018 C 
ATOM     16  C   UNL     1       3.951  -0.758   2.182  0.00  0.00    +0.004 C 
ATOM     17  C   UNL     1       5.096  -1.062   0.011  0.00  0.00    +0.004 C 
ATOM     18  C   UNL     1       5.033   1.158   1.026  0.00  0.00    +0.004 C 
ATOM     19  C   UNL     1       4.540   2.218   0.065  0.00  0.00    +0.005 C 
ATOM     20  C   UNL     1       4.183   1.615  -1.287  0.00  0.00    +0.022 C 
ATOM     21  C   UNL     1       3.056   0.654  -1.073  0.00  0.00    -0.048 C 
ATOM     22  C   UNL     1       1.944   0.533  -2.050  0.00  0.00    +0.026 C 
ENDBRANCH  13  14
ENDBRANCH   2  12
TORSDOF 5
