REMARK  Name = 
REMARK  0 active torsions:
REMARK  status: ('A' for Active; 'I' for Inactive)
REMARK                            x       y       z     vdW  Elec       q    Type
REMARK                         _______ _______ _______ _____ _____    ______ ____
ROOT
ATOM      1  O   UNL     1       4.539   0.029   1.255  0.00  0.00    -0.250 OA
ATOM      2  C   UNL     1       3.652  -0.211   0.389  0.00  0.00    +0.356 C 
ATOM      3  N   UNL     1       2.697  -1.266   0.556  0.00  0.00    -0.001 NA
ATOM      4  C   UNL     1       1.599  -0.928  -0.031  0.00  0.00    +0.406 C 
ATOM      5  N   UNL     1       1.625   0.470  -0.345  0.00  0.00    -0.183 N 
ATOM      6  C   UNL     1       0.445   1.277  -0.195  0.00  0.00    +0.198 C 
ATOM      7  C   UNL     1      -0.788   0.484  -0.328  0.00  0.00    +0.058 A 
ATOM      8  C   UNL     1      -0.680  -0.804  -0.834  0.00  0.00    +0.148 A 
ATOM      9  C   UNL     1      -1.876  -1.396  -1.225  0.00  0.00    +0.035 A 
ATOM     10  C   UNL     1      -3.088  -0.831  -0.846  0.00  0.00    +0.015 A 
ATOM     11  C   UNL     1      -3.149   0.207   0.070  0.00  0.00    +0.068 A 
ATOM     12 CL   UNL     1      -4.357   0.274   1.346  0.00  0.00    -0.081 Cl
ATOM     13  C   UNL     1      -1.998   0.981   0.142  0.00  0.00    +0.070 A 
ATOM     14 CL   UNL     1      -2.097   2.490   1.030  0.00  0.00    -0.081 Cl
ATOM     15  N   UNL     1       0.449  -1.629  -0.523  0.00  0.00    -0.042 NA
ATOM     16  C   UNL     1       3.029   0.854  -0.461  0.00  0.00    +0.274 C 
ENDROOT
TORSDOF 0
