REMARK  Name = 
REMARK  6 active torsions:
REMARK  status: ('A' for Active; 'I' for Inactive)
REMARK    1  A    between atoms: C_2  and  C_4
REMARK    2  A    between atoms: C_4  and  O_6
REMARK    3  A    between atoms: O_6  and  C_7
REMARK    4  A    between atoms: C_7  and  C_8
REMARK    5  A    between atoms: C_8  and  C_10
REMARK    6  A    between atoms: C_12  and  C_13
REMARK                            x       y       z     vdW  Elec       q    Type
REMARK                         _______ _______ _______ _____ _____    ______ ____
ROOT
ATOM      1  C   UNL     1      -1.554  -0.022   0.056  0.00  0.00    +0.174 C 
ATOM      2  C   UNL     1      -0.281   0.433  -0.203  0.00  0.00    +0.034 C 
ATOM      3  C   UNL     1       0.340  -1.044  -0.455  0.00  0.00    +0.005 C 
ATOM      4  C   UNL     1       1.719  -0.323  -1.090  0.00  0.00    +0.004 C 
ATOM      5  C   UNL     1       2.580  -0.708   0.297  0.00  0.00    +0.038 C 
ATOM      6  C   UNL     1       1.682   0.219   1.418  0.00  0.00    +0.153 C 
ATOM      7  O   UNL     1       2.667   1.352   1.611  0.00  0.00    -0.223 OA
ATOM      8  C   UNL     1       3.797   0.257  -0.084  0.00  0.00    +0.036 C 
ATOM      9  C   UNL     1       4.360  -0.616  -1.171  0.00  0.00    -0.038 C 
ATOM     10  C   UNL     1       5.568  -1.160  -1.079  0.00  0.00    +0.034 C 
ATOM     11  C   UNL     1       6.142  -1.396   0.240  0.00  0.00    +0.195 C 
ATOM     12  C   UNL     1       5.731  -0.487   1.289  0.00  0.00    +0.038 C 
ATOM     13  O   UNL     1       7.339  -1.821   0.270  0.00  0.00    -0.287 OA
ATOM     14  C   UNL     1       3.540  -1.102  -2.324  0.00  0.00    +0.022 C 
ATOM     15  C   UNL     1       3.372   1.483  -0.763  0.00  0.00    +0.009 C 
ATOM     16  C   UNL     1       4.776   0.344   0.964  0.00  0.00    -0.020 C 
ATOM     17  C   UNL     1       2.196  -1.654  -1.852  0.00  0.00    +0.004 C 
ATOM     18  C   UNL     1      -0.442  -1.092  -1.863  0.00  0.00    +0.033 C 
ATOM     19  C   UNL     1      -0.335   1.133  -1.576  0.00  0.00    +0.003 C 
ATOM     20  C   UNL     1       0.777   1.119   0.397  0.00  0.00    +0.036 C 
ATOM     21  C   UNL     1      -1.964  -0.946  -1.250  0.00  0.00    +0.149 C 
ATOM     22  O   UNL     1      -1.818  -2.247  -0.470  0.00  0.00    -0.330 OA
ATOM     23  C   UNL     1      -2.985  -1.679   0.346  0.00  0.00    +0.235 C 
ATOM     24  O   UNL     1      -1.942  -0.838   1.097  0.00  0.00    -0.326 OA
ENDROOT
BRANCH  23  25
ATOM     25  C   UNL     1      -2.992  -2.906   1.473  0.00  0.00    +0.057 C 
ATOM     26  C   UNL     1      -4.515  -3.029   1.559  0.00  0.00    +0.005 C 
ATOM     27  C   UNL     1      -5.066  -4.340   1.173  0.00  0.00    +0.000 C 
ATOM     28  C   UNL     1      -4.677  -4.889  -0.150  0.00  0.00    +0.000 C 
ATOM     29  C   UNL     1      -3.286  -4.445  -0.482  0.00  0.00    +0.000 C 
ATOM     30  C   UNL     1      -2.553  -4.152   0.795  0.00  0.00    +0.005 C 
ENDBRANCH  23  25
BRANCH   1  31
ATOM     31  C   UNL     1      -2.614   1.043   0.004  0.00  0.00    +0.221 C 
ATOM     32  O   UNL     1      -3.780   0.751   0.271  0.00  0.00    -0.290 OA
BRANCH  31  33
ATOM     33  C   UNL     1      -2.491   2.335  -0.681  0.00  0.00    +0.275 C 
BRANCH  33  34
ATOM     34  O   UNL     1      -1.932   3.364   0.082  0.00  0.00    -0.440 OA
BRANCH  34  35
ATOM     35  C   UNL     1      -1.866   4.626  -0.457  0.00  0.00    +0.317 C 
ATOM     36  O   UNL     1      -1.940   4.741  -1.704  0.00  0.00    -0.250 OA
BRANCH  35  38
ATOM     37  C   UNL     1      -1.779   5.676   1.743  0.00  0.00    +0.012 C 
ATOM     38  C   UNL     1      -2.141   5.881   0.310  0.00  0.00    +0.099 C 
ATOM     39  C   UNL     1      -3.633   6.138   0.134  0.00  0.00    +0.012 C 
ENDBRANCH  35  38
ENDBRANCH  34  35
ENDBRANCH  33  34
ENDBRANCH  31  33
ENDBRANCH   1  31
TORSDOF 6
