REMARK  Name = 
REMARK  5 active torsions:
REMARK  status: ('A' for Active; 'I' for Inactive)
REMARK    1  A    between atoms: C_4  and  C_5
REMARK    2  A    between atoms: C_15  and  C_16
REMARK    3  A    between atoms: C_16  and  C_18
REMARK    4  A    between atoms: C_19  and  C_20
REMARK    5  A    between atoms: C_20  and  C_22
REMARK                            x       y       z     vdW  Elec       q    Type
REMARK                         _______ _______ _______ _____ _____    ______ ____
ROOT
ATOM      1  C   UNL     1      -2.326   0.183   1.696  0.00  0.00    -0.009 C 
ATOM      2  C   UNL     1      -1.328  -0.477   1.126  0.00  0.00    -0.045 C 
ATOM      3  C   UNL     1       0.139  -0.090   1.734  0.00  0.00    +0.018 C 
ATOM      4  C   UNL     1       0.288   1.230   0.742  0.00  0.00    +0.004 C 
ATOM      5  C   UNL     1       1.718   1.341   0.840  0.00  0.00    +0.001 C 
ATOM      6  C   UNL     1       2.348  -0.163   0.736  0.00  0.00    +0.004 C 
ATOM      7  C   UNL     1       0.927  -0.946   0.554  0.00  0.00    +0.004 C 
ATOM      8  C   UNL     1       0.311  -0.661  -0.706  0.00  0.00    +0.000 C 
ATOM      9  C   UNL     1       1.032  -2.292   1.105  0.00  0.00    +0.001 C 
ATOM     10  C   UNL     1      -0.323  -2.691   1.673  0.00  0.00    +0.004 C 
ATOM     11  C   UNL     1      -1.452  -1.961   0.951  0.00  0.00    +0.022 C 
ENDROOT
BRANCH   1  21
ATOM     12  C   UNL     1      -3.388   2.232   0.746  0.00  0.00    -0.002 C 
ATOM     13  C   UNL     1      -4.166   1.362   0.131  0.00  0.00    +0.004 C 
ATOM     14  C   UNL     1      -5.643   2.033  -0.233  0.00  0.00    +0.176 C 
ATOM     15  O   UNL     1      -4.970   3.128  -1.105  0.00  0.00    -0.218 OA
ATOM     16  C   UNL     1      -5.916   1.051  -1.575  0.00  0.00    +0.071 C 
ATOM     17  C   UNL     1      -5.235  -0.389  -1.050  0.00  0.00    +0.159 C 
ATOM     18  O   UNL     1      -6.449  -1.211  -1.543  0.00  0.00    -0.223 OA
ATOM     19  C   UNL     1      -5.899  -0.274   0.499  0.00  0.00    +0.059 C 
ATOM     20  C   UNL     1      -4.623   0.298   1.064  0.00  0.00    -0.021 C 
ATOM     21  C   UNL     1      -3.652  -0.442   1.568  0.00  0.00    -0.005 C 
ENDBRANCH   1  21
BRANCH   6  22
ATOM     22  C   UNL     1       2.641   0.059  -0.958  0.00  0.00    +0.022 C 
ATOM     23  C   UNL     1       2.843  -1.559  -1.164  0.00  0.00    +0.005 C 
BRANCH  22  24
ATOM     24  C   UNL     1       4.189   0.359  -0.665  0.00  0.00    -0.029 C 
ATOM     25  C   UNL     1       5.090  -0.408  -1.103  0.00  0.00    +0.002 C 
BRANCH  25  26
ATOM     26  C   UNL     1       6.658   0.105  -1.026  0.00  0.00    +0.174 C 
ATOM     27  O   UNL     1       6.337   1.416  -0.243  0.00  0.00    -0.218 OA
BRANCH  26  28
ATOM     28  C   UNL     1       6.918  -0.809   0.371  0.00  0.00    +0.035 C 
ATOM     29  C   UNL     1       7.725  -0.069   1.357  0.00  0.00    +0.003 C 
ATOM     30  C   UNL     1       6.207  -0.354   1.538  0.00  0.00    +0.003 C 
ENDBRANCH  26  28
ENDBRANCH  25  26
ENDBRANCH  22  24
ENDBRANCH   6  22
TORSDOF 5
