REMARK  Name = 
REMARK  10 active torsions:
REMARK  status: ('A' for Active; 'I' for Inactive)
REMARK    1  A    between atoms: O_2  and  C_3
REMARK    2  A    between atoms: C_3  and  C_5
REMARK    3  A    between atoms: C_5  and  C_6
REMARK    4  A    between atoms: C_6  and  C_7
REMARK    5  A    between atoms: C_10  and  O_11
REMARK    6  A    between atoms: O_11  and  C_12
REMARK    7  A    between atoms: C_12  and  C_13
REMARK    8  A    between atoms: C_13  and  C_15
REMARK    9  A    between atoms: C_15  and  N_16
REMARK   10  A    between atoms: N_16  and  C_17
REMARK                            x       y       z     vdW  Elec       q    Type
REMARK                         _______ _______ _______ _____ _____    ______ ____
ROOT
ATOM      1  C   UNL     1      -2.461  -0.811  -0.548  0.00  0.00    -0.021 A 
ATOM      2  C   UNL     1      -1.597   0.075   0.056  0.00  0.00    -0.001 A 
ATOM      3  C   UNL     1      -0.281  -0.285   0.317  0.00  0.00    +0.037 A 
ATOM      4  C   UNL     1       0.213  -1.506  -0.094  0.00  0.00    +0.139 A 
ATOM      5  C   UNL     1      -0.547  -2.222  -1.009  0.00  0.00    +0.037 A 
ATOM      6  C   UNL     1      -1.858  -1.837  -1.264  0.00  0.00    -0.001 A 
ENDROOT
BRANCH   1   7
ATOM      7  C   UNL     1      -3.900  -0.916  -0.247  0.00  0.00    +0.038 C 
BRANCH   7   8
ATOM      8  C   UNL     1      -4.365   0.073   0.781  0.00  0.00    +0.114 C 
BRANCH   8   9
ATOM      9  C   UNL     1      -4.939   1.249   0.058  0.00  0.00    +0.317 C 
ATOM     10  O   UNL     1      -5.205   1.187  -1.180  0.00  0.00    -0.250 OA
BRANCH   9  12
ATOM     11  C   UNL     1      -4.956   3.569  -0.112  0.00  0.00    +0.256 C 
ATOM     12  O   UNL     1      -4.747   2.534   0.576  0.00  0.00    -0.444 OA
ENDBRANCH   9  12
ENDBRANCH   8   9
ENDBRANCH   7   8
ENDBRANCH   1   7
BRANCH   4  13
ATOM     13  O   UNL     1       1.192  -2.204   0.597  0.00  0.00    -0.473 OA
BRANCH  13  14
ATOM     14  C   UNL     1       2.315  -1.529   1.122  0.00  0.00    +0.240 C 
BRANCH  14  15
ATOM     15  C   UNL     1       3.496  -1.811  -0.043  0.00  0.00    +0.213 C 
ATOM     16  O   UNL     1       4.611  -1.371   0.939  0.00  0.00    -0.218 OA
BRANCH  15  17
ATOM     17  C   UNL     1       3.327  -0.246  -0.634  0.00  0.00    +0.125 C 
BRANCH  17  18
ATOM     18  N   UNL     1       4.676   0.162  -0.939  0.00  0.00    -0.217 NA
BRANCH  18  19
ATOM     19  C   UNL     1       4.809   1.519  -0.413  0.00  0.00    +0.073 C 
ATOM     20  C   UNL     1       3.977   2.419  -1.285  0.00  0.00    +0.019 C 
ATOM     21  C   UNL     1       6.239   1.951  -0.285  0.00  0.00    +0.019 C 
ENDBRANCH  18  19
ENDBRANCH  17  18
ENDBRANCH  15  17
ENDBRANCH  14  15
ENDBRANCH  13  14
ENDBRANCH   4  13
TORSDOF 10
