REMARK  Name = 
REMARK  5 active torsions:
REMARK  status: ('A' for Active; 'I' for Inactive)
REMARK    1  A    between atoms: C_2  and  C_3
REMARK    2  A    between atoms: C_3  and  N_4
REMARK    3  A    between atoms: N_4  and  C_5
REMARK    4  A    between atoms: C_5  and  C_7
REMARK    5  A    between atoms: N_9  and  C_10
REMARK                            x       y       z     vdW  Elec       q    Type
REMARK                         _______ _______ _______ _____ _____    ______ ____
ROOT
ATOM      1  C   UNL     1      -0.368  -0.847   0.071  0.00  0.00    +0.261 C 
ATOM      2  N   UNL     1       0.202   0.426  -0.288  0.00  0.00    -0.178 NA
ATOM      3  O   UNL     1      -0.203  -1.657  -0.814  0.00  0.00    -0.271 OA
ENDROOT
BRANCH   2   4
ATOM      4  C   UNL     1       1.573   0.420   0.137  0.00  0.00    +0.069 A 
ATOM      5  C   UNL     1       2.551  -0.281  -0.525  0.00  0.00    -0.007 A 
ATOM      6  C   UNL     1       2.364  -0.648  -1.962  0.00  0.00    +0.032 C 
ATOM      7  C   UNL     1       3.821  -0.139   0.036  0.00  0.00    -0.003 A 
ATOM      8  C   UNL     1       4.136   0.985   0.797  0.00  0.00    -0.000 A 
ATOM      9  C   UNL     1       3.177   1.923   1.127  0.00  0.00    +0.001 A 
ATOM     10  C   UNL     1       1.877   1.583   0.849  0.00  0.00    +0.016 A 
ENDBRANCH   2   4
BRANCH   1  11
ATOM     11  C   UNL     1      -1.728  -0.790   0.919  0.00  0.00    +0.151 C 
ATOM     12  C   UNL     1      -1.960  -2.418   0.851  0.00  0.00    +0.029 C 
BRANCH  11  13
ATOM     13  N   UNL     1      -2.599  -0.535  -0.370  0.00  0.00    -0.210 NA
BRANCH  13  14
ATOM     14  C   UNL     1      -3.917  -0.523   0.243  0.00  0.00    +0.089 C 
BRANCH  14  16
ATOM     15  C   UNL     1      -4.149   1.907  -0.148  0.00  0.00    +0.002 C 
ATOM     16  C   UNL     1      -4.778   0.593  -0.265  0.00  0.00    +0.019 C 
ENDBRANCH  14  16
ENDBRANCH  13  14
ENDBRANCH  11  13
ENDBRANCH   1  11
TORSDOF 5
