REMARK  Name = 
REMARK  9 active torsions:
REMARK  status: ('A' for Active; 'I' for Inactive)
REMARK    1  A    between atoms: C_2  and  N_3
REMARK    2  A    between atoms: N_3  and  C_4
REMARK    3  A    between atoms: N_3  and  C_6
REMARK    4  A    between atoms: C_6  and  S_8
REMARK    5  A    between atoms: S_8  and  S_9
REMARK    6  A    between atoms: S_9  and  C_10
REMARK    7  A    between atoms: C_10  and  N_12
REMARK    8  A    between atoms: N_12  and  C_13
REMARK    9  A    between atoms: N_12  and  C_15
REMARK                            x       y       z     vdW  Elec       q    Type
REMARK                         _______ _______ _______ _____ _____    ______ ____
ROOT
ATOM      1  S   UNL     1      -0.888  -0.264  -1.375  0.00  0.00    -0.027 S 
ENDROOT
BRANCH   1   2
ATOM      2  C   UNL     1      -2.145  -1.200  -0.501  0.00  0.00    +0.121 C 
ATOM      3  S   UNL     1      -2.389  -2.780  -0.883  0.00  0.00    -0.027 S 
BRANCH   2   4
ATOM      4  N   UNL     1      -3.337  -0.481  -0.155  0.00  0.00    -0.297 N 
BRANCH   4   6
ATOM      5  C   UNL     1      -2.434   0.816   1.607  0.00  0.00    +0.023 C 
ATOM      6  C   UNL     1      -3.514  -0.203   1.268  0.00  0.00    +0.092 C 
ENDBRANCH   4   6
BRANCH   4   7
ATOM      7  C   UNL     1      -3.873   0.428  -1.162  0.00  0.00    +0.092 C 
ATOM      8  C   UNL     1      -4.258   1.731  -0.491  0.00  0.00    +0.023 C 
ENDBRANCH   4   7
ENDBRANCH   2   4
ENDBRANCH   1   2
BRANCH   1   9
ATOM      9  S   UNL     1       1.022  -1.123  -1.158  0.00  0.00    -0.027 S 
BRANCH   9  10
ATOM     10  C   UNL     1       1.876  -0.457   0.252  0.00  0.00    +0.121 C 
ATOM     11  S   UNL     1       2.284  -1.506   1.448  0.00  0.00    -0.027 S 
BRANCH  10  12
ATOM     12  N   UNL     1       2.821   0.587  -0.009  0.00  0.00    -0.297 N 
BRANCH  12  13
ATOM     13  C   UNL     1       4.180   0.550   0.508  0.00  0.00    +0.092 C 
ATOM     14  C   UNL     1       4.885  -0.648  -0.073  0.00  0.00    +0.023 C 
ENDBRANCH  12  13
BRANCH  12  15
ATOM     15  C   UNL     1       2.525   1.660  -0.955  0.00  0.00    +0.092 C 
ATOM     16  C   UNL     1       3.247   2.890  -0.421  0.00  0.00    +0.023 C 
ENDBRANCH  12  15
ENDBRANCH  10  12
ENDBRANCH   9  10
ENDBRANCH   1   9
TORSDOF 9
