REMARK  Name = 
REMARK  2 active torsions:
REMARK  status: ('A' for Active; 'I' for Inactive)
REMARK    1  A    between atoms: C_2  and  C_4
REMARK    2  A    between atoms: C_6  and  C_7
REMARK                            x       y       z     vdW  Elec       q    Type
REMARK                         _______ _______ _______ _____ _____    ______ ____
ROOT
ATOM      1  C   UNL     1      -2.194   0.575   0.042  0.00  0.00    +0.119 A 
ATOM      2  C   UNL     1      -2.277   0.331   1.397  0.00  0.00    +0.202 A 
ATOM      3  O   UNL     1      -3.015   1.212   2.186  0.00  0.00    -0.286 OA
ATOM      4  C   UNL     1      -1.441  -0.630   1.941  0.00  0.00    +0.042 A 
ATOM      5  C   UNL     1      -0.543  -1.319   1.134  0.00  0.00    +0.003 A 
ATOM      6  C   UNL     1      -0.202  -0.810  -0.113  0.00  0.00    +0.003 A 
ATOM      7  C   UNL     1      -1.091   0.109  -0.645  0.00  0.00    +0.010 A 
ENDROOT
BRANCH   6   8
ATOM      8  C   UNL     1       1.194  -0.764  -0.565  0.00  0.00    +0.028 A 
ATOM      9  C   UNL     1       2.215  -1.370   0.160  0.00  0.00    +0.142 A 
ATOM     10  F   UNL     1       1.886  -2.470   0.870  0.00  0.00    -0.204 F 
ATOM     11  C   UNL     1       3.444  -0.731   0.272  0.00  0.00    +0.059 A 
ATOM     12  C   UNL     1       3.724   0.424  -0.442  0.00  0.00    +0.142 A 
ATOM     13  F   UNL     1       4.633   1.340  -0.048  0.00  0.00    -0.204 F 
ATOM     14  C   UNL     1       2.920   0.632  -1.555  0.00  0.00    +0.030 A 
ATOM     15  C   UNL     1       1.609   0.174  -1.501  0.00  0.00    +0.005 A 
ENDBRANCH   6   8
BRANCH   1  17
ATOM     16  O   UNL     1      -4.181   0.104  -1.030  0.00  0.00    -0.240 OA
ATOM     17  C   UNL     1      -3.409   1.035  -0.645  0.00  0.00    +0.391 C 
ATOM     18  O   UNL     1      -3.273   2.158  -1.460  0.00  0.00    -0.240 OA
ENDBRANCH   1  17
TORSDOF 2
