REMARK  Name = 
REMARK  0 active torsions:
REMARK  status: ('A' for Active; 'I' for Inactive)
REMARK                            x       y       z     vdW  Elec       q    Type
REMARK                         _______ _______ _______ _____ _____    ______ ____
ROOT
ATOM      1  C   UNL     1       4.933  -0.616  -0.814  0.00  0.00    +0.090 C 
ATOM      2  N   UNL     1       4.165   0.167   0.140  0.00  0.00    -0.271 NA
ATOM      3  C   UNL     1       3.523  -0.705   1.092  0.00  0.00    +0.077 C 
ATOM      4  C   UNL     1       2.097  -1.027   0.740  0.00  0.00    +0.039 C 
ATOM      5  C   UNL     1       1.292   0.229   0.671  0.00  0.00    -0.041 C 
ATOM      6  C   UNL     1       0.046   0.178   0.200  0.00  0.00    -0.008 C 
ATOM      7  C   UNL     1      -0.531  -1.173   0.237  0.00  0.00    -0.004 A 
ATOM      8  C   UNL     1      -1.678  -1.596  -0.405  0.00  0.00    -0.014 A 
ATOM      9  C   UNL     1      -2.384  -2.672   0.119  0.00  0.00    -0.004 A 
ATOM     10  C   UNL     1      -1.910  -3.301   1.240  0.00  0.00    -0.000 A 
ATOM     11  C   UNL     1      -0.716  -2.968   1.861  0.00  0.00    -0.000 A 
ATOM     12  C   UNL     1      -2.490  -0.949  -1.480  0.00  0.00    +0.096 C 
ATOM     13  C   UNL     1      -2.753   0.480  -1.191  0.00  0.00    +0.183 C 
ATOM     14  O   UNL     1      -3.931   0.921  -1.350  0.00  0.00    -0.290 OA
ATOM     15  C   UNL     1      -1.798   1.552  -0.874  0.00  0.00    +0.064 A 
ATOM     16  S   UNL     1      -2.131   3.221  -0.640  0.00  0.00    -0.084 S 
ATOM     17  C   UNL     1      -0.612   3.711  -0.007  0.00  0.00    +0.036 A 
ATOM     18  C   UNL     1       0.154   2.600  -0.345  0.00  0.00    +0.008 A 
ATOM     19  C   UNL     1       0.001  -1.941   1.267  0.00  0.00    -0.000 A 
ATOM     20  C   UNL     1      -0.565   1.441  -0.237  0.00  0.00    +0.009 A 
ATOM     21  C   UNL     1       2.074   1.457   0.323  0.00  0.00    +0.039 C 
ATOM     22  C   UNL     1       3.212   0.993  -0.549  0.00  0.00    +0.077 C 
ENDROOT
TORSDOF 0
