REMARK  Name = 
REMARK  3 active torsions:
REMARK  status: ('A' for Active; 'I' for Inactive)
REMARK    1  A    between atoms: C_2  and  C_4
REMARK    2  A    between atoms: C_2  and  C_12
REMARK    3  A    between atoms: C_4  and  C_5
REMARK                            x       y       z     vdW  Elec       q    Type
REMARK                         _______ _______ _______ _____ _____    ______ ____
ROOT
ATOM      1  C   UNL     1      -0.802  -0.165   0.801  0.00  0.00    +0.055 C 
ENDROOT
BRANCH   1   2
ATOM      2  C   UNL     1       0.459  -0.571   0.106  0.00  0.00    -0.020 A 
ATOM      3  C   UNL     1       1.344  -1.433   0.743  0.00  0.00    -0.001 A 
ATOM      4  C   UNL     1       2.714  -1.234   0.629  0.00  0.00    +0.042 A 
ATOM      5  C   UNL     1       3.219  -0.279  -0.236  0.00  0.00    +0.196 A 
ATOM      6  O   UNL     1       4.446   0.351  -0.025  0.00  0.00    -0.287 OA
ATOM      7  C   UNL     1       2.329   0.294  -1.136  0.00  0.00    +0.042 A 
ATOM      8  C   UNL     1       0.961   0.254  -0.892  0.00  0.00    -0.001 A 
ENDBRANCH   1   2
BRANCH   1  10
ATOM      9  C   UNL     1      -2.942  -1.250   0.272  0.00  0.00    +0.031 C 
ATOM     10  C   UNL     1      -1.984  -0.189  -0.133  0.00  0.00    +0.174 C 
ATOM     11  N   UNL     1      -1.528  -0.468  -1.492  0.00  0.00    -0.123 NA
BRANCH  10  12
ATOM     12  C   UNL     1      -2.619   1.163  -0.077  0.00  0.00    +0.380 C 
ATOM     13  O   UNL     1      -1.907   2.280  -0.454  0.00  0.00    -0.244 OA
ATOM     14  O   UNL     1      -3.688   1.246   0.588  0.00  0.00    -0.244 OA
ENDBRANCH  10  12
ENDBRANCH   1  10
TORSDOF 3
