REMARK  Name = 
REMARK  7 active torsions:
REMARK  status: ('A' for Active; 'I' for Inactive)
REMARK    1  A    between atoms: O_2  and  C_3
REMARK    2  A    between atoms: C_8  and  C_9
REMARK    3  A    between atoms: C_9  and  C_10
REMARK    4  A    between atoms: C_20  and  C_21
REMARK    5  A    between atoms: N_25  and  C_26
REMARK    6  A    between atoms: C_26  and  C_27
REMARK    7  A    between atoms: C_26  and  C_29
REMARK                            x       y       z     vdW  Elec       q    Type
REMARK                         _______ _______ _______ _____ _____    ______ ____
ROOT
ATOM      1  C   UNL     1       0.621  -2.006   0.543  0.00  0.00    +0.136 A 
ATOM      2  C   UNL     1       1.487  -1.005   0.105  0.00  0.00    +0.016 A 
ATOM      3  C   UNL     1       0.861  -0.078  -0.728  0.00  0.00    +0.004 A 
ATOM      4  C   UNL     1      -0.424   0.299  -0.352  0.00  0.00    +0.055 A 
ATOM      5  C   UNL     1      -0.899   1.589  -0.555  0.00  0.00    +0.205 A 
ATOM      6  C   UNL     1      -2.137   1.916  -0.014  0.00  0.00    +0.136 A 
ATOM      7  C   UNL     1      -2.881   0.915   0.602  0.00  0.00    +0.086 A 
ATOM      8  N   UNL     1      -2.606  -0.345   0.164  0.00  0.00    -0.325 N 
ATOM      9  O   UNL     1      -0.325   2.318  -1.421  0.00  0.00    -0.286 OA
ATOM     10  C   UNL     1      -1.298  -0.653   0.159  0.00  0.00    +0.066 A 
ATOM     11  C   UNL     1      -0.741  -1.781   0.695  0.00  0.00    +0.054 A 
ENDROOT
BRANCH   6  12
ATOM     12  C   UNL     1      -2.717   3.236  -0.295  0.00  0.00    +0.392 C 
ATOM     13  O   UNL     1      -3.416   3.339  -1.501  0.00  0.00    -0.240 OA
ATOM     14  O   UNL     1      -3.214   3.898   0.666  0.00  0.00    -0.240 OA
ENDBRANCH   6  12
BRANCH   1  16
ATOM     15  C   UNL     1       1.469  -3.777   0.823  0.00  0.00    +0.252 C 
ATOM     16  O   UNL     1       1.033  -3.332   0.704  0.00  0.00    -0.472 OA
ENDBRANCH   1  16
BRANCH   2  17
ATOM     17  C   UNL     1       2.867  -1.448  -0.074  0.00  0.00    +0.058 C 
BRANCH  17  18
ATOM     18  C   UNL     1       3.924  -0.496   0.178  0.00  0.00    +0.011 A 
ATOM     19  C   UNL     1       3.744   0.794   0.635  0.00  0.00    +0.147 A 
ATOM     20  F   UNL     1       2.710   0.963   1.503  0.00  0.00    -0.204 F 
ATOM     21  C   UNL     1       4.736   1.744   0.472  0.00  0.00    +0.085 A 
ATOM     22 CL   UNL     1       4.192   3.409   0.533  0.00  0.00    -0.080 Cl
ATOM     23  C   UNL     1       5.995   1.365   0.095  0.00  0.00    +0.014 A 
ATOM     24  C   UNL     1       6.238   0.033  -0.196  0.00  0.00    +0.001 A 
ATOM     25  C   UNL     1       5.224  -0.912  -0.087  0.00  0.00    -0.002 A 
ENDBRANCH  17  18
ENDBRANCH   2  17
BRANCH   8  26
ATOM     26  C   UNL     1      -3.528  -1.450   0.832  0.00  0.00    +0.118 C 
BRANCH  26  27
ATOM     27  C   UNL     1      -4.860  -1.127  -0.085  0.00  0.00    +0.023 C 
ATOM     28  C   UNL     1      -5.483  -2.442  -0.405  0.00  0.00    +0.002 C 
ATOM     29  C   UNL     1      -4.582  -0.214  -1.166  0.00  0.00    +0.002 C 
ENDBRANCH  26  27
BRANCH  26  30
ATOM     30  C   UNL     1      -3.003  -2.640  -0.192  0.00  0.00    +0.204 C 
ATOM     31  O   UNL     1      -2.986  -2.111  -1.447  0.00  0.00    -0.218 OA
ENDBRANCH  26  30
ENDBRANCH   8  26
TORSDOF 7
