REMARK  Name = 
REMARK  4 active torsions:
REMARK  status: ('A' for Active; 'I' for Inactive)
REMARK    1  A    between atoms: N_4  and  CA_5
REMARK    2  A    between atoms: CA_5  and  CB_6
REMARK    3  A    between atoms: CA_5  and  C_14
REMARK    4  A    between atoms: CB_6  and  CG_7
REMARK                            x       y       z     vdW  Elec       q    Type
REMARK                         _______ _______ _______ _____ _____    ______ ____
ROOT
ATOM      1  CA  TYR A   1      -1.239  -0.324  -0.377  0.00  0.00    +0.202 C 
ENDROOT
BRANCH   1   4
ATOM      2  C   UNK A   0      -2.944   2.886   0.174  0.00  0.00    +0.096 C 
ATOM      3  C   UNK A   0      -2.814   1.581   0.129  0.00  0.00    +0.242 C 
ATOM      4  N   TYR A   1      -1.723   0.808   0.656  0.00  0.00    -0.195 NA
ATOM      5  O   UNK A   0      -3.817   0.868  -0.180  0.00  0.00    -0.273 OA
ENDBRANCH   1   4
BRANCH   1   6
ATOM      6  C   TYR A   1      -2.360  -1.401   0.149  0.00  0.00    +0.385 C 
ATOM      7  OXT TYR A   1      -3.100  -1.975  -0.852  0.00  0.00    -0.244 OA
ATOM      8  O   TYR A   1      -2.478  -1.523   1.359  0.00  0.00    -0.244 OA
ENDBRANCH   1   6
BRANCH   1   9
ATOM      9  CB  TYR A   1      -0.086  -0.882   0.705  0.00  0.00    +0.060 C 
BRANCH   9  10
ATOM     10  CG  TYR A   1       1.190  -0.345   0.137  0.00  0.00    -0.020 A 
ATOM     11  CD2 TYR A   1       1.729   0.806   0.667  0.00  0.00    -0.001 A 
ATOM     12  CE2 TYR A   1       3.105   0.953   0.782  0.00  0.00    +0.042 A 
ATOM     13  CZ  TYR A   1       3.904   0.178  -0.013  0.00  0.00    +0.196 A 
ATOM     14  OH  TYR A   1       5.180   0.580  -0.386  0.00  0.00    -0.287 OA
ATOM     15  CE1 TYR A   1       3.362  -0.902  -0.659  0.00  0.00    +0.042 A 
ATOM     16  CD1 TYR A   1       2.094  -1.308  -0.293  0.00  0.00    -0.001 A 
ENDBRANCH   9  10
ENDBRANCH   1   9
TORSDOF 4
