REMARK  Name = 
REMARK  12 active torsions:
REMARK  status: ('A' for Active; 'I' for Inactive)
REMARK    1  A    between atoms: C_2  and  N_4
REMARK    2  A    between atoms: N_4  and  C_5
REMARK    3  A    between atoms: C_5  and  C_6
REMARK    4  A    between atoms: C_6  and  C_8
REMARK    5  A    between atoms: C_8  and  O_9
REMARK    6  A    between atoms: O_9  and  C_10
REMARK    7  A    between atoms: C_13  and  C_14
REMARK    8  A    between atoms: C_14  and  O_15
REMARK    9  A    between atoms: O_15  and  C_16
REMARK   10  A    between atoms: C_16  and  C_17
REMARK   11  A    between atoms: C_17  and  O_18
REMARK   12  A    between atoms: O_18  and  C_19
REMARK                            x       y       z     vdW  Elec       q    Type
REMARK                         _______ _______ _______ _____ _____    ______ ____
ROOT
ATOM      1  C   UNL     1       0.987  -0.572   0.897  0.00  0.00    +0.139 A 
ATOM      2  C   UNL     1       0.761   0.759   0.567  0.00  0.00    +0.037 A 
ATOM      3  C   UNL     1      -0.448   1.195   0.064  0.00  0.00    +0.001 A 
ATOM      4  C   UNL     1      -1.484   0.283  -0.065  0.00  0.00    +0.007 A 
ATOM      5  C   UNL     1      -1.143  -1.046  -0.068  0.00  0.00    +0.001 A 
ATOM      6  C   UNL     1       0.126  -1.480   0.294  0.00  0.00    +0.037 A 
ENDROOT
BRANCH   1   7
ATOM      7  O   UNL     1       2.313  -0.942   1.141  0.00  0.00    -0.473 OA
BRANCH   7   8
ATOM      8  C   UNL     1       3.367  -0.289   0.479  0.00  0.00    +0.240 C 
BRANCH   8   9
ATOM      9  C   UNL     1       3.739   0.956   1.501  0.00  0.00    +0.213 C 
ATOM     10  O   UNL     1       4.131   0.002   2.620  0.00  0.00    -0.218 OA
BRANCH   9  11
ATOM     11  C   UNL     1       5.291   1.049   0.943  0.00  0.00    +0.125 C 
BRANCH  11  12
ATOM     12  N   UNL     1       5.790  -0.289   0.882  0.00  0.00    -0.217 NA
BRANCH  12  14
ATOM     13  C   UNL     1       6.306  -0.852  -0.727  0.00  0.00    +0.019 C 
ATOM     14  C   UNL     1       6.488  -0.522  -0.379  0.00  0.00    +0.073 C 
ATOM     15  C   UNL     1       6.979   0.842  -0.850  0.00  0.00    +0.019 C 
ENDBRANCH  12  14
ENDBRANCH  11  12
ENDBRANCH   9  11
ENDBRANCH   8   9
ENDBRANCH   7   8
ENDBRANCH   1   7
BRANCH   4  16
ATOM     16  C   UNL     1      -2.866   0.776  -0.281  0.00  0.00    +0.169 C 
BRANCH  16  17
ATOM     17  O   UNL     1      -3.072   0.917  -1.663  0.00  0.00    -0.346 OA
BRANCH  17  18
ATOM     18  C   UNL     1      -4.273   0.254  -1.942  0.00  0.00    +0.175 C 
BRANCH  18  19
ATOM     19  C   UNL     1      -4.721  -0.603  -0.779  0.00  0.00    +0.174 C 
BRANCH  19  20
ATOM     20  O   UNL     1      -5.843   0.024  -0.215  0.00  0.00    -0.354 OA
BRANCH  20  21
ATOM     21  C   UNL     1      -6.950  -0.636  -0.712  0.00  0.00    +0.115 C 
ATOM     22  C   UNL     1      -8.024  -0.884   0.303  0.00  0.00    +0.032 C 
ATOM     23  C   UNL     1      -7.453  -0.075  -2.010  0.00  0.00    +0.032 C 
ENDBRANCH  20  21
ENDBRANCH  19  20
ENDBRANCH  18  19
ENDBRANCH  17  18
ENDBRANCH  16  17
ENDBRANCH   4  16
TORSDOF 12
