REMARK  Name = 
REMARK  13 active torsions:
REMARK  status: ('A' for Active; 'I' for Inactive)
REMARK    1  A    between atoms: C_2  and  O_3
REMARK    2  A    between atoms: O_3  and  C_4
REMARK    3  A    between atoms: C_10  and  C_11
REMARK    4  A    between atoms: C_11  and  O_13
REMARK    5  A    between atoms: O_13  and  C_14
REMARK    6  A    between atoms: C_14  and  O_16
REMARK    7  A    between atoms: O_16  and  C_17
REMARK    8  A    between atoms: C_17  and  O_19
REMARK    9  A    between atoms: O_19  and  C_20
REMARK   10  A    between atoms: N_27  and  C_28
REMARK   11  A    between atoms: C_28  and  C_29
REMARK   12  A    between atoms: C_32  and  C_33
REMARK   13  A    between atoms: C_38  and  C_39
REMARK                            x       y       z     vdW  Elec       q    Type
REMARK                         _______ _______ _______ _____ _____    ______ ____
ROOT
ATOM      1  C   UNL     1      -0.765  -2.411  -1.624  0.00  0.00    +0.301 A 
ATOM      2  N   UNL     1       0.035  -1.784  -0.726  0.00  0.00    -0.277 N 
ATOM      3  C   UNL     1       0.519  -2.743   0.099  0.00  0.00    +0.088 A 
ATOM      4  C   UNL     1      -0.095  -3.955  -0.193  0.00  0.00    +0.102 A 
ATOM      5  C   UNL     1       0.033  -4.957   0.747  0.00  0.00    +0.021 A 
ATOM      6  C   UNL     1       0.929  -4.769   1.790  0.00  0.00    +0.002 A 
ATOM      7  C   UNL     1       1.826  -3.708   1.771  0.00  0.00    +0.008 A 
ATOM      8  C   UNL     1       1.657  -2.688   0.859  0.00  0.00    +0.093 A 
ATOM      9  N   UNL     1      -0.843  -3.719  -1.280  0.00  0.00    -0.194 NA
ENDROOT
BRANCH   8  10
ATOM     10  C   UNL     1       2.602  -1.572   0.689  0.00  0.00    +0.345 C 
ATOM     11  O   UNL     1       2.855  -1.292  -0.530  0.00  0.00    -0.245 OA
BRANCH  10  12
ATOM     12  O   UNL     1       3.822  -1.824   1.312  0.00  0.00    -0.410 OA
BRANCH  12  13
ATOM     13  C   UNL     1       4.819  -0.625   1.309  0.00  0.00    +0.348 C 
ATOM     14  C   UNL     1       3.677   0.487   1.785  0.00  0.00    +0.100 C 
BRANCH  13  15
ATOM     15  O   UNL     1       4.638  -0.287  -0.209  0.00  0.00    -0.382 OA
BRANCH  15  16
ATOM     16  C   UNL     1       4.956   1.052  -0.452  0.00  0.00    +0.514 C 
ATOM     17  O   UNL     1       4.509   1.876   0.397  0.00  0.00    -0.203 OA
BRANCH  16  18
ATOM     18  O   UNL     1       5.870   1.534  -1.352  0.00  0.00    -0.422 OA
BRANCH  18  19
ATOM     19  C   UNL     1       6.607   2.750  -1.171  0.00  0.00    +0.172 C 
ATOM     20  C   UNL     1       7.923   2.595  -1.866  0.00  0.00    +0.044 C 
ATOM     21  C   UNL     1       9.052   2.378  -0.896  0.00  0.00    +0.004 C 
ATOM     22  C   UNL     1       9.128   3.498   0.103  0.00  0.00    +0.000 C 
ATOM     23  C   UNL     1       7.844   3.673   0.841  0.00  0.00    +0.004 C 
ATOM     24  C   UNL     1       6.681   2.942   0.303  0.00  0.00    +0.044 C 
ENDBRANCH  18  19
ENDBRANCH  16  18
ENDBRANCH  15  16
ENDBRANCH  13  15
ENDBRANCH  12  13
ENDBRANCH  10  12
ENDBRANCH   8  10
BRANCH   1  25
ATOM     25  O   UNL     1      -0.994  -1.819  -2.865  0.00  0.00    -0.448 OA
BRANCH  25  27
ATOM     26  C   UNL     1       0.470  -1.100  -3.329  0.00  0.00    +0.051 C 
ATOM     27  C   UNL     1       0.010  -1.071  -3.535  0.00  0.00    +0.209 C 
ENDBRANCH  25  27
ENDBRANCH   1  25
BRANCH   2  28
ATOM     28  C   UNL     1      -0.063  -0.397  -0.278  0.00  0.00    +0.137 C 
BRANCH  28  29
ATOM     29  C   UNL     1      -1.375  -0.218   0.428  0.00  0.00    +0.001 A 
ATOM     30  C   UNL     1      -1.940   1.032   0.640  0.00  0.00    -0.002 A 
ATOM     31  C   UNL     1      -3.270   1.120   1.040  0.00  0.00    -0.000 A 
ATOM     32  C   UNL     1      -4.135   0.214   0.429  0.00  0.00    -0.001 A 
ATOM     33  C   UNL     1      -3.602  -1.073   0.424  0.00  0.00    -0.000 A 
ATOM     34  C   UNL     1      -2.241  -1.291   0.618  0.00  0.00    -0.002 A 
BRANCH  32  35
ATOM     35  C   UNL     1      -5.587   0.266   0.654  0.00  0.00    -0.006 A 
ATOM     36  C   UNL     1      -6.362   1.079  -0.165  0.00  0.00    -0.015 A 
ATOM     37  C   UNL     1      -7.675   0.718  -0.451  0.00  0.00    -0.007 A 
ATOM     38  C   UNL     1      -8.381  -0.014   0.490  0.00  0.00    -0.001 A 
ATOM     39  C   UNL     1      -7.651  -0.791   1.362  0.00  0.00    -0.000 A 
ATOM     40  C   UNL     1      -6.268  -0.790   1.252  0.00  0.00    -0.001 A 
BRANCH  36  41
ATOM     41  C   UNL     1      -5.808   2.372  -0.591  0.00  0.00    +0.044 A 
ATOM     42  N   UNL     1      -6.369   3.051  -1.622  0.00  0.00    -0.289 NA
ATOM     43  N   UNL     1      -6.168   4.359  -1.477  0.00  0.00    -0.218 NA
ATOM     44  N   UNL     1      -5.527   4.538  -0.339  0.00  0.00    -0.218 NA
ATOM     45  N   UNL     1      -5.343   3.364   0.208  0.00  0.00    -0.289 NA
ENDBRANCH  36  41
ENDBRANCH  32  35
ENDBRANCH  28  29
ENDBRANCH   2  28
TORSDOF 13
