REMARK  Name = 
REMARK  10 active torsions:
REMARK  status: ('A' for Active; 'I' for Inactive)
REMARK    1  A    between atoms: C_2  and  C_3
REMARK    2  A    between atoms: C_3  and  C_4
REMARK    3  A    between atoms: C_4  and  O_6
REMARK    4  A    between atoms: O_6  and  C_7
REMARK    5  A    between atoms: C_7  and  O_8
REMARK    6  A    between atoms: O_8  and  C_9
REMARK    7  A    between atoms: C_9  and  C_11
REMARK    8  A    between atoms: C_17  and  C_18
REMARK    9  A    between atoms: C_18  and  O_20
REMARK   10  A    between atoms: C_22  and  C_23
REMARK                            x       y       z     vdW  Elec       q    Type
REMARK                         _______ _______ _______ _____ _____    ______ ____
ROOT
ATOM      1  C   UNL     1      -0.014  -0.495   0.133  0.00  0.00    +0.073 C 
ATOM      2  C   UNL     1      -1.371  -0.663  -0.782  0.00  0.00    +0.082 C 
ATOM      3  C   UNL     1      -2.307  -0.977   0.530  0.00  0.00    +0.073 C 
ATOM      4  C   UNL     1      -2.044  -2.251   0.854  0.00  0.00    +0.051 C 
ATOM      5  C   UNL     1      -2.978  -2.915   1.818  0.00  0.00    +0.049 C 
ATOM      6  N   UNL     1      -0.691  -2.725   0.789  0.00  0.00    -0.221 NA
ATOM      7  C   UNL     1       0.313  -1.740   0.502  0.00  0.00    +0.051 C 
ATOM      8  C   UNL     1       1.700  -2.286   0.367  0.00  0.00    +0.049 C 
ENDROOT
BRANCH   2   9
ATOM      9  C   UNL     1      -1.703   0.935  -0.764  0.00  0.00    -0.002 A 
ATOM     10  C   UNL     1      -1.616   1.576   0.415  0.00  0.00    +0.065 A 
ATOM     11 CL   UNL     1      -1.422   0.780   1.940  0.00  0.00    -0.082 Cl
ATOM     12  C   UNL     1      -2.040   2.901   0.427  0.00  0.00    +0.068 A 
ATOM     13 CL   UNL     1      -1.404   3.957   1.683  0.00  0.00    -0.081 Cl
ATOM     14  C   UNL     1      -2.781   3.397  -0.640  0.00  0.00    +0.012 A 
ATOM     15  C   UNL     1      -3.142   2.568  -1.697  0.00  0.00    +0.001 A 
ATOM     16  C   UNL     1      -2.496   1.342  -1.826  0.00  0.00    -0.003 A 
ENDBRANCH   2   9
BRANCH   3  17
ATOM     17  C   UNL     1      -3.707  -0.765   0.115  0.00  0.00    +0.339 C 
ATOM     18  O   UNL     1      -4.135  -1.288  -0.960  0.00  0.00    -0.245 OA
BRANCH  17  19
ATOM     19  O   UNL     1      -4.651  -0.664   1.144  0.00  0.00    -0.442 OA
ATOM     20  C   UNL     1      -6.011  -1.044   0.937  0.00  0.00    +0.256 C 
ENDBRANCH  17  19
ENDBRANCH   3  17
BRANCH   1  21
ATOM     21  C   UNL     1       1.020   0.285  -0.570  0.00  0.00    +0.341 C 
ATOM     22  O   UNL     1       1.418   1.418  -0.155  0.00  0.00    -0.245 OA
BRANCH  21  23
ATOM     23  O   UNL     1       2.013  -0.401  -1.282  0.00  0.00    -0.405 OA
BRANCH  23  24
ATOM     24  C   UNL     1       3.223   0.238  -1.679  0.00  0.00    +0.433 C 
BRANCH  24  25
ATOM     25  O   UNL     1       4.353  -0.563  -1.496  0.00  0.00    -0.408 OA
BRANCH  25  26
ATOM     26  C   UNL     1       5.118  -0.639  -0.358  0.00  0.00    +0.320 C 
ATOM     27  O   UNL     1       4.649  -0.124   0.691  0.00  0.00    -0.250 OA
BRANCH  26  28
ATOM     28  C   UNL     1       6.536  -1.106  -0.333  0.00  0.00    +0.110 C 
BRANCH  28  30
ATOM     29  C   UNL     1       6.812   1.080  -0.278  0.00  0.00    +0.001 C 
ATOM     30  C   UNL     1       7.356   0.168  -0.151  0.00  0.00    +0.012 C 
ENDBRANCH  28  30
ENDBRANCH  26  28
ENDBRANCH  25  26
ENDBRANCH  24  25
ENDBRANCH  23  24
ENDBRANCH  21  23
ENDBRANCH   1  21
TORSDOF 10
