REMARK  Name = 
REMARK  0 active torsions:
REMARK  status: ('A' for Active; 'I' for Inactive)
REMARK                            x       y       z     vdW  Elec       q    Type
REMARK                         _______ _______ _______ _____ _____    ______ ____
ROOT
ATOM      1  C   UNL     1       3.739   0.896  -0.301  0.00  0.00    +0.119 A 
ATOM      2  N   UNL     1       2.611   1.272  -0.876  0.00  0.00    -0.241 NA
ATOM      3  C   UNL     1       1.520   0.562  -0.591  0.00  0.00    +0.099 A 
ATOM      4  C   UNL     1       1.658  -0.663   0.056  0.00  0.00    +0.099 A 
ATOM      5  C   UNL     1       0.538  -1.111   0.751  0.00  0.00    +0.016 A 
ATOM      6  C   UNL     1      -0.654  -0.448   0.499  0.00  0.00    -0.023 A 
ATOM      7  C   UNL     1      -2.081  -0.789   1.137  0.00  0.00    +0.040 C 
ATOM      8  C   UNL     1      -2.655   0.732   1.042  0.00  0.00    +0.093 C 
ATOM      9  N   UNL     1      -2.997   1.251  -0.109  0.00  0.00    -0.217 NA
ATOM     10  C   UNL     1      -3.154   0.669  -1.340  0.00  0.00    +0.093 C 
ATOM     11  C   UNL     1      -2.014  -0.512  -1.447  0.00  0.00    +0.040 C 
ATOM     12  C   UNL     1      -2.684  -1.355  -0.246  0.00  0.00    +0.012 C 
ATOM     13  C   UNL     1      -0.893   0.267  -0.594  0.00  0.00    -0.023 A 
ATOM     14  N   UNL     1       2.862  -1.123   0.376  0.00  0.00    -0.241 NA
ATOM     15  C   UNL     1       0.274   0.769  -1.179  0.00  0.00    +0.016 A 
ATOM     16  C   UNL     1       3.929  -0.416  -0.045  0.00  0.00    +0.119 A 
ENDROOT
TORSDOF 0
