REMARK  Name = 
REMARK  4 active torsions:
REMARK  status: ('A' for Active; 'I' for Inactive)
REMARK    1  A    between atoms: O_2  and  C_3
REMARK    2  A    between atoms: C_8  and  O_9
REMARK    3  A    between atoms: C_15  and  C_16
REMARK    4  A    between atoms: C_16  and  C_17
REMARK                            x       y       z     vdW  Elec       q    Type
REMARK                         _______ _______ _______ _____ _____    ______ ____
ROOT
ATOM      1  C   UNL     1      -3.648   0.013  -0.068  0.00  0.00    +0.172 A 
ATOM      2  C   UNL     1      -2.972   1.118   0.434  0.00  0.00    +0.172 A 
ATOM      3  C   UNL     1      -1.745   0.824   1.018  0.00  0.00    +0.037 A 
ATOM      4  C   UNL     1      -1.122  -0.405   0.811  0.00  0.00    -0.008 A 
ATOM      5  C   UNL     1       0.466  -0.150   0.887  0.00  0.00    +0.087 C 
ATOM      6  N   UNL     1       0.632  -0.023  -0.671  0.00  0.00    -0.269 NA
ATOM      7  C   UNL     1       0.405  -1.206  -1.343  0.00  0.00    +0.077 C 
ATOM      8  C   UNL     1      -0.704  -2.097  -0.914  0.00  0.00    +0.044 C 
ATOM      9  C   UNL     1       2.019   0.324  -0.690  0.00  0.00    +0.080 C 
ATOM     10  C   UNL     1       2.895  -1.051  -0.690  0.00  0.00    +0.074 C 
ATOM     11  C   UNL     1       2.343  -1.550   0.735  0.00  0.00    +0.153 C 
ATOM     12  O   UNL     1       3.055  -2.462   1.150  0.00  0.00    -0.296 OA
ATOM     13  C   UNL     1       0.863  -1.746   0.880  0.00  0.00    +0.085 C 
ATOM     14  C   UNL     1      -1.621  -1.277  -0.074  0.00  0.00    -0.020 A 
ATOM     15  C   UNL     1      -2.971  -1.155  -0.401  0.00  0.00    +0.036 A 
ENDROOT
BRANCH   1  17
ATOM     16  C   UNL     1      -5.591   0.891  -0.082  0.00  0.00    +0.253 C 
ATOM     17  O   UNL     1      -5.029   0.161  -0.201  0.00  0.00    -0.468 OA
ENDBRANCH   1  17
BRANCH   2  18
ATOM     18  O   UNL     1      -3.352   2.423   0.107  0.00  0.00    -0.468 OA
ATOM     19  C   UNL     1      -2.362   3.426  -0.106  0.00  0.00    +0.253 C 
ENDBRANCH   2  18
BRANCH  10  20
ATOM     20  C   UNL     1       4.194  -0.313  -0.022  0.00  0.00    +0.009 C 
BRANCH  20  21
ATOM     21  C   UNL     1       4.391   1.022  -0.610  0.00  0.00    +0.000 C 
ATOM     22  C   UNL     1       4.631   2.145   0.368  0.00  0.00    +0.000 C 
ATOM     23  C   UNL     1       5.223   1.087  -1.846  0.00  0.00    +0.000 C 
ENDBRANCH  20  21
ENDBRANCH  10  20
TORSDOF 4
