REMARK  Name = 
REMARK  4 active torsions:
REMARK  status: ('A' for Active; 'I' for Inactive)
REMARK    1  A    between atoms: C_2  and  C_3
REMARK    2  A    between atoms: C_3  and  C_4
REMARK    3  A    between atoms: C_3  and  C_8
REMARK    4  A    between atoms: C_4  and  C_5
REMARK                            x       y       z     vdW  Elec       q    Type
REMARK                         _______ _______ _______ _____ _____    ______ ____
ROOT
ATOM      1  C   UNL     1      -1.323   1.335  -0.547  0.00  0.00    +0.053 C 
ENDROOT
BRANCH   1   2
ATOM      2  C   UNL     1       0.066   0.563  -0.388  0.00  0.00    -0.020 A 
ATOM      3  C   UNL     1       0.377  -0.449  -1.254  0.00  0.00    -0.003 A 
ATOM      4  C   UNL     1       1.528  -1.144  -0.874  0.00  0.00    +0.011 A 
ATOM      5  C   UNL     1       2.535  -0.484  -0.177  0.00  0.00    +0.058 A 
ATOM      6 CL   UNL     1       3.661  -1.337   0.875  0.00  0.00    -0.082 Cl
ATOM      7  C   UNL     1       2.406   0.901  -0.155  0.00  0.00    +0.011 A 
ATOM      8  C   UNL     1       1.132   1.455  -0.244  0.00  0.00    -0.003 A 
ENDBRANCH   1   2
BRANCH   1  10
ATOM      9  N   UNL     1      -0.864   2.392   1.612  0.00  0.00    -0.131 NA
ATOM     10  C   UNL     1      -1.599   1.331   1.066  0.00  0.00    +0.114 C 
ENDBRANCH   1  10
BRANCH   1  11
ATOM     11  C   UNL     1      -2.230   0.006  -0.792  0.00  0.00    +0.120 C 
BRANCH  11  12
ATOM     12  C   UNL     1      -1.832  -1.077   0.071  0.00  0.00    +0.365 C 
ATOM     13  O   UNL     1      -1.948  -2.348  -0.520  0.00  0.00    -0.246 OA
ATOM     14  O   UNL     1      -1.908  -1.142   1.327  0.00  0.00    -0.246 OA
ENDBRANCH  11  12
ENDBRANCH   1  11
TORSDOF 4
