REMARK  Name = 
REMARK  6 active torsions:
REMARK  status: ('A' for Active; 'I' for Inactive)
REMARK    1  A    between atoms: N_2  and  C_4
REMARK    2  A    between atoms: C_4  and  C_5
REMARK    3  A    between atoms: C_5  and  C_6
REMARK    4  A    between atoms: C_12  and  C_13
REMARK    5  A    between atoms: C_13  and  S_14
REMARK    6  A    between atoms: S_14  and  N_17
REMARK                            x       y       z     vdW  Elec       q    Type
REMARK                         _______ _______ _______ _____ _____    ______ ____
ROOT
ATOM      1  C   UNL     1       3.005   0.897  -0.060  0.00  0.00    -0.000 A 
ATOM      2  C   UNL     1       1.793   0.233  -0.198  0.00  0.00    +0.015 A 
ATOM      3  C   UNL     1       1.600   0.068  -1.562  0.00  0.00    +0.081 A 
ATOM      4  C   UNL     1       0.548  -0.751  -1.933  0.00  0.00    +0.019 A 
ATOM      5  C   UNL     1      -0.510  -0.947  -1.054  0.00  0.00    -0.001 A 
ATOM      6  C   UNL     1      -0.479  -0.470   0.249  0.00  0.00    +0.003 A 
ATOM      7  N   UNL     1       2.444   0.908  -2.166  0.00  0.00    -0.244 NA
ATOM      8  C   UNL     1       0.764  -0.041   0.694  0.00  0.00    -0.001 A 
ATOM      9  C   UNL     1       3.256   1.510  -1.262  0.00  0.00    +0.095 A 
ENDROOT
BRANCH   1  10
ATOM     10  C   UNL     1       3.761   0.901   1.211  0.00  0.00    +0.045 C 
BRANCH  10  11
ATOM     11  C   UNL     1       4.609  -0.365   1.217  0.00  0.00    +0.077 C 
BRANCH  11  13
ATOM     12  C   UNL     1       7.015  -0.386   1.340  0.00  0.00    +0.090 C 
ATOM     13  N   UNL     1       5.853  -0.033   0.568  0.00  0.00    -0.270 NA
ATOM     14  C   UNL     1       5.913  -0.481  -0.802  0.00  0.00    +0.090 C 
ENDBRANCH  11  13
ENDBRANCH  10  11
ENDBRANCH   1  10
BRANCH   6  15
ATOM     15  C   UNL     1      -1.714  -0.065   0.963  0.00  0.00    +0.195 C 
BRANCH  15  16
ATOM     16  S   UNL     1      -3.134  -0.565   0.035  0.00  0.00    +0.048 S 
ATOM     17  O   UNL     1      -2.832  -1.920  -0.541  0.00  0.00    -0.157 OA
ATOM     18  O   UNL     1      -3.437   0.359  -1.096  0.00  0.00    -0.157 OA
BRANCH  16  19
ATOM     19  N   UNL     1      -4.490  -0.653   1.116  0.00  0.00    -0.159 NA
ATOM     20  C   UNL     1      -5.184   0.608   1.190  0.00  0.00    +0.095 C 
ATOM     21  C   UNL     1      -6.538   0.411   0.549  0.00  0.00    +0.021 C 
ATOM     22  C   UNL     1      -6.808  -1.049   0.862  0.00  0.00    +0.021 C 
ATOM     23  C   UNL     1      -5.435  -1.650   0.681  0.00  0.00    +0.095 C 
ENDBRANCH  16  19
ENDBRANCH  15  16
ENDBRANCH   6  15
TORSDOF 6
