REMARK  Name = 
REMARK  5 active torsions:
REMARK  status: ('A' for Active; 'I' for Inactive)
REMARK    1  A    between atoms: C_2  and  C_3
REMARK    2  A    between atoms: C_4  and  C_5
REMARK    3  A    between atoms: C_6  and  C_8
REMARK    4  A    between atoms: C_9  and  C_10
REMARK    5  A    between atoms: C_19  and  C_20
REMARK                            x       y       z     vdW  Elec       q    Type
REMARK                         _______ _______ _______ _____ _____    ______ ____
ROOT
ATOM      1  C   UNL     1       1.309  -0.380   1.074  0.00  0.00    -0.004 C 
ATOM      2  C   UNL     1       0.317  -1.114   0.566  0.00  0.00    -0.022 C 
ATOM      3  C   UNL     1       0.091  -2.465   1.172  0.00  0.00    +0.031 C 
ENDROOT
BRANCH   1   5
ATOM      4  C   UNL     1       2.833   1.453   0.518  0.00  0.00    -0.004 C 
ATOM      5  C   UNL     1       1.914   0.587   0.149  0.00  0.00    -0.001 C 
BRANCH   4   7
ATOM      6  C   UNL     1       5.113   2.546   0.404  0.00  0.00    +0.031 C 
ATOM      7  C   UNL     1       4.065   1.696  -0.243  0.00  0.00    -0.015 C 
ATOM      8  C   UNL     1       4.482   0.924  -1.221  0.00  0.00    +0.082 C 
BRANCH   8   9
ATOM      9  C   UNL     1       5.832   0.347  -1.274  0.00  0.00    +0.388 C 
ATOM     10  O   UNL     1       5.884  -1.006  -1.622  0.00  0.00    -0.241 OA
ATOM     11  O   UNL     1       6.776   0.781  -0.559  0.00  0.00    -0.241 OA
ENDBRANCH   8   9
ENDBRANCH   4   7
ENDBRANCH   1   5
BRANCH   2  12
ATOM     12  C   UNL     1      -0.766  -0.347  -0.054  0.00  0.00    -0.005 C 
ATOM     13  C   UNL     1      -1.727  -0.883  -0.769  0.00  0.00    -0.005 C 
BRANCH  13  14
ATOM     14  C   UNL     1      -3.135  -0.477  -0.675  0.00  0.00    -0.031 C 
ATOM     15  C   UNL     1      -3.564   0.779  -0.006  0.00  0.00    +0.018 C 
ATOM     16  C   UNL     1      -4.776   1.295  -0.764  0.00  0.00    +0.004 C 
ATOM     17  C   UNL     1      -2.484   1.821   0.016  0.00  0.00    +0.004 C 
ATOM     18  C   UNL     1      -3.994   0.423   1.388  0.00  0.00    +0.004 C 
ATOM     19  C   UNL     1      -4.926  -0.753   1.417  0.00  0.00    +0.005 C 
ATOM     20  C   UNL     1      -5.337  -1.183   0.013  0.00  0.00    +0.022 C 
ATOM     21  C   UNL     1      -4.057  -1.441  -0.718  0.00  0.00    -0.048 C 
ATOM     22  C   UNL     1      -3.849  -2.603  -1.603  0.00  0.00    +0.026 C 
ENDBRANCH  13  14
ENDBRANCH   2  12
TORSDOF 5
