REMARK  Name = 
REMARK  23 active torsions:
REMARK  status: ('A' for Active; 'I' for Inactive)
REMARK    1  A    between atoms: C_2  and  C_4
REMARK    2  A    between atoms: C_4  and  N_5
REMARK    3  A    between atoms: N_5  and  C_6
REMARK    4  A    between atoms: N_5  and  C_48
REMARK    5  A    between atoms: C_6  and  C_7
REMARK    6  A    between atoms: C_7  and  N_8
REMARK    7  A    between atoms: N_8  and  C_9
REMARK    8  A    between atoms: N_8  and  C_13
REMARK    9  A    between atoms: C_9  and  C_10
REMARK   10  A    between atoms: C_13  and  C_14
REMARK   11  A    between atoms: C_14  and  C_15
REMARK   12  A    between atoms: C_14  and  N_39
REMARK   13  A    between atoms: C_15  and  O_16
REMARK   14  A    between atoms: O_16  and  P_17
REMARK   15  A    between atoms: P_17  and  O_20
REMARK   16  A    between atoms: O_20  and  C_21
REMARK   17  A    between atoms: C_24  and  C_25
REMARK   18  A    between atoms: C_24  and  C_31
REMARK   19  A    between atoms: N_39  and  C_40
REMARK   20  A    between atoms: N_39  and  C_44
REMARK   21  A    between atoms: C_40  and  C_41
REMARK   22  A    between atoms: C_44  and  C_45
REMARK   23  A    between atoms: C_48  and  C_49
REMARK                            x       y       z     vdW  Elec       q    Type
REMARK                         _______ _______ _______ _____ _____    ______ ____
ROOT
ATOM      1  C   UNL     1      -2.245   0.491   0.304  0.00  0.00    +0.105 C 
ENDROOT
BRANCH   1   2
ATOM      2  N   UNL     1      -2.057  -1.056   0.138  0.00  0.00    -0.251 NA
BRANCH   2   3
ATOM      3  C   UNL     1      -1.702  -1.612   1.383  0.00  0.00    +0.188 C 
BRANCH   3   4
ATOM      4  C   UNL     1      -0.894  -2.831   1.191  0.00  0.00    +0.381 C 
ATOM      5  O   UNL     1      -1.430  -3.776   0.309  0.00  0.00    -0.244 OA
ATOM      6  O   UNL     1      -0.314  -3.268   2.231  0.00  0.00    -0.244 OA
ENDBRANCH   3   4
ENDBRANCH   2   3
BRANCH   2   7
ATOM      7  C   UNL     1      -1.213  -1.288  -0.971  0.00  0.00    +0.188 C 
BRANCH   7   8
ATOM      8  C   UNL     1      -1.803  -0.604  -2.160  0.00  0.00    +0.381 C 
ATOM      9  O   UNL     1      -1.918  -1.346  -3.316  0.00  0.00    -0.244 OA
ATOM     10  O   UNL     1      -1.969   0.630  -2.238  0.00  0.00    -0.244 OA
ENDBRANCH   7   8
ENDBRANCH   2   7
ENDBRANCH   1   2
BRANCH   1  11
ATOM     11  C   UNL     1      -3.325   0.272   1.522  0.00  0.00    +0.091 C 
BRANCH  11  12
ATOM     12  N   UNL     1      -4.350  -0.416   0.813  0.00  0.00    -0.261 NA
BRANCH  12  13
ATOM     13  C   UNL     1      -5.089   0.330  -0.135  0.00  0.00    +0.090 C 
BRANCH  13  14
ATOM     14  C   UNL     1      -5.715   1.591   0.383  0.00  0.00    +0.091 C 
BRANCH  14  15
ATOM     15  N   UNL     1      -7.123   1.341   0.672  0.00  0.00    -0.252 NA
BRANCH  15  16
ATOM     16  C   UNL     1      -7.747   2.569   1.159  0.00  0.00    +0.188 C 
BRANCH  16  17
ATOM     17  C   UNL     1      -7.248   3.749   0.421  0.00  0.00    +0.381 C 
ATOM     18  O   UNL     1      -5.968   4.198   0.735  0.00  0.00    -0.244 OA
ATOM     19  O   UNL     1      -8.097   4.649   0.148  0.00  0.00    -0.244 OA
ENDBRANCH  16  17
ENDBRANCH  15  16
BRANCH  15  20
ATOM     20  C   UNL     1      -7.816   0.883  -0.498  0.00  0.00    +0.188 C 
BRANCH  20  22
ATOM     21  O   UNL     1      -8.740  -0.848  -0.844  0.00  0.00    -0.244 OA
ATOM     22  C   UNL     1      -8.505  -0.432  -0.284  0.00  0.00    +0.381 C 
ATOM     23  O   UNL     1      -8.613  -0.883   1.039  0.00  0.00    -0.244 OA
ENDBRANCH  20  22
ENDBRANCH  15  20
ENDBRANCH  14  15
ENDBRANCH  13  14
ENDBRANCH  12  13
BRANCH  12  24
ATOM     24  C   UNL     1      -4.999  -1.488   1.458  0.00  0.00    +0.188 C 
BRANCH  24  25
ATOM     25  C   UNL     1      -5.337  -2.542   0.449  0.00  0.00    +0.381 C 
ATOM     26  O   UNL     1      -5.276  -2.273  -0.922  0.00  0.00    -0.244 OA
ATOM     27  O   UNL     1      -5.675  -3.693   0.819  0.00  0.00    -0.244 OA
ENDBRANCH  24  25
ENDBRANCH  12  24
ENDBRANCH  11  12
ENDBRANCH   1  11
BRANCH   1  28
ATOM     28  C   UNL     1      -0.976   0.653   1.331  0.00  0.00    +0.166 C 
BRANCH  28  29
ATOM     29  O   UNL     1       0.099   0.060   0.714  0.00  0.00    -0.313 OA
BRANCH  29  30
ATOM     30  P   UNL     1       1.450   1.015   0.528  0.00  0.00    +0.214 P 
ATOM     31  O   UNL     1       1.165   2.652   0.781  0.00  0.00    -0.437 OA
ATOM     32  O   UNL     1       2.466   0.578   1.574  0.00  0.00    -0.517 OA
BRANCH  30  33
ATOM     33  O   UNL     1       2.032   0.825  -1.033  0.00  0.00    -0.317 OA
BRANCH  33  34
ATOM     34  C   UNL     1       3.282   0.309  -1.139  0.00  0.00    +0.122 C 
ATOM     35  C   UNL     1       3.638  -0.848  -0.308  0.00  0.00    +0.031 C 
ATOM     36  C   UNL     1       4.961  -0.804   0.377  0.00  0.00    +0.011 C 
ATOM     37  C   UNL     1       6.037  -0.076  -0.359  0.00  0.00    +0.038 C 
ATOM     38  C   UNL     1       5.634   0.404  -1.724  0.00  0.00    +0.011 C 
ATOM     39  C   UNL     1       4.370   1.235  -1.530  0.00  0.00    +0.031 C 
BRANCH  37  40
ATOM     40  C   UNL     1       7.251  -0.936  -0.522  0.00  0.00    -0.019 A 
ATOM     41  C   UNL     1       7.889  -1.387   0.616  0.00  0.00    -0.004 A 
ATOM     42  C   UNL     1       8.993  -2.185   0.462  0.00  0.00    -0.000 A 
ATOM     43  C   UNL     1       9.345  -2.620  -0.796  0.00  0.00    -0.000 A 
ATOM     44  C   UNL     1       8.370  -2.589  -1.778  0.00  0.00    -0.000 A 
ATOM     45  C   UNL     1       7.288  -1.757  -1.624  0.00  0.00    -0.004 A 
ENDBRANCH  37  40
BRANCH  37  46
ATOM     46  C   UNL     1       6.471   1.117   0.433  0.00  0.00    -0.019 A 
ATOM     47  C   UNL     1       6.371   1.127   1.818  0.00  0.00    -0.004 A 
ATOM     48  C   UNL     1       7.061   2.080   2.543  0.00  0.00    -0.000 A 
ATOM     49  C   UNL     1       7.618   3.174   1.895  0.00  0.00    -0.000 A 
ATOM     50  C   UNL     1       7.396   3.360   0.540  0.00  0.00    -0.000 A 
ATOM     51  C   UNL     1       6.958   2.265  -0.179  0.00  0.00    -0.004 A 
ENDBRANCH  37  46
ENDBRANCH  33  34
ENDBRANCH  30  33
ENDBRANCH  29  30
ENDBRANCH  28  29
ENDBRANCH   1  28
TORSDOF 23
