REMARK  Name = 
REMARK  2 active torsions:
REMARK  status: ('A' for Active; 'I' for Inactive)
REMARK    1  A    between atoms: O_2  and  C_3
REMARK    2  A    between atoms: C_3  and  C_5
REMARK                            x       y       z     vdW  Elec       q    Type
REMARK                         _______ _______ _______ _____ _____    ______ ____
ROOT
ATOM      1  C   UNL     1      -0.345  -0.033  -0.347  0.00  0.00    +0.114 A 
ATOM      2  C   UNL     1       0.492   1.072  -0.427  0.00  0.00    +0.202 A 
ATOM      3  O   UNL     1      -0.103   2.295  -0.752  0.00  0.00    -0.286 OA
ATOM      4  C   UNL     1       1.866   0.942  -0.263  0.00  0.00    +0.038 A 
ATOM      5  C   UNL     1       2.426  -0.317  -0.173  0.00  0.00    -0.019 A 
ATOM      6  C   UNL     1       3.692  -0.422   0.615  0.00  0.00    +0.031 C 
ATOM      7  C   UNL     1       1.646  -1.400  -0.484  0.00  0.00    -0.004 A 
ATOM      8  C   UNL     1       0.274  -1.256  -0.487  0.00  0.00    +0.009 A 
ENDROOT
BRANCH   1   9
ATOM      9  C   UNL     1      -1.682   0.123   0.227  0.00  0.00    +0.344 C 
ATOM     10  O   UNL     1      -1.922   0.956   1.153  0.00  0.00    -0.245 OA
BRANCH   9  12
ATOM     11  C   UNL     1      -3.640  -1.172   0.962  0.00  0.00    +0.256 C 
ATOM     12  O   UNL     1      -2.706  -0.789  -0.024  0.00  0.00    -0.441 OA
ENDBRANCH   9  12
ENDBRANCH   1   9
TORSDOF 2
