REMARK  Name = 
REMARK  2 active torsions:
REMARK  status: ('A' for Active; 'I' for Inactive)
REMARK    1  A    between atoms: C_2  and  N_4
REMARK    2  A    between atoms: C_7  and  S_8
REMARK                            x       y       z     vdW  Elec       q    Type
REMARK                         _______ _______ _______ _____ _____    ______ ____
ROOT
ATOM      1  N   UNL     1      -2.285   0.549   1.109  0.00  0.00    -0.154 NA
ATOM      2  C   UNL     1      -1.061   0.201   0.859  0.00  0.00    +0.186 A 
ATOM      3  N   UNL     1      -0.616  -0.867   0.149  0.00  0.00    -0.227 N 
ATOM      4  C   UNL     1      -1.505  -1.951  -0.271  0.00  0.00    +0.156 C 
ATOM      5  N   UNL     1       0.481  -0.580  -0.510  0.00  0.00    -0.140 NA
ATOM      6  C   UNL     1       1.436  -0.042   0.270  0.00  0.00    +0.257 A 
ATOM      7  S   UNL     1       0.445   0.891   1.322  0.00  0.00    -0.011 S 
ENDROOT
BRANCH   6   8
ATOM      8  S   UNL     1       3.173   0.038  -0.007  0.00  0.00    +0.118 S 
ATOM      9  O   UNL     1       3.903  -0.874   0.953  0.00  0.00    -0.148 OA
ATOM     10  O   UNL     1       3.392  -0.431  -1.419  0.00  0.00    -0.148 OA
ATOM     11  N   UNL     1       3.728   1.645   0.159  0.00  0.00    +0.041 NA
ENDBRANCH   6   8
BRANCH   1  13
ATOM     12  C   UNL     1      -4.427  -0.457   0.260  0.00  0.00    +0.097 C 
ATOM     13  C   UNL     1      -3.317   0.528   0.141  0.00  0.00    +0.248 C 
ATOM     14  O   UNL     1      -3.345   1.349  -0.822  0.00  0.00    -0.273 OA
ENDBRANCH   1  13
TORSDOF 2
