REMARK  Name = 
REMARK  3 active torsions:
REMARK  status: ('A' for Active; 'I' for Inactive)
REMARK    1  A    between atoms: C_5  and  N_6
REMARK    2  A    between atoms: N_9  and  C_10
REMARK    3  A    between atoms: C_10  and  C_11
REMARK                            x       y       z     vdW  Elec       q    Type
REMARK                         _______ _______ _______ _____ _____    ______ ____
ROOT
ATOM      1  C   UNL     1      -2.666  -0.608   0.379  0.00  0.00    +0.072 C 
ATOM      2  C   UNL     1      -1.252  -0.930   0.015  0.00  0.00    +0.125 A 
ATOM      3  N   UNL     1      -0.291   0.024   0.044  0.00  0.00    -0.255 N 
ATOM      4  C   UNL     1       0.895  -0.588   0.247  0.00  0.00    +0.378 A 
ATOM      5  C   UNL     1       0.630  -1.953   0.269  0.00  0.00    +0.195 A 
ATOM      6  N   UNL     1      -0.661  -2.128  -0.062  0.00  0.00    -0.223 NA
ENDROOT
BRANCH   4   7
ATOM      7  N   UNL     1       2.210  -0.105  -0.054  0.00  0.00    +0.101 N 
ATOM      8  O   UNL     1       3.136   0.013   0.963  0.00  0.00    -0.575 OA
ATOM      9  O   UNL     1       2.393   0.542  -1.113  0.00  0.00    +0.043 OA
ENDBRANCH   4   7
BRANCH   3  10
ATOM     10  C   UNL     1      -0.381   1.374  -0.444  0.00  0.00    +0.148 C 
BRANCH  10  11
ATOM     11  C   UNL     1      -1.779   1.842  -0.693  0.00  0.00    +0.207 C 
ATOM     12  O   UNL     1      -2.234   2.518   0.449  0.00  0.00    -0.218 OA
ENDBRANCH  10  11
ENDBRANCH   3  10
TORSDOF 3
