REMARK  Name = 
REMARK  4 active torsions:
REMARK  status: ('A' for Active; 'I' for Inactive)
REMARK    1  A    between atoms: C_2  and  C_3
REMARK    2  A    between atoms: C_8  and  C_9
REMARK    3  A    between atoms: C_11  and  C_12
REMARK    4  A    between atoms: N_19  and  C_20
REMARK                            x       y       z     vdW  Elec       q    Type
REMARK                         _______ _______ _______ _____ _____    ______ ____
ROOT
ATOM      1  C   UNL     1       0.938  -0.809  -0.577  0.00  0.00    +0.057 A 
ATOM      2  C   UNL     1       0.765   0.570  -0.585  0.00  0.00    +0.265 A 
ATOM      3  O   UNL     1       1.796   1.252  -0.301  0.00  0.00    -0.267 OA
ATOM      4  N   UNL     1      -0.413   1.167  -0.372  0.00  0.00    -0.273 N 
ATOM      5  C   UNL     1      -1.528   0.405  -0.484  0.00  0.00    +0.084 A 
ATOM      6  C   UNL     1      -1.461  -0.948  -0.795  0.00  0.00    +0.035 A 
ATOM      7  C   UNL     1      -0.207  -1.544  -0.860  0.00  0.00    +0.008 A 
ENDROOT
BRANCH   1   9
ATOM      8  C   UNL     1       3.353  -1.113  -0.495  0.00  0.00    +0.069 A 
ATOM      9  C   UNL     1       2.119  -1.433   0.044  0.00  0.00    +0.014 A 
ATOM     10  C   UNL     1       2.095  -1.617   1.418  0.00  0.00    +0.001 A 
ATOM     11  C   UNL     1       3.204  -1.391   2.223  0.00  0.00    +0.000 A 
ATOM     12  C   UNL     1       4.376  -0.922   1.657  0.00  0.00    +0.001 A 
ATOM     13  C   UNL     1       4.494  -0.983   0.286  0.00  0.00    +0.010 A 
BRANCH   8  15
ATOM     14  N   UNL     1       3.483  -0.711  -3.043  0.00  0.00    -0.191 NA
ATOM     15  C   UNL     1       3.405  -1.006  -1.934  0.00  0.00    +0.100 C 
ENDBRANCH   8  15
ENDBRANCH   1   9
BRANCH   4  16
ATOM     16  C   UNL     1      -0.514   2.423   0.309  0.00  0.00    +0.067 A 
ATOM     17  C   UNL     1      -1.697   3.100   0.376  0.00  0.00    +0.018 A 
ATOM     18  C   UNL     1      -1.696   4.302   1.074  0.00  0.00    +0.001 A 
ATOM     19  C   UNL     1      -0.527   5.030   1.210  0.00  0.00    +0.000 A 
ATOM     20  C   UNL     1       0.656   4.463   0.768  0.00  0.00    +0.001 A 
ATOM     21  C   UNL     1       0.667   3.082   0.612  0.00  0.00    +0.018 A 
ENDBRANCH   4  16
BRANCH   6  22
ATOM     22  C   UNL     1      -2.664  -1.735  -0.501  0.00  0.00    +0.083 A 
ATOM     23  N   UNL     1      -2.885  -1.992   0.806  0.00  0.00    -0.244 NA
ATOM     24  C   UNL     1      -4.133  -2.312   1.215  0.00  0.00    +0.099 A 
ATOM     25  C   UNL     1      -5.043  -2.858   0.328  0.00  0.00    +0.021 A 
ATOM     26  C   UNL     1      -4.881  -2.526  -1.008  0.00  0.00    +0.003 A 
ATOM     27  C   UNL     1      -3.702  -1.893  -1.372  0.00  0.00    +0.019 A 
ENDBRANCH   6  22
TORSDOF 4
