REMARK  Name = 
REMARK  4 active torsions:
REMARK  status: ('A' for Active; 'I' for Inactive)
REMARK    1  A    between atoms: N_8  and  C_9
REMARK    2  A    between atoms: C_9  and  O_10
REMARK    3  A    between atoms: O_10  and  C_11
REMARK    4  A    between atoms: C_11  and  C_12
REMARK                            x       y       z     vdW  Elec       q    Type
REMARK                         _______ _______ _______ _____ _____    ______ ____
ROOT
ATOM      1  N   UNL     1      -3.180   2.709  -0.599  0.00  0.00    -0.086 NA
ATOM      2  C   UNL     1      -2.627   1.404  -0.801  0.00  0.00    +0.261 A 
ATOM      3  N   UNL     1      -3.337   0.389  -0.272  0.00  0.00    -0.171 NA
ATOM      4  C   UNL     1      -2.796  -0.839  -0.107  0.00  0.00    +0.302 A 
ATOM      5  O   UNL     1      -3.481  -1.890  -0.136  0.00  0.00    -0.263 OA
ATOM      6  C   UNL     1      -1.413  -0.952  -0.174  0.00  0.00    +0.175 A 
ATOM      7  N   UNL     1      -0.551  -1.859   0.326  0.00  0.00    -0.217 NA
ATOM      8  C   UNL     1       0.677  -1.305   0.456  0.00  0.00    +0.182 A 
ATOM      9  N   UNL     1       0.626  -0.043  -0.022  0.00  0.00    -0.268 N 
ATOM     10  C   UNL     1      -0.638   0.163  -0.463  0.00  0.00    +0.172 A 
ATOM     11  N   UNL     1      -1.302   1.208  -1.006  0.00  0.00    -0.192 NA
ENDROOT
BRANCH   9  12
ATOM     12  C   UNL     1       1.562   1.031   0.302  0.00  0.00    +0.258 C 
BRANCH  12  13
ATOM     13  O   UNL     1       2.824   0.673  -0.152  0.00  0.00    -0.329 OA
BRANCH  13  14
ATOM     14  C   UNL     1       3.334  -0.370   0.638  0.00  0.00    +0.180 C 
BRANCH  14  15
ATOM     15  C   UNL     1       4.746  -0.619   0.123  0.00  0.00    +0.214 C 
ATOM     16  O   UNL     1       5.558   0.300   0.807  0.00  0.00    -0.218 OA
ENDBRANCH  14  15
ENDBRANCH  13  14
ENDBRANCH  12  13
ENDBRANCH   9  12
TORSDOF 4
