REMARK  Name = 
REMARK  5 active torsions:
REMARK  status: ('A' for Active; 'I' for Inactive)
REMARK    1  A    between atoms: C_2  and  C_3
REMARK    2  A    between atoms: C_4  and  C_5
REMARK    3  A    between atoms: C_14  and  C_15
REMARK    4  A    between atoms: C_16  and  C_17
REMARK    5  A    between atoms: C_19  and  C_20
REMARK                            x       y       z     vdW  Elec       q    Type
REMARK                         _______ _______ _______ _____ _____    ______ ____
ROOT
ATOM      1  C   UNL     1      -1.046  -0.968   0.417  0.00  0.00    -0.005 C 
ATOM      2  C   UNL     1      -1.470  -0.171   1.399  0.00  0.00    -0.005 C 
ENDROOT
BRANCH   2   3
ATOM      3  C   UNL     1      -2.844   0.359   1.385  0.00  0.00    -0.031 C 
ATOM      4  C   UNL     1      -3.879  -0.605   0.887  0.00  0.00    +0.018 C 
ATOM      5  C   UNL     1      -5.202  -0.179   1.466  0.00  0.00    +0.004 C 
ATOM      6  C   UNL     1      -3.496  -2.005   1.284  0.00  0.00    +0.004 C 
ATOM      7  C   UNL     1      -3.866  -0.504  -0.615  0.00  0.00    +0.004 C 
ATOM      8  C   UNL     1      -3.828   0.907  -1.124  0.00  0.00    +0.005 C 
ATOM      9  C   UNL     1      -4.071   1.939  -0.045  0.00  0.00    +0.022 C 
ATOM     10  C   UNL     1      -3.098   1.627   1.051  0.00  0.00    -0.048 C 
ATOM     11  C   UNL     1      -2.044   2.628   1.371  0.00  0.00    +0.026 C 
ENDBRANCH   2   3
BRANCH   1  13
ATOM     12  C   UNL     1       0.254  -0.889  -1.796  0.00  0.00    +0.031 C 
ATOM     13  C   UNL     1       0.202  -0.722  -0.312  0.00  0.00    -0.022 C 
ATOM     14  C   UNL     1       1.109   0.055   0.238  0.00  0.00    -0.004 C 
BRANCH  14  15
ATOM     15  C   UNL     1       2.180   0.713  -0.491  0.00  0.00    -0.001 C 
ATOM     16  C   UNL     1       3.036   0.096  -1.271  0.00  0.00    -0.005 C 
BRANCH  16  17
ATOM     17  C   UNL     1       4.466   0.361  -1.288  0.00  0.00    -0.024 C 
ATOM     18  C   UNL     1       5.128   0.921  -0.296  0.00  0.00    +0.005 C 
ATOM     19  C   UNL     1       5.290  -0.359  -2.309  0.00  0.00    +0.031 C 
BRANCH  18  20
ATOM     20  C   UNL     1       6.452   0.480   0.180  0.00  0.00    +0.208 C 
ATOM     21  O   UNL     1       6.728  -0.853  -0.131  0.00  0.00    -0.215 OA
ENDBRANCH  18  20
ENDBRANCH  16  17
ENDBRANCH  14  15
ENDBRANCH   1  13
TORSDOF 5
