REMARK  Name = 
REMARK  16 active torsions:
REMARK  status: ('A' for Active; 'I' for Inactive)
REMARK    1  A    between atoms: C_2  and  C_3
REMARK    2  A    between atoms: C_5  and  C_6
REMARK    3  A    between atoms: C_6  and  C_8
REMARK    4  A    between atoms: C_8  and  N_9
REMARK    5  A    between atoms: N_9  and  C_10
REMARK    6  A    between atoms: C_10  and  C_11
REMARK    7  A    between atoms: C_11  and  C_12
REMARK    8  A    between atoms: C_12  and  C_13
REMARK    9  A    between atoms: C_13  and  C_14
REMARK   10  A    between atoms: C_14  and  C_15
REMARK   11  A    between atoms: C_15  and  O_16
REMARK   12  A    between atoms: O_16  and  C_17
REMARK   13  A    between atoms: C_17  and  C_18
REMARK   14  A    between atoms: C_18  and  C_19
REMARK   15  A    between atoms: C_19  and  C_20
REMARK   16  A    between atoms: C_20  and  C_21
REMARK                            x       y       z     vdW  Elec       q    Type
REMARK                         _______ _______ _______ _____ _____    ______ ____
ROOT
ATOM      1  C   UNL     1       1.491  -0.573  -0.892  0.00  0.00    +0.019 C 
ENDROOT
BRANCH   1   2
ATOM      2  C   UNL     1       1.822   0.610  -1.792  0.00  0.00    +0.089 C 
BRANCH   2   3
ATOM      3  N   UNL     1       2.321   1.653  -0.909  0.00  0.00    -0.215 NA
BRANCH   3   4
ATOM      4  C   UNL     1       3.667   1.379  -0.461  0.00  0.00    +0.126 C 
BRANCH   4   5
ATOM      5  C   UNL     1       3.433   0.498   0.960  0.00  0.00    +0.192 C 
ATOM      6  O   UNL     1       3.627   1.772   1.829  0.00  0.00    -0.217 OA
BRANCH   5  12
ATOM      7  C   UNL     1       6.698  -1.310   0.229  0.00  0.00    +0.049 A 
ATOM      8  C   UNL     1       7.450  -1.043   1.368  0.00  0.00    +0.194 A 
ATOM      9  O   UNL     1       8.851  -1.036   1.340  0.00  0.00    -0.287 OA
ATOM     10  C   UNL     1       6.755  -0.545   2.465  0.00  0.00    +0.042 A 
ATOM     11  C   UNL     1       5.451  -0.075   2.355  0.00  0.00    +0.001 A 
ATOM     12  C   UNL     1       5.051   0.158   1.041  0.00  0.00    +0.009 A 
ATOM     13  C   UNL     1       5.384  -0.868   0.158  0.00  0.00    -0.000 A 
BRANCH   7  15
ATOM     14  O   UNL     1       8.132  -0.501  -1.386  0.00  0.00    -0.215 OA
ATOM     15  C   UNL     1       7.482  -1.678  -0.992  0.00  0.00    +0.212 C 
ENDBRANCH   7  15
ENDBRANCH   5  12
ENDBRANCH   4   5
ENDBRANCH   3   4
ENDBRANCH   2   3
ENDBRANCH   1   2
BRANCH   1  16
ATOM     16  C   UNL     1       0.059  -0.536  -0.427  0.00  0.00    +0.002 C 
BRANCH  16  17
ATOM     17  C   UNL     1      -0.340   0.836   0.088  0.00  0.00    +0.003 C 
BRANCH  17  18
ATOM     18  C   UNL     1      -1.611   0.623   0.901  0.00  0.00    +0.032 C 
BRANCH  18  19
ATOM     19  C   UNL     1      -2.400  -0.439   0.145  0.00  0.00    +0.142 C 
BRANCH  19  20
ATOM     20  O   UNL     1      -2.419  -0.015  -1.188  0.00  0.00    -0.354 OA
BRANCH  20  21
ATOM     21  C   UNL     1      -3.627   0.617  -1.433  0.00  0.00    +0.142 C 
BRANCH  21  22
ATOM     22  C   UNL     1      -4.748  -0.370  -1.271  0.00  0.00    +0.032 C 
BRANCH  22  23
ATOM     23  C   UNL     1      -5.739  -0.228  -2.409  0.00  0.00    +0.007 C 
BRANCH  23  24
ATOM     24  C   UNL     1      -7.027  -0.927  -2.000  0.00  0.00    +0.026 C 
BRANCH  24  25
ATOM     25  C   UNL     1      -7.561  -0.258  -0.800  0.00  0.00    -0.022 A 
ATOM     26  C   UNL     1      -6.976  -0.463   0.428  0.00  0.00    -0.004 A 
ATOM     27  C   UNL     1      -7.662  -0.172   1.595  0.00  0.00    -0.000 A 
ATOM     28  C   UNL     1      -9.028   0.009   1.543  0.00  0.00    -0.000 A 
ATOM     29  C   UNL     1      -9.663   0.194   0.326  0.00  0.00    -0.000 A 
ATOM     30  C   UNL     1      -8.874   0.189  -0.810  0.00  0.00    -0.004 A 
ENDBRANCH  24  25
ENDBRANCH  23  24
ENDBRANCH  22  23
ENDBRANCH  21  22
ENDBRANCH  20  21
ENDBRANCH  19  20
ENDBRANCH  18  19
ENDBRANCH  17  18
ENDBRANCH  16  17
ENDBRANCH   1  16
TORSDOF 16
