REMARK  Name = 
REMARK  9 active torsions:
REMARK  status: ('A' for Active; 'I' for Inactive)
REMARK    1  A    between atoms: C_2  and  C_3
REMARK    2  A    between atoms: C_3  and  C_4
REMARK    3  A    between atoms: C_4  and  C_6
REMARK    4  A    between atoms: C_4  and  C_11
REMARK    5  A    between atoms: C_6  and  O_7
REMARK    6  A    between atoms: O_7  and  C_8
REMARK    7  A    between atoms: C_11  and  O_12
REMARK    8  A    between atoms: O_12  and  C_13
REMARK    9  A    between atoms: N_15  and  C_16
REMARK                            x       y       z     vdW  Elec       q    Type
REMARK                         _______ _______ _______ _____ _____    ______ ____
ROOT
ATOM      1  C   UNL     1      -1.497   1.157   0.157  0.00  0.00    +0.081 C 
ATOM      2  C   UNL     1      -2.038   2.090   1.231  0.00  0.00    +0.007 C 
ENDROOT
BRANCH   1   3
ATOM      3  C   UNL     1      -0.243   0.545   0.703  0.00  0.00    +0.214 C 
BRANCH   3   4
ATOM      4  O   UNL     1       0.576  -0.003  -0.328  0.00  0.00    -0.433 OA
BRANCH   4   5
ATOM      5  C   UNL     1       1.685  -0.757  -0.010  0.00  0.00    +0.421 C 
ATOM      6  N   UNL     1       2.799  -0.934  -0.891  0.00  0.00    -0.170 NA
ATOM      7  O   UNL     1       1.849  -1.240   1.151  0.00  0.00    -0.225 OA
BRANCH   6   8
ATOM      8  C   UNL     1       4.178  -0.814  -0.424  0.00  0.00    +0.099 C 
ATOM      9  C   UNL     1       4.609   0.601  -0.798  0.00  0.00    +0.024 C 
ATOM     10  C   UNL     1       4.199  -0.855   1.100  0.00  0.00    +0.024 C 
ENDBRANCH   6   8
ENDBRANCH   4   5
ENDBRANCH   3   4
ENDBRANCH   1   3
BRANCH   1  11
ATOM     11  C   UNL     1      -2.551   0.109  -0.096  0.00  0.00    +0.214 C 
BRANCH  11  12
ATOM     12  O   UNL     1      -2.003  -1.175  -0.272  0.00  0.00    -0.432 OA
BRANCH  12  13
ATOM     13  C   UNL     1      -2.693  -2.294   0.137  0.00  0.00    +0.441 C 
ATOM     14  O   UNL     1      -3.841  -2.147   0.655  0.00  0.00    -0.223 OA
ATOM     15  N   UNL     1      -1.983  -3.476   0.462  0.00  0.00    -0.048 NA
ENDBRANCH  12  13
ENDBRANCH  11  12
ENDBRANCH   1  11
BRANCH   1  16
ATOM     16  C   UNL     1      -1.240   1.900  -1.125  0.00  0.00    +0.007 C 
BRANCH  16  18
ATOM     17  C   UNL     1      -1.071   4.000  -0.139  0.00  0.00    +0.000 C 
ATOM     18  C   UNL     1      -0.734   3.293  -0.927  0.00  0.00    +0.000 C 
ENDBRANCH  16  18
ENDBRANCH   1  16
TORSDOF 9
