REMARK  Name = 
REMARK  8 active torsions:
REMARK  status: ('A' for Active; 'I' for Inactive)
REMARK    1  A    between atoms: C_2  and  C_3
REMARK    2  A    between atoms: C_2  and  N_11
REMARK    3  A    between atoms: C_3  and  O_4
REMARK    4  A    between atoms: O_4  and  C_5
REMARK    5  A    between atoms: N_11  and  C_12
REMARK    6  A    between atoms: N_11  and  C_15
REMARK    7  A    between atoms: C_12  and  C_13
REMARK    8  A    between atoms: C_15  and  C_16
REMARK                            x       y       z     vdW  Elec       q    Type
REMARK                         _______ _______ _______ _____ _____    ______ ____
ROOT
ATOM      1  N   UNL     1      -1.236   1.367  -0.072  0.00  0.00    -0.266 NA
ENDROOT
BRANCH   1   3
ATOM      2  C   UNL     1      -0.005   0.051  -1.523  0.00  0.00    +0.021 C 
ATOM      3  C   UNL     1       0.257   1.365  -0.567  0.00  0.00    +0.102 C 
BRANCH   3   4
ATOM      4  C   UNL     1       0.823   0.439   0.670  0.00  0.00    +0.221 C 
BRANCH   4   5
ATOM      5  O   UNL     1       2.219   0.587   0.649  0.00  0.00    -0.474 OA
BRANCH   5   6
ATOM      6  C   UNL     1       3.096  -0.341   0.089  0.00  0.00    +0.139 A 
ATOM      7  C   UNL     1       4.276   0.076  -0.504  0.00  0.00    +0.037 A 
ATOM      8  C   UNL     1       5.451  -0.659  -0.426  0.00  0.00    +0.003 A 
ATOM      9  C   UNL     1       5.432  -1.888   0.223  0.00  0.00    +0.000 A 
ATOM     10  C   UNL     1       4.201  -2.457   0.517  0.00  0.00    +0.003 A 
ATOM     11  C   UNL     1       3.046  -1.693   0.407  0.00  0.00    +0.037 A 
ENDBRANCH   5   6
ENDBRANCH   4   5
ENDBRANCH   3   4
ENDBRANCH   1   3
BRANCH   1  12
ATOM     12  C   UNL     1      -1.495   0.266   0.733  0.00  0.00    +0.099 C 
BRANCH  12  13
ATOM     13  C   UNL     1      -2.704  -0.513   0.487  0.00  0.00    -0.006 A 
ATOM     14  C   UNL     1      -3.123  -1.353   1.514  0.00  0.00    -0.003 A 
ATOM     15  C   UNL     1      -4.203  -2.209   1.351  0.00  0.00    -0.000 A 
ATOM     16  C   UNL     1      -4.882  -2.189   0.163  0.00  0.00    -0.000 A 
ATOM     17  C   UNL     1      -4.292  -1.580  -0.909  0.00  0.00    -0.000 A 
ATOM     18  C   UNL     1      -3.153  -0.806  -0.771  0.00  0.00    -0.003 A 
ENDBRANCH  12  13
ENDBRANCH   1  12
BRANCH   1  19
ATOM     19  C   UNL     1      -1.493   2.667   0.469  0.00  0.00    +0.090 C 
BRANCH  19  20
ATOM     20  C   UNL     1      -1.405   3.647  -0.696  0.00  0.00    +0.112 C 
ATOM     21 CL   UNL     1      -0.810   5.225  -0.099  0.00  0.00    -0.112 Cl
ENDBRANCH  19  20
ENDBRANCH   1  19
TORSDOF 8
