REMARK  Name = 
REMARK  4 active torsions:
REMARK  status: ('A' for Active; 'I' for Inactive)
REMARK    1  A    between atoms: O_2  and  C_3
REMARK    2  A    between atoms: C_8  and  O_9
REMARK    3  A    between atoms: C_15  and  C_16
REMARK    4  A    between atoms: C_16  and  C_17
REMARK                            x       y       z     vdW  Elec       q    Type
REMARK                         _______ _______ _______ _____ _____    ______ ____
ROOT
ATOM      1  C   UNL     1       3.633  -0.479   0.414  0.00  0.00    +0.172 A 
ATOM      2  C   UNL     1       3.434   0.181  -0.776  0.00  0.00    +0.172 A 
ATOM      3  C   UNL     1       2.122   0.334  -1.183  0.00  0.00    +0.037 A 
ATOM      4  C   UNL     1       1.144  -0.454  -0.586  0.00  0.00    -0.008 A 
ATOM      5  C   UNL     1      -0.296   0.011  -1.130  0.00  0.00    +0.087 C 
ATOM      6  N   UNL     1      -1.056  -1.227  -0.526  0.00  0.00    -0.269 NA
ATOM      7  C   UNL     1      -1.008  -1.222   0.875  0.00  0.00    +0.077 C 
ATOM      8  C   UNL     1       0.304  -1.711   1.400  0.00  0.00    +0.044 C 
ATOM      9  C   UNL     1      -2.425  -0.877  -0.910  0.00  0.00    +0.080 C 
ATOM     10  C   UNL     1      -2.985   0.056   0.310  0.00  0.00    +0.074 C 
ATOM     11  C   UNL     1      -2.038   1.289  -0.098  0.00  0.00    +0.153 C 
ATOM     12  O   UNL     1      -2.453   2.385   0.203  0.00  0.00    -0.296 OA
ATOM     13  C   UNL     1      -0.593   0.983   0.165  0.00  0.00    +0.085 C 
ATOM     14  C   UNL     1       1.300  -0.844   0.688  0.00  0.00    -0.020 A 
ATOM     15  C   UNL     1       2.610  -1.101   1.090  0.00  0.00    +0.036 A 
ENDROOT
BRANCH   1  17
ATOM     16  C   UNL     1       5.253  -0.297   1.606  0.00  0.00    +0.253 C 
ATOM     17  O   UNL     1       4.833  -0.265   1.084  0.00  0.00    -0.468 OA
ENDBRANCH   1  17
BRANCH   2  18
ATOM     18  O   UNL     1       4.441   0.668  -1.563  0.00  0.00    -0.468 OA
ATOM     19  C   UNL     1       5.789   0.791  -1.225  0.00  0.00    +0.253 C 
ENDBRANCH   2  18
BRANCH  10  20
ATOM     20  C   UNL     1      -4.230   0.613  -0.589  0.00  0.00    +0.009 C 
BRANCH  20  21
ATOM     21  C   UNL     1      -5.409   0.137   0.244  0.00  0.00    +0.000 C 
ATOM     22  C   UNL     1      -5.722   1.090   1.364  0.00  0.00    +0.000 C 
ATOM     23  C   UNL     1      -6.651  -0.061  -0.583  0.00  0.00    +0.000 C 
ENDBRANCH  20  21
ENDBRANCH  10  20
TORSDOF 4
