REMARK  Name = 
REMARK  9 active torsions:
REMARK  status: ('A' for Active; 'I' for Inactive)
REMARK    1  A    between atoms: C_4  and  C_5
REMARK    2  A    between atoms: C_5  and  C_6
REMARK    3  A    between atoms: N_8  and  C_9
REMARK    4  A    between atoms: C_12  and  C_13
REMARK    5  A    between atoms: C_13  and  C_14
REMARK    6  A    between atoms: C_14  and  N_15
REMARK    7  A    between atoms: N_15  and  C_16
REMARK    8  A    between atoms: C_16  and  C_17
REMARK    9  A    between atoms: C_17  and  C_19
REMARK                            x       y       z     vdW  Elec       q    Type
REMARK                         _______ _______ _______ _____ _____    ______ ____
ROOT
ATOM      1  C   UNL     1      -1.968  -0.368   0.017  0.00  0.00    +0.073 A 
ATOM      2  C   UNL     1      -1.805  -1.705   0.248  0.00  0.00    +0.016 A 
ATOM      3  C   UNL     1      -0.553  -2.235  -0.045  0.00  0.00    -0.003 A 
ATOM      4  C   UNL     1       0.310  -1.547  -0.890  0.00  0.00    -0.021 A 
ATOM      5  C   UNL     1       0.209  -0.166  -0.925  0.00  0.00    -0.003 A 
ATOM      6  C   UNL     1      -0.873   0.431  -0.290  0.00  0.00    +0.016 A 
ENDROOT
BRANCH   1   8
ATOM      7  C   UNL     1      -3.790   0.497   1.320  0.00  0.00    +0.252 C 
ATOM      8  N   UNL     1      -3.233   0.299   0.011  0.00  0.00    -0.179 NA
ATOM      9  O   UNL     1      -4.117  -0.609   1.852  0.00  0.00    -0.273 OA
BRANCH   7  10
ATOM     10  C   UNL     1      -4.777   1.621   1.412  0.00  0.00    +0.133 C 
BRANCH  10  15
ATOM     11  N   UNL     1      -6.734  -0.578  -2.304  0.00  0.00    -0.100 NA
ATOM     12  C   UNL     1      -6.748   0.216  -1.311  0.00  0.00    +0.200 A 
ATOM     13  S   UNL     1      -8.068   0.720  -0.335  0.00  0.00    -0.048 S 
ATOM     14  C   UNL     1      -7.184   1.661   0.801  0.00  0.00    +0.053 A 
ATOM     15  C   UNL     1      -5.887   1.285   0.455  0.00  0.00    +0.077 A 
ATOM     16  N   UNL     1      -5.783   1.048  -0.852  0.00  0.00    -0.225 NA
ENDBRANCH  10  15
ENDBRANCH   7  10
ENDBRANCH   1   8
BRANCH   4  17
ATOM     17  C   UNL     1       1.692  -2.116  -0.987  0.00  0.00    +0.045 C 
BRANCH  17  18
ATOM     18  C   UNL     1       2.270  -2.055   0.422  0.00  0.00    +0.093 C 
BRANCH  18  19
ATOM     19  N   UNL     1       2.353  -0.641   0.761  0.00  0.00    -0.215 NA
BRANCH  19  20
ATOM     20  C   UNL     1       3.724  -0.248   1.071  0.00  0.00    +0.126 C 
BRANCH  20  21
ATOM     21  C   UNL     1       4.392  -0.070  -0.438  0.00  0.00    +0.192 C 
ATOM     22  O   UNL     1       4.715  -1.562  -0.521  0.00  0.00    -0.217 OA
BRANCH  21  23
ATOM     23  C   UNL     1       5.854   0.263   0.198  0.00  0.00    +0.009 A 
ATOM     24  C   UNL     1       6.902  -0.043  -0.650  0.00  0.00    -0.002 A 
ATOM     25  C   UNL     1       8.152   0.472  -0.324  0.00  0.00    -0.000 A 
ATOM     26  C   UNL     1       8.141   1.720   0.286  0.00  0.00    -0.000 A 
ATOM     27  C   UNL     1       7.008   2.188   0.940  0.00  0.00    -0.000 A 
ATOM     28  C   UNL     1       5.798   1.522   0.787  0.00  0.00    -0.002 A 
ENDBRANCH  21  23
ENDBRANCH  20  21
ENDBRANCH  19  20
ENDBRANCH  18  19
ENDBRANCH  17  18
ENDBRANCH   4  17
TORSDOF 9
