REMARK  Name = 
REMARK  6 active torsions:
REMARK  status: ('A' for Active; 'I' for Inactive)
REMARK    1  A    between atoms: O_2  and  C_3
REMARK    2  A    between atoms: C_8  and  O_9
REMARK    3  A    between atoms: C_13  and  C_14
REMARK    4  A    between atoms: C_14  and  C_15
REMARK    5  A    between atoms: N_18  and  C_19
REMARK    6  A    between atoms: C_19  and  C_20
REMARK                            x       y       z     vdW  Elec       q    Type
REMARK                         _______ _______ _______ _____ _____    ______ ____
ROOT
ATOM      1  C   UNL     1      -5.110   0.866   0.613  0.00  0.00    +0.172 A 
ATOM      2  C   UNL     1      -4.763  -0.323   1.243  0.00  0.00    +0.172 A 
ATOM      3  C   UNL     1      -3.418  -0.651   1.190  0.00  0.00    +0.043 A 
ATOM      4  C   UNL     1      -2.548  -0.064   0.276  0.00  0.00    +0.034 A 
ATOM      5  C   UNL     1      -1.296  -0.582  -0.187  0.00  0.00    +0.173 C 
ATOM      6  C   UNL     1      -0.758   0.490  -1.272  0.00  0.00    +0.066 C 
ATOM      7  C   UNL     1      -2.279   0.819  -1.821  0.00  0.00    +0.034 C 
ATOM      8  O   UNL     1      -0.830  -1.762  -0.213  0.00  0.00    -0.291 OA
ATOM      9  C   UNL     1      -2.995   0.942  -0.541  0.00  0.00    -0.016 A 
ATOM     10  C   UNL     1      -4.193   1.512  -0.207  0.00  0.00    +0.036 A 
ENDROOT
BRANCH   1  12
ATOM     11  C   UNL     1      -7.070   1.031   0.691  0.00  0.00    +0.253 C 
ATOM     12  O   UNL     1      -6.450   1.264   0.664  0.00  0.00    -0.468 OA
ENDBRANCH   1  12
BRANCH   2  13
ATOM     13  O   UNL     1      -5.757  -1.289   1.432  0.00  0.00    -0.468 OA
ATOM     14  C   UNL     1      -5.998  -2.216   0.375  0.00  0.00    +0.253 C 
ENDBRANCH   2  13
BRANCH   6  15
ATOM     15  C   UNL     1      -0.802   1.727  -0.179  0.00  0.00    +0.008 C 
BRANCH  15  16
ATOM     16  C   UNL     1       0.625   1.758   0.302  0.00  0.00    +0.003 C 
ATOM     17  C   UNL     1       0.952   0.599   1.235  0.00  0.00    +0.017 C 
ATOM     18  C   UNL     1       2.362   0.874   1.738  0.00  0.00    +0.072 C 
ATOM     19  N   UNL     1       3.291   0.610   0.658  0.00  0.00    -0.269 NA
ATOM     20  C   UNL     1       2.704   0.704  -0.646  0.00  0.00    +0.072 C 
ATOM     21  C   UNL     1       1.639   1.737  -0.794  0.00  0.00    +0.017 C 
BRANCH  19  22
ATOM     22  C   UNL     1       3.767  -0.754   0.859  0.00  0.00    +0.099 C 
BRANCH  22  23
ATOM     23  C   UNL     1       5.115  -0.967   0.292  0.00  0.00    -0.006 A 
ATOM     24  C   UNL     1       5.656  -2.226   0.421  0.00  0.00    -0.003 A 
ATOM     25  C   UNL     1       7.020  -2.463   0.336  0.00  0.00    -0.000 A 
ATOM     26  C   UNL     1       7.843  -1.485  -0.206  0.00  0.00    -0.000 A 
ATOM     27  C   UNL     1       7.314  -0.211  -0.261  0.00  0.00    -0.000 A 
ATOM     28  C   UNL     1       5.977   0.058   0.006  0.00  0.00    -0.003 A 
ENDBRANCH  22  23
ENDBRANCH  19  22
ENDBRANCH  15  16
ENDBRANCH   6  15
TORSDOF 6
