REMARK  Name = 
REMARK  9 active torsions:
REMARK  status: ('A' for Active; 'I' for Inactive)
REMARK    1  A    between atoms: C_2  and  CA_3
REMARK    2  A    between atoms: CA_3  and  C_4
REMARK    3  A    between atoms: CA_3  and  N_6
REMARK    4  A    between atoms: N_6  and  C_7
REMARK    5  A    between atoms: C_7  and  C_8
REMARK    6  A    between atoms: C_8  and  N_9
REMARK    7  A    between atoms: N_9  and  CA_10
REMARK    8  A    between atoms: CA_10  and  C_11
REMARK    9  A    between atoms: CA_10  and  C_13
REMARK                            x       y       z     vdW  Elec       q    Type
REMARK                         _______ _______ _______ _____ _____    ______ ____
ROOT
ATOM      1  C   UNL     1       0.221  -0.818  -0.766  0.00  0.00    +0.107 C 
ENDROOT
BRANCH   1   2
ATOM      2  C   UNL     1      -0.691  -1.399   0.269  0.00  0.00    +0.107 C 
BRANCH   2   3
ATOM      3  N   UNL     1      -2.046  -0.951   0.208  0.00  0.00    -0.215 NA
BRANCH   3   4
ATOM      4  CA  UNL     1      -2.070   0.445   0.986  0.00  0.00    +0.106 C 
BRANCH   4   5
ATOM      5  C   UNL     1      -1.914   1.281  -0.445  0.00  0.00    +0.020 C 
ATOM      6  C   UNL     1      -1.701   2.702  -0.037  0.00  0.00    +0.002 C 
ENDBRANCH   4   5
BRANCH   4   7
ATOM      7  C   UNL     1      -3.725   0.602   0.921  0.00  0.00    +0.199 C 
ATOM      8  O   UNL     1      -4.241  -0.654   1.043  0.00  0.00    -0.219 OA
ENDBRANCH   4   7
ENDBRANCH   3   4
ENDBRANCH   2   3
ENDBRANCH   1   2
BRANCH   1   9
ATOM      9  N   UNL     1       1.466  -1.527  -0.731  0.00  0.00    -0.215 NA
BRANCH   9  10
ATOM     10  CA  UNL     1       2.587  -0.444  -1.071  0.00  0.00    +0.106 C 
BRANCH  10  12
ATOM     11  C   UNL     1       2.204   1.232   0.151  0.00  0.00    +0.002 C 
ATOM     12  C   UNL     1       1.966   0.641   0.031  0.00  0.00    +0.020 C 
ENDBRANCH  10  12
BRANCH  10  13
ATOM     13  C   UNL     1       3.607  -1.091   0.075  0.00  0.00    +0.199 C 
ATOM     14  O   UNL     1       4.335  -0.018   0.537  0.00  0.00    -0.219 OA
ENDBRANCH  10  13
ENDBRANCH   9  10
ENDBRANCH   1   9
TORSDOF 9
