REMARK  Name = 
REMARK  5 active torsions:
REMARK  status: ('A' for Active; 'I' for Inactive)
REMARK    1  A    between atoms: C_2  and  C_3
REMARK    2  A    between atoms: C_2  and  C_19
REMARK    3  A    between atoms: C_3  and  C_4
REMARK    4  A    between atoms: C_13  and  C_14
REMARK    5  A    between atoms: C_19  and  C_20
REMARK                            x       y       z     vdW  Elec       q    Type
REMARK                         _______ _______ _______ _____ _____    ______ ____
ROOT
ATOM      1  C   UNL     1       0.150  -2.223   0.268  0.00  0.00    +0.227 C 
ATOM      2  N   UNL     1       1.501  -1.751   0.358  0.00  0.00    -0.270 N 
ATOM      3  C   UNL     1       2.273  -1.896  -0.857  0.00  0.00    +0.160 C 
ATOM      4  C   UNL     1       3.031  -0.628  -1.042  0.00  0.00    +0.164 A 
ATOM      5  N   UNL     1       3.475  -0.018  -2.145  0.00  0.00    -0.132 NA
ATOM      6  N   UNL     1       4.626   0.578  -1.837  0.00  0.00    -0.125 NA
ATOM      7  C   UNL     1       4.678   0.674  -0.485  0.00  0.00    +0.238 A 
ATOM      8  N   UNL     1       3.629  -0.008  -0.022  0.00  0.00    -0.292 N 
ATOM      9  C   UNL     1       3.141  -0.177   1.319  0.00  0.00    +0.130 C 
ATOM     10  C   UNL     1       1.776  -0.790   1.391  0.00  0.00    +0.118 C 
ATOM     11  O   UNL     1      -0.103  -3.344   0.766  0.00  0.00    -0.275 OA
ENDROOT
BRANCH   7  12
ATOM     12  C   UNL     1       5.908   1.130   0.195  0.00  0.00    +0.452 C 
ATOM     13  F   UNL     1       6.930   0.284  -0.227  0.00  0.00    -0.163 F 
ATOM     14  F   UNL     1       5.825   1.125   1.558  0.00  0.00    -0.163 F 
ATOM     15  F   UNL     1       6.189   2.429  -0.214  0.00  0.00    -0.163 F 
ENDBRANCH   7  12
BRANCH   1  16
ATOM     16  C   UNL     1      -0.701  -1.563  -0.750  0.00  0.00    +0.105 C 
BRANCH  16  18
ATOM     17  N   UNL     1      -2.221  -1.129   0.959  0.00  0.00    -0.132 NA
ATOM     18  C   UNL     1      -1.221  -0.235   0.102  0.00  0.00    +0.105 C 
BRANCH  18  19
ATOM     19  C   UNL     1      -2.376   0.100  -1.041  0.00  0.00    +0.048 C 
BRANCH  19  20
ATOM     20  C   UNL     1      -3.593   0.451  -0.287  0.00  0.00    +0.009 A 
ATOM     21  C   UNL     1      -4.567  -0.540  -0.219  0.00  0.00    +0.139 A 
ATOM     22  F   UNL     1      -4.483  -1.647  -1.013  0.00  0.00    -0.204 F 
ATOM     23  C   UNL     1      -5.759  -0.286   0.416  0.00  0.00    +0.061 A 
ATOM     24  C   UNL     1      -6.042   1.014   0.771  0.00  0.00    +0.170 A 
ATOM     25  F   UNL     1      -7.013   1.341   1.665  0.00  0.00    -0.202 F 
ATOM     26  C   UNL     1      -5.248   2.058   0.322  0.00  0.00    +0.167 A 
ATOM     27  F   UNL     1      -5.833   3.271   0.144  0.00  0.00    -0.202 F 
ATOM     28  C   UNL     1      -3.969   1.778  -0.137  0.00  0.00    +0.030 A 
ENDBRANCH  19  20
ENDBRANCH  18  19
ENDBRANCH  16  18
ENDBRANCH   1  16
TORSDOF 5
