REMARK  Name = 
REMARK  3 active torsions:
REMARK  status: ('A' for Active; 'I' for Inactive)
REMARK    1  A    between atoms: O_2  and  C_3
REMARK    2  A    between atoms: C_6  and  C_7
REMARK    3  A    between atoms: C_7  and  C_9
REMARK                            x       y       z     vdW  Elec       q    Type
REMARK                         _______ _______ _______ _____ _____    ______ ____
ROOT
ATOM      1  C   UNL     1       3.277  -0.351  -0.405  0.00  0.00    +0.142 A 
ATOM      2  C   UNL     1       2.633   0.262   0.661  0.00  0.00    +0.079 A 
ATOM      3  C   UNL     1       1.265   0.294   0.688  0.00  0.00    +0.202 A 
ATOM      4  O   UNL     1       0.655   1.157   1.602  0.00  0.00    -0.286 OA
ATOM      5  C   UNL     1       0.460  -0.271  -0.290  0.00  0.00    +0.078 A 
ATOM      6  C   UNL     1       1.139  -0.799  -1.381  0.00  0.00    +0.010 A 
ATOM      7  C   UNL     1       2.522  -0.738  -1.493  0.00  0.00    +0.037 A 
ENDROOT
BRANCH   1   9
ATOM      8  C   UNL     1       5.180   1.132  -0.131  0.00  0.00    +0.252 C 
ATOM      9  O   UNL     1       4.650  -0.113  -0.516  0.00  0.00    -0.471 OA
ENDBRANCH   1   9
BRANCH   5  10
ATOM     10  C   UNL     1      -0.810  -0.844   0.173  0.00  0.00    +0.199 C 
ATOM     11  O   UNL     1      -0.766  -2.078   0.467  0.00  0.00    -0.286 OA
BRANCH  10  12
ATOM     12  C   UNL     1      -2.085  -0.129   0.040  0.00  0.00    +0.039 A 
ATOM     13  C   UNL     1      -3.235  -0.910   0.058  0.00  0.00    +0.003 A 
ATOM     14  C   UNL     1      -4.497  -0.378   0.186  0.00  0.00    +0.000 A 
ATOM     15  C   UNL     1      -4.604   0.885   0.702  0.00  0.00    +0.000 A 
ATOM     16  C   UNL     1      -3.522   1.729   0.650  0.00  0.00    +0.000 A 
ATOM     17  C   UNL     1      -2.262   1.152   0.549  0.00  0.00    +0.003 A 
ENDBRANCH  10  12
ENDBRANCH   5  10
TORSDOF 3
