REMARK  Name = 
REMARK  7 active torsions:
REMARK  status: ('A' for Active; 'I' for Inactive)
REMARK    1  A    between atoms: N_10  and  C_11
REMARK    2  A    between atoms: C_11  and  C_12
REMARK    3  A    between atoms: C_15  and  O_16
REMARK    4  A    between atoms: O_16  and  C_17
REMARK    5  A    between atoms: C_17  and  C_18
REMARK    6  A    between atoms: C_18  and  N_19
REMARK    7  A    between atoms: C_28  and  C_29
REMARK                            x       y       z     vdW  Elec       q    Type
REMARK                         _______ _______ _______ _____ _____    ______ ____
ROOT
ATOM      1  C   UNL     1      -6.240  -0.498   0.866  0.00  0.00    +0.033 C 
ATOM      2  C   UNL     1      -4.766  -0.719   0.736  0.00  0.00    -0.005 A 
ATOM      3  C   UNL     1      -3.765   0.230   0.620  0.00  0.00    +0.056 A 
ATOM      4  N   UNL     1      -2.566  -0.391   0.734  0.00  0.00    -0.323 N 
ATOM      5  C   UNL     1      -2.821  -1.722   0.727  0.00  0.00    +0.060 A 
ATOM      6  C   UNL     1      -1.963  -2.792   0.689  0.00  0.00    +0.020 A 
ATOM      7  C   UNL     1      -2.451  -3.968   0.138  0.00  0.00    +0.044 A 
ATOM      8  C   UNL     1      -3.813  -4.226   0.182  0.00  0.00    +0.196 A 
ATOM      9  O   UNL     1      -4.335  -5.378  -0.401  0.00  0.00    -0.287 OA
ATOM     10  C   UNL     1      -4.624  -3.248   0.742  0.00  0.00    +0.043 A 
ATOM     11  C   UNL     1      -4.163  -1.953   0.940  0.00  0.00    +0.016 A 
ENDROOT
BRANCH   3  12
ATOM     12  C   UNL     1      -3.965   1.565   0.086  0.00  0.00    +0.016 A 
ATOM     13  C   UNL     1      -3.068   2.593   0.241  0.00  0.00    +0.005 A 
ATOM     14  C   UNL     1      -3.337   3.849  -0.285  0.00  0.00    +0.042 A 
ATOM     15  C   UNL     1      -4.593   4.109  -0.818  0.00  0.00    +0.196 A 
ATOM     16  O   UNL     1      -5.157   5.387  -0.786  0.00  0.00    -0.287 OA
ATOM     17  C   UNL     1      -5.372   3.041  -1.232  0.00  0.00    +0.042 A 
ATOM     18  C   UNL     1      -5.025   1.797  -0.782  0.00  0.00    +0.005 A 
ENDBRANCH   3  12
BRANCH   4  19
ATOM     19  C   UNL     1      -1.430   0.275   1.363  0.00  0.00    +0.133 C 
BRANCH  19  20
ATOM     20  C   UNL     1      -0.295   0.446   0.434  0.00  0.00    +0.001 A 
ATOM     21  C   UNL     1       0.708   1.324   0.827  0.00  0.00    +0.001 A 
ATOM     22  C   UNL     1       2.042   1.108   0.500  0.00  0.00    +0.037 A 
ATOM     23  C   UNL     1       2.403  -0.019  -0.229  0.00  0.00    +0.139 A 
ATOM     24  C   UNL     1       1.374  -0.608  -0.953  0.00  0.00    +0.037 A 
ATOM     25  C   UNL     1       0.057  -0.468  -0.536  0.00  0.00    +0.001 A 
BRANCH  23  26
ATOM     26  O   UNL     1       3.633  -0.654  -0.052  0.00  0.00    -0.474 OA
BRANCH  26  27
ATOM     27  C   UNL     1       4.498  -0.982  -1.109  0.00  0.00    +0.223 C 
BRANCH  27  28
ATOM     28  C   UNL     1       5.951  -0.662  -0.788  0.00  0.00    +0.120 C 
BRANCH  28  29
ATOM     29  N   UNL     1       6.099  -0.037   0.501  0.00  0.00    -0.270 NA
ATOM     30  C   UNL     1       6.957  -0.759   1.401  0.00  0.00    +0.072 C 
ATOM     31  C   UNL     1       8.210   0.031   1.750  0.00  0.00    +0.017 C 
ATOM     32  C   UNL     1       9.169  -0.175   0.584  0.00  0.00    +0.001 C 
ATOM     33  C   UNL     1       8.491   0.463  -0.623  0.00  0.00    +0.001 C 
ATOM     34  C   UNL     1       7.760   1.675  -0.114  0.00  0.00    +0.017 C 
ATOM     35  C   UNL     1       6.396   1.369   0.432  0.00  0.00    +0.072 C 
ENDBRANCH  28  29
ENDBRANCH  27  28
ENDBRANCH  26  27
ENDBRANCH  23  26
ENDBRANCH  19  20
ENDBRANCH   4  19
TORSDOF 7
