REMARK  Name = 
REMARK  5 active torsions:
REMARK  status: ('A' for Active; 'I' for Inactive)
REMARK    1  A    between atoms: C_6  and  O_7
REMARK    2  A    between atoms: O_7  and  C_8
REMARK    3  A    between atoms: C_8  and  C_10
REMARK    4  A    between atoms: C_10  and  C_11
REMARK    5  A    between atoms: C_10  and  C_13
REMARK                            x       y       z     vdW  Elec       q    Type
REMARK                         _______ _______ _______ _____ _____    ______ ____
ROOT
ATOM      1  O   UNL     1      -0.489   0.693  -0.245  0.00  0.00    -0.452 OA
ENDROOT
BRANCH   1   9
ATOM      2  C   UNL     1      -2.259   0.306   1.487  0.00  0.00    +0.170 C 
ATOM      3  N   UNL     1      -2.196  -0.015   1.162  0.00  0.00    +0.302 N 
ATOM      4  C   UNL     1      -2.483  -0.706  -0.223  0.00  0.00    +0.093 C 
ATOM      5  C   UNL     1      -3.766  -1.600   0.377  0.00  0.00    +0.197 C 
ATOM      6  C   UNL     1      -4.463  -0.076   0.483  0.00  0.00    +0.197 C 
ATOM      7  O   UNL     1      -4.594  -0.941  -0.903  0.00  0.00    -0.342 OA
ATOM      8  C   UNL     1      -1.203  -1.612  -0.130  0.00  0.00    +0.101 C 
ATOM      9  C   UNL     1      -1.009  -0.351  -1.244  0.00  0.00    +0.180 C 
ATOM     10  C   UNL     1      -2.536   0.276  -1.300  0.00  0.00    +0.101 C 
ATOM     11  C   UNL     1      -3.036   0.851   0.146  0.00  0.00    +0.093 C 
ATOM     12  C   UNL     1      -2.951  -0.664   2.120  0.00  0.00    +0.170 C 
ENDBRANCH   1   9
BRANCH   1  13
ATOM     13  C   UNL     1       0.867   0.957  -0.389  0.00  0.00    +0.323 C 
ATOM     14  O   UNL     1       1.376   0.277  -1.279  0.00  0.00    -0.250 OA
BRANCH  13  15
ATOM     15  C   UNL     1       1.628   1.140   1.015  0.00  0.00    +0.154 C 
BRANCH  15  16
ATOM     16  C   UNL     1       2.948   0.296   0.639  0.00  0.00    -0.009 A 
ATOM     17  C   UNL     1       2.730  -1.042   0.931  0.00  0.00    -0.004 A 
ATOM     18  C   UNL     1       3.726  -1.945   0.584  0.00  0.00    -0.000 A 
ATOM     19  C   UNL     1       4.765  -1.502  -0.196  0.00  0.00    -0.000 A 
ATOM     20  C   UNL     1       4.640  -0.285  -0.829  0.00  0.00    -0.000 A 
ATOM     21  C   UNL     1       3.606   0.574  -0.488  0.00  0.00    -0.004 A 
ENDBRANCH  15  16
BRANCH  15  22
ATOM     22  C   UNL     1       2.312   2.589   0.670  0.00  0.00    +0.198 C 
ATOM     23  O   UNL     1       2.388   2.782  -0.670  0.00  0.00    -0.219 OA
ENDBRANCH  15  22
ENDBRANCH  13  15
ENDBRANCH   1  13
TORSDOF 5
