REMARK  Name = 
REMARK  0 active torsions:
REMARK  status: ('A' for Active; 'I' for Inactive)
REMARK                            x       y       z     vdW  Elec       q    Type
REMARK                         _______ _______ _______ _____ _____    ______ ____
ROOT
ATOM      1  N   UNL     1       2.646  -0.395  -0.193  0.00  0.00    -0.134 NA
ATOM      2  C   UNL     1       1.215  -0.212  -0.092  0.00  0.00    +0.077 C 
ATOM      3  C   UNL     1       0.568  -1.436   0.521  0.00  0.00    +0.018 C 
ATOM      4  C   UNL     1      -0.894  -1.110   0.748  0.00  0.00    +0.001 C 
ATOM      5  C   UNL     1      -1.108   0.142   1.542  0.00  0.00    +0.000 C 
ATOM      6  C   UNL     1      -0.520   1.322   0.787  0.00  0.00    +0.001 C 
ATOM      7  C   UNL     1      -1.118   1.460  -0.599  0.00  0.00    +0.000 C 
ATOM      8  C   UNL     1      -0.856   0.179  -1.359  0.00  0.00    +0.001 C 
ATOM      9  C   UNL     1      -1.539  -0.944  -0.599  0.00  0.00    +0.000 C 
ATOM     10  C   UNL     1       0.973   1.037   0.727  0.00  0.00    +0.018 C 
ATOM     11  C   UNL     1       0.634  -0.043  -1.483  0.00  0.00    +0.018 C 
ENDROOT
TORSDOF 0
