REMARK  Name = 
REMARK  2 active torsions:
REMARK  status: ('A' for Active; 'I' for Inactive)
REMARK    1  A    between atoms: C_23  and  C_25
REMARK    2  A    between atoms: C_25  and  C_27
REMARK                            x       y       z     vdW  Elec       q    Type
REMARK                         _______ _______ _______ _____ _____    ______ ____
ROOT
ATOM      1  C   UNL     1       2.630  -2.880  -0.994  0.00  0.00    +0.003 C 
ATOM      2  C   UNL     1       3.218  -1.875   0.152  0.00  0.00    +0.035 C 
ATOM      3  C   UNL     1       3.032  -0.528  -0.739  0.00  0.00    +0.178 C 
ATOM      4  O   UNL     1       3.266  -0.810  -2.046  0.00  0.00    -0.218 OA
ATOM      5  C   UNL     1       1.785   0.067  -0.326  0.00  0.00    +0.035 C 
ATOM      6  C   UNL     1       0.947  -1.306  -0.379  0.00  0.00    +0.004 C 
ATOM      7  C   UNL     1      -0.259  -0.501   0.495  0.00  0.00    +0.017 C 
ATOM      8  C   UNL     1      -0.957  -0.028  -0.869  0.00  0.00    +0.102 C 
ATOM      9  C   UNL     1      -0.294   1.452  -1.165  0.00  0.00    +0.166 C 
ATOM     10  O   UNL     1      -0.483   1.901   0.281  0.00  0.00    -0.222 OA
ATOM     11 CL   UNL     1      -0.716  -1.030  -2.220  0.00  0.00    -0.113 Cl
ATOM     12  C   UNL     1      -2.384   0.228  -0.600  0.00  0.00    +0.049 C 
ATOM     13  C   UNL     1      -2.793   0.042   0.832  0.00  0.00    -0.037 C 
ATOM     14  C   UNL     1      -4.033   0.500   1.048  0.00  0.00    +0.034 C 
ATOM     15  C   UNL     1      -4.986   0.648  -0.068  0.00  0.00    +0.195 C 
ATOM     16  C   UNL     1      -4.632  -0.204  -1.216  0.00  0.00    +0.038 C 
ATOM     17  O   UNL     1      -6.077   1.245   0.043  0.00  0.00    -0.287 OA
ATOM     18  C   UNL     1      -2.286  -1.192   1.518  0.00  0.00    +0.022 C 
ATOM     19  C   UNL     1      -2.763   1.657  -0.982  0.00  0.00    +0.010 C 
ATOM     20  C   UNL     1      -3.365  -0.624  -1.332  0.00  0.00    -0.018 C 
ATOM     21  C   UNL     1      -1.202  -1.810   0.632  0.00  0.00    +0.006 C 
ATOM     22  C   UNL     1       1.983   0.439   1.147  0.00  0.00    +0.003 C 
ATOM     23  C   UNL     1       1.289   1.134  -0.970  0.00  0.00    +0.037 C 
ATOM     24  C   UNL     1       1.769  -1.825   0.910  0.00  0.00    +0.003 C 
ENDROOT
BRANCH   3  25
ATOM     25  C   UNL     1       4.167   0.368  -0.323  0.00  0.00    +0.194 C 
ATOM     26  O   UNL     1       4.578   0.408   0.814  0.00  0.00    -0.292 OA
BRANCH  25  27
ATOM     27  C   UNL     1       4.561   1.472  -1.237  0.00  0.00    +0.161 C 
ATOM     28 CL   UNL     1       4.003   3.054  -0.674  0.00  0.00    -0.105 Cl
ENDBRANCH  25  27
ENDBRANCH   3  25
TORSDOF 2
