REMARK  Name = 
REMARK  0 active torsions:
REMARK  status: ('A' for Active; 'I' for Inactive)
REMARK                            x       y       z     vdW  Elec       q    Type
REMARK                         _______ _______ _______ _____ _____    ______ ____
ROOT
ATOM      1  O   UNL     1      -3.220   1.068  -0.338  0.00  0.00    -0.221 OA
ATOM      2  C   UNL     1      -2.250   0.302  -0.046  0.00  0.00    +0.441 A 
ATOM      3  O   UNL     1      -1.598  -0.450  -0.891  0.00  0.00    -0.406 OA
ATOM      4  C   UNL     1      -0.428  -0.805  -0.407  0.00  0.00    +0.168 A 
ATOM      5  C   UNL     1      -0.245   0.009   0.705  0.00  0.00    +0.123 A 
ATOM      6  C   UNL     1       1.038   0.339   1.122  0.00  0.00    +0.034 A 
ATOM      7  C   UNL     1       2.136   0.128   0.294  0.00  0.00    +0.059 A 
ATOM      8  C   UNL     1       1.968  -0.876  -0.652  0.00  0.00    +0.015 A 
ATOM      9 CL   UNL     1       3.381   1.356   0.076  0.00  0.00    -0.082 Cl
ATOM     10  C   UNL     1       0.720  -1.373  -0.948  0.00  0.00    +0.040 A 
ATOM     11  N   UNL     1      -1.501   0.302   1.085  0.00  0.00    -0.171 NA
ENDROOT
TORSDOF 0
