REMARK  Name = 
REMARK  15 active torsions:
REMARK  status: ('A' for Active; 'I' for Inactive)
REMARK    1  A    between atoms: O_2  and  C_3
REMARK    2  A    between atoms: C_8  and  O_9
REMARK    3  A    between atoms: O_9  and  C_10
REMARK    4  A    between atoms: C_14  and  O_15
REMARK    5  A    between atoms: O_15  and  C_16
REMARK    6  A    between atoms: C_16  and  C_18
REMARK    7  A    between atoms: C_27  and  O_28
REMARK    8  A    between atoms: O_28  and  C_29
REMARK    9  A    between atoms: C_29  and  C_31
REMARK   10  A    between atoms: C_31  and  C_33
REMARK   11  A    between atoms: C_33  and  N_34
REMARK   12  A    between atoms: C_33  and  C_42
REMARK   13  A    between atoms: C_35  and  O_37
REMARK   14  A    between atoms: O_37  and  C_38
REMARK   15  A    between atoms: C_51  and  O_52
REMARK                            x       y       z     vdW  Elec       q    Type
REMARK                         _______ _______ _______ _____ _____    ______ ____
ROOT
ATOM      1  C   UNL     1      -6.745   0.458   0.000  0.00  0.00    +0.125 C 
ATOM      2  C   UNL     1      -5.276   0.759   0.000  0.00  0.00    +0.086 C 
ATOM      3  C   UNL     1      -4.281  -0.363   0.000  0.00  0.00    +0.093 C 
ATOM      4  C   UNL     1      -2.783  -0.453   0.000  0.00  0.00    +0.201 C 
ATOM      5  C   UNL     1      -1.661   0.542   0.000  0.00  0.00    +0.170 C 
ATOM      6  C   UNL     1      -1.571   2.039   0.000  0.00  0.00    +0.047 C 
ATOM      7  C   UNL     1      -0.075   1.923   0.000  0.00  0.00    +0.007 C 
ATOM      8  C   UNL     1      -0.765   2.779   0.000  0.00  0.00    +0.007 C 
ATOM      9  C   UNL     1      -2.566   3.161   0.000  0.00  0.00    -0.013 C 
ATOM     10  C   UNL     1      -4.063   3.251   0.000  0.00  0.00    +0.190 C 
ATOM     11  C   UNL     1      -1.148   3.651   0.000  0.00  0.00    -0.010 C 
ATOM     12  C   UNL     1      -0.864   5.124   0.000  0.00  0.00    +0.029 C 
ATOM     13  C   UNL     1      -0.015   2.668   0.000  0.00  0.00    +0.189 C 
ATOM     14  C   UNL     1      -0.300   1.196   0.000  0.00  0.00    +0.082 C 
ATOM     15  O   UNL     1      -0.312  -0.114   0.000  0.00  0.00    -0.222 OA
ATOM     16  C   UNL     1      -4.755  -1.786   0.000  0.00  0.00    +0.191 C 
ATOM     17  C   UNL     1      -6.224  -2.087   0.000  0.00  0.00    +0.157 C 
ATOM     18  O   UNL     1      -5.924  -3.557   0.000  0.00  0.00    -0.349 OA
ATOM     19  C   UNL     1      -4.454  -3.256   0.000  0.00  0.00    +0.185 C 
ATOM     20  C   UNL     1      -6.409   1.742   0.000  0.00  0.00    +0.010 C 
ATOM     21  C   UNL     1      -5.186   2.256   0.000  0.00  0.00    +0.183 C 
ATOM     22  O   UNL     1      -6.535   2.912   0.000  0.00  0.00    -0.293 OA
ATOM     23  C   UNL     1      -7.220  -0.965   0.000  0.00  0.00    +0.063 C 
ENDROOT
BRANCH  10  24
ATOM     24  O   UNL     1      -4.553   4.669   0.000  0.00  0.00    -0.342 OA
ATOM     25  C   UNL     1      -6.026   4.954   0.000  0.00  0.00    +0.175 C 
ENDBRANCH  10  24
BRANCH   1  27
ATOM     26  C   UNL     1      -9.210   1.280   0.000  0.00  0.00    +0.174 C 
ATOM     27  O   UNL     1      -7.740   1.581   0.000  0.00  0.00    -0.353 OA
ENDBRANCH   1  27
BRANCH  13  28
ATOM     28  O   UNL     1       1.403   3.158   0.000  0.00  0.00    -0.446 OA
BRANCH  28  29
ATOM     29  C   UNL     1       2.536   2.175   0.000  0.00  0.00    +0.350 C 
ATOM     30  O   UNL     1       2.251   0.703   0.000  0.00  0.00    -0.247 OA
BRANCH  29  31
ATOM     31  C   UNL     1       3.953   2.665   0.000  0.00  0.00    +0.274 C 
ATOM     32  O   UNL     1       4.238   4.138   0.000  0.00  0.00    -0.209 OA
BRANCH  31  33
ATOM     33  C   UNL     1       5.087   1.683   0.000  0.00  0.00    +0.162 C 
BRANCH  33  34
ATOM     34  C   UNL     1       6.504   2.172   0.000  0.00  0.00    +0.001 A 
ATOM     35  C   UNL     1       6.789   3.645   0.000  0.00  0.00    -0.003 A 
ATOM     36  C   UNL     1       8.207   4.135   0.000  0.00  0.00    -0.000 A 
ATOM     37  C   UNL     1       9.340   3.152   0.000  0.00  0.00    -0.000 A 
ATOM     38  C   UNL     1       9.055   1.679   0.000  0.00  0.00    -0.000 A 
ATOM     39  C   UNL     1       7.637   1.190   0.000  0.00  0.00    -0.003 A 
ENDBRANCH  33  34
BRANCH  33  40
ATOM     40  N   UNL     1       4.802   0.210   0.000  0.00  0.00    -0.163 NA
ATOM     41  C   UNL     1       5.935  -0.773   0.000  0.00  0.00    +0.421 C 
ATOM     42  O   UNL     1       7.353  -0.283   0.000  0.00  0.00    -0.225 OA
BRANCH  41  43
ATOM     43  O   UNL     1       5.651  -2.246   0.000  0.00  0.00    -0.441 OA
BRANCH  43  44
ATOM     44  C   UNL     1       6.784  -3.229   0.000  0.00  0.00    +0.138 C 
ATOM     45  C   UNL     1       7.917  -4.212   0.000  0.00  0.00    +0.044 C 
ATOM     46  C   UNL     1       7.766  -2.095   0.000  0.00  0.00    +0.044 C 
ATOM     47  C   UNL     1       5.801  -4.362   0.000  0.00  0.00    +0.044 C 
ENDBRANCH  43  44
ENDBRANCH  41  43
ENDBRANCH  33  40
ENDBRANCH  31  33
ENDBRANCH  29  31
ENDBRANCH  28  29
ENDBRANCH  13  28
BRANCH  16  48
ATOM     48  O   UNL     1      -3.258  -1.876   0.000  0.00  0.00    -0.451 OA
BRANCH  48  49
ATOM     49  C   UNL     1      -2.587  -3.218   0.000  0.00  0.00    +0.317 C 
ATOM     50  O   UNL     1      -3.413  -4.470   0.000  0.00  0.00    -0.250 OA
ATOM     51  C   UNL     1      -1.090  -3.308   0.000  0.00  0.00    +0.121 C 
ENDBRANCH  48  49
ENDBRANCH  16  48
BRANCH   4  52
ATOM     52  O   UNL     1      -2.293  -1.871   0.000  0.00  0.00    -0.446 OA
BRANCH  52  53
ATOM     53  C   UNL     1      -0.821  -2.156   0.000  0.00  0.00    +0.341 C 
ATOM     54  O   UNL     1       0.162  -1.023   0.000  0.00  0.00    -0.245 OA
BRANCH  53  55
ATOM     55  C   UNL     1      -0.331  -3.574   0.000  0.00  0.00    +0.076 A 
ATOM     56  C   UNL     1       1.142  -3.858   0.000  0.00  0.00    +0.006 A 
ATOM     57  C   UNL     1       1.632  -5.276   0.000  0.00  0.00    +0.000 A 
ATOM     58  C   UNL     1       0.649  -6.409   0.000  0.00  0.00    +0.000 A 
ATOM     59  C   UNL     1      -0.824  -6.124   0.000  0.00  0.00    +0.000 A 
ATOM     60  C   UNL     1      -1.313  -4.707   0.000  0.00  0.00    +0.006 A 
ENDBRANCH  53  55
ENDBRANCH  52  53
ENDBRANCH   4  52
TORSDOF 15
