REMARK  Name = 
REMARK  1 active torsions:
REMARK  status: ('A' for Active; 'I' for Inactive)
REMARK    1  A    between atoms: C_2  and  C_3
REMARK                            x       y       z     vdW  Elec       q    Type
REMARK                         _______ _______ _______ _____ _____    ______ ____
ROOT
ATOM      1  N   UNL     1       0.219   1.671   0.797  0.00  0.00    -0.123 NA
ATOM      2  C   UNL     1      -0.001   0.323   0.293  0.00  0.00    +0.175 C 
ATOM      3  C   UNL     1       0.840  -0.690   0.970  0.00  0.00    +0.064 C 
ATOM      4  C   UNL     1       1.364  -1.157  -0.549  0.00  0.00    +0.165 C 
ATOM      5  F   UNL     1       2.696  -0.402  -0.368  0.00  0.00    -0.237 F 
ATOM      6  C   UNL     1       0.592   0.235  -1.064  0.00  0.00    +0.064 C 
ENDROOT
BRANCH   2   7
ATOM      7  C   UNL     1      -1.456   0.041   0.282  0.00  0.00    +0.380 C 
ATOM      8  O   UNL     1      -1.958  -0.754  -0.747  0.00  0.00    -0.244 OA
ATOM      9  O   UNL     1      -2.295   0.734   0.934  0.00  0.00    -0.244 OA
ENDBRANCH   2   7
TORSDOF 1
