REMARK  Name = 
REMARK  7 active torsions:
REMARK  status: ('A' for Active; 'I' for Inactive)
REMARK    1  A    between atoms: O_2  and  C_3
REMARK    2  A    between atoms: C_8  and  O_9
REMARK    3  A    between atoms: O_9  and  C_10
REMARK    4  A    between atoms: C_10  and  C_11
REMARK    5  A    between atoms: C_11  and  C_13
REMARK    6  A    between atoms: C_13  and  O_14
REMARK    7  A    between atoms: O_14  and  C_15
REMARK                            x       y       z     vdW  Elec       q    Type
REMARK                         _______ _______ _______ _____ _____    ______ ____
ROOT
ATOM      1  O   UNL     1      -0.750  -1.235  -1.084  0.00  0.00    -0.470 OA
ENDROOT
BRANCH   1   3
ATOM      2  C   UNL     1      -2.342   0.429  -0.596  0.00  0.00    +0.172 A 
ATOM      3  C   UNL     1      -1.666  -0.719  -0.197  0.00  0.00    +0.172 A 
ATOM      4  C   UNL     1      -2.122  -1.370   0.917  0.00  0.00    +0.040 A 
ATOM      5  C   UNL     1      -3.052  -0.775   1.757  0.00  0.00    +0.003 A 
ATOM      6  C   UNL     1      -3.473   0.525   1.517  0.00  0.00    +0.003 A 
ATOM      7  C   UNL     1      -3.244   1.013   0.252  0.00  0.00    +0.040 A 
BRANCH   2   9
ATOM      8  C   UNL     1      -1.349   2.191  -1.692  0.00  0.00    +0.253 C 
ATOM      9  O   UNL     1      -1.940   1.152  -1.696  0.00  0.00    -0.468 OA
ENDBRANCH   2   9
ENDBRANCH   1   3
BRANCH   1  10
ATOM     10  C   UNL     1       0.495  -1.793  -0.739  0.00  0.00    +0.242 C 
BRANCH  10  11
ATOM     11  C   UNL     1       1.505  -0.450  -0.643  0.00  0.00    +0.239 C 
ATOM     12  O   UNL     1       2.073  -0.732  -2.055  0.00  0.00    -0.215 OA
BRANCH  11  13
ATOM     13  C   UNL     1       2.721  -1.371   0.068  0.00  0.00    +0.247 C 
BRANCH  13  14
ATOM     14  O   UNL     1       3.127  -0.576   1.162  0.00  0.00    -0.430 OA
BRANCH  14  15
ATOM     15  C   UNL     1       3.280   0.792   1.017  0.00  0.00    +0.441 C 
ATOM     16  O   UNL     1       3.291   1.290  -0.126  0.00  0.00    -0.223 OA
ATOM     17  N   UNL     1       3.446   1.628   2.138  0.00  0.00    -0.048 NA
ENDBRANCH  14  15
ENDBRANCH  13  14
ENDBRANCH  11  13
ENDBRANCH  10  11
ENDBRANCH   1  10
TORSDOF 7
