REMARK  Name = 
REMARK  8 active torsions:
REMARK  status: ('A' for Active; 'I' for Inactive)
REMARK    1  A    between atoms: N_2  and  O_4
REMARK    2  A    between atoms: O_4  and  C_5
REMARK    3  A    between atoms: C_5  and  C_6
REMARK    4  A    between atoms: C_6  and  C_7
REMARK    5  A    between atoms: C_6  and  O_12
REMARK    6  A    between atoms: C_7  and  O_8
REMARK    7  A    between atoms: O_8  and  N_9
REMARK    8  A    between atoms: O_12  and  N_13
REMARK                            x       y       z     vdW  Elec       q    Type
REMARK                         _______ _______ _______ _____ _____    ______ ____
ROOT
ATOM      1  C   UNL     1      -0.069   0.242   0.506  0.00  0.00    +0.351 C 
ENDROOT
BRANCH   1   2
ATOM      2  C   UNL     1      -1.385  -0.414   0.212  0.00  0.00    +0.351 C 
BRANCH   2   3
ATOM      3  O   UNL     1      -1.317  -1.335  -0.867  0.00  0.00    -0.196 OA
BRANCH   3   5
ATOM      4  O   UNL     1      -1.943  -3.427  -0.348  0.00  0.00    +0.093 OA
ATOM      5  N   UNL     1      -2.277  -2.332  -0.864  0.00  0.00    +0.285 N 
ATOM      6  O   UNL     1      -3.606  -1.982  -0.712  0.00  0.00    -0.534 OA
ENDBRANCH   3   5
ENDBRANCH   2   3
ENDBRANCH   1   2
BRANCH   1   7
ATOM      7  C   UNL     1       1.090  -0.372  -0.238  0.00  0.00    +0.351 C 
BRANCH   7   8
ATOM      8  O   UNL     1       2.198   0.489  -0.082  0.00  0.00    -0.196 OA
BRANCH   8   9
ATOM      9  N   UNL     1       3.456  -0.033   0.109  0.00  0.00    +0.285 N 
ATOM     10  O   UNL     1       4.076   0.024   1.339  0.00  0.00    -0.534 OA
ATOM     11  O   UNL     1       3.896  -0.781  -0.802  0.00  0.00    +0.093 OA
ENDBRANCH   8   9
ENDBRANCH   7   8
ENDBRANCH   1   7
BRANCH   1  12
ATOM     12  O   UNL     1      -0.078   1.634   0.353  0.00  0.00    -0.196 OA
BRANCH  12  13
ATOM     13  N   UNL     1      -1.147   2.393  -0.016  0.00  0.00    +0.285 N 
ATOM     14  O   UNL     1      -1.046   3.743   0.283  0.00  0.00    -0.534 OA
ATOM     15  O   UNL     1      -1.848   2.151  -1.032  0.00  0.00    +0.093 OA
ENDBRANCH  12  13
ENDBRANCH   1  12
TORSDOF 8
