REMARK  Name = 
REMARK  4 active torsions:
REMARK  status: ('A' for Active; 'I' for Inactive)
REMARK    1  A    between atoms: C_2  and  C_3
REMARK    2  A    between atoms: C_2  and  C_6
REMARK    3  A    between atoms: C_10  and  C_11
REMARK    4  A    between atoms: C_11  and  C_13
REMARK                            x       y       z     vdW  Elec       q    Type
REMARK                         _______ _______ _______ _____ _____    ______ ____
ROOT
ATOM      1  C   UNL     1      -2.178  -0.497   0.121  0.00  0.00    -0.012 A 
ATOM      2  C   UNL     1      -0.804  -0.271   0.149  0.00  0.00    -0.001 A 
ATOM      3  C   UNL     1       0.119  -1.240  -0.212  0.00  0.00    +0.039 A 
ATOM      4  C   UNL     1      -0.326  -2.499  -0.595  0.00  0.00    +0.003 A 
ATOM      5  C   UNL     1      -1.665  -2.788  -0.527  0.00  0.00    -0.000 A 
ATOM      6  C   UNL     1      -2.533  -1.725  -0.426  0.00  0.00    -0.004 A 
ENDROOT
BRANCH   1   8
ATOM      7  C   UNL     1      -4.437   0.121  -0.354  0.00  0.00    +0.017 C 
ATOM      8  C   UNL     1      -2.919   0.760  -0.626  0.00  0.00    +0.126 C 
BRANCH   8   9
ATOM      9  C   UNL     1      -2.968   1.647   0.746  0.00  0.00    +0.368 C 
ATOM     10  O   UNL     1      -3.055   2.997   0.482  0.00  0.00    -0.245 OA
ATOM     11  O   UNL     1      -3.352   1.064   1.760  0.00  0.00    -0.245 OA
ENDBRANCH   8   9
ENDBRANCH   1   8
BRANCH   3  12
ATOM     12  C   UNL     1       1.543  -1.136   0.069  0.00  0.00    +0.196 C 
ATOM     13  O   UNL     1       2.185  -2.085   0.614  0.00  0.00    -0.287 OA
BRANCH  12  14
ATOM     14  C   UNL     1       2.332   0.046  -0.280  0.00  0.00    +0.039 A 
ATOM     15  C   UNL     1       2.777   0.929   0.698  0.00  0.00    +0.003 A 
ATOM     16  C   UNL     1       3.880   1.749   0.495  0.00  0.00    +0.000 A 
ATOM     17  C   UNL     1       4.613   1.567  -0.662  0.00  0.00    +0.000 A 
ATOM     18  C   UNL     1       3.881   1.160  -1.772  0.00  0.00    +0.000 A 
ATOM     19  C   UNL     1       2.907   0.202  -1.519  0.00  0.00    +0.003 A 
ENDBRANCH  12  14
ENDBRANCH   3  12
TORSDOF 4
