REMARK  Name = 
REMARK  2 active torsions:
REMARK  status: ('A' for Active; 'I' for Inactive)
REMARK    1  A    between atoms: C_8  and  C_10
REMARK    2  A    between atoms: C_10  and  C_12
REMARK                            x       y       z     vdW  Elec       q    Type
REMARK                         _______ _______ _______ _____ _____    ______ ____
ROOT
ATOM      1  C   UNL     1      -3.123  -2.469   1.891  0.00  0.00    +0.004 C 
ATOM      2  C   UNL     1      -2.558  -0.904   1.828  0.00  0.00    +0.019 C 
ATOM      3  C   UNL     1      -3.000  -0.771   0.259  0.00  0.00    -0.038 C 
ATOM      4  C   UNL     1      -2.279   0.402  -0.306  0.00  0.00    +0.036 C 
ATOM      5  C   UNL     1      -2.854   0.725  -1.623  0.00  0.00    -0.020 C 
ATOM      6  C   UNL     1      -4.151   1.037  -1.589  0.00  0.00    +0.038 C 
ATOM      7  C   UNL     1      -4.986   0.134  -0.784  0.00  0.00    +0.195 C 
ATOM      8  O   UNL     1      -6.223   0.162  -0.952  0.00  0.00    -0.287 OA
ATOM      9  C   UNL     1      -2.286   1.493   0.647  0.00  0.00    +0.009 C 
ATOM     10  C   UNL     1      -0.817  -0.227  -0.565  0.00  0.00    +0.038 C 
ATOM     11  C   UNL     1      -0.303  -0.052   1.033  0.00  0.00    +0.003 C 
ATOM     12  C   UNL     1       1.102  -0.952   0.650  0.00  0.00    +0.003 C 
ATOM     13  C   UNL     1       1.864   0.360   0.038  0.00  0.00    +0.035 C 
ATOM     14  C   UNL     1       1.399   0.665  -1.252  0.00  0.00    +0.036 C 
ATOM     15  C   UNL     1       2.159   1.333   1.090  0.00  0.00    +0.003 C 
ATOM     16  C   UNL     1       3.127  -0.489   0.001  0.00  0.00    +0.180 C 
ATOM     17  O   UNL     1       2.923  -1.690  -0.659  0.00  0.00    -0.218 OA
ATOM     18  C   UNL     1       3.265  -0.752   1.500  0.00  0.00    +0.038 C 
ATOM     19  C   UNL     1       1.856  -0.712   2.088  0.00  0.00    +0.003 C 
ATOM     20  C   UNL     1      -0.166   1.254  -1.195  0.00  0.00    +0.153 C 
ATOM     21  O   UNL     1       0.026   1.953   0.161  0.00  0.00    -0.223 OA
ATOM     22  C   UNL     1      -4.322  -0.835   0.103  0.00  0.00    +0.034 C 
ATOM     23  C   UNL     1      -1.039  -1.434   1.436  0.00  0.00    +0.004 C 
ENDROOT
BRANCH  16  24
ATOM     24  C   UNL     1       4.294   0.221  -0.538  0.00  0.00    +0.211 C 
ATOM     25  O   UNL     1       4.695  -0.105  -1.653  0.00  0.00    -0.291 OA
BRANCH  24  26
ATOM     26  C   UNL     1       5.152   1.163   0.222  0.00  0.00    +0.248 C 
ATOM     27  O   UNL     1       6.244   0.492   0.789  0.00  0.00    -0.212 OA
ENDBRANCH  24  26
ENDBRANCH  16  24
TORSDOF 2
