REMARK  Name = 
REMARK  2 active torsions:
REMARK  status: ('A' for Active; 'I' for Inactive)
REMARK    1  A    between atoms: N_11  and  C1*_12
REMARK    2  A    between atoms: C4*_16  and  C5*_17
REMARK                            x       y       z     vdW  Elec       q    Type
REMARK                         _______ _______ _______ _____ _____    ______ ____
ROOT
ATOM      1  N   UNL     1      -4.189   1.769   0.108  0.00  0.00    -0.105 NA
ATOM      2  C   UNL     1      -3.353   0.731  -0.041  0.00  0.00    +0.193 A 
ATOM      3  C   UNL     1      -2.133   0.748   0.633  0.00  0.00    +0.152 A 
ATOM      4  N   UNL     1      -1.591   1.490   1.622  0.00  0.00    -0.219 NA
ATOM      5  C   UNL     1      -0.279   1.153   1.715  0.00  0.00    +0.182 A 
ATOM      6  N   UNL     1       0.067   0.264   0.806  0.00  0.00    -0.271 N 
ATOM      7  C   UNL     1      -1.120  -0.145   0.297  0.00  0.00    +0.170 A 
ATOM      8  N   UNL     1      -1.485  -1.180  -0.479  0.00  0.00    -0.198 NA
ATOM      9  C   UNL     1      -2.797  -1.495  -0.606  0.00  0.00    +0.227 A 
ATOM     10 CL   UNL     1      -3.377  -3.146  -0.687  0.00  0.00    -0.041 Cl
ATOM     11  N   UNL     1      -3.606  -0.439  -0.670  0.00  0.00    -0.197 NA
ENDROOT
BRANCH   6  12
ATOM     12  C1* UNL     1       1.169   0.533  -0.312  0.00  0.00    +0.210 C 
ATOM     13  O4* UNL     1       1.839  -0.822  -0.064  0.00  0.00    -0.332 OA
ATOM     14  C4* UNL     1       2.831  -0.400  -1.117  0.00  0.00    +0.180 C 
ATOM     15  C3* UNL     1       3.583   0.798  -0.138  0.00  0.00    +0.186 C 
ATOM     16  O3* UNL     1       3.207   1.871  -1.141  0.00  0.00    -0.220 OA
ATOM     17  C2* UNL     1       2.262   1.128   0.769  0.00  0.00    +0.089 C 
BRANCH  14  18
ATOM     18  C5* UNL     1       3.926  -1.524  -0.629  0.00  0.00    +0.214 C 
ATOM     19  O5* UNL     1       5.045  -1.334  -1.408  0.00  0.00    -0.218 OA
ENDBRANCH  14  18
ENDBRANCH   6  12
TORSDOF 2
