REMARK  Name = 
REMARK  3 active torsions:
REMARK  status: ('A' for Active; 'I' for Inactive)
REMARK    1  A    between atoms: C_2  and  C_3
REMARK    2  A    between atoms: C_2  and  N_12
REMARK    3  A    between atoms: C_3  and  N_4
REMARK                            x       y       z     vdW  Elec       q    Type
REMARK                         _______ _______ _______ _____ _____    ______ ____
ROOT
ATOM      1  C   UNL     1      -0.336   1.632  -1.736  0.00  0.00    +0.019 C 
ATOM      2  C   UNL     1      -0.278   0.168  -0.957  0.00  0.00    +0.074 C 
ENDROOT
BRANCH   2   3
ATOM      3  N   UNL     1      -1.514   0.531  -0.029  0.00  0.00    -0.257 NA
ATOM      4  C   UNL     1      -1.880  -0.807   0.422  0.00  0.00    +0.161 C 
ATOM      5  C   UNL     1      -3.348  -0.976   0.574  0.00  0.00    +0.264 C 
ATOM      6  O   UNL     1      -3.845  -2.131   0.479  0.00  0.00    -0.271 OA
ATOM      7  N   UNL     1      -4.149   0.208   0.683  0.00  0.00    -0.142 NA
ATOM      8  C   UNL     1      -3.672   1.355  -0.033  0.00  0.00    +0.264 C 
ATOM      9  O   UNL     1      -3.911   2.532   0.310  0.00  0.00    -0.271 OA
ATOM     10  C   UNL     1      -2.516   1.070  -0.936  0.00  0.00    +0.161 C 
ENDBRANCH   2   3
BRANCH   2  11
ATOM     11  C   UNL     1       0.784   0.762   0.160  0.00  0.00    +0.089 C 
BRANCH  11  12
ATOM     12  N   UNL     1       1.685  -0.260   0.507  0.00  0.00    -0.256 NA
ATOM     13  C   UNL     1       1.835  -1.365  -0.366  0.00  0.00    +0.161 C 
ATOM     14  C   UNL     1       3.272  -1.801  -0.415  0.00  0.00    +0.264 C 
ATOM     15  O   UNL     1       3.714  -2.701   0.363  0.00  0.00    -0.271 OA
ATOM     16  N   UNL     1       4.101  -0.733  -0.913  0.00  0.00    -0.142 NA
ATOM     17  C   UNL     1       3.647   0.565  -0.480  0.00  0.00    +0.264 C 
ATOM     18  O   UNL     1       3.473   1.535  -1.241  0.00  0.00    -0.271 OA
ATOM     19  C   UNL     1       2.940   0.417   0.838  0.00  0.00    +0.161 C 
ENDBRANCH  11  12
ENDBRANCH   2  11
TORSDOF 3
