REMARK  Name = 
REMARK  12 active torsions:
REMARK  status: ('A' for Active; 'I' for Inactive)
REMARK    1  A    between atoms: N_2  and  C_3
REMARK    2  A    between atoms: C_6  and  C_7
REMARK    3  A    between atoms: C_8  and  C_9
REMARK    4  A    between atoms: C_12  and  O_13
REMARK    5  A    between atoms: O_13  and  C_14
REMARK    6  A    between atoms: C_14  and  C_15
REMARK    7  A    between atoms: C_15  and  O_16
REMARK    8  A    between atoms: O_16  and  C_17
REMARK    9  A    between atoms: C_17  and  C_18
REMARK   10  A    between atoms: C_18  and  O_19
REMARK   11  A    between atoms: O_19  and  C_20
REMARK   12  A    between atoms: C_20  and  C_21
REMARK                            x       y       z     vdW  Elec       q    Type
REMARK                         _______ _______ _______ _____ _____    ______ ____
ROOT
ATOM      1  C   UNL     1      -1.626  -1.955   0.105  0.00  0.00    +0.019 A 
ATOM      2  C   UNL     1      -0.649  -2.735  -0.504  0.00  0.00    +0.102 A 
ATOM      3  N   UNL     1       0.642  -2.323  -0.460  0.00  0.00    -0.210 NA
ATOM      4  C   UNL     1       0.876  -0.992  -0.464  0.00  0.00    +0.225 A 
ATOM      5  C   UNL     1      -0.046  -0.213   0.188  0.00  0.00    +0.058 A 
ATOM      6  C   UNL     1      -1.228  -0.770   0.658  0.00  0.00    +0.006 A 
ENDROOT
BRANCH   1   8
ATOM      7  C   UNL     1      -3.943  -2.351  -0.115  0.00  0.00    +0.000 C 
ATOM      8  C   UNL     1      -2.827  -2.682   0.537  0.00  0.00    +0.002 C 
BRANCH   7  12
ATOM      9  C   UNL     1      -5.554   1.496  -0.491  0.00  0.00    +0.065 A 
ATOM     10  C   UNL     1      -6.235   0.476   0.164  0.00  0.00    +0.016 A 
ATOM     11  C   UNL     1      -5.459  -0.603   0.571  0.00  0.00    +0.001 A 
ATOM     12  C   UNL     1      -4.269  -0.919  -0.074  0.00  0.00    +0.000 A 
ATOM     13  C   UNL     1      -3.926  -0.072  -1.121  0.00  0.00    +0.001 A 
ATOM     14  C   UNL     1      -4.264   1.266  -0.952  0.00  0.00    +0.016 A 
BRANCH   9  16
ATOM     15  C   UNL     1      -7.371   3.080   0.097  0.00  0.00    +0.135 C 
ATOM     16  N   UNL     1      -6.086   2.812  -0.496  0.00  0.00    -0.236 NA
ENDBRANCH   9  16
ENDBRANCH   7  12
ENDBRANCH   1   8
BRANCH   4  17
ATOM     17  O   UNL     1       2.037  -0.510  -1.042  0.00  0.00    -0.457 OA
BRANCH  17  18
ATOM     18  C   UNL     1       3.193  -0.238  -0.292  0.00  0.00    +0.239 C 
BRANCH  18  19
ATOM     19  C   UNL     1       3.750  -1.464   0.393  0.00  0.00    +0.189 C 
BRANCH  19  20
ATOM     20  O   UNL     1       5.078  -1.274   0.735  0.00  0.00    -0.347 OA
BRANCH  20  21
ATOM     21  C   UNL     1       5.890  -0.959  -0.337  0.00  0.00    +0.174 C 
BRANCH  21  22
ATOM     22  C   UNL     1       5.947   0.527  -0.597  0.00  0.00    +0.174 C 
BRANCH  22  23
ATOM     23  O   UNL     1       6.774   1.151   0.350  0.00  0.00    -0.348 OA
BRANCH  23  24
ATOM     24  C   UNL     1       6.094   2.324   0.718  0.00  0.00    +0.180 C 
BRANCH  24  25
ATOM     25  C   UNL     1       6.656   3.536   0.006  0.00  0.00    +0.225 C 
ATOM     26  F   UNL     1       6.543   3.392  -1.358  0.00  0.00    -0.232 F 
ENDBRANCH  24  25
ENDBRANCH  23  24
ENDBRANCH  22  23
ENDBRANCH  21  22
ENDBRANCH  20  21
ENDBRANCH  19  20
ENDBRANCH  18  19
ENDBRANCH  17  18
ENDBRANCH   4  17
TORSDOF 12
