REMARK  Name = 
REMARK  4 active torsions:
REMARK  status: ('A' for Active; 'I' for Inactive)
REMARK    1  A    between atoms: C_2  and  C_3
REMARK    2  A    between atoms: N_5  and  C_6
REMARK    3  A    between atoms: C_6  and  C_7
REMARK    4  A    between atoms: C_7  and  C_8
REMARK                            x       y       z     vdW  Elec       q    Type
REMARK                         _______ _______ _______ _____ _____    ______ ____
ROOT
ATOM      1  C   UNL     1       0.497   0.591  -0.109  0.00  0.00    +0.024 C 
ATOM      2  C   UNL     1      -0.977   0.063  -0.434  0.00  0.00    -0.027 A 
ATOM      3  C   UNL     1      -1.374   1.016  -1.376  0.00  0.00    -0.026 A 
ATOM      4  C   UNL     1      -2.417   0.574  -2.182  0.00  0.00    -0.001 A 
ATOM      5  C   UNL     1      -3.307  -0.320  -1.583  0.00  0.00    +0.036 A 
ATOM      6  C   UNL     1      -3.199  -0.634  -0.230  0.00  0.00    +0.134 A 
ATOM      7  O   UNL     1      -4.105  -0.771   0.824  0.00  0.00    -0.475 OA
ATOM      8  C   UNL     1      -3.550  -0.165   1.991  0.00  0.00    +0.210 C 
ATOM      9  C   UNL     1      -2.109  -0.543   1.847  0.00  0.00    +0.076 C 
ATOM     10  C   UNL     1      -0.594   2.278  -1.207  0.00  0.00    +0.026 C 
ATOM     11  C   UNL     1      -1.938  -0.512   0.350  0.00  0.00    +0.011 A 
ATOM     12  C   UNL     1      -0.117   2.068   0.236  0.00  0.00    +0.009 C 
ENDROOT
BRANCH   1  13
ATOM     13  C   UNL     1       0.537   0.146   1.470  0.00  0.00    +0.028 C 
BRANCH  13  14
ATOM     14  C   UNL     1       1.538  -0.998   1.298  0.00  0.00    +0.115 C 
BRANCH  14  16
ATOM     15  C   UNL     1       3.814  -0.682   0.198  0.00  0.00    +0.241 C 
ATOM     16  N   UNL     1       2.834  -0.398   1.164  0.00  0.00    -0.205 NA
ATOM     17  O   UNL     1       3.416  -1.310  -0.824  0.00  0.00    -0.273 OA
BRANCH  15  19
ATOM     18  C   UNL     1       5.933  -0.463  -0.397  0.00  0.00    +0.010 C 
ATOM     19  C   UNL     1       5.118   0.059   0.183  0.00  0.00    +0.087 C 
ENDBRANCH  15  19
ENDBRANCH  14  16
ENDBRANCH  13  14
ENDBRANCH   1  13
TORSDOF 4
