REMARK  Name = 
REMARK  5 active torsions:
REMARK  status: ('A' for Active; 'I' for Inactive)
REMARK    1  A    between atoms: C_2  and  C_3
REMARK    2  A    between atoms: C_3  and  O_5
REMARK    3  A    between atoms: O_5  and  C_6
REMARK    4  A    between atoms: C_6  and  C_7
REMARK    5  A    between atoms: C_7  and  C_9
REMARK                            x       y       z     vdW  Elec       q    Type
REMARK                         _______ _______ _______ _____ _____    ______ ____
ROOT
ATOM      1  C   UNL     1      -2.564   0.233  -0.255  0.00  0.00    +0.187 C 
ATOM      2  C   UNL     1      -1.210   0.727   0.048  0.00  0.00    +0.043 C 
ATOM      3  C   UNL     1      -0.562  -0.330  -0.985  0.00  0.00    +0.007 C 
ATOM      4  C   UNL     1       0.950   0.427  -0.933  0.00  0.00    +0.036 C 
ATOM      5  C   UNL     1       1.393  -0.294   0.426  0.00  0.00    +0.168 C 
ATOM      6  C   UNL     1       0.791   0.595   1.661  0.00  0.00    +0.182 C 
ATOM      7  O   UNL     1       0.838   1.916   0.910  0.00  0.00    -0.220 OA
ATOM      8  F   UNL     1       0.961  -1.527   0.514  0.00  0.00    -0.237 F 
ATOM      9  C   UNL     1       2.845  -0.016   0.504  0.00  0.00    +0.066 C 
ATOM     10  C   UNL     1       3.581  -0.791  -0.543  0.00  0.00    -0.003 C 
ATOM     11  C   UNL     1       4.909  -0.696  -0.437  0.00  0.00    +0.036 C 
ATOM     12  C   UNL     1       5.574  -0.093   0.725  0.00  0.00    +0.195 C 
ATOM     13  C   UNL     1       4.747   0.072   1.928  0.00  0.00    +0.038 C 
ATOM     14  O   UNL     1       6.834   0.042   0.784  0.00  0.00    -0.287 OA
ATOM     15  C   UNL     1       3.135  -0.209  -1.999  0.00  0.00    +0.180 C 
ATOM     16  F   UNL     1       3.571  -1.482  -2.687  0.00  0.00    -0.233 F 
ATOM     17  C   UNL     1       3.183   1.431   0.166  0.00  0.00    +0.011 C 
ATOM     18  C   UNL     1       3.480  -0.327   1.793  0.00  0.00    -0.017 C 
ATOM     19  C   UNL     1       1.590  -0.768  -1.830  0.00  0.00    +0.042 C 
ATOM     20  C   UNL     1      -1.119   0.595  -2.188  0.00  0.00    +0.004 C 
ATOM     21  C   UNL     1      -1.109   2.103  -0.428  0.00  0.00    +0.004 C 
ATOM     22  C   UNL     1      -0.787   0.290   1.323  0.00  0.00    +0.039 C 
ATOM     23  C   UNL     1      -2.681   0.224  -1.881  0.00  0.00    +0.044 C 
ATOM     24  C   UNL     1      -3.179   1.776  -1.992  0.00  0.00    +0.004 C 
ENDROOT
BRANCH   1  25
ATOM     25  C   UNL     1      -3.684   0.975   0.292  0.00  0.00    +0.203 C 
ATOM     26  O   UNL     1      -4.805   0.521   0.166  0.00  0.00    -0.291 OA
BRANCH  25  27
ATOM     27  C   UNL     1      -3.575   2.318   0.918  0.00  0.00    +0.163 C 
ATOM     28 CL   UNL     1      -5.097   3.218   0.684  0.00  0.00    -0.105 Cl
ENDBRANCH  25  27
ENDBRANCH   1  25
BRANCH   1  29
ATOM     29  O   UNL     1      -2.648  -1.182  -0.080  0.00  0.00    -0.449 OA
BRANCH  29  30
ATOM     30  C   UNL     1      -3.578  -1.713   0.786  0.00  0.00    +0.317 C 
ATOM     31  O   UNL     1      -3.443  -1.256   1.962  0.00  0.00    -0.250 OA
BRANCH  30  33
ATOM     32  C   UNL     1      -3.898  -3.891   0.169  0.00  0.00    +0.012 C 
ATOM     33  C   UNL     1      -4.443  -2.887   0.477  0.00  0.00    +0.110 C 
ENDBRANCH  30  33
ENDBRANCH  29  30
ENDBRANCH   1  29
TORSDOF 5
