REMARK  Name = 
REMARK  6 active torsions:
REMARK  status: ('A' for Active; 'I' for Inactive)
REMARK    1  A    between atoms: C_3  and  C_4
REMARK    2  A    between atoms: N_6  and  C_7
REMARK    3  A    between atoms: C_10  and  N_11
REMARK    4  A    between atoms: C_24  and  C_25
REMARK    5  A    between atoms: C_28  and  O_29
REMARK    6  A    between atoms: O_29  and  C_30
REMARK                            x       y       z     vdW  Elec       q    Type
REMARK                         _______ _______ _______ _____ _____    ______ ____
ROOT
ATOM      1  C   UNL     1       2.180  -1.817  -1.131  0.00  0.00    +0.031 C 
ATOM      2  C   UNL     1       1.671  -0.829  -0.258  0.00  0.00    -0.017 A 
ATOM      3  C   UNL     1       2.493   0.084   0.351  0.00  0.00    -0.004 A 
ATOM      4  C   UNL     1       2.020   1.325   0.736  0.00  0.00    -0.000 A 
ATOM      5  C   UNL     1       0.672   1.432   0.932  0.00  0.00    +0.000 A 
ATOM      6  C   UNL     1      -0.166   0.416   0.515  0.00  0.00    +0.004 A 
ATOM      7  C   UNL     1       0.327  -0.812   0.090  0.00  0.00    +0.051 A 
ENDROOT
BRANCH   3   8
ATOM      8  C   UNL     1       3.886  -0.329   0.571  0.00  0.00    -0.000 A 
ATOM      9  C   UNL     1       4.721   0.243   1.502  0.00  0.00    +0.003 A 
ATOM     10  C   UNL     1       6.016   0.546   1.094  0.00  0.00    +0.037 A 
ATOM     11  C   UNL     1       6.524   0.151  -0.137  0.00  0.00    +0.147 A 
ATOM     12  C   UNL     1       5.818  -0.850  -0.785  0.00  0.00    +0.037 A 
ATOM     13  C   UNL     1       4.508  -1.105  -0.400  0.00  0.00    +0.003 A 
BRANCH  11  14
ATOM     14  O   UNL     1       7.397   0.963  -0.875  0.00  0.00    -0.404 OA
BRANCH  14  15
ATOM     15  C   UNL     1       6.991   2.268  -1.217  0.00  0.00    +0.575 C 
ATOM     16  F   UNL     1       5.731   2.314  -1.781  0.00  0.00    -0.133 F 
ATOM     17  F   UNL     1       6.944   3.077  -0.089  0.00  0.00    -0.133 F 
ATOM     18  F   UNL     1       7.909   2.753  -2.143  0.00  0.00    -0.133 F 
ENDBRANCH  14  15
ENDBRANCH  11  14
ENDBRANCH   3   8
BRANCH   7  19
ATOM     19  C   UNL     1      -0.479  -1.991  -0.126  0.00  0.00    +0.269 C 
ATOM     20  N   UNL     1      -1.123  -2.729   0.923  0.00  0.00    -0.174 NA
ATOM     21  O   UNL     1      -0.876  -2.340  -1.280  0.00  0.00    -0.268 OA
BRANCH  20  22
ATOM     22  C   UNL     1      -2.558  -2.874   0.932  0.00  0.00    +0.093 A 
ATOM     23  C   UNL     1      -3.205  -2.169   1.945  0.00  0.00    +0.117 A 
ATOM     24  N   UNL     1      -4.283  -1.383   1.688  0.00  0.00    -0.228 NA
ATOM     25  C   UNL     1      -4.691  -1.131   0.417  0.00  0.00    +0.132 A 
ATOM     26  C   UNL     1      -4.455  -2.193  -0.440  0.00  0.00    +0.036 A 
ATOM     27  C   UNL     1      -3.291  -2.932  -0.249  0.00  0.00    +0.021 A 
BRANCH  25  28
ATOM     28  N   UNL     1      -5.084   0.159   0.037  0.00  0.00    -0.288 N 
ATOM     29  C   UNL     1      -5.091   0.738  -1.267  0.00  0.00    +0.122 C 
ATOM     30  C   UNL     1      -6.668   0.981  -1.684  0.00  0.00    +0.135 C 
ATOM     31  C   UNL     1      -6.309   2.275  -2.643  0.00  0.00    +0.034 C 
ATOM     32  O   UNL     1      -6.917   1.896  -0.501  0.00  0.00    -0.355 OA
ATOM     33  C   UNL     1      -7.223   0.867   0.568  0.00  0.00    +0.135 C 
ATOM     34  C   UNL     1      -7.715   2.037   1.619  0.00  0.00    +0.034 C 
ATOM     35  C   UNL     1      -5.671   0.958   1.119  0.00  0.00    +0.122 C 
ENDBRANCH  25  28
ENDBRANCH  20  22
ENDBRANCH   7  19
TORSDOF 6
