REMARK  Name = 
REMARK  3 active torsions:
REMARK  status: ('A' for Active; 'I' for Inactive)
REMARK    1  A    between atoms: C_6  and  C_7
REMARK    2  A    between atoms: C_7  and  C_8
REMARK    3  A    between atoms: C_8  and  N_9
REMARK                            x       y       z     vdW  Elec       q    Type
REMARK                         _______ _______ _______ _____ _____    ______ ____
ROOT
ATOM      1  N   UNL     1       0.150  -0.104  -0.941  0.00  0.00    -0.269 NA
ATOM      2  C   UNL     1      -0.778   0.444  -1.907  0.00  0.00    +0.094 C 
ATOM      3  C   UNL     1      -1.932  -0.545  -2.037  0.00  0.00    +0.110 C 
ATOM      4  N   UNL     1      -2.691  -0.418  -0.794  0.00  0.00    -0.290 N 
ATOM      5  C   UNL     1      -3.780   0.517  -0.759  0.00  0.00    +0.140 A 
ATOM      6  C   UNL     1      -5.011   0.229  -0.183  0.00  0.00    +0.040 A 
ATOM      7  C   UNL     1      -5.993   1.058  -0.715  0.00  0.00    +0.050 A 
ATOM      8  C   UNL     1      -7.333   0.698  -0.625  0.00  0.00    +0.008 A 
ATOM      9  C   UNL     1      -7.741  -0.465   0.017  0.00  0.00    +0.001 A 
ATOM     10  C   UNL     1      -6.775  -1.082   0.801  0.00  0.00    +0.000 A 
ATOM     11  S   UNL     1      -5.074   2.481  -0.997  0.00  0.00    +0.014 S 
ATOM     12  C   UNL     1      -5.444  -0.914   0.481  0.00  0.00    +0.003 A 
ATOM     13  N   UNL     1      -3.527   1.849  -0.698  0.00  0.00    -0.194 NA
ATOM     14  C   UNL     1      -1.874  -0.455   0.416  0.00  0.00    +0.110 C 
ATOM     15  C   UNL     1      -0.489  -0.917   0.061  0.00  0.00    +0.094 C 
ENDROOT
BRANCH   1  16
ATOM     16  C   UNL     1       1.168  -0.837  -1.679  0.00  0.00    +0.077 C 
BRANCH  16  17
ATOM     17  C   UNL     1       2.045  -1.667  -0.785  0.00  0.00    +0.045 C 
BRANCH  17  24
ATOM     18  O   UNL     1       8.202  -0.600   2.574  0.00  0.00    -0.273 OA
ATOM     19  C   UNL     1       6.976  -0.412   2.334  0.00  0.00    +0.250 C 
ATOM     20  N   UNL     1       6.338   0.786   1.878  0.00  0.00    -0.179 NA
ATOM     21  C   UNL     1       5.194   0.411   1.123  0.00  0.00    +0.071 A 
ATOM     22  C   UNL     1       4.845  -0.877   1.510  0.00  0.00    +0.002 A 
ATOM     23  C   UNL     1       3.681  -1.453   1.029  0.00  0.00    -0.006 A 
ATOM     24  C   UNL     1       2.973  -0.818   0.017  0.00  0.00    -0.010 A 
ATOM     25  C   UNL     1       3.430   0.372  -0.525  0.00  0.00    +0.055 A 
ATOM     26 CL   UNL     1       3.109   0.832  -2.188  0.00  0.00    -0.083 Cl
ATOM     27  C   UNL     1       4.472   1.034   0.112  0.00  0.00    +0.027 A 
ATOM     28  C   UNL     1       5.859  -1.396   2.481  0.00  0.00    +0.115 C 
ENDBRANCH  17  24
ENDBRANCH  16  17
ENDBRANCH   1  16
TORSDOF 3
