REMARK  Name = 
REMARK  3 active torsions:
REMARK  status: ('A' for Active; 'I' for Inactive)
REMARK    1  A    between atoms: C_2  and  C_3
REMARK    2  A    between atoms: C_3  and  N_17
REMARK    3  A    between atoms: C_7  and  C_8
REMARK                            x       y       z     vdW  Elec       q    Type
REMARK                         _______ _______ _______ _____ _____    ______ ____
ROOT
ATOM      1  C   UNL     1       2.579  -0.194   0.365  0.00  0.00    +0.146 C 
ATOM      2  C   UNL     1       1.403  -0.288  -0.239  0.00  0.00    +0.077 C 
ATOM      3  S   UNL     1      -0.183   0.380   0.272  0.00  0.00    -0.101 S 
ATOM      4  C   UNL     1      -1.253  -1.140  -0.192  0.00  0.00    +0.087 C 
ATOM      5  C   UNL     1      -0.792  -1.083  -1.721  0.00  0.00    +0.078 C 
ATOM      6  S   UNL     1       0.999  -1.404  -1.590  0.00  0.00    -0.104 S 
ENDROOT
BRANCH   4   7
ATOM      7  C   UNL     1      -2.581  -0.340  -0.414  0.00  0.00    -0.001 A 
ATOM      8  C   UNL     1      -3.736  -0.868   0.151  0.00  0.00    +0.055 A 
ATOM      9 CL   UNL     1      -3.890  -2.589   0.409  0.00  0.00    -0.083 Cl
ATOM     10  C   UNL     1      -4.804  -0.009   0.266  0.00  0.00    +0.022 A 
ATOM     11  C   UNL     1      -4.792   1.244  -0.325  0.00  0.00    +0.058 A 
ATOM     12 CL   UNL     1      -5.841   2.506   0.314  0.00  0.00    -0.082 Cl
ATOM     13  C   UNL     1      -3.773   1.515  -1.226  0.00  0.00    +0.011 A 
ATOM     14  C   UNL     1      -2.582   0.799  -1.151  0.00  0.00    -0.002 A 
ENDBRANCH   4   7
BRANCH   1  15
ATOM     15  N   UNL     1       3.712  -0.207  -0.511  0.00  0.00    -0.277 N 
ATOM     16  C   UNL     1       4.859  -0.882  -0.305  0.00  0.00    +0.183 A 
ATOM     17  N   UNL     1       5.878  -0.256  -0.943  0.00  0.00    -0.222 NA
ATOM     18  C   UNL     1       5.395   0.823  -1.561  0.00  0.00    +0.120 A 
ATOM     19  C   UNL     1       4.049   0.839  -1.304  0.00  0.00    +0.103 A 
ENDBRANCH   1  15
BRANCH   1  21
ATOM     20  N   UNL     1       2.704   0.771   2.652  0.00  0.00    -0.189 NA
ATOM     21  C   UNL     1       2.647   0.384   1.690  0.00  0.00    +0.119 C 
ENDBRANCH   1  21
TORSDOF 3
