REMARK  Name = 
REMARK  8 active torsions:
REMARK  status: ('A' for Active; 'I' for Inactive)
REMARK    1  A    between atoms: C_2  and  N_4
REMARK    2  A    between atoms: N_4  and  C_5
REMARK    3  A    between atoms: C_5  and  C_6
REMARK    4  A    between atoms: C_6  and  C_8
REMARK    5  A    between atoms: C_8  and  O_9
REMARK    6  A    between atoms: O_9  and  C_10
REMARK    7  A    between atoms: C_13  and  C_14
REMARK    8  A    between atoms: C_14  and  C_15
REMARK                            x       y       z     vdW  Elec       q    Type
REMARK                         _______ _______ _______ _____ _____    ______ ____
ROOT
ATOM      1  C   UNL     1       0.574  -0.436  -0.108  0.00  0.00    +0.139 A 
ATOM      2  C   UNL     1       1.597  -0.889   0.717  0.00  0.00    +0.037 A 
ATOM      3  C   UNL     1       2.886  -0.691   0.309  0.00  0.00    -0.001 A 
ATOM      4  C   UNL     1       3.196  -0.250  -0.954  0.00  0.00    -0.013 A 
ATOM      5  C   UNL     1       2.195  -0.174  -1.885  0.00  0.00    -0.001 A 
ATOM      6  C   UNL     1       0.881  -0.315  -1.454  0.00  0.00    +0.037 A 
ENDROOT
BRANCH   1   7
ATOM      7  O   UNL     1      -0.708  -0.595   0.371  0.00  0.00    -0.473 OA
BRANCH   7   8
ATOM      8  C   UNL     1      -1.673  -1.434  -0.200  0.00  0.00    +0.240 C 
BRANCH   8   9
ATOM      9  C   UNL     1      -3.001  -1.031   0.695  0.00  0.00    +0.213 C 
ATOM     10  O   UNL     1      -3.942  -1.338  -0.462  0.00  0.00    -0.218 OA
BRANCH   9  11
ATOM     11  C   UNL     1      -2.888   0.558   0.259  0.00  0.00    +0.125 C 
BRANCH  11  12
ATOM     12  N   UNL     1      -3.836   1.188   1.172  0.00  0.00    -0.217 NA
BRANCH  12  14
ATOM     13  C   UNL     1      -4.816   1.275  -0.184  0.00  0.00    +0.019 C 
ATOM     14  C   UNL     1      -5.020   1.352   0.312  0.00  0.00    +0.073 C 
ATOM     15  C   UNL     1      -6.227   0.753   1.034  0.00  0.00    +0.019 C 
ENDBRANCH  12  14
ENDBRANCH  11  12
ENDBRANCH   9  11
ENDBRANCH   8   9
ENDBRANCH   7   8
ENDBRANCH   1   7
BRANCH   4  16
ATOM     16  C   UNL     1       4.482   0.484  -1.139  0.00  0.00    +0.115 C 
BRANCH  16  17
ATOM     17  C   UNL     1       5.286   0.469   0.099  0.00  0.00    +0.265 C 
ATOM     18  O   UNL     1       5.422  -0.641   0.686  0.00  0.00    -0.271 OA
ATOM     19  N   UNL     1       5.590   1.716   0.723  0.00  0.00    -0.087 NA
ENDBRANCH  16  17
ENDBRANCH   4  16
TORSDOF 8
