REMARK  Name = 
REMARK  7 active torsions:
REMARK  status: ('A' for Active; 'I' for Inactive)
REMARK    1  A    between atoms: C_2  and  N_3
REMARK    2  A    between atoms: N_3  and  C_4
REMARK    3  A    between atoms: N_3  and  C_6
REMARK    4  A    between atoms: C_9  and  C_10
REMARK    5  A    between atoms: C_10  and  C_11
REMARK    6  A    between atoms: N_21  and  C_22
REMARK    7  A    between atoms: N_21  and  C_24
REMARK                            x       y       z     vdW  Elec       q    Type
REMARK                         _______ _______ _______ _____ _____    ______ ____
ROOT
ATOM      1  C   UNL     1      -0.297  -1.247  -0.273  0.00  0.00    +0.000 C 
ATOM      2  C   UNL     1      -1.284  -0.421  -0.520  0.00  0.00    +0.000 C 
ATOM      3  C   UNL     1      -1.032   1.018  -0.669  0.00  0.00    +0.006 C 
ATOM      4  C   UNL     1      -1.918   1.911  -0.226  0.00  0.00    +0.069 C 
ATOM      5  C   UNL     1      -3.282   1.487   0.086  0.00  0.00    +0.221 C 
ATOM      6  N   UNL     1      -4.159   2.350   0.486  0.00  0.00    -0.189 N 
ATOM      7  C   UNL     1      -3.638   0.097  -0.100  0.00  0.00    +0.069 C 
ATOM      8  C   UNL     1      -2.697  -0.775  -0.376  0.00  0.00    +0.006 C 
ENDROOT
BRANCH   1   9
ATOM      9  C   UNL     1      -0.513  -2.638   0.055  0.00  0.00    +0.000 A 
ATOM     10  C   UNL     1       0.562  -3.483   0.302  0.00  0.00    +0.000 A 
ATOM     11  C   UNL     1       0.433  -4.864   0.218  0.00  0.00    +0.000 A 
ATOM     12  C   UNL     1      -0.716  -5.421  -0.284  0.00  0.00    +0.000 A 
ATOM     13  C   UNL     1      -1.782  -4.596  -0.529  0.00  0.00    +0.000 A 
ATOM     14  C   UNL     1      -1.734  -3.285  -0.069  0.00  0.00    +0.000 A 
ENDBRANCH   1   9
BRANCH   1  18
ATOM     15  C   UNL     1       3.556   0.498  -0.385  0.00  0.00    +0.048 A 
ATOM     16  C   UNL     1       2.560   0.948  -1.225  0.00  0.00    +0.015 A 
ATOM     17  C   UNL     1       1.438   0.148  -1.409  0.00  0.00    +0.001 A 
ATOM     18  C   UNL     1       1.067  -0.772  -0.443  0.00  0.00    +0.000 A 
ATOM     19  C   UNL     1       2.084  -1.156   0.423  0.00  0.00    +0.001 A 
ATOM     20  C   UNL     1       3.394  -0.731   0.237  0.00  0.00    +0.015 A 
BRANCH  15  21
ATOM     21  N   UNL     1       4.706   1.302  -0.240  0.00  0.00    -0.307 N 
BRANCH  21  23
ATOM     22  C   UNL     1       5.836   3.481  -0.154  0.00  0.00    +0.023 C 
ATOM     23  C   UNL     1       4.508   2.745  -0.146  0.00  0.00    +0.091 C 
ENDBRANCH  21  23
BRANCH  21  24
ATOM     24  C   UNL     1       6.028   0.710  -0.062  0.00  0.00    +0.091 C 
ATOM     25  C   UNL     1       5.969  -0.130   1.202  0.00  0.00    +0.023 C 
ENDBRANCH  21  24
ENDBRANCH  15  21
ENDBRANCH   1  18
BRANCH   6  26
ATOM     26  C   UNL     1      -5.549   2.054   0.150  0.00  0.00    +0.317 C 
ATOM     27  C   UNL     1      -6.438   2.732   1.172  0.00  0.00    +0.092 C 
ENDBRANCH   6  26
BRANCH   6  28
ATOM     28  C   UNL     1      -3.789   3.759   0.567  0.00  0.00    +0.317 C 
ATOM     29  C   UNL     1      -3.310   4.281  -0.760  0.00  0.00    +0.092 C 
ENDBRANCH   6  28
TORSDOF 7
