REMARK  Name = 
REMARK  2 active torsions:
REMARK  status: ('A' for Active; 'I' for Inactive)
REMARK    1  A    between atoms: C_19  and  C_20
REMARK    2  A    between atoms: C_25  and  N_26
REMARK                            x       y       z     vdW  Elec       q    Type
REMARK                         _______ _______ _______ _____ _____    ______ ____
ROOT
ATOM      1  C   UNL     1       2.299   2.111  -2.146  0.00  0.00    +0.005 C 
ATOM      2  C   UNL     1       2.175   0.556  -1.644  0.00  0.00    +0.029 C 
ATOM      3  C   UNL     1       1.173   0.994  -0.340  0.00  0.00    +0.063 C 
ATOM      4  C   UNL     1       1.178  -0.445   0.313  0.00  0.00    +0.057 C 
ATOM      5  C   UNL     1       0.115  -0.694   1.024  0.00  0.00    +0.207 C 
ATOM      6  C   UNL     1      -1.267  -0.233   0.770  0.00  0.00    +0.239 C 
ATOM      7  C   UNL     1      -1.198   1.207   0.084  0.00  0.00    +0.095 C 
ATOM      8  C   UNL     1      -2.606   1.175  -0.887  0.00  0.00    +0.126 C 
ATOM      9  C   UNL     1      -3.560   0.323   0.121  0.00  0.00    +0.195 C 
ATOM     10  O   UNL     1      -4.913   0.682  -0.042  0.00  0.00    -0.290 OA
ATOM     11  C   UNL     1      -3.381  -0.966  -0.209  0.00  0.00    +0.133 C 
ATOM     12  C   UNL     1      -1.942  -1.222  -0.037  0.00  0.00    +0.215 C 
ATOM     13  O   UNL     1      -1.560  -2.429   0.054  0.00  0.00    -0.288 OA
ATOM     14  O   UNL     1      -1.802  -0.004   2.033  0.00  0.00    -0.210 OA
ATOM     15  O   UNL     1       0.238  -1.729   1.959  0.00  0.00    -0.289 OA
ATOM     16  C   UNL     1       2.424  -1.162   0.403  0.00  0.00    +0.197 C 
ATOM     17  O   UNL     1       2.478  -2.218   1.055  0.00  0.00    -0.287 OA
ATOM     18  C   UNL     1       3.667  -0.611  -0.154  0.00  0.00    +0.074 A 
ATOM     19  C   UNL     1       4.896  -0.851   0.428  0.00  0.00    +0.198 A 
ATOM     20  O   UNL     1       4.955  -1.859   1.393  0.00  0.00    -0.286 OA
ATOM     21  C   UNL     1       5.930   0.072   0.315  0.00  0.00    +0.042 A 
ATOM     22  C   UNL     1       5.747   1.210  -0.463  0.00  0.00    +0.003 A 
ATOM     23  C   UNL     1       4.610   1.208  -1.266  0.00  0.00    -0.004 A 
ATOM     24  C   UNL     1      -0.248   0.603  -1.206  0.00  0.00    +0.161 C 
ATOM     25  O   UNL     1      -0.199   1.926  -1.936  0.00  0.00    -0.223 OA
ATOM     26  C   UNL     1       3.491   0.647  -0.728  0.00  0.00    -0.016 A 
ENDROOT
BRANCH   8  27
ATOM     27  N   UNL     1      -3.141   2.560  -0.335  0.00  0.00    -0.265 NA
ATOM     28  C   UNL     1      -2.141   3.548  -0.518  0.00  0.00    +0.090 C 
ATOM     29  C   UNL     1      -3.364   2.439   1.059  0.00  0.00    +0.090 C 
ENDBRANCH   8  27
BRANCH  11  30
ATOM     30  C   UNL     1      -4.411  -1.993  -0.009  0.00  0.00    +0.302 C 
ATOM     31  O   UNL     1      -4.104  -3.285   0.425  0.00  0.00    -0.263 OA
ATOM     32  N   UNL     1      -5.536  -1.562   0.483  0.00  0.00    -0.102 NA
ENDBRANCH  11  30
TORSDOF 2
