REMARK  Name = 
REMARK  5 active torsions:
REMARK  status: ('A' for Active; 'I' for Inactive)
REMARK    1  A    between atoms: NE_4  and  CD_5
REMARK    2  A    between atoms: CD_5  and  CG_6
REMARK    3  A    between atoms: CG_6  and  CB_7
REMARK    4  A    between atoms: CB_7  and  CA_8
REMARK    5  A    between atoms: CA_8  and  C_10
REMARK                            x       y       z     vdW  Elec       q    Type
REMARK                         _______ _______ _______ _____ _____    ______ ____
ROOT
ATOM      1  CG  ARG A   1       0.371   0.389  -0.262  0.00  0.00    +0.049 C 
ENDROOT
BRANCH   1   2
ATOM      2  CD  ARG A   1       1.288  -0.457  -1.126  0.00  0.00    +0.220 C 
BRANCH   2   5
ATOM      3  NH1 ARG A   1       3.283   1.142  -0.293  0.00  0.00    +0.135 NA
ATOM      4  CZ  ARG A   1       3.276   0.184   0.211  0.00  0.00    +0.535 C 
ATOM      5  NE  ARG A   1       2.412  -0.812  -0.308  0.00  0.00    -0.087 NA
ATOM      6  NH2 ARG A   1       3.937  -0.001   1.469  0.00  0.00    +0.135 NA
ENDBRANCH   2   5
ENDBRANCH   1   2
BRANCH   1   7
ATOM      7  CB  ARG A   1      -1.001   0.426  -0.895  0.00  0.00    +0.034 C 
BRANCH   7   8
ATOM      8  CA  ARG A   1      -1.750  -0.819  -0.081  0.00  0.00    +0.194 C 
ATOM      9  N   ARG A   1      -2.673  -1.153  -1.335  0.00  0.00    -0.121 NA
BRANCH   8  10
ATOM     10  C   ARG A   1      -2.906   0.113   0.587  0.00  0.00    +0.382 C 
ATOM     11  OXT ARG A   1      -3.121  -0.227   1.924  0.00  0.00    -0.244 OA
ATOM     12  O   ARG A   1      -3.115   1.216   0.109  0.00  0.00    -0.244 OA
ENDBRANCH   8  10
ENDBRANCH   7   8
ENDBRANCH   1   7
TORSDOF 5
