REMARK  Name = 
REMARK  14 active torsions:
REMARK  status: ('A' for Active; 'I' for Inactive)
REMARK    1  A    between atoms: N_14  and  C_15
REMARK    2  A    between atoms: C_15  and  C_16
REMARK    3  A    between atoms: C_16  and  C_17
REMARK    4  A    between atoms: C_17  and  C_18
REMARK    5  A    between atoms: C_18  and  S_19
REMARK    6  A    between atoms: C_23  and  C_24
REMARK    7  A    between atoms: C_25  and  C_26
REMARK    8  A    between atoms: C_27  and  C_28
REMARK    9  A    between atoms: C_29  and  C_30
REMARK   10  A    between atoms: N_32  and  C_33
REMARK   11  A    between atoms: C_33  and  C_34
REMARK   12  A    between atoms: C_34  and  C_35
REMARK   13  A    between atoms: C_35  and  C_36
REMARK   14  A    between atoms: C_36  and  S_37
REMARK                            x       y       z     vdW  Elec       q    Type
REMARK                         _______ _______ _______ _____ _____    ______ ____
ROOT
ATOM      1  C   UNL     1      -0.032   1.037   1.524  0.00  0.00    +0.000 C 
ATOM      2  C   UNL     1      -0.788   0.224   0.822  0.00  0.00    +0.000 C 
ENDROOT
BRANCH   1   4
ATOM      3  C   UNL     1       1.819   0.873  -0.025  0.00  0.00    +0.065 C 
ATOM      4  C   UNL     1       1.376   1.117   1.193  0.00  0.00    +0.006 C 
BRANCH   3   7
ATOM      5  C   UNL     1       4.038  -0.362   2.085  0.00  0.00    +0.015 C 
ATOM      6  C   UNL     1       3.733  -0.758   0.660  0.00  0.00    +0.102 C 
ATOM      7  C   UNL     1       3.189   0.357  -0.141  0.00  0.00    +0.206 C 
ATOM      8  N   UNL     1       3.953   0.627  -1.149  0.00  0.00    -0.173 N 
ATOM      9  C   UNL     1       4.865  -0.466  -1.295  0.00  0.00    +0.222 A 
ATOM     10  C   UNL     1       5.815  -0.743  -2.267  0.00  0.00    +0.069 A 
ATOM     11  C   UNL     1       6.929  -1.487  -1.900  0.00  0.00    +0.006 A 
ATOM     12  C   UNL     1       7.183  -1.802  -0.572  0.00  0.00    +0.000 A 
ATOM     13  C   UNL     1       6.105  -1.816   0.303  0.00  0.00    +0.002 A 
ATOM     14  C   UNL     1       6.394  -2.057   1.641  0.00  0.00    -0.000 A 
ATOM     15  C   UNL     1       7.678  -1.916   2.152  0.00  0.00    -0.000 A 
ATOM     16  C   UNL     1       8.738  -1.705   1.279  0.00  0.00    -0.000 A 
ATOM     17  C   UNL     1       8.477  -1.886  -0.073  0.00  0.00    -0.000 A 
ATOM     18  C   UNL     1       4.957  -1.149  -0.090  0.00  0.00    +0.050 A 
ATOM     19  C   UNL     1       2.830  -1.958   0.702  0.00  0.00    +0.015 C 
BRANCH   8  20
ATOM     20  C   UNL     1       3.942   1.894  -1.874  0.00  0.00    +0.322 C 
BRANCH  20  21
ATOM     21  C   UNL     1       5.310   2.545  -1.793  0.00  0.00    +0.087 C 
BRANCH  21  22
ATOM     22  C   UNL     1       5.539   3.239  -0.478  0.00  0.00    +0.030 C 
BRANCH  22  23
ATOM     23  C   UNL     1       6.377   2.438   0.479  0.00  0.00    +0.126 C 
BRANCH  23  24
ATOM     24  S   UNL     1       7.979   2.057  -0.173  0.00  0.00    -0.107 S 
ATOM     25  O   UNL     1       8.671   3.481  -0.746  0.00  0.00    -0.291 OA
ATOM     26  O   UNL     1       7.910   1.037  -1.266  0.00  0.00    -0.371 OA
ATOM     27  O   UNL     1       8.815   1.482   0.942  0.00  0.00    -0.371 OA
ENDBRANCH  23  24
ENDBRANCH  22  23
ENDBRANCH  21  22
ENDBRANCH  20  21
ENDBRANCH   8  20
ENDBRANCH   3   7
ENDBRANCH   1   4
BRANCH   2  28
ATOM     28  C   UNL     1      -0.445  -0.230  -0.524  0.00  0.00    +0.000 C 
ATOM     29  C   UNL     1      -1.466  -0.540  -1.324  0.00  0.00    +0.001 C 
BRANCH  29  30
ATOM     30  C   UNL     1      -2.684   0.256  -1.125  0.00  0.00    +0.011 C 
ATOM     31  C   UNL     1      -3.690  -0.274  -0.431  0.00  0.00    +0.032 C 
ATOM     32  C   UNL     1      -4.152  -1.666  -0.657  0.00  0.00    +0.052 C 
ATOM     33  C   UNL     1      -4.567  -1.885  -2.106  0.00  0.00    +0.010 C 
ATOM     34  C   UNL     1      -3.154  -2.695  -0.203  0.00  0.00    +0.010 C 
ATOM     35  C   UNL     1      -5.361  -1.724   0.217  0.00  0.00    -0.004 A 
ATOM     36  C   UNL     1      -5.361  -0.648   1.095  0.00  0.00    +0.048 A 
ATOM     37  C   UNL     1      -6.040  -0.753   2.289  0.00  0.00    +0.015 A 
ATOM     38  C   UNL     1      -7.221  -1.486   2.311  0.00  0.00    +0.001 A 
ATOM     39  C   UNL     1      -7.416  -2.401   1.301  0.00  0.00    -0.000 A 
ATOM     40  C   UNL     1      -8.458  -3.302   1.466  0.00  0.00    -0.000 A 
ATOM     41  C   UNL     1      -8.465  -4.470   0.717  0.00  0.00    -0.000 A 
ATOM     42  C   UNL     1      -7.607  -4.505  -0.374  0.00  0.00    -0.000 A 
ATOM     43  C   UNL     1      -6.633  -3.555  -0.589  0.00  0.00    -0.000 A 
ATOM     44  C   UNL     1      -6.386  -2.643   0.401  0.00  0.00    -0.002 A 
ATOM     45  N   UNL     1      -4.548   0.378   0.512  0.00  0.00    -0.290 N 
BRANCH  45  46
ATOM     46  C   UNL     1      -4.440   1.759   0.967  0.00  0.00    +0.095 C 
BRANCH  46  47
ATOM     47  C   UNL     1      -5.237   1.909   2.235  0.00  0.00    +0.024 C 
BRANCH  47  48
ATOM     48  C   UNL     1      -6.432   2.787   1.908  0.00  0.00    +0.025 C 
BRANCH  48  49
ATOM     49  C   UNL     1      -6.704   2.741   0.430  0.00  0.00    +0.126 C 
BRANCH  49  50
ATOM     50  S   UNL     1      -6.422   4.323  -0.336  0.00  0.00    -0.107 S 
ATOM     51  O   UNL     1      -4.807   4.771  -0.187  0.00  0.00    -0.291 OA
ATOM     52  O   UNL     1      -6.792   4.237  -1.780  0.00  0.00    -0.371 OA
ATOM     53  O   UNL     1      -7.314   5.314   0.374  0.00  0.00    -0.371 OA
ENDBRANCH  49  50
ENDBRANCH  48  49
ENDBRANCH  47  48
ENDBRANCH  46  47
ENDBRANCH  45  46
ENDBRANCH  29  30
ENDBRANCH   2  28
TORSDOF 14
