REMARK  Name = 
REMARK  4 active torsions:
REMARK  status: ('A' for Active; 'I' for Inactive)
REMARK    1  A    between atoms: C_2  and  C_3
REMARK    2  A    between atoms: C_2  and  C_21
REMARK    3  A    between atoms: C_5  and  C_6
REMARK    4  A    between atoms: C_16  and  C_17
REMARK                            x       y       z     vdW  Elec       q    Type
REMARK                         _______ _______ _______ _____ _____    ______ ____
ROOT
ATOM      1  C   UNL     1       0.761   0.093   0.226  0.00  0.00    +0.012 A 
ATOM      2  C   UNL     1      -0.170  -0.876  -0.082  0.00  0.00    +0.016 A 
ATOM      3  C   UNL     1       0.241  -2.135  -0.420  0.00  0.00    +0.001 A 
ATOM      4  C   UNL     1      -0.706  -2.982  -0.972  0.00  0.00    +0.000 A 
ATOM      5  C   UNL     1      -2.048  -2.712  -0.730  0.00  0.00    +0.005 A 
ATOM      6  C   UNL     1      -2.454  -1.518  -0.190  0.00  0.00    +0.089 A 
ATOM      7  C   UNL     1      -1.504  -0.510  -0.078  0.00  0.00    +0.085 A 
ATOM      8  N   UNL     1      -1.835   0.791  -0.069  0.00  0.00    -0.241 NA
ATOM      9  C   UNL     1      -0.846   1.708  -0.195  0.00  0.00    +0.152 A 
ATOM     10  C   UNL     1       0.420   1.382   0.289  0.00  0.00    +0.021 A 
ENDROOT
BRANCH   6  11
ATOM     11  C   UNL     1      -3.822  -1.232   0.286  0.00  0.00    +0.420 C 
ATOM     12  F   UNL     1      -4.385  -0.204  -0.433  0.00  0.00    -0.166 F 
ATOM     13  F   UNL     1      -3.807  -0.970   1.653  0.00  0.00    -0.166 F 
ATOM     14  F   UNL     1      -4.539  -2.417   0.143  0.00  0.00    -0.166 F 
ENDBRANCH   6  11
BRANCH   9  15
ATOM     15  C   UNL     1      -1.186   3.057  -0.670  0.00  0.00    +0.435 C 
ATOM     16  F   UNL     1      -0.054   3.828  -0.839  0.00  0.00    -0.164 F 
ATOM     17  F   UNL     1      -2.100   3.697   0.143  0.00  0.00    -0.164 F 
ATOM     18  F   UNL     1      -1.775   2.950  -1.926  0.00  0.00    -0.164 F 
ENDBRANCH   9  15
BRANCH   1  20
ATOM     19  O   UNL     1       1.721   0.542   2.309  0.00  0.00    -0.217 OA
ATOM     20  C   UNL     1       1.982  -0.462   1.165  0.00  0.00    +0.190 C 
BRANCH  20  21
ATOM     21  C   UNL     1       3.141   0.626   0.415  0.00  0.00    +0.107 C 
ATOM     22  N   UNL     1       3.394  -0.388  -0.770  0.00  0.00    -0.217 NA
ATOM     23  C   UNL     1       4.763  -0.048  -1.161  0.00  0.00    +0.089 C 
ATOM     24  C   UNL     1       5.635  -1.018  -0.366  0.00  0.00    +0.019 C 
ATOM     25  C   UNL     1       4.818  -1.256   0.906  0.00  0.00    +0.003 C 
ATOM     26  C   UNL     1       4.353   0.052   1.364  0.00  0.00    +0.020 C 
ENDBRANCH  20  21
ENDBRANCH   1  20
TORSDOF 4
