REMARK  Name = 
REMARK  5 active torsions:
REMARK  status: ('A' for Active; 'I' for Inactive)
REMARK    1  A    between atoms: C_2  and  C_3
REMARK    2  A    between atoms: C_2  and  C_11
REMARK    3  A    between atoms: C_2  and  C_17
REMARK    4  A    between atoms: C_3  and  C_4
REMARK    5  A    between atoms: C_4  and  N_5
REMARK                            x       y       z     vdW  Elec       q    Type
REMARK                         _______ _______ _______ _____ _____    ______ ____
ROOT
ATOM      1  O   UNL     1      -0.199   0.580  -1.678  0.00  0.00    -0.221 OA
ATOM      2  C   UNL     1      -0.726   0.170  -0.472  0.00  0.00    +0.147 C 
ENDROOT
BRANCH   2   3
ATOM      3  C   UNL     1      -1.643  -0.969  -0.678  0.00  0.00    +0.032 C 
ATOM      4  C   UNL     1      -2.577  -1.289   0.428  0.00  0.00    +0.003 C 
ATOM      5  C   UNL     1      -3.209  -2.640   0.117  0.00  0.00    +0.000 C 
ATOM      6  C   UNL     1      -3.986  -2.572  -1.171  0.00  0.00    +0.000 C 
ATOM      7  C   UNL     1      -3.668  -1.347  -1.984  0.00  0.00    +0.000 C 
ATOM      8  C   UNL     1      -2.164  -1.165  -2.055  0.00  0.00    +0.003 C 
ENDBRANCH   2   3
BRANCH   2   9
ATOM      9  C   UNL     1      -1.307   1.341   0.209  0.00  0.00    +0.005 A 
ATOM     10  C   UNL     1      -0.892   2.623  -0.131  0.00  0.00    -0.002 A 
ATOM     11  C   UNL     1      -0.667   3.606   0.822  0.00  0.00    -0.000 A 
ATOM     12  C   UNL     1      -1.156   3.389   2.104  0.00  0.00    -0.000 A 
ATOM     13  C   UNL     1      -1.885   2.241   2.389  0.00  0.00    -0.000 A 
ATOM     14  C   UNL     1      -1.689   1.171   1.534  0.00  0.00    -0.002 A 
ENDBRANCH   2   9
BRANCH   2  15
ATOM     15  C   UNL     1       0.428  -0.315   0.395  0.00  0.00    +0.052 C 
BRANCH  15  16
ATOM     16  C   UNL     1       1.375  -1.050  -0.537  0.00  0.00    +0.075 C 
BRANCH  16  17
ATOM     17  N   UNL     1       2.700  -0.878   0.030  0.00  0.00    -0.273 NA
ATOM     18  C   UNL     1       3.547  -1.975  -0.348  0.00  0.00    +0.072 C 
ATOM     19  C   UNL     1       4.976  -1.524  -0.228  0.00  0.00    +0.017 C 
ATOM     20  C   UNL     1       5.160  -0.530   0.900  0.00  0.00    +0.003 C 
ATOM     21  C   UNL     1       4.348   0.717   0.664  0.00  0.00    +0.017 C 
ATOM     22  C   UNL     1       3.234   0.416  -0.309  0.00  0.00    +0.072 C 
ENDBRANCH  16  17
ENDBRANCH  15  16
ENDBRANCH   2  15
TORSDOF 5
