REMARK  Name = 
REMARK  5 active torsions:
REMARK  status: ('A' for Active; 'I' for Inactive)
REMARK    1  A    between atoms: C_2  and  C_4
REMARK    2  A    between atoms: C_4  and  C_5
REMARK    3  A    between atoms: C_16  and  N_17
REMARK    4  A    between atoms: C_16  and  C_38
REMARK    5  A    between atoms: C_18  and  C_20
REMARK                            x       y       z     vdW  Elec       q    Type
REMARK                         _______ _______ _______ _____ _____    ______ ____
ROOT
ATOM      1  C   UNL     1       5.342   0.753  -0.339  0.00  0.00    +0.156 C 
ATOM      2  N   UNL     1       3.805   0.499  -0.434  0.00  0.00    -0.225 N 
ATOM      3  C   UNL     1       3.209  -0.645   0.074  0.00  0.00    +0.307 C 
ATOM      4  O   UNL     1       1.919  -0.575  -0.257  0.00  0.00    -0.294 OA
ATOM      5  C   UNL     1       1.645   0.568  -0.974  0.00  0.00    +0.243 C 
ATOM      6  O   UNL     1       3.546  -1.071   1.310  0.00  0.00    -0.172 OA
ATOM      7  C   UNL     1       3.694  -1.743  -1.043  0.00  0.00    +0.149 C 
ATOM      8  N   UNL     1       5.119  -1.840  -0.405  0.00  0.00    -0.273 N 
ATOM      9  C   UNL     1       5.330  -3.253  -0.493  0.00  0.00    +0.094 C 
ATOM     10  C   UNL     1       4.175  -3.677   0.404  0.00  0.00    +0.023 C 
ATOM     11  C   UNL     1       3.033  -2.967  -0.177  0.00  0.00    +0.029 C 
ATOM     12  C   UNL     1       2.751   1.462  -0.541  0.00  0.00    +0.274 C 
ATOM     13  O   UNL     1       2.866   2.711  -0.716  0.00  0.00    -0.270 OA
ATOM     14  C   UNL     1       5.741  -0.742   0.117  0.00  0.00    +0.244 C 
ATOM     15  O   UNL     1       7.011  -0.778   0.154  0.00  0.00    -0.273 OA
ENDROOT
BRANCH   5  16
ATOM     16  C   UNL     1       1.817   0.384  -2.469  0.00  0.00    +0.053 C 
ATOM     17  C   UNL     1       2.263   1.742  -2.999  0.00  0.00    +0.005 C 
ATOM     18  C   UNL     1       0.476   0.110  -3.123  0.00  0.00    +0.005 C 
ENDBRANCH   5  16
BRANCH   5  19
ATOM     19  N   UNL     1       0.332   0.977  -0.610  0.00  0.00    -0.173 NA
ATOM     20  C   UNL     1      -0.520  -0.128  -0.266  0.00  0.00    +0.249 C 
ATOM     21  O   UNL     1      -0.235  -0.723   0.754  0.00  0.00    -0.273 OA
BRANCH  20  22
ATOM     22  C   UNL     1      -2.023  -0.035  -0.794  0.00  0.00    +0.116 C 
ATOM     23  C   UNL     1      -2.453  -1.505  -0.222  0.00  0.00    +0.086 C 
ATOM     24  N   UNL     1      -2.618  -1.502   1.139  0.00  0.00    -0.268 NA
ATOM     25  C   UNL     1      -2.656  -2.807   1.683  0.00  0.00    +0.090 C 
ATOM     26  C   UNL     1      -4.016  -0.920   1.564  0.00  0.00    +0.084 C 
ATOM     27  C   UNL     1      -3.657   0.546   1.005  0.00  0.00    -0.011 C 
ATOM     28  C   UNL     1      -4.883   1.344   0.899  0.00  0.00    -0.002 A 
ATOM     29  C   UNL     1      -6.122   0.753   0.652  0.00  0.00    +0.015 A 
ATOM     30  C   UNL     1      -7.016   1.412  -0.189  0.00  0.00    +0.082 A 
ATOM     31  N   UNL     1      -7.755   0.456  -0.768  0.00  0.00    -0.239 NA
ATOM     32  C   UNL     1      -7.208  -0.763  -0.530  0.00  0.00    +0.111 A 
ATOM     33 BR   UNL     1      -8.052  -2.464  -0.704  0.00  0.00    -0.028 Br
ATOM     34  C   UNL     1      -6.862   2.787  -0.324  0.00  0.00    +0.019 A 
ATOM     35  C   UNL     1      -5.731   3.432   0.165  0.00  0.00    +0.002 A 
ATOM     36  C   UNL     1      -6.046  -0.563   0.204  0.00  0.00    +0.005 A 
ATOM     37  C   UNL     1      -4.667   2.701   0.685  0.00  0.00    -0.000 A 
ATOM     38  C   UNL     1      -4.764  -1.333   0.157  0.00  0.00    +0.049 C 
ATOM     39  C   UNL     1      -2.512   0.781   0.511  0.00  0.00    -0.019 C 
ENDBRANCH  20  22
ENDBRANCH   5  19
BRANCH   1  40
ATOM     40  C   UNL     1       5.202   1.243   1.231  0.00  0.00    +0.029 C 
BRANCH  40  42
ATOM     41  C   UNL     1       7.086   2.567   0.977  0.00  0.00    +0.000 C 
ATOM     42  C   UNL     1       6.659   1.395   1.597  0.00  0.00    +0.002 C 
ATOM     43  C   UNL     1       6.775   1.413   3.098  0.00  0.00    +0.000 C 
ENDBRANCH  40  42
ENDBRANCH   1  40
TORSDOF 5
