REMARK  Name = 
REMARK  3 active torsions:
REMARK  status: ('A' for Active; 'I' for Inactive)
REMARK    1  A    between atoms: C_4  and  O_6
REMARK    2  A    between atoms: O_6  and  C_7
REMARK    3  A    between atoms: C_11  and  N_12
REMARK                            x       y       z     vdW  Elec       q    Type
REMARK                         _______ _______ _______ _____ _____    ______ ____
ROOT
ATOM      1  C   UNL     1       0.249   0.246   0.675  0.00  0.00    +0.156 A 
ATOM      2  C   UNL     1      -0.945   0.821   0.254  0.00  0.00    +0.101 A 
ATOM      3  C   UNL     1      -2.026   0.026  -0.106  0.00  0.00    +0.169 A 
ATOM      4  C   UNL     1      -1.863  -1.349  -0.222  0.00  0.00    +0.063 A 
ATOM      5  C   UNL     1      -0.753  -1.894   0.367  0.00  0.00    +0.009 A 
ATOM      6  C   UNL     1       0.153  -1.098   1.019  0.00  0.00    +0.038 A 
ENDROOT
BRANCH   3   7
ATOM      7  N   UNL     1      -3.257   0.562  -0.573  0.00  0.00    -0.310 NA
ATOM      8  C   UNL     1      -4.296  -0.429  -0.305  0.00  0.00    +0.335 C 
ATOM      9  C   UNL     1      -3.182   0.855  -2.000  0.00  0.00    +0.335 C 
ATOM     10  C   UNL     1      -3.615   1.788   0.105  0.00  0.00    +0.335 C 
ENDBRANCH   3   7
BRANCH   1  11
ATOM     11  O   UNL     1       1.457   0.913   0.630  0.00  0.00    -0.410 OA
BRANCH  11  14
ATOM     12  C   UNL     1       4.337  -0.639   1.154  0.00  0.00    +0.118 C 
ATOM     13  N   UNL     1       3.896   0.561   0.447  0.00  0.00    -0.242 N 
ATOM     14  C   UNL     1       2.563   0.496  -0.077  0.00  0.00    +0.410 C 
ATOM     15  O   UNL     1       2.389  -0.420  -0.940  0.00  0.00    -0.226 OA
ATOM     16  C   UNL     1       4.894   1.171  -0.429  0.00  0.00    +0.118 C 
ENDBRANCH  11  14
ENDBRANCH   1  11
TORSDOF 3
