REMARK  Name = 
REMARK  4 active torsions:
REMARK  status: ('A' for Active; 'I' for Inactive)
REMARK    1  A    between atoms: C_2  and  C_4
REMARK    2  A    between atoms: C_4  and  C_5
REMARK    3  A    between atoms: C_5  and  C_6
REMARK    4  A    between atoms: C_6  and  C_7
REMARK                            x       y       z     vdW  Elec       q    Type
REMARK                         _______ _______ _______ _____ _____    ______ ____
ROOT
ATOM      1  C   UNL     1       0.205   0.813  -0.177  0.00  0.00    +0.027 C 
ENDROOT
BRANCH   1   2
ATOM      2  C   UNL     1      -1.194   0.308  -0.083  0.00  0.00    -0.022 A 
ATOM      3  C   UNL     1      -1.603  -0.136   1.165  0.00  0.00    -0.004 A 
ATOM      4  C   UNL     1      -2.971  -0.344   1.297  0.00  0.00    -0.000 A 
ATOM      5  C   UNL     1      -3.866   0.152   0.361  0.00  0.00    -0.000 A 
ATOM      6  C   UNL     1      -3.386   0.395  -0.916  0.00  0.00    -0.000 A 
ATOM      7  C   UNL     1      -2.042   0.306  -1.184  0.00  0.00    -0.004 A 
ENDBRANCH   1   2
BRANCH   1   8
ATOM      8  C   UNL     1       1.104  -0.407  -0.151  0.00  0.00    +0.016 C 
BRANCH   8   9
ATOM      9  C   UNL     1       2.247  -0.111   0.813  0.00  0.00    +0.114 C 
BRANCH   9  11
ATOM     10  O   UNL     1       3.564   0.492  -1.017  0.00  0.00    -0.246 OA
ATOM     11  C   UNL     1       3.499  -0.246   0.011  0.00  0.00    +0.365 C 
ATOM     12  O   UNL     1       4.445  -1.221   0.232  0.00  0.00    -0.246 OA
ENDBRANCH   9  11
ENDBRANCH   8   9
ENDBRANCH   1   8
TORSDOF 4
