REMARK  Name = 
REMARK  9 active torsions:
REMARK  status: ('A' for Active; 'I' for Inactive)
REMARK    1  A    between atoms: C_2  and  C_4
REMARK    2  A    between atoms: C_4  and  C_6
REMARK    3  A    between atoms: C_6  and  O_8
REMARK    4  A    between atoms: O_8  and  C_9
REMARK    5  A    between atoms: C_9  and  C_10
REMARK    6  A    between atoms: C_10  and  C_11
REMARK    7  A    between atoms: C_10  and  O_13
REMARK    8  A    between atoms: O_13  and  C_14
REMARK    9  A    between atoms: C_14  and  N_15
REMARK                            x       y       z     vdW  Elec       q    Type
REMARK                         _______ _______ _______ _____ _____    ______ ____
ROOT
ATOM      1  O   UNL     1      -0.257  -0.995   0.003  0.00  0.00    -0.328 OA
ENDROOT
BRANCH   1   2
ATOM      2  C   UNL     1      -0.750   0.000   0.698  0.00  0.00    +0.258 C 
BRANCH   2   3
ATOM      3  N   UNL     1      -1.827   0.786   0.233  0.00  0.00    -0.268 N 
ATOM      4  C   UNL     1      -3.020   0.322  -0.141  0.00  0.00    +0.172 A 
ATOM      5  N   UNL     1      -3.440  -0.948  -0.264  0.00  0.00    -0.192 NA
ATOM      6  C   UNL     1      -4.750  -1.252  -0.290  0.00  0.00    +0.261 A 
ATOM      7  N   UNL     1      -5.583  -0.246  -0.586  0.00  0.00    -0.171 NA
ATOM      8  C   UNL     1      -5.254   1.050  -0.475  0.00  0.00    +0.302 A 
ATOM      9  O   UNL     1      -6.098   1.937  -0.147  0.00  0.00    -0.263 OA
ATOM     10  N   UNL     1      -5.196  -2.590  -0.091  0.00  0.00    -0.086 NA
ATOM     11  C   UNL     1      -3.936   1.347  -0.199  0.00  0.00    +0.175 A 
ATOM     12  N   UNL     1      -3.266   2.419   0.265  0.00  0.00    -0.217 NA
ATOM     13  C   UNL     1      -2.019   2.081   0.586  0.00  0.00    +0.182 A 
ENDBRANCH   2   3
ENDBRANCH   1   2
BRANCH   1  14
ATOM     14  C   UNL     1       0.939  -0.600  -0.841  0.00  0.00    +0.194 C 
BRANCH  14  15
ATOM     15  C   UNL     1       1.201   0.826  -0.062  0.00  0.00    +0.215 C 
ATOM     16  O   UNL     1       1.573   0.602   1.213  0.00  0.00    -0.218 OA
ENDBRANCH  14  15
BRANCH  14  17
ATOM     17  C   UNL     1       1.982  -1.454   0.118  0.00  0.00    +0.241 C 
BRANCH  17  18
ATOM     18  O   UNL     1       3.265  -0.912  -0.212  0.00  0.00    -0.445 OA
BRANCH  18  19
ATOM     19  C   UNL     1       4.239  -0.873   0.713  0.00  0.00    +0.335 C 
ATOM     20  O   UNL     1       4.176  -1.485   1.823  0.00  0.00    -0.248 OA
BRANCH  19  21
ATOM     21  C   UNL     1       5.784  -0.773   0.268  0.00  0.00    +0.190 C 
ATOM     22  N   UNL     1       5.655  -1.946  -0.783  0.00  0.00    -0.121 NA
BRANCH  21  24
ATOM     23  C   UNL     1       6.263   0.805  -0.964  0.00  0.00    +0.002 C 
ATOM     24  C   UNL     1       5.506   0.376  -0.879  0.00  0.00    +0.029 C 
ATOM     25  C   UNL     1       4.811   1.522  -0.149  0.00  0.00    +0.002 C 
ENDBRANCH  21  24
ENDBRANCH  19  21
ENDBRANCH  18  19
ENDBRANCH  17  18
ENDBRANCH  14  17
ENDBRANCH   1  14
TORSDOF 9
