REMARK  Name = 
REMARK  12 active torsions:
REMARK  status: ('A' for Active; 'I' for Inactive)
REMARK    1  A    between atoms: C_2  and  C_3
REMARK    2  A    between atoms: C_3  and  C_4
REMARK    3  A    between atoms: C_4  and  C_5
REMARK    4  A    between atoms: C_5  and  C_6
REMARK    5  A    between atoms: C_6  and  N_7
REMARK    6  A    between atoms: C_6  and  C_20
REMARK    7  A    between atoms: N_7  and  C_8
REMARK    8  A    between atoms: C_8  and  C_9
REMARK    9  A    between atoms: C_8  and  C_17
REMARK   10  A    between atoms: C_9  and  C_10
REMARK   11  A    between atoms: C_10  and  C_11
REMARK   12  A    between atoms: CA_26  and  C_27
REMARK                            x       y       z     vdW  Elec       q    Type
REMARK                         _______ _______ _______ _____ _____    ______ ____
ROOT
ATOM      1  CA  UNL     1      -0.793   0.960   0.074  0.00  0.00    +0.149 C 
ENDROOT
BRANCH   1   2
ATOM      2  C   UNL     1      -2.281   0.328  -0.223  0.00  0.00    +0.242 C 
ATOM      3  N   UNL     1      -2.455  -0.745   0.725  0.00  0.00    -0.270 N 
ATOM      4  CA  UNL     1      -4.016  -1.052   0.930  0.00  0.00    +0.179 C 
ATOM      5  CB  UNL     1      -4.055  -1.964  -0.475  0.00  0.00    +0.033 C 
ATOM      6  CG  UNL     1      -2.901  -2.870  -0.238  0.00  0.00    +0.024 C 
ATOM      7  CD  UNL     1      -1.885  -2.038   0.475  0.00  0.00    +0.094 C 
ATOM      8  O   UNL     1      -2.499   0.046  -1.411  0.00  0.00    -0.273 OA
BRANCH   4   9
ATOM      9  C   UNL     1      -3.727  -2.361   1.888  0.00  0.00    +0.382 C 
ATOM     10  OXT UNL     1      -3.756  -1.881   3.205  0.00  0.00    -0.244 OA
ATOM     11  O   UNL     1      -4.590  -3.271   1.690  0.00  0.00    -0.244 OA
ENDBRANCH   4   9
ENDBRANCH   1   2
BRANCH   1  12
ATOM     12  N   UNL     1      -0.064  -0.207  -0.757  0.00  0.00    -0.200 NA
BRANCH  12  13
ATOM     13  CA  UNL     1       1.166   0.661  -1.308  0.00  0.00    +0.176 C 
BRANCH  13  14
ATOM     14  C   UNL     1       1.311  -0.301  -2.634  0.00  0.00    +0.380 C 
ATOM     15  OXT UNL     1       2.629  -0.458  -3.053  0.00  0.00    -0.244 OA
ATOM     16  O   UNL     1       0.547   0.243  -3.492  0.00  0.00    -0.244 OA
ENDBRANCH  13  14
BRANCH  13  17
ATOM     17  C   UNL     1       2.266  -0.261  -0.443  0.00  0.00    +0.034 C 
BRANCH  17  18
ATOM     18  C   UNL     1       3.441   0.713  -0.505  0.00  0.00    +0.028 C 
BRANCH  18  19
ATOM     19  C   UNL     1       4.454   0.273   0.505  0.00  0.00    -0.022 A 
ATOM     20  C   UNL     1       5.149  -0.891   0.210  0.00  0.00    -0.004 A 
ATOM     21  C   UNL     1       5.787  -1.636   1.190  0.00  0.00    -0.000 A 
ATOM     22  C   UNL     1       5.506  -1.335   2.512  0.00  0.00    -0.000 A 
ATOM     23  C   UNL     1       4.817  -0.185   2.823  0.00  0.00    -0.000 A 
ATOM     24  C   UNL     1       4.101   0.446   1.829  0.00  0.00    -0.004 A 
ENDBRANCH  18  19
ENDBRANCH  17  18
ENDBRANCH  13  17
ENDBRANCH  12  13
ENDBRANCH   1  12
BRANCH   1  25
ATOM     25  CB  UNL     1      -0.854   1.979  -1.256  0.00  0.00    +0.027 C 
BRANCH  25  26
ATOM     26  CG  UNL     1      -2.202   2.608  -1.210  0.00  0.00    +0.003 C 
BRANCH  26  27
ATOM     27  CD  UNL     1      -2.479   3.459  -0.020  0.00  0.00    +0.021 C 
BRANCH  27  29
ATOM     28  NZ  UNL     1      -0.977   5.046  -1.112  0.00  0.00    -0.131 NA
ATOM     29  CE  UNL     1      -1.640   4.695   0.081  0.00  0.00    +0.109 C 
ENDBRANCH  27  29
ENDBRANCH  26  27
ENDBRANCH  25  26
ENDBRANCH   1  25
TORSDOF 12
