REMARK  Name = 
REMARK  5 active torsions:
REMARK  status: ('A' for Active; 'I' for Inactive)
REMARK    1  A    between atoms: C_4  and  C_5
REMARK    2  A    between atoms: C_15  and  C_16
REMARK    3  A    between atoms: C_16  and  C_18
REMARK    4  A    between atoms: C_19  and  C_20
REMARK    5  A    between atoms: C_20  and  C_22
REMARK                            x       y       z     vdW  Elec       q    Type
REMARK                         _______ _______ _______ _____ _____    ______ ____
ROOT
ATOM      1  C   UNL     1       1.699   0.852  -0.014  0.00  0.00    -0.009 C 
ATOM      2  C   UNL     1       1.036  -0.057  -0.688  0.00  0.00    -0.045 C 
ATOM      3  C   UNL     1      -0.381   0.433  -1.263  0.00  0.00    +0.018 C 
ATOM      4  C   UNL     1      -0.849   1.029   0.180  0.00  0.00    +0.004 C 
ATOM      5  C   UNL     1      -1.999   0.253   0.553  0.00  0.00    +0.001 C 
ATOM      6  C   UNL     1      -2.482  -0.309  -0.892  0.00  0.00    +0.004 C 
ATOM      7  C   UNL     1      -1.057  -1.038  -1.018  0.00  0.00    +0.004 C 
ATOM      8  C   UNL     1      -0.626  -1.643   0.199  0.00  0.00    +0.000 C 
ATOM      9  C   UNL     1      -0.790  -1.594  -2.326  0.00  0.00    +0.001 C 
ATOM     10  C   UNL     1       0.672  -1.703  -2.534  0.00  0.00    +0.004 C 
ATOM     11  C   UNL     1       1.597  -1.011  -1.642  0.00  0.00    +0.022 C 
ENDROOT
BRANCH   1  21
ATOM     12  C   UNL     1       3.121   0.455   1.862  0.00  0.00    -0.002 C 
ATOM     13  C   UNL     1       3.998   0.635   1.318  0.00  0.00    +0.004 C 
ATOM     14  C   UNL     1       5.490   0.647   1.948  0.00  0.00    +0.176 C 
ATOM     15  O   UNL     1       5.143  -0.485   2.910  0.00  0.00    -0.218 OA
ATOM     16  C   UNL     1       6.202  -0.409   0.898  0.00  0.00    +0.071 C 
ATOM     17  C   UNL     1       5.134  -0.566  -0.328  0.00  0.00    +0.159 C 
ATOM     18  O   UNL     1       6.198  -0.978  -1.326  0.00  0.00    -0.223 OA
ATOM     19  C   UNL     1       5.284   1.033  -0.735  0.00  0.00    +0.059 C 
ATOM     20  C   UNL     1       4.077   1.441   0.080  0.00  0.00    -0.021 C 
ATOM     21  C   UNL     1       2.955   1.314  -0.634  0.00  0.00    -0.005 C 
ENDBRANCH   1  21
BRANCH   6  22
ATOM     22  C   UNL     1      -3.318  -1.573  -0.124  0.00  0.00    +0.022 C 
ATOM     23  C   UNL     1      -2.990  -2.649  -1.292  0.00  0.00    +0.005 C 
BRANCH  22  24
ATOM     24  C   UNL     1      -4.680  -1.126  -0.819  0.00  0.00    -0.031 C 
ATOM     25  C   UNL     1      -5.353  -0.127  -0.356  0.00  0.00    -0.031 C 
BRANCH  25  26
ATOM     26  C   UNL     1      -4.973   0.463   1.087  0.00  0.00    +0.022 C 
ATOM     27  C   UNL     1      -6.243  -0.260   1.818  0.00  0.00    +0.005 C 
BRANCH  26  28
ATOM     28  C   UNL     1      -5.802   1.845   0.818  0.00  0.00    +0.004 C 
ATOM     29  C   UNL     1      -6.199   2.333   2.181  0.00  0.00    +0.000 C 
ATOM     30  C   UNL     1      -4.864   2.796   0.138  0.00  0.00    +0.000 C 
ENDBRANCH  26  28
ENDBRANCH  25  26
ENDBRANCH  22  24
ENDBRANCH   6  22
TORSDOF 5
