REMARK  Name = 
REMARK  3 active torsions:
REMARK  status: ('A' for Active; 'I' for Inactive)
REMARK    1  A    between atoms: C_2  and  C_4
REMARK    2  A    between atoms: C_20  and  C_21
REMARK    3  A    between atoms: C_24  and  N_25
REMARK                            x       y       z     vdW  Elec       q    Type
REMARK                         _______ _______ _______ _____ _____    ______ ____
ROOT
ATOM      1  C   UNL     1      -2.679  -2.583   0.011  0.00  0.00    +0.177 C 
ATOM      2  C   UNL     1      -2.018  -1.255   0.175  0.00  0.00    +0.033 C 
ATOM      3  C   UNL     1      -1.999  -0.869  -1.399  0.00  0.00    +0.007 C 
ATOM      4  C   UNL     1      -2.037   0.816  -1.135  0.00  0.00    +0.019 C 
ATOM      5  C   UNL     1      -0.757   0.839  -0.182  0.00  0.00    -0.045 C 
ATOM      6  C   UNL     1       0.185  -0.424  -0.501  0.00  0.00    +0.040 C 
ATOM      7  C   UNL     1      -0.084   1.983  -0.165  0.00  0.00    -0.033 C 
ATOM      8  C   UNL     1      -0.590   3.066  -0.966  0.00  0.00    -0.024 C 
ATOM      9  C   UNL     1      -0.488   4.294  -0.541  0.00  0.00    +0.033 C 
ATOM     10  C   UNL     1      -0.114   4.428   0.876  0.00  0.00    +0.173 C 
ATOM     11  C   UNL     1      -0.208   3.275   1.826  0.00  0.00    +0.074 C 
ATOM     12  O   UNL     1       0.156   5.584   1.321  0.00  0.00    -0.291 OA
ATOM     13  C   UNL     1      -0.976   2.678  -2.360  0.00  0.00    +0.026 C 
ATOM     14  C   UNL     1       0.409   2.017   1.222  0.00  0.00    +0.034 C 
ATOM     15  C   UNL     1      -1.129   1.160  -2.447  0.00  0.00    +0.009 C 
ATOM     16  C   UNL     1      -3.616  -0.938  -1.475  0.00  0.00    +0.003 C 
ATOM     17  C   UNL     1      -2.928  -0.338   0.888  0.00  0.00    +0.003 C 
ATOM     18  C   UNL     1      -0.601  -1.306   0.655  0.00  0.00    +0.011 C 
ATOM     19  C   UNL     1      -3.921  -2.238  -0.800  0.00  0.00    +0.038 C 
ATOM     20  O   UNL     1      -1.925  -3.434  -0.769  0.00  0.00    -0.218 OA
ENDROOT
BRANCH   6  21
ATOM     21  C   UNL     1       1.444  -0.008   0.431  0.00  0.00    -0.019 A 
ATOM     22  C   UNL     1       1.972  -1.078   1.154  0.00  0.00    -0.003 A 
ATOM     23  C   UNL     1       3.290  -1.502   1.014  0.00  0.00    +0.014 A 
ATOM     24  C   UNL     1       4.192  -0.728   0.329  0.00  0.00    +0.048 A 
ATOM     25  C   UNL     1       3.714   0.493  -0.129  0.00  0.00    +0.014 A 
ATOM     26  C   UNL     1       2.377   0.452  -0.516  0.00  0.00    -0.003 A 
BRANCH  24  27
ATOM     27  N   UNL     1       5.452  -1.266  -0.096  0.00  0.00    -0.304 N 
ATOM     28  C   UNL     1       6.361  -0.460  -0.899  0.00  0.00    +0.112 C 
ATOM     29  C   UNL     1       5.455  -2.694  -0.403  0.00  0.00    +0.112 C 
ENDBRANCH  24  27
ENDBRANCH   6  21
BRANCH   1  31
ATOM     30  C   UNL     1      -3.634  -3.641   1.386  0.00  0.00    +0.075 C 
ATOM     31  C   UNL     1      -3.056  -3.240   1.292  0.00  0.00    +0.178 C 
ATOM     32  O   UNL     1      -2.249  -3.085   2.203  0.00  0.00    -0.293 OA
ENDBRANCH   1  31
TORSDOF 3
