REMARK  Name = 
REMARK  3 active torsions:
REMARK  status: ('A' for Active; 'I' for Inactive)
REMARK    1  A    between atoms: C_2  and  C_4
REMARK    2  A    between atoms: C_8  and  C_9
REMARK    3  A    between atoms: C_9  and  C_11
REMARK                            x       y       z     vdW  Elec       q    Type
REMARK                         _______ _______ _______ _____ _____    ______ ____
ROOT
ATOM      1  C   UNL     1       3.186  -0.609  -0.647  0.00  0.00    +0.143 C 
ATOM      2  C   UNL     1       2.063  -0.008   0.338  0.00  0.00    +0.048 A 
ATOM      3  N   UNL     1       0.957  -0.129  -0.401  0.00  0.00    -0.328 N 
ATOM      4  C   UNL     1      -0.110  -0.487   0.323  0.00  0.00    +0.099 A 
ATOM      5  C   UNL     1       0.302  -0.573   1.625  0.00  0.00    +0.022 A 
ATOM      6  C   UNL     1       1.240   0.471  -1.667  0.00  0.00    +0.107 C 
ATOM      7  C   UNL     1       1.690  -0.545   1.569  0.00  0.00    +0.015 A 
ATOM      8  C   UNL     1       2.669   0.311  -1.897  0.00  0.00    +0.042 C 
ENDROOT
BRANCH   1  10
ATOM      9  O   UNL     1       4.926   0.089   0.798  0.00  0.00    -0.245 OA
ATOM     10  C   UNL     1       4.280   0.481  -0.194  0.00  0.00    +0.370 C 
ATOM     11  O   UNL     1       5.098   0.971  -1.220  0.00  0.00    -0.245 OA
ENDBRANCH   1  10
BRANCH   4  12
ATOM     12  C   UNL     1      -1.426  -0.822  -0.235  0.00  0.00    +0.211 C 
ATOM     13  O   UNL     1      -1.446  -1.326  -1.399  0.00  0.00    -0.285 OA
BRANCH  12  14
ATOM     14  C   UNL     1      -2.650  -0.135   0.158  0.00  0.00    +0.040 A 
ATOM     15  C   UNL     1      -2.857   1.214  -0.014  0.00  0.00    +0.003 A 
ATOM     16  C   UNL     1      -4.080   1.706   0.426  0.00  0.00    +0.000 A 
ATOM     17  C   UNL     1      -5.098   0.863   0.824  0.00  0.00    +0.000 A 
ATOM     18  C   UNL     1      -4.979  -0.507   0.647  0.00  0.00    +0.000 A 
ATOM     19  C   UNL     1      -3.764  -0.965   0.222  0.00  0.00    +0.003 A 
ENDBRANCH  12  14
ENDBRANCH   4  12
TORSDOF 3
