REMARK  Name = 
REMARK  7 active torsions:
REMARK  status: ('A' for Active; 'I' for Inactive)
REMARK    1  A    between atoms: C_2  and  C_3
REMARK    2  A    between atoms: C_9  and  O_10
REMARK    3  A    between atoms: O_10  and  C_11
REMARK    4  A    between atoms: C_13  and  O_15
REMARK    5  A    between atoms: C_24  and  O_25
REMARK    6  A    between atoms: O_25  and  C_26
REMARK    7  A    between atoms: C_31  and  N_32
REMARK                            x       y       z     vdW  Elec       q    Type
REMARK                         _______ _______ _______ _____ _____    ______ ____
ROOT
ATOM      1  C   UNL     1      -3.096  -3.040   1.186  0.00  0.00    +0.199 C 
ATOM      2  C   UNL     1      -2.505  -4.505   0.740  0.00  0.00    +0.191 C 
ATOM      3  O   UNL     1      -3.553  -5.362   0.795  0.00  0.00    -0.219 OA
ATOM      4  C   UNL     1      -1.327  -4.823   1.501  0.00  0.00    +0.039 C 
ATOM      5  C   UNL     1      -2.164  -4.262  -0.836  0.00  0.00    +0.190 C 
ATOM      6  O   UNL     1      -1.897  -5.725  -1.070  0.00  0.00    -0.220 OA
ATOM      7  C   UNL     1      -0.548  -3.730  -0.561  0.00  0.00    +0.091 C 
ATOM      8  C   UNL     1       0.210  -5.152  -0.725  0.00  0.00    +0.010 C 
ATOM      9  C   UNL     1      -0.373  -3.347  -2.085  0.00  0.00    +0.152 C 
ATOM     10  O   UNL     1      -1.292  -2.931  -2.728  0.00  0.00    -0.296 OA
ATOM     11  C   UNL     1       0.894  -2.446  -2.455  0.00  0.00    +0.060 C 
ATOM     12  C   UNL     1       1.966  -3.608  -2.044  0.00  0.00    +0.008 C 
ATOM     13  C   UNL     1       1.034  -1.664  -1.022  0.00  0.00    +0.040 C 
ATOM     14  C   UNL     1       0.787  -0.333  -1.502  0.00  0.00    +0.152 C 
ATOM     15  O   UNL     1      -0.341  -0.044  -2.202  0.00  0.00    -0.223 OA
ATOM     16  C   UNL     1       1.830   0.067  -2.557  0.00  0.00    +0.035 C 
ATOM     17  C   UNL     1       1.045   0.841  -0.405  0.00  0.00    +0.148 C 
ATOM     18  C   UNL     1      -0.004   0.305   0.822  0.00  0.00    +0.058 C 
ATOM     19  C   UNL     1       0.358   1.636   1.655  0.00  0.00    +0.005 C 
ATOM     20  C   UNL     1      -1.430   0.824   0.103  0.00  0.00    +0.131 C 
ATOM     21  C   UNL     1      -2.529  -0.104   1.028  0.00  0.00    +0.126 C 
ATOM     22  C   UNL     1      -3.014  -0.904  -0.300  0.00  0.00    +0.014 C 
ATOM     23  C   UNL     1      -1.532  -1.177   1.636  0.00  0.00    +0.319 C 
ATOM     24  O   UNL     1      -1.181  -0.670   2.762  0.00  0.00    -0.250 OA
ATOM     25  O   UNL     1      -1.687  -2.464   1.367  0.00  0.00    -0.450 OA
ENDROOT
BRANCH   1  27
ATOM     26  C   UNL     1      -2.303  -3.318   3.353  0.00  0.00    +0.004 C 
ATOM     27  C   UNL     1      -3.190  -3.578   2.743  0.00  0.00    +0.046 C 
ENDBRANCH   1  27
BRANCH  20  28
ATOM     28  O   UNL     1      -1.773   1.977   1.025  0.00  0.00    -0.332 OA
BRANCH  28  29
ATOM     29  C   UNL     1      -2.472   2.588  -0.195  0.00  0.00    +0.238 C 
ATOM     30  O   UNL     1      -1.396   3.656  -0.353  0.00  0.00    -0.330 OA
ATOM     31  C   UNL     1      -1.704   4.653   0.722  0.00  0.00    +0.150 C 
ATOM     32  C   UNL     1      -0.366   5.505   0.310  0.00  0.00    +0.035 C 
ATOM     33  C   UNL     1      -2.647   5.617  -0.349  0.00  0.00    +0.204 C 
ATOM     34  O   UNL     1      -3.356   6.290   0.803  0.00  0.00    -0.218 OA
ATOM     35  C   UNL     1      -3.804   4.470  -0.435  0.00  0.00    +0.128 C 
ATOM     36  C   UNL     1      -3.607   3.955  -1.812  0.00  0.00    +0.033 C 
ATOM     37  C   UNL     1      -3.560   3.511   0.674  0.00  0.00    +0.091 C 
BRANCH  35  38
ATOM     38  O   UNL     1      -5.001   5.046  -0.348  0.00  0.00    -0.353 OA
ATOM     39  C   UNL     1      -5.898   4.218  -1.036  0.00  0.00    +0.174 C 
ENDBRANCH  35  38
ENDBRANCH  28  29
ENDBRANCH  20  28
BRANCH  17  40
ATOM     40  O   UNL     1       2.168   0.129   0.324  0.00  0.00    -0.328 OA
BRANCH  40  41
ATOM     41  C   UNL     1       3.403   0.588  -0.431  0.00  0.00    +0.268 C 
ATOM     42  C   UNL     1       4.387   0.747   0.986  0.00  0.00    +0.222 C 
ATOM     43  O   UNL     1       3.727   1.995   1.464  0.00  0.00    -0.216 OA
ATOM     44  C   UNL     1       5.450   1.707   0.056  0.00  0.00    +0.096 C 
ATOM     45  C   UNL     1       5.510   0.806  -1.251  0.00  0.00    +0.048 C 
ATOM     46  C   UNL     1       5.252  -0.786  -1.145  0.00  0.00    +0.119 C 
ATOM     47  C   UNL     1       6.031  -1.120   0.285  0.00  0.00    +0.032 C 
ATOM     48  O   UNL     1       3.888  -0.840  -0.488  0.00  0.00    -0.331 OA
BRANCH  44  49
ATOM     49  N   UNL     1       6.795   1.168   0.667  0.00  0.00    -0.269 NA
ATOM     50  C   UNL     1       7.682   1.575  -0.430  0.00  0.00    +0.090 C 
ATOM     51  C   UNL     1       7.130   2.058   1.755  0.00  0.00    +0.090 C 
ENDBRANCH  44  49
ENDBRANCH  40  41
ENDBRANCH  17  40
TORSDOF 7
