REMARK  Name = 
REMARK  2 active torsions:
REMARK  status: ('A' for Active; 'I' for Inactive)
REMARK    1  A    between atoms: N1_4  and  C1*_5
REMARK    2  A    between atoms: C4*_9  and  C5*_10
REMARK                            x       y       z     vdW  Elec       q    Type
REMARK                         _______ _______ _______ _____ _____    ______ ____
ROOT
ATOM      1  C5M   T A   1      -3.547   1.735   1.504  0.00  0.00    +0.038 C 
ATOM      2  C5    T A   1      -2.799   0.884   0.987  0.00  0.00    +0.053 A 
ATOM      3  C4    T A   1      -3.267  -0.159   0.191  0.00  0.00    +0.280 A 
ATOM      4  O4    T A   1      -4.398   0.020  -0.357  0.00  0.00    -0.265 OA
ATOM      5  N3    T A   1      -2.437  -1.165  -0.184  0.00  0.00    -0.153 NA
ATOM      6  C2    T A   1      -1.092  -1.031  -0.073  0.00  0.00    +0.354 A 
ATOM      7  O2    T A   1      -0.343  -2.053  -0.101  0.00  0.00    -0.244 OA
ATOM      8  N1    T A   1      -0.645   0.048   0.464  0.00  0.00    -0.256 N 
ATOM      9  C6    T A   1      -1.420   0.905   1.173  0.00  0.00    +0.082 A 
ENDROOT
BRANCH   8  10
ATOM     10  C1*   T A   1       0.888   0.275   0.777  0.00  0.00    +0.211 C 
ATOM     11  O4*   T A   1       1.387  -0.928  -0.023  0.00  0.00    -0.332 OA
ATOM     12  C4*   T A   1       2.750  -0.329   0.216  0.00  0.00    +0.180 C 
ATOM     13  C3*   T A   1       2.497   0.780  -1.068  0.00  0.00    +0.186 C 
ATOM     14  O3*   T A   1       3.190   1.879  -0.297  0.00  0.00    -0.220 OA
ATOM     15  C2*   T A   1       1.030   1.248  -0.544  0.00  0.00    +0.089 C 
BRANCH  12  16
ATOM     16  C5*   T A   1       3.484  -1.375  -0.809  0.00  0.00    +0.214 C 
ATOM     17  O5*   T A   1       4.720  -0.734  -1.000  0.00  0.00    -0.218 OA
ENDBRANCH  12  16
ENDBRANCH   8  10
TORSDOF 2
