REMARK  Name = 
REMARK  6 active torsions:
REMARK  status: ('A' for Active; 'I' for Inactive)
REMARK    1  A    between atoms: N_4  and  C_5
REMARK    2  A    between atoms: N_7  and  C_8
REMARK    3  A    between atoms: C_8  and  C_9
REMARK    4  A    between atoms: C_9  and  S_10
REMARK    5  A    between atoms: S_10  and  C_11
REMARK    6  A    between atoms: C_11  and  C_12
REMARK                            x       y       z     vdW  Elec       q    Type
REMARK                         _______ _______ _______ _____ _____    ______ ____
ROOT
ATOM      1  C   UNL     1      -0.257   0.719  -1.361  0.00  0.00    +0.105 C 
ENDROOT
BRANCH   1   2
ATOM      2  C   UNL     1      -1.058   2.012  -1.464  0.00  0.00    +0.232 C 
BRANCH   2   6
ATOM      3  C   UNL     1      -3.623  -0.202   2.005  0.00  0.00    +0.267 C 
ATOM      4  N   UNL     1      -3.480   1.112   1.381  0.00  0.00    -0.087 NA
ATOM      5  C   UNL     1      -2.826   1.156   0.131  0.00  0.00    +0.470 C 
ATOM      6  N   UNL     1      -1.837   2.108  -0.231  0.00  0.00    -0.090 NA
ATOM      7  N   UNL     1      -3.241   0.337  -0.774  0.00  0.00    +0.016 NA
BRANCH   7   8
ATOM      8  C   UNL     1      -4.022  -0.760  -0.344  0.00  0.00    +0.296 C 
ATOM      9  N   UNL     1      -4.947  -1.443  -0.555  0.00  0.00    -0.151 NA
ENDBRANCH   7   8
ENDBRANCH   2   6
ENDBRANCH   1   2
BRANCH   1  10
ATOM     10  S   UNL     1       0.730   0.808   0.143  0.00  0.00    -0.130 S 
BRANCH  10  11
ATOM     11  C   UNL     1       1.393  -0.836   0.489  0.00  0.00    +0.104 C 
BRANCH  11  12
ATOM     12  C   UNL     1       2.879  -0.859   0.391  0.00  0.00    +0.085 A 
ATOM     13  C   UNL     1       3.607  -0.803  -0.781  0.00  0.00    +0.075 A 
ATOM     14  C   UNL     1       3.095  -0.503  -2.156  0.00  0.00    +0.053 C 
ATOM     15  N   UNL     1       4.902  -0.847  -0.416  0.00  0.00    -0.227 NA
ATOM     16  C   UNL     1       4.961  -1.083   0.909  0.00  0.00    +0.198 A 
ATOM     17  N   UNL     1       3.725  -0.917   1.422  0.00  0.00    -0.226 NA
ENDBRANCH  11  12
ENDBRANCH  10  11
ENDBRANCH   1  10
TORSDOF 6
