REMARK  Name = 
REMARK  0 active torsions:
REMARK  status: ('A' for Active; 'I' for Inactive)
REMARK                            x       y       z     vdW  Elec       q    Type
REMARK                         _______ _______ _______ _____ _____    ______ ____
ROOT
ATOM      1  F   UNL     1      -0.658   1.798   0.133  0.00  0.00    -0.072 F 
ATOM      2  S   UNL     1       0.098   0.460  -0.086  0.00  0.00    +0.433 S 
ATOM      3  F   UNL     1       0.559  -1.879  -0.594  0.00  0.00    -0.072 F 
ATOM      4  F   UNL     1       1.185   0.302   1.554  0.00  0.00    -0.072 F 
ATOM      5  F   UNL     1      -1.557  -0.184  -1.236  0.00  0.00    -0.072 F 
ATOM      6  F   UNL     1       1.459   0.483  -1.197  0.00  0.00    -0.072 F 
ATOM      7  F   UNL     1      -1.085  -0.980   1.427  0.00  0.00    -0.072 F 
ENDROOT
TORSDOF 0
