REMARK  Name = 
REMARK  1 active torsions:
REMARK  status: ('A' for Active; 'I' for Inactive)
REMARK    1  A    between atoms: C_3  and  C_4
REMARK                            x       y       z     vdW  Elec       q    Type
REMARK                         _______ _______ _______ _____ _____    ______ ____
ROOT
ATOM      1  C   UNL     1      -1.470   1.695  -1.153  0.00  0.00    +0.020 C 
ATOM      2  C   UNL     1      -1.249   0.073  -0.973  0.00  0.00    +0.089 C 
ATOM      3  N   UNL     1      -2.720  -0.114  -0.432  0.00  0.00    -0.268 NA
ATOM      4  C   UNL     1      -2.944   0.869   0.565  0.00  0.00    +0.090 C 
ATOM      5  C   UNL     1      -2.737  -1.481   0.049  0.00  0.00    +0.105 C 
ATOM      6  C   UNL     1      -1.298  -1.887   0.137  0.00  0.00    +0.160 C 
ATOM      7  O   UNL     1      -0.552  -1.190   0.981  0.00  0.00    -0.349 OA
ATOM      8  C   UNL     1      -0.589   0.311   0.641  0.00  0.00    +0.152 C 
ENDROOT
BRANCH   8   9
ATOM      9  C   UNL     1       0.940   0.330   0.042  0.00  0.00    +0.006 A 
ATOM     10  C   UNL     1       1.490  -0.795  -0.405  0.00  0.00    -0.002 A 
ATOM     11  C   UNL     1       2.874  -0.818  -0.558  0.00  0.00    -0.000 A 
ATOM     12  C   UNL     1       3.611   0.139   0.129  0.00  0.00    -0.000 A 
ATOM     13  C   UNL     1       3.015   1.390   0.249  0.00  0.00    -0.000 A 
ATOM     14  C   UNL     1       1.629   1.479   0.328  0.00  0.00    -0.002 A 
ENDBRANCH   8   9
TORSDOF 1
