REMARK  Name = 
REMARK  1 active torsions:
REMARK  status: ('A' for Active; 'I' for Inactive)
REMARK    1  A    between atoms: C_4  and  C_5
REMARK                            x       y       z     vdW  Elec       q    Type
REMARK                         _______ _______ _______ _____ _____    ______ ____
ROOT
ATOM      1  O   UNL     1      -1.221  -2.041   0.405  0.00  0.00    -0.247 OA
ATOM      2  C   UNL     1      -0.751  -1.134   0.123  0.00  0.00    +0.351 C 
ATOM      3  C   UNL     1      -1.654   0.061   0.801  0.00  0.00    +0.282 C 
ATOM      4  O   UNL     1      -2.620   0.040  -0.406  0.00  0.00    -0.208 OA
ATOM      5  C   UNL     1      -0.705   1.354   0.093  0.00  0.00    +0.227 C 
ATOM      6  O   UNL     1      -0.623   2.118   1.396  0.00  0.00    -0.217 OA
ATOM      7  C   UNL     1       0.791   0.564   0.438  0.00  0.00    +0.228 C 
ATOM      8  O   UNL     1       1.557   1.852   0.241  0.00  0.00    -0.216 OA
ATOM      9  C   UNL     1       0.922   0.099  -1.244  0.00  0.00    +0.234 C 
ATOM     10  O   UNL     1      -0.286  -0.869  -1.121  0.00  0.00    -0.445 OA
ENDROOT
BRANCH   9  11
ATOM     11  C   UNL     1       1.991  -1.137  -0.954  0.00  0.00    +0.228 C 
ATOM     12  O   UNL     1       2.599  -0.906   0.229  0.00  0.00    -0.216 OA
ENDBRANCH   9  11
TORSDOF 1
