REMARK  Name = 
REMARK  15 active torsions:
REMARK  status: ('A' for Active; 'I' for Inactive)
REMARK    1  A    between atoms: C_2  and  C_5
REMARK    2  A    between atoms: C_5  and  O_7
REMARK    3  A    between atoms: O_7  and  C_8
REMARK    4  A    between atoms: C_8  and  O_9
REMARK    5  A    between atoms: O_9  and  P_10
REMARK    6  A    between atoms: P_10  and  C_12
REMARK    7  A    between atoms: P_10  and  O_26
REMARK    8  A    between atoms: C_12  and  O_13
REMARK    9  A    between atoms: O_13  and  C_14
REMARK   10  A    between atoms: C_14  and  C_15
REMARK   11  A    between atoms: C_15  and  N_16
REMARK   12  A    between atoms: O_26  and  C_27
REMARK   13  A    between atoms: C_27  and  O_28
REMARK   14  A    between atoms: O_28  and  C_29
REMARK   15  A    between atoms: C_29  and  C_31
REMARK                            x       y       z     vdW  Elec       q    Type
REMARK                         _______ _______ _______ _____ _____    ______ ____
ROOT
ATOM      1  P   UNL     1      -1.105   0.490  -1.214  0.00  0.00    +0.378 P 
ATOM      2  O   UNL     1      -1.478   1.086  -2.551  0.00  0.00    -0.255 OA
ENDROOT
BRANCH   1   3
ATOM      3  O   UNL     1      -2.086  -0.886  -1.014  0.00  0.00    -0.250 OA
BRANCH   3   4
ATOM      4  C   UNL     1      -2.455  -0.979   0.332  0.00  0.00    +0.369 C 
BRANCH   4   5
ATOM      5  O   UNL     1      -3.766  -1.487   0.384  0.00  0.00    -0.419 OA
BRANCH   5   6
ATOM      6  C   UNL     1      -4.050  -2.716  -0.176  0.00  0.00    +0.318 C 
ATOM      7  O   UNL     1      -3.074  -3.499  -0.378  0.00  0.00    -0.250 OA
BRANCH   6   8
ATOM      8  C   UNL     1      -5.385  -3.338   0.080  0.00  0.00    +0.090 C 
ATOM      9  C   UNL     1      -6.039  -3.587  -1.256  0.00  0.00    +0.011 C 
ATOM     10  C   UNL     1      -5.151  -4.657   0.778  0.00  0.00    +0.011 C 
ATOM     11  C   UNL     1      -6.236  -2.437   0.965  0.00  0.00    +0.011 C 
ENDBRANCH   6   8
ENDBRANCH   5   6
ENDBRANCH   4   5
ENDBRANCH   3   4
ENDBRANCH   1   3
BRANCH   1  12
ATOM     12  O   UNL     1      -1.290   1.573   0.055  0.00  0.00    -0.250 OA
BRANCH  12  13
ATOM     13  C   UNL     1      -2.622   1.831   0.361  0.00  0.00    +0.369 C 
BRANCH  13  14
ATOM     14  O   UNL     1      -2.801   3.242   0.459  0.00  0.00    -0.419 OA
BRANCH  14  15
ATOM     15  C   UNL     1      -1.832   4.136  -0.009  0.00  0.00    +0.318 C 
ATOM     16  O   UNL     1      -0.747   3.594  -0.382  0.00  0.00    -0.250 OA
BRANCH  15  18
ATOM     17  C   UNL     1      -0.784   6.284  -0.325  0.00  0.00    +0.011 C 
ATOM     18  C   UNL     1      -1.670   5.486   0.620  0.00  0.00    +0.090 C 
ATOM     19  C   UNL     1      -2.987   6.198   0.778  0.00  0.00    +0.011 C 
ATOM     20  C   UNL     1      -0.987   5.239   1.952  0.00  0.00    +0.011 C 
ENDBRANCH  15  18
ENDBRANCH  14  15
ENDBRANCH  13  14
ENDBRANCH  12  13
ENDBRANCH   1  12
BRANCH   1  21
ATOM     21  C   UNL     1       0.651   0.000  -1.237  0.00  0.00    +0.258 C 
BRANCH  21  22
ATOM     22  O   UNL     1       0.748  -1.075  -0.340  0.00  0.00    -0.340 OA
BRANCH  22  23
ATOM     23  C   UNL     1       0.856  -0.576   0.963  0.00  0.00    +0.167 C 
BRANCH  23  24
ATOM     24  C   UNL     1       2.229  -0.031   1.240  0.00  0.00    +0.141 C 
BRANCH  24  25
ATOM     25  N   UNL     1       3.208  -1.098   1.058  0.00  0.00    -0.292 N 
ATOM     26  C   UNL     1       4.546  -0.923   0.934  0.00  0.00    +0.167 A 
ATOM     27  N   UNL     1       5.376   0.028   1.380  0.00  0.00    -0.205 NA
ATOM     28  C   UNL     1       6.715  -0.160   1.288  0.00  0.00    +0.202 A 
ATOM     29  N   UNL     1       7.141  -0.873   0.223  0.00  0.00    -0.204 NA
ATOM     30  C   UNL     1       6.361  -1.770  -0.412  0.00  0.00    +0.192 A 
ATOM     31  N   UNL     1       6.618  -2.204  -1.751  0.00  0.00    -0.105 NA
ATOM     32  C   UNL     1       5.031  -1.802  -0.021  0.00  0.00    +0.152 A 
ATOM     33  N   UNL     1       4.067  -2.734  -0.144  0.00  0.00    -0.219 NA
ATOM     34  C   UNL     1       2.996  -2.354   0.596  0.00  0.00    +0.180 A 
ENDBRANCH  24  25
ENDBRANCH  23  24
ENDBRANCH  22  23
ENDBRANCH  21  22
ENDBRANCH   1  21
TORSDOF 15
