REMARK  Name = 
REMARK  7 active torsions:
REMARK  status: ('A' for Active; 'I' for Inactive)
REMARK    1  A    between atoms: O_2  and  N_3
REMARK    2  A    between atoms: C_4  and  C_5
REMARK    3  A    between atoms: C_4  and  C_28
REMARK    4  A    between atoms: N_7  and  CA_8
REMARK    5  A    between atoms: CA_12  and  C_13
REMARK    6  A    between atoms: C_16  and  C_17
REMARK    7  A    between atoms: C_18  and  C_19
REMARK                            x       y       z     vdW  Elec       q    Type
REMARK                         _______ _______ _______ _____ _____    ______ ____
ROOT
ATOM      1  CA  UNL     1      -1.158  -0.077   1.511  0.00  0.00    +0.201 C 
ATOM      2  C   UNL     1       0.271  -0.794   0.980  0.00  0.00    +0.157 C 
ATOM      3  N   UNL     1       0.625   0.611   0.531  0.00  0.00    -0.242 N 
ATOM      4  CA  UNL     1       1.898   0.674  -0.097  0.00  0.00    +0.132 C 
ATOM      5  C   UNL     1       2.320  -0.262  -0.953  0.00  0.00    +0.009 C 
ATOM      6  C   UNL     1       1.320  -1.128  -1.663  0.00  0.00    +0.087 C 
ATOM      7  S   UNL     1      -0.160  -1.459  -0.751  0.00  0.00    -0.114 S 
ATOM      8  C   UNL     1      -0.340   1.295   1.297  0.00  0.00    +0.253 C 
ATOM      9  O   UNL     1      -0.278   2.152   2.228  0.00  0.00    -0.273 OA
ENDROOT
BRANCH   1  11
ATOM     10  C   UNL     1      -2.965   0.986   0.169  0.00  0.00    +0.288 C 
ATOM     11  N   UNL     1      -1.893   0.065   0.115  0.00  0.00    -0.190 NA
ATOM     12  O   UNL     1      -2.627   2.149   0.521  0.00  0.00    -0.267 OA
BRANCH  10  14
ATOM     13  N   UNL     1      -5.115   1.692  -0.526  0.00  0.00    -0.077 NA
ATOM     14  C   UNL     1      -4.312   0.688  -0.337  0.00  0.00    +0.192 C 
BRANCH  14  15
ATOM     15  C   UNL     1      -4.899  -0.657  -0.213  0.00  0.00    +0.115 A 
ATOM     16  N   UNL     1      -4.303  -1.738  -0.775  0.00  0.00    -0.220 NA
ATOM     17  C   UNL     1      -4.498  -2.845  -0.015  0.00  0.00    +0.201 A 
ATOM     18  N   UNL     1      -3.664  -4.008   0.064  0.00  0.00    -0.100 NA
ATOM     19  S   UNL     1      -6.119  -2.577   0.483  0.00  0.00    -0.048 S 
ATOM     20  C   UNL     1      -6.249  -0.934  -0.006  0.00  0.00    +0.059 A 
ENDBRANCH  14  15
BRANCH  13  22
ATOM     21  C   UNL     1      -5.014   3.624   0.090  0.00  0.00    +0.288 C 
ATOM     22  O   UNL     1      -4.730   2.979  -0.190  0.00  0.00    -0.373 OA
ENDBRANCH  13  22
ENDBRANCH  10  14
ENDBRANCH   1  11
BRANCH   4  23
ATOM     23  C   UNL     1       2.596   1.971  -0.072  0.00  0.00    +0.401 C 
ATOM     24  OXT UNL     1       3.708   2.178   0.753  0.00  0.00    -0.239 OA
ATOM     25  O   UNL     1       1.859   3.000  -0.185  0.00  0.00    -0.239 OA
ENDBRANCH   4  23
BRANCH   5  26
ATOM     26  C   UNL     1       3.416  -0.001  -1.905  0.00  0.00    -0.001 C 
ATOM     27  C   UNL     1       4.289  -1.015  -1.843  0.00  0.00    +0.007 C 
BRANCH  27  28
ATOM     28  C   UNL     1       5.150  -0.779  -0.671  0.00  0.00    +0.044 A 
ATOM     29  C   UNL     1       5.562  -1.608   0.320  0.00  0.00    +0.066 A 
ATOM     30  C   UNL     1       4.613  -2.630   0.877  0.00  0.00    +0.053 C 
ATOM     31  N   UNL     1       6.665  -1.302   0.939  0.00  0.00    -0.241 NA
ATOM     32  C   UNL     1       7.447  -0.379   0.441  0.00  0.00    +0.134 A 
ATOM     33  S   UNL     1       6.582   0.131  -0.950  0.00  0.00    -0.065 S 
ENDBRANCH  27  28
ENDBRANCH   5  26
TORSDOF 7
