REMARK  Name = 
REMARK  3 active torsions:
REMARK  status: ('A' for Active; 'I' for Inactive)
REMARK    1  A    between atoms: C_2  and  C_3
REMARK    2  A    between atoms: C_9  and  C_11
REMARK    3  A    between atoms: C_11  and  C_13
REMARK                            x       y       z     vdW  Elec       q    Type
REMARK                         _______ _______ _______ _____ _____    ______ ____
ROOT
ATOM      1  C   UNL     1       0.300   0.632   0.889  0.00  0.00    +0.168 C 
ATOM      2  N   UNL     1       0.491   2.146   0.493  0.00  0.00    -0.123 NA
ENDROOT
BRANCH   1   3
ATOM      3  C   UNL     1      -1.186   0.497   0.197  0.00  0.00    +0.027 C 
ATOM      4  C   UNL     1      -1.256   1.086  -1.052  0.00  0.00    +0.002 C 
ATOM      5  C   UNL     1      -2.787   1.232  -1.611  0.00  0.00    +0.002 C 
ATOM      6  C   UNL     1      -3.363  -0.262  -1.287  0.00  0.00    +0.030 C 
ATOM      7  C   UNL     1      -3.065  -0.743   0.033  0.00  0.00    +0.127 C 
ATOM      8  C   UNL     1      -3.899   0.018   0.854  0.00  0.00    +0.030 C 
ATOM      9  C   UNL     1      -3.401   1.554   1.084  0.00  0.00    +0.002 C 
ATOM     10  O   UNL     1      -3.530  -2.050   0.076  0.00  0.00    -0.226 OA
ATOM     11  C   UNL     1      -3.431   2.079  -0.418  0.00  0.00    +0.000 C 
ATOM     12  C   UNL     1      -1.598  -0.943   0.391  0.00  0.00    +0.032 C 
ATOM     13  C   UNL     1      -1.799   1.307   1.199  0.00  0.00    +0.002 C 
ENDBRANCH   1   3
BRANCH   1  16
ATOM     14  C   UNL     1       3.782  -0.438   0.481  0.00  0.00    +0.167 C 
ATOM     15  N   UNL     1       2.232  -0.530   0.422  0.00  0.00    -0.269 N 
ATOM     16  C   UNL     1       1.216   0.044  -0.308  0.00  0.00    +0.244 C 
ATOM     17  O   UNL     1       1.538   0.754  -1.257  0.00  0.00    -0.273 OA
ATOM     18  C   UNL     1       2.193  -1.885   1.206  0.00  0.00    +0.076 C 
ATOM     19  C   UNL     1       3.389  -2.689   0.291  0.00  0.00    +0.023 C 
ATOM     20  C   UNL     1       1.738  -2.826  -0.152  0.00  0.00    +0.022 C 
ATOM     21  C   UNL     1       3.716  -1.493  -0.771  0.00  0.00    +0.037 C 
BRANCH  14  23
ATOM     22  N   UNL     1       4.779   1.652  -0.308  0.00  0.00    -0.194 NA
ATOM     23  C   UNL     1       3.941   0.857  -0.450  0.00  0.00    +0.093 C 
ENDBRANCH  14  23
ENDBRANCH   1  16
TORSDOF 3
