REMARK  Name = 
REMARK  2 active torsions:
REMARK  status: ('A' for Active; 'I' for Inactive)
REMARK    1  A    between atoms: C_2  and  S_4
REMARK    2  A    between atoms: S_4  and  C_5
REMARK                            x       y       z     vdW  Elec       q    Type
REMARK                         _______ _______ _______ _____ _____    ______ ____
ROOT
ATOM      1  C   UNL     1      -0.881  -1.532   1.534  0.00  0.00    +0.059 C 
ATOM      2  C   UNL     1      -0.346  -0.119   0.878  0.00  0.00    +0.011 C 
ATOM      3  C   UNL     1      -0.887  -0.427  -0.683  0.00  0.00    +0.004 C 
ATOM      4  C   UNL     1      -0.098   0.804  -1.366  0.00  0.00    +0.000 C 
ATOM      5  C   UNL     1       1.244   1.001  -0.966  0.00  0.00    +0.003 C 
ATOM      6  C   UNL     1       1.763   0.777   0.350  0.00  0.00    +0.034 C 
ATOM      7  C   UNL     1       3.182   0.486   0.586  0.00  0.00    +0.136 C 
ATOM      8  O   UNL     1       3.876   1.721   0.751  0.00  0.00    -0.456 OA
ATOM      9  C   UNL     1       5.176   1.615   0.281  0.00  0.00    +0.317 C 
ATOM     10  O   UNL     1       6.002   2.572   0.184  0.00  0.00    -0.250 OA
ATOM     11  C   UNL     1       5.363   0.207  -0.191  0.00  0.00    +0.113 C 
ATOM     12  C   UNL     1       3.930  -0.224  -0.483  0.00  0.00    +0.052 C 
ATOM     13  C   UNL     1       3.126  -0.280   1.902  0.00  0.00    +0.040 C 
ATOM     14  C   UNL     1       1.657  -0.613   2.150  0.00  0.00    +0.004 C 
ATOM     15  C   UNL     1       1.320   1.644   1.483  0.00  0.00    +0.003 C 
ATOM     16  C   UNL     1      -2.242   0.429  -0.451  0.00  0.00    +0.016 C 
ATOM     17  C   UNL     1      -2.807  -0.086   0.840  0.00  0.00    -0.041 C 
ATOM     18  C   UNL     1      -4.062   0.323   1.038  0.00  0.00    +0.029 C 
ATOM     19  C   UNL     1      -4.548   1.332   0.085  0.00  0.00    +0.173 C 
ATOM     20  C   UNL     1      -4.315   1.147  -1.383  0.00  0.00    +0.069 C 
ATOM     21  O   UNL     1      -5.367   2.234   0.436  0.00  0.00    -0.291 OA
ATOM     22  C   UNL     1      -2.002   1.862  -0.329  0.00  0.00    +0.004 C 
ATOM     23  C   UNL     1      -3.180   0.147  -1.575  0.00  0.00    +0.012 C 
ATOM     24  C   UNL     1       1.197  -0.719   0.602  0.00  0.00    +0.004 C 
ATOM     25  C   UNL     1      -2.384  -1.477   1.065  0.00  0.00    +0.033 C 
ENDROOT
BRANCH   1  26
ATOM     26  S   UNL     1      -0.225  -2.767   0.259  0.00  0.00    -0.078 S 
BRANCH  26  28
ATOM     27  C   UNL     1      -1.897  -3.361  -0.872  0.00  0.00    +0.085 C 
ATOM     28  C   UNL     1      -1.464  -3.245  -0.905  0.00  0.00    +0.199 C 
ATOM     29  O   UNL     1      -1.129  -3.450  -2.070  0.00  0.00    -0.285 OA
ENDBRANCH  26  28
ENDBRANCH   1  26
TORSDOF 2
