REMARK  Name = 
REMARK  1 active torsions:
REMARK  status: ('A' for Active; 'I' for Inactive)
REMARK    1  A    between atoms: C_6  and  N_7
REMARK                            x       y       z     vdW  Elec       q    Type
REMARK                         _______ _______ _______ _____ _____    ______ ____
ROOT
ATOM      1  N   UNL     1      -3.105   2.347  -0.186  0.00  0.00    -0.128 NA
ATOM      2  C   UNL     1      -2.453   1.075  -0.115  0.00  0.00    +0.091 A 
ATOM      3  C   UNL     1      -1.987   0.464  -1.273  0.00  0.00    +0.032 A 
ATOM      4  C   UNL     1      -1.040  -0.546  -1.151  0.00  0.00    +0.094 A 
ATOM      5 CL   UNL     1      -0.792  -1.703  -2.456  0.00  0.00    -0.079 Cl
ATOM      6  C   UNL     1      -0.572  -0.902   0.108  0.00  0.00    +0.179 A 
ATOM      7  C   UNL     1      -1.140  -0.369   1.252  0.00  0.00    +0.094 A 
ATOM      8 CL   UNL     1      -0.702  -1.088   2.792  0.00  0.00    -0.079 Cl
ATOM      9  C   UNL     1      -2.002   0.703   1.145  0.00  0.00    +0.032 A 
ENDROOT
BRANCH   6  10
ATOM     10  N   UNL     1       0.760  -1.427   0.144  0.00  0.00    -0.069 NA
ATOM     11  C   UNL     1       1.708  -0.540   0.064  0.00  0.00    +0.439 C 
ATOM     12  N   UNL     1       1.695   0.810   0.537  0.00  0.00    -0.060 NA
ATOM     13  C   UNL     1       2.967   1.457   0.238  0.00  0.00    +0.251 C 
ATOM     14  C   UNL     1       3.820   0.352  -0.321  0.00  0.00    +0.251 C 
ATOM     15  N   UNL     1       2.842  -0.631  -0.778  0.00  0.00    -0.060 NA
ENDBRANCH   6  10
TORSDOF 1
