REMARK  Name = 
REMARK  10 active torsions:
REMARK  status: ('A' for Active; 'I' for Inactive)
REMARK    1  A    between atoms: O_2  and  C_3
REMARK    2  A    between atoms: C_5  and  C_6
REMARK    3  A    between atoms: N_8  and  C_9
REMARK    4  A    between atoms: C_9  and  C_10
REMARK    5  A    between atoms: C_13  and  O_14
REMARK    6  A    between atoms: O_14  and  C_15
REMARK    7  A    between atoms: C_15  and  C_16
REMARK    8  A    between atoms: C_16  and  N_17
REMARK    9  A    between atoms: C_23  and  O_24
REMARK   10  A    between atoms: C_26  and  O_27
REMARK                            x       y       z     vdW  Elec       q    Type
REMARK                         _______ _______ _______ _____ _____    ______ ____
ROOT
ATOM      1  C   UNL     1      -1.123  -0.436  -0.553  0.00  0.00    +0.265 C 
ATOM      2  N   UNL     1      -0.676  -0.194   0.784  0.00  0.00    -0.197 NA
ATOM      3  O   UNL     1      -0.249  -0.276  -1.450  0.00  0.00    -0.268 OA
ENDROOT
BRANCH   1   8
ATOM      4  C   UNL     1      -4.579   0.952  -0.192  0.00  0.00    +0.176 A 
ATOM      5  C   UNL     1      -5.229  -0.169  -0.694  0.00  0.00    +0.206 A 
ATOM      6  C   UNL     1      -4.590  -0.961  -1.640  0.00  0.00    +0.176 A 
ATOM      7  C   UNL     1      -3.227  -0.782  -1.815  0.00  0.00    +0.045 A 
ATOM      8  C   UNL     1      -2.524  -0.106  -0.842  0.00  0.00    +0.061 A 
ATOM      9  C   UNL     1      -3.195   0.894  -0.163  0.00  0.00    +0.045 A 
BRANCH   6  10
ATOM     10  O   UNL     1      -5.377  -1.642  -2.544  0.00  0.00    -0.468 OA
ATOM     11  C   UNL     1      -4.916  -2.225  -3.735  0.00  0.00    +0.253 C 
ENDBRANCH   6  10
BRANCH   4  13
ATOM     12  C   UNL     1      -6.109   0.968   1.698  0.00  0.00    +0.253 C 
ATOM     13  O   UNL     1      -5.248   1.657   0.814  0.00  0.00    -0.468 OA
ENDBRANCH   4  13
BRANCH   5  14
ATOM     14  O   UNL     1      -6.614  -0.207  -0.614  0.00  0.00    -0.465 OA
ATOM     15  C   UNL     1      -7.331   0.217  -1.755  0.00  0.00    +0.253 C 
ENDBRANCH   5  14
ENDBRANCH   1   8
BRANCH   2  16
ATOM     16  C   UNL     1       0.489  -0.967   1.210  0.00  0.00    +0.142 C 
BRANCH  16  17
ATOM     17  C   UNL     1       1.623  -0.017   1.430  0.00  0.00    -0.000 A 
ATOM     18  C   UNL     1       2.263  -0.023   2.664  0.00  0.00    +0.001 A 
ATOM     19  C   UNL     1       3.626   0.223   2.780  0.00  0.00    +0.037 A 
ATOM     20  C   UNL     1       4.415   0.316   1.640  0.00  0.00    +0.139 A 
ATOM     21  C   UNL     1       3.740   0.686   0.483  0.00  0.00    +0.037 A 
ATOM     22  C   UNL     1       2.374   0.463   0.366  0.00  0.00    +0.001 A 
BRANCH  20  23
ATOM     23  O   UNL     1       5.686  -0.265   1.596  0.00  0.00    -0.474 OA
BRANCH  23  24
ATOM     24  C   UNL     1       6.001  -1.363   0.772  0.00  0.00    +0.223 C 
BRANCH  24  25
ATOM     25  C   UNL     1       6.851  -0.901  -0.399  0.00  0.00    +0.120 C 
BRANCH  25  26
ATOM     26  N   UNL     1       7.450   0.370  -0.012  0.00  0.00    -0.267 NA
ATOM     27  C   UNL     1       8.297   0.903  -1.062  0.00  0.00    +0.090 C 
ATOM     28  C   UNL     1       8.173   0.240   1.232  0.00  0.00    +0.090 C 
ENDBRANCH  25  26
ENDBRANCH  24  25
ENDBRANCH  23  24
ENDBRANCH  20  23
ENDBRANCH  16  17
ENDBRANCH   2  16
TORSDOF 10
