REMARK  Name = 
REMARK  6 active torsions:
REMARK  status: ('A' for Active; 'I' for Inactive)
REMARK    1  A    between atoms: C_3  and  C_5
REMARK    2  A    between atoms: C_7  and  O_8
REMARK    3  A    between atoms: O_8  and  C_9
REMARK    4  A    between atoms: C_12  and  N_13
REMARK    5  A    between atoms: N_16  and  C_17
REMARK    6  A    between atoms: C_22  and  C_23
REMARK                            x       y       z     vdW  Elec       q    Type
REMARK                         _______ _______ _______ _____ _____    ______ ____
ROOT
ATOM      1  C   UNL     1      -2.731   1.699  -0.240  0.00  0.00    +0.148 A 
ATOM      2  C   UNL     1      -2.029   2.890  -0.089  0.00  0.00    +0.068 A 
ATOM      3  C   UNL     1      -0.705   2.984  -0.505  0.00  0.00    +0.158 A 
ATOM      4  F   UNL     1       0.045   4.100  -0.293  0.00  0.00    -0.203 F 
ATOM      5  C   UNL     1      -0.024   1.890  -1.028  0.00  0.00    +0.103 A 
ATOM      6  C   UNL     1      -0.823   0.855  -1.485  0.00  0.00    +0.022 A 
ATOM      7  C   UNL     1      -2.174   0.820  -1.161  0.00  0.00    +0.039 A 
ENDROOT
BRANCH   5   8
ATOM      8  N   UNL     1       1.322   1.712  -0.611  0.00  0.00    -0.158 NA
ATOM      9  C   UNL     1       1.825   0.415  -0.343  0.00  0.00    +0.348 C 
ATOM     10  N   UNL     1       2.687   0.081   0.722  0.00  0.00    -0.161 NA
ATOM     11  O   UNL     1       1.492  -0.500  -1.127  0.00  0.00    -0.248 OA
BRANCH  10  12
ATOM     12  C   UNL     1       3.858  -0.680   0.422  0.00  0.00    +0.075 A 
ATOM     13  C   UNL     1       5.060   0.000   0.577  0.00  0.00    +0.021 A 
ATOM     14  C   UNL     1       6.278  -0.582   0.249  0.00  0.00    +0.083 A 
ATOM     15  C   UNL     1       6.221  -1.909  -0.155  0.00  0.00    +0.062 A 
ATOM     16 CL   UNL     1       7.726  -2.652  -0.676  0.00  0.00    -0.082 Cl
ATOM     17  C   UNL     1       5.034  -2.629  -0.127  0.00  0.00    +0.013 A 
ATOM     18  C   UNL     1       3.844  -1.912  -0.169  0.00  0.00    +0.018 A 
BRANCH  14  19
ATOM     19  C   UNL     1       7.433   0.279  -0.121  0.00  0.00    +0.419 C 
ATOM     20  F   UNL     1       7.017   1.398  -0.822  0.00  0.00    -0.166 F 
ATOM     21  F   UNL     1       8.313  -0.393  -0.964  0.00  0.00    -0.166 F 
ATOM     22  F   UNL     1       8.117   0.733   0.999  0.00  0.00    -0.166 F 
ENDBRANCH  14  19
ENDBRANCH  10  12
ENDBRANCH   5   8
BRANCH   1  23
ATOM     23  O   UNL     1      -3.549   1.270   0.805  0.00  0.00    -0.453 OA
BRANCH  23  28
ATOM     24  C   UNL     1      -6.448  -0.737   0.011  0.00  0.00    +0.139 A 
ATOM     25  N   UNL     1      -7.320  -0.202   0.888  0.00  0.00    -0.239 NA
ATOM     26  C   UNL     1      -7.005   0.755   1.762  0.00  0.00    +0.102 A 
ATOM     27  C   UNL     1      -5.684   1.184   1.771  0.00  0.00    +0.058 A 
ATOM     28  C   UNL     1      -4.886   0.949   0.656  0.00  0.00    +0.149 A 
ATOM     29  C   UNL     1      -5.147  -0.260   0.019  0.00  0.00    +0.061 A 
BRANCH  24  32
ATOM     30  C   UNL     1      -6.639  -4.422  -0.811  0.00  0.00    +0.139 C 
ATOM     31  N   UNL     1      -6.437  -3.213  -0.059  0.00  0.00    -0.198 NA
ATOM     32  C   UNL     1      -6.838  -1.976  -0.635  0.00  0.00    +0.283 C 
ATOM     33  O   UNL     1      -7.832  -1.947  -1.420  0.00  0.00    -0.267 OA
ENDBRANCH  24  32
ENDBRANCH  23  28
ENDBRANCH   1  23
TORSDOF 6
