REMARK  Name = 
REMARK  7 active torsions:
REMARK  status: ('A' for Active; 'I' for Inactive)
REMARK    1  A    between atoms: C_2  and  C_3
REMARK    2  A    between atoms: C_3  and  C_5
REMARK    3  A    between atoms: C_5  and  O_7
REMARK    4  A    between atoms: O_7  and  C_8
REMARK    5  A    between atoms: C_18  and  C_19
REMARK    6  A    between atoms: C_19  and  C_20
REMARK    7  A    between atoms: C_20  and  C_21
REMARK                            x       y       z     vdW  Elec       q    Type
REMARK                         _______ _______ _______ _____ _____    ______ ____
ROOT
ATOM      1  C   UNL     1      -1.994  -1.278   1.310  0.00  0.00    +0.173 C 
ATOM      2  C   UNL     1      -0.493  -1.609   0.499  0.00  0.00    +0.062 C 
ATOM      3  C   UNL     1      -1.070  -1.774  -0.975  0.00  0.00    -0.024 C 
ATOM      4  C   UNL     1       0.095  -1.636  -1.890  0.00  0.00    -0.009 C 
ATOM      5  C   UNL     1       0.744  -0.474  -1.736  0.00  0.00    -0.027 C 
ATOM      6  C   UNL     1      -0.488   0.392  -1.135  0.00  0.00    +0.022 C 
ATOM      7  C   UNL     1       0.392   1.774  -1.081  0.00  0.00    +0.005 C 
ATOM      8  C   UNL     1      -1.584  -2.980  -1.114  0.00  0.00    -0.030 C 
ATOM      9  C   UNL     1      -1.680  -3.681   0.357  0.00  0.00    +0.025 C 
ATOM     10  C   UNL     1      -2.841  -4.728  -0.200  0.00  0.00    +0.005 C 
ATOM     11  C   UNL     1      -0.181   0.064   0.519  0.00  0.00    +0.012 C 
ATOM     12  C   UNL     1      -2.833  -2.592   0.777  0.00  0.00    +0.048 C 
ENDROOT
BRANCH   1  13
ATOM     13  O   UNL     1      -2.541  -0.407   0.140  0.00  0.00    -0.452 OA
BRANCH  13  14
ATOM     14  C   UNL     1      -3.381   0.548   0.653  0.00  0.00    +0.316 C 
ATOM     15  O   UNL     1      -2.903   1.387   1.396  0.00  0.00    -0.250 OA
BRANCH  14  16
ATOM     16  C   UNL     1      -4.639   0.926  -0.295  0.00  0.00    +0.099 C 
ATOM     17  C   UNL     1      -5.679   0.090   0.691  0.00  0.00    +0.012 C 
BRANCH  16  19
ATOM     18  C   UNL     1      -5.768   3.003  -0.393  0.00  0.00    +0.001 C 
ATOM     19  C   UNL     1      -5.003   2.345   0.486  0.00  0.00    +0.011 C 
ENDBRANCH  16  19
ENDBRANCH  14  16
ENDBRANCH  13  14
ENDBRANCH   1  13
BRANCH  11  20
ATOM     20  C   UNL     1       1.421  -0.137   0.411  0.00  0.00    +0.004 C 
BRANCH  20  21
ATOM     21  C   UNL     1       2.126   0.896   1.232  0.00  0.00    +0.044 C 
BRANCH  21  22
ATOM     22  C   UNL     1       3.284   1.391   0.135  0.00  0.00    +0.171 C 
ATOM     23  O   UNL     1       4.119   2.176   1.209  0.00  0.00    -0.452 OA
ATOM     24  C   UNL     1       5.436   2.075   0.722  0.00  0.00    +0.319 C 
ATOM     25  O   UNL     1       6.446   1.877   1.401  0.00  0.00    -0.250 OA
ATOM     26  C   UNL     1       5.473   1.816  -0.716  0.00  0.00    +0.142 C 
ATOM     27  C   UNL     1       5.253   0.159  -0.884  0.00  0.00    +0.167 C 
ATOM     28  O   UNL     1       4.098   0.359  -1.891  0.00  0.00    -0.222 OA
ATOM     29  C   UNL     1       4.192   0.018   0.408  0.00  0.00    +0.077 C 
ENDBRANCH  21  22
ENDBRANCH  20  21
ENDBRANCH  11  20
TORSDOF 7
