REMARK  Name = 
REMARK  9 active torsions:
REMARK  status: ('A' for Active; 'I' for Inactive)
REMARK    1  A    between atoms: C_3  and  C_4
REMARK    2  A    between atoms: C_4  and  C_5
REMARK    3  A    between atoms: C_5  and  C_7
REMARK    4  A    between atoms: C_7  and  C_9
REMARK    5  A    between atoms: C_10  and  C_11
REMARK    6  A    between atoms: C_18  and  C_19
REMARK    7  A    between atoms: C_19  and  C_20
REMARK    8  A    between atoms: C_20  and  C_21
REMARK    9  A    between atoms: C_21  and  C_22
REMARK                            x       y       z     vdW  Elec       q    Type
REMARK                         _______ _______ _______ _____ _____    ______ ____
ROOT
ATOM      1  C   UNL     1      -0.087   0.165  -0.501  0.00  0.00    +0.052 C 
ATOM      2  C   UNL     1       0.294  -0.384   1.013  0.00  0.00    +0.011 C 
ATOM      3  C   UNL     1      -0.999  -1.452   1.135  0.00  0.00    +0.007 C 
ATOM      4  C   UNL     1      -2.010  -0.495   0.315  0.00  0.00    +0.022 C 
ATOM      5  C   UNL     1      -1.876   0.737   0.954  0.00  0.00    -0.048 C 
ATOM      6  C   UNL     1      -2.799   1.663   0.769  0.00  0.00    -0.035 C 
ATOM      7  C   UNL     1      -0.530  -2.320  -0.117  0.00  0.00    +0.034 C 
ATOM      8  C   UNL     1      -0.574   0.805   1.663  0.00  0.00    +0.022 C 
ATOM      9  C   UNL     1      -0.003  -1.334  -1.310  0.00  0.00    +0.156 C 
ATOM     10  O   UNL     1      -1.472  -1.214  -1.875  0.00  0.00    -0.223 OA
ENDROOT
BRANCH   1  12
ATOM     11  C   UNL     1       2.303  -0.617  -0.662  0.00  0.00    +0.002 C 
ATOM     12  C   UNL     1       1.474   0.434  -0.827  0.00  0.00    -0.026 C 
BRANCH  11  13
ATOM     13  C   UNL     1       3.636  -0.361   0.236  0.00  0.00    +0.175 C 
ATOM     14  O   UNL     1       3.346  -1.590   1.086  0.00  0.00    -0.218 OA
BRANCH  13  15
ATOM     15  C   UNL     1       4.697  -1.245  -0.768  0.00  0.00    +0.048 C 
ATOM     16  C   UNL     1       4.943   0.017  -1.746  0.00  0.00    +0.004 C 
BRANCH  15  17
ATOM     17  C   UNL     1       5.953  -0.911   0.196  0.00  0.00    +0.079 C 
BRANCH  17  20
ATOM     18  C   UNL     1       5.521   2.920   0.291  0.00  0.00    +0.090 C 
ATOM     19  C   UNL     1       5.745   1.744   0.451  0.00  0.00    -0.090 C 
ATOM     20  C   UNL     1       5.926   0.536   0.463  0.00  0.00    -0.091 C 
ENDBRANCH  17  20
ENDBRANCH  15  17
ENDBRANCH  13  15
ENDBRANCH  11  13
ENDBRANCH   1  12
BRANCH   6  21
ATOM     21  C   UNL     1      -3.483   1.886  -0.516  0.00  0.00    +0.026 C 
BRANCH  21  22
ATOM     22  C   UNL     1      -4.324   0.849  -1.093  0.00  0.00    +0.016 C 
BRANCH  22  23
ATOM     23  C   UNL     1      -5.064  -0.114  -0.309  0.00  0.00    +0.114 C 
BRANCH  23  24
ATOM     24  C   UNL     1      -6.481   0.113  -0.051  0.00  0.00    +0.365 C 
ATOM     25  O   UNL     1      -6.779   0.860   1.088  0.00  0.00    -0.246 OA
ATOM     26  O   UNL     1      -7.355  -0.694  -0.428  0.00  0.00    -0.246 OA
ENDBRANCH  23  24
ENDBRANCH  22  23
ENDBRANCH  21  22
ENDBRANCH   6  21
TORSDOF 9
