REMARK  Name = 
REMARK  3 active torsions:
REMARK  status: ('A' for Active; 'I' for Inactive)
REMARK    1  A    between atoms: N_4  and  CA_5
REMARK    2  A    between atoms: CA_5  and  CB_6
REMARK    3  A    between atoms: CA_5  and  C_8
REMARK                            x       y       z     vdW  Elec       q    Type
REMARK                         _______ _______ _______ _____ _____    ______ ____
ROOT
ATOM      1  CA  CYS A   1      -0.679  -0.378   1.107  0.00  0.00    +0.209 C 
ENDROOT
BRANCH   1   4
ATOM      2  C   UNK A   0       2.909  -0.177   0.025  0.00  0.00    +0.096 C 
ATOM      3  C   UNK A   0       1.661  -0.175   0.035  0.00  0.00    +0.242 C 
ATOM      4  N   CYS A   1       0.840   0.041   1.122  0.00  0.00    -0.195 NA
ATOM      5  O   UNK A   0       1.124   0.290  -1.021  0.00  0.00    -0.273 OA
ENDBRANCH   1   4
BRANCH   1   6
ATOM      6  C   CYS A   1      -0.802  -0.637  -0.488  0.00  0.00    +0.385 C 
ATOM      7  OXT CYS A   1      -0.843  -2.046  -0.574  0.00  0.00    -0.244 OA
ATOM      8  O   CYS A   1      -1.774  -0.171  -1.079  0.00  0.00    -0.244 OA
ENDBRANCH   1   6
BRANCH   1   9
ATOM      9  CB  CYS A   1      -1.184   1.182   1.138  0.00  0.00    +0.102 C 
ATOM     10  SG  CYS A   1      -1.252   2.074  -0.264  0.00  0.00    -0.080 S 
ENDBRANCH   1   9
TORSDOF 3
