REMARK  Name = 
REMARK  1 active torsions:
REMARK  status: ('A' for Active; 'I' for Inactive)
REMARK    1  A    between atoms: C_2  and  C_3
REMARK                            x       y       z     vdW  Elec       q    Type
REMARK                         _______ _______ _______ _____ _____    ______ ____
ROOT
ATOM      1  O   UNL     1       2.700  -1.088  -0.979  0.00  0.00    -0.275 OA
ATOM      2  C   UNL     1       2.229  -0.750  -0.122  0.00  0.00    +0.226 C 
ATOM      3  N   UNL     1       0.926  -0.212  -0.212  0.00  0.00    -0.269 N 
ATOM      4  C   UNL     1      -0.262  -0.925  -0.597  0.00  0.00    +0.118 C 
ATOM      5  C   UNL     1      -1.304  -0.711   0.694  0.00  0.00    +0.117 C 
ATOM      6  N   UNL     1      -1.575   0.831   0.358  0.00  0.00    -0.274 N 
ATOM      7  C   UNL     1      -2.610   1.322   1.271  0.00  0.00    +0.098 C 
ATOM      8  C   UNL     1      -3.497   0.214   1.792  0.00  0.00    +0.048 C 
ATOM      9  C   UNL     1      -3.708  -0.726   0.639  0.00  0.00    -0.023 A 
ATOM     10  C   UNL     1      -4.937  -0.783  -0.012  0.00  0.00    -0.004 A 
ATOM     11  C   UNL     1      -5.034  -0.938  -1.377  0.00  0.00    -0.000 A 
ATOM     12  C   UNL     1      -3.869  -0.995  -2.132  0.00  0.00    -0.000 A 
ATOM     13  C   UNL     1      -2.659  -0.826  -1.469  0.00  0.00    -0.003 A 
ATOM     14  C   UNL     1      -0.403   1.622   0.319  0.00  0.00    +0.246 C 
ATOM     15  O   UNL     1      -0.495   2.863   0.557  0.00  0.00    -0.273 OA
ATOM     16  C   UNL     1      -2.637  -1.164  -0.145  0.00  0.00    -0.007 A 
ATOM     17  C   UNL     1       0.841   1.234  -0.402  0.00  0.00    +0.179 C 
ENDROOT
BRANCH   2  18
ATOM     18  C   UNL     1       3.111  -0.179   0.945  0.00  0.00    +0.077 C 
ATOM     19  C   UNL     1       4.207  -1.152   1.335  0.00  0.00    +0.009 C 
ATOM     20  C   UNL     1       5.021  -1.406   0.073  0.00  0.00    +0.000 C 
ATOM     21  C   UNL     1       5.648  -0.108  -0.351  0.00  0.00    +0.000 C 
ATOM     22  C   UNL     1       4.631   0.945  -0.673  0.00  0.00    +0.000 C 
ATOM     23  C   UNL     1       3.674   1.150   0.487  0.00  0.00    +0.009 C 
ENDBRANCH   2  18
TORSDOF 1
