REMARK  Name = 
REMARK  8 active torsions:
REMARK  status: ('A' for Active; 'I' for Inactive)
REMARK    1  A    between atoms: C_2  and  C_4
REMARK    2  A    between atoms: C_4  and  C_5
REMARK    3  A    between atoms: C_5  and  C_7
REMARK    4  A    between atoms: C_7  and  C_8
REMARK    5  A    between atoms: C_8  and  C_10
REMARK    6  A    between atoms: C_11  and  C_12
REMARK    7  A    between atoms: C_13  and  C_14
REMARK    8  A    between atoms: C_24  and  C_25
REMARK                            x       y       z     vdW  Elec       q    Type
REMARK                         _______ _______ _______ _____ _____    ______ ____
ROOT
ATOM      1  C   UNL     1      -1.190  -1.089  -0.031  0.00  0.00    +0.013 A 
ATOM      2  C   UNL     1      -2.057  -0.036   0.185  0.00  0.00    +0.003 A 
ATOM      3  C   UNL     1      -3.397  -0.218   0.412  0.00  0.00    +0.018 A 
ATOM      4  C   UNL     1      -3.894  -1.497   0.396  0.00  0.00    +0.081 A 
ATOM      5  C   UNL     1      -5.269  -1.648   0.438  0.00  0.00    +0.019 A 
ATOM      6  C   UNL     1      -6.019  -0.569   0.870  0.00  0.00    +0.002 A 
ATOM      7  C   UNL     1      -5.433   0.592   1.367  0.00  0.00    +0.000 A 
ATOM      8  N   UNL     1      -3.034  -2.526   0.311  0.00  0.00    -0.250 NA
ATOM      9  C   UNL     1      -4.127   0.799   0.996  0.00  0.00    +0.001 A 
ATOM     10  C   UNL     1      -1.744  -2.349  -0.054  0.00  0.00    +0.059 A 
ENDROOT
BRANCH   2  11
ATOM     11  C   UNL     1      -1.552   1.308  -0.080  0.00  0.00    +0.000 A 
ATOM     12  C   UNL     1      -1.209   2.151   0.940  0.00  0.00    +0.002 A 
ATOM     13  C   UNL     1      -0.931   3.479   0.649  0.00  0.00    +0.030 A 
ATOM     14  C   UNL     1      -1.064   3.924  -0.643  0.00  0.00    +0.140 A 
ATOM     15  F   UNL     1      -1.363   5.210  -0.972  0.00  0.00    -0.204 F 
ATOM     16  C   UNL     1      -0.832   2.971  -1.629  0.00  0.00    +0.030 A 
ATOM     17  C   UNL     1      -1.206   1.682  -1.370  0.00  0.00    +0.002 A 
ENDBRANCH   2  11
BRANCH  10  18
ATOM     18  C   UNL     1      -1.040  -3.439  -0.734  0.00  0.00    +0.040 C 
ATOM     19  C   UNL     1       0.427  -3.601  -0.722  0.00  0.00    +0.006 C 
ATOM     20  C   UNL     1      -0.233  -3.136  -1.982  0.00  0.00    +0.006 C 
ENDBRANCH  10  18
BRANCH   1  22
ATOM     21  C   UNL     1       1.038  -0.685   0.877  0.00  0.00    +0.006 C 
ATOM     22  C   UNL     1       0.229  -0.908  -0.148  0.00  0.00    -0.001 C 
BRANCH  21  23
ATOM     23  C   UNL     1       2.357   0.096   0.260  0.00  0.00    +0.177 C 
ATOM     24  O   UNL     1       2.681   0.718   1.646  0.00  0.00    -0.218 OA
BRANCH  23  25
ATOM     25  C   UNL     1       3.337  -1.229   0.566  0.00  0.00    +0.071 C 
BRANCH  25  26
ATOM     26  C   UNL     1       4.521  -1.025  -0.605  0.00  0.00    +0.166 C 
ATOM     27  O   UNL     1       4.335   0.503  -0.757  0.00  0.00    -0.222 OA
BRANCH  26  28
ATOM     28  C   UNL     1       5.675  -0.791   0.597  0.00  0.00    +0.147 C 
BRANCH  28  30
ATOM     29  O   UNL     1       6.446   1.037  -0.525  0.00  0.00    -0.246 OA
ATOM     30  C   UNL     1       6.638   0.141  -0.003  0.00  0.00    +0.367 C 
ATOM     31  O   UNL     1       7.912   0.135   0.574  0.00  0.00    -0.246 OA
ENDBRANCH  28  30
ENDBRANCH  26  28
ENDBRANCH  25  26
ENDBRANCH  23  25
ENDBRANCH  21  23
ENDBRANCH   1  22
TORSDOF 8
