REMARK  Name = 
REMARK  6 active torsions:
REMARK  status: ('A' for Active; 'I' for Inactive)
REMARK    1  A    between atoms: C_2  and  N_5
REMARK    2  A    between atoms: N_5  and  C_6
REMARK    3  A    between atoms: C_6  and  C_7
REMARK    4  A    between atoms: C_7  and  C_9
REMARK    5  A    between atoms: C_9  and  O_10
REMARK    6  A    between atoms: O_10  and  C_11
REMARK                            x       y       z     vdW  Elec       q    Type
REMARK                         _______ _______ _______ _____ _____    ______ ____
ROOT
ATOM      1  C   UNL     1      -1.091  -1.673  -0.466  0.00  0.00    +0.134 A 
ATOM      2  C   UNL     1      -2.008  -0.771   0.055  0.00  0.00    +0.011 A 
ATOM      3  C   UNL     1      -1.869  -0.075   1.333  0.00  0.00    +0.065 C 
ATOM      4  C   UNL     1      -2.007   1.551   1.052  0.00  0.00    +0.187 C 
ATOM      5  C   UNL     1      -2.945   1.382  -0.428  0.00  0.00    +0.187 C 
ATOM      6  C   UNL     1      -4.062   0.341   0.231  0.00  0.00    +0.062 C 
ATOM      7  O   UNL     1      -3.802   2.607  -0.123  0.00  0.00    -0.220 OA
ATOM      8  O   UNL     1      -3.237   1.661   1.955  0.00  0.00    -0.220 OA
ATOM      9  C   UNL     1      -3.371  -0.910  -0.240  0.00  0.00    -0.021 A 
ATOM     10  C   UNL     1      -3.717  -1.539  -1.418  0.00  0.00    -0.004 A 
ATOM     11  C   UNL     1      -2.746  -2.264  -2.067  0.00  0.00    +0.003 A 
ATOM     12  C   UNL     1      -1.410  -2.237  -1.682  0.00  0.00    +0.037 A 
ENDROOT
BRANCH   1  13
ATOM     13  O   UNL     1       0.162  -1.716   0.098  0.00  0.00    -0.473 OA
BRANCH  13  14
ATOM     14  C   UNL     1       1.272  -1.447  -0.731  0.00  0.00    +0.239 C 
BRANCH  14  15
ATOM     15  C   UNL     1       2.106  -0.301   0.165  0.00  0.00    +0.213 C 
ATOM     16  O   UNL     1       2.427  -1.340   1.260  0.00  0.00    -0.218 OA
BRANCH  15  17
ATOM     17  C   UNL     1       3.536  -0.652  -0.637  0.00  0.00    +0.125 C 
BRANCH  17  18
ATOM     18  N   UNL     1       3.916   0.691  -1.036  0.00  0.00    -0.218 NA
BRANCH  18  20
ATOM     19  C   UNL     1       5.480   1.015   0.198  0.00  0.00    +0.017 C 
ATOM     20  C   UNL     1       4.652   1.391  -0.012  0.00  0.00    +0.060 C 
ATOM     21  C   UNL     1       3.894   1.468   1.282  0.00  0.00    +0.017 C 
ATOM     22  C   UNL     1       4.823   2.820  -0.494  0.00  0.00    +0.017 C 
ENDBRANCH  18  20
ENDBRANCH  17  18
ENDBRANCH  15  17
ENDBRANCH  14  15
ENDBRANCH  13  14
ENDBRANCH   1  13
TORSDOF 6
