REMARK  Name = 
REMARK  6 active torsions:
REMARK  status: ('A' for Active; 'I' for Inactive)
REMARK    1  A    between atoms: C_2  and  N_3
REMARK    2  A    between atoms: N_3  and  C_4
REMARK    3  A    between atoms: C_4  and  C_5
REMARK    4  A    between atoms: C_11  and  C_13
REMARK    5  A    between atoms: C_13  and  C_14
REMARK    6  A    between atoms: C_13  and  C_16
REMARK                            x       y       z     vdW  Elec       q    Type
REMARK                         _______ _______ _______ _____ _____    ______ ____
ROOT
ATOM      1  N   UNL     1       0.886   1.163  -0.101  0.00  0.00    -0.275 N 
ATOM      2  C   UNL     1      -0.485   1.507  -0.197  0.00  0.00    +0.232 C 
ATOM      3  O   UNL     1      -1.005   1.824  -1.248  0.00  0.00    -0.274 OA
ENDROOT
BRANCH   1   5
ATOM      4  C   UNL     1       1.996   2.707  -0.836  0.00  0.00    +0.023 C 
ATOM      5  C   UNL     1       1.791   1.992  -0.895  0.00  0.00    +0.094 C 
ENDBRANCH   1   5
BRANCH   2   6
ATOM      6  C   UNL     1      -1.370   1.231   1.112  0.00  0.00    +0.132 C 
BRANCH   6   7
ATOM      7  C   UNL     1      -2.279   0.119   0.378  0.00  0.00    -0.011 A 
ATOM      8  C   UNL     1      -3.593   0.068   0.845  0.00  0.00    -0.004 A 
ATOM      9  C   UNL     1      -4.331  -1.012   0.395  0.00  0.00    -0.000 A 
ATOM     10  C   UNL     1      -3.664  -2.171   0.016  0.00  0.00    -0.000 A 
ATOM     11  C   UNL     1      -2.292  -2.255   0.222  0.00  0.00    -0.000 A 
ATOM     12  C   UNL     1      -1.635  -1.104   0.564  0.00  0.00    -0.004 A 
ENDBRANCH   6   7
BRANCH   6  13
ATOM     13  C   UNL     1      -2.399   2.470   0.831  0.00  0.00    +0.195 C 
ATOM     14  O   UNL     1      -3.101   2.269  -0.301  0.00  0.00    -0.220 OA
ENDBRANCH   6  13
ENDBRANCH   2   6
BRANCH   1  15
ATOM     15  C   UNL     1       1.414   0.327   0.953  0.00  0.00    +0.120 C 
BRANCH  15  16
ATOM     16  C   UNL     1       2.592  -0.440   0.472  0.00  0.00    +0.001 A 
ATOM     17  C   UNL     1       3.437  -1.107   1.318  0.00  0.00    +0.018 A 
ATOM     18  C   UNL     1       4.015  -2.304   0.945  0.00  0.00    +0.099 A 
ATOM     19  N   UNL     1       3.904  -2.691  -0.349  0.00  0.00    -0.242 NA
ATOM     20  C   UNL     1       3.484  -1.805  -1.282  0.00  0.00    +0.099 A 
ATOM     21  C   UNL     1       2.636  -0.788  -0.867  0.00  0.00    +0.018 A 
ENDBRANCH  15  16
ENDBRANCH   1  15
TORSDOF 6
