REMARK  Name = 
REMARK  1 active torsions:
REMARK  status: ('A' for Active; 'I' for Inactive)
REMARK    1  A    between atoms: C_3  and  C_4
REMARK                            x       y       z     vdW  Elec       q    Type
REMARK                         _______ _______ _______ _____ _____    ______ ____
ROOT
ATOM      1  C   UNL     1       0.933   1.970   0.778  0.00  0.00    +0.020 C 
ATOM      2  C   UNL     1       1.683   0.574   1.189  0.00  0.00    +0.089 C 
ATOM      3  N   UNL     1       1.675   0.018  -0.282  0.00  0.00    -0.268 NA
ATOM      4  C   UNL     1       2.426   0.986  -1.023  0.00  0.00    +0.090 C 
ATOM      5  C   UNL     1       2.593  -1.103  -0.033  0.00  0.00    +0.105 C 
ATOM      6  C   UNL     1       2.037  -1.676   1.275  0.00  0.00    +0.160 C 
ATOM      7  O   UNL     1       0.684  -1.603   1.133  0.00  0.00    -0.349 OA
ATOM      8  C   UNL     1       0.231  -0.256   1.692  0.00  0.00    +0.152 C 
ENDROOT
BRANCH   8   9
ATOM      9  C   UNL     1      -0.640   0.143   0.374  0.00  0.00    +0.006 A 
ATOM     10  C   UNL     1      -1.542   1.114   0.825  0.00  0.00    -0.002 A 
ATOM     11  C   UNL     1      -2.734   1.363   0.200  0.00  0.00    -0.000 A 
ATOM     12  C   UNL     1      -3.342   0.292  -0.393  0.00  0.00    -0.000 A 
ATOM     13  C   UNL     1      -2.679  -0.926  -0.461  0.00  0.00    -0.000 A 
ATOM     14  C   UNL     1      -1.324  -0.897  -0.229  0.00  0.00    -0.002 A 
ENDBRANCH   8   9
TORSDOF 1
