REMARK  Name = 
REMARK  13 active torsions:
REMARK  status: ('A' for Active; 'I' for Inactive)
REMARK    1  A    between atoms: C_3  and  C_4
REMARK    2  A    between atoms: C_4  and  C_5
REMARK    3  A    between atoms: C_5  and  C_7
REMARK    4  A    between atoms: C_7  and  C_9
REMARK    5  A    between atoms: C_10  and  C_11
REMARK    6  A    between atoms: C_15  and  C_16
REMARK    7  A    between atoms: C_16  and  C_17
REMARK    8  A    between atoms: C_17  and  C_18
REMARK    9  A    between atoms: C_18  and  C_19
REMARK   10  A    between atoms: C_19  and  O_21
REMARK   11  A    between atoms: O_21  and  C_22
REMARK   12  A    between atoms: C_22  and  C_23
REMARK   13  A    between atoms: C_23  and  C_25
REMARK                            x       y       z     vdW  Elec       q    Type
REMARK                         _______ _______ _______ _____ _____    ______ ____
ROOT
ATOM      1  C   UNL     1      -3.350  -1.871  -1.026  0.00  0.00    +0.052 C 
ATOM      2  C   UNL     1      -4.245  -2.821   0.076  0.00  0.00    +0.156 C 
ATOM      3  O   UNL     1      -3.606  -4.071  -0.504  0.00  0.00    -0.223 OA
ATOM      4  C   UNL     1      -3.166  -2.806   1.313  0.00  0.00    +0.034 C 
ATOM      5  C   UNL     1      -1.832  -2.652   0.425  0.00  0.00    +0.007 C 
ATOM      6  C   UNL     1      -0.893  -1.935   1.543  0.00  0.00    +0.022 C 
ATOM      7  C   UNL     1      -0.215  -1.105   0.480  0.00  0.00    -0.048 C 
ATOM      8  C   UNL     1       0.781  -0.264   0.792  0.00  0.00    -0.035 C 
ATOM      9  C   UNL     1      -1.130  -0.830  -0.685  0.00  0.00    +0.022 C 
ATOM     10  C   UNL     1      -2.466  -1.105   0.163  0.00  0.00    +0.011 C 
ENDROOT
BRANCH   1  12
ATOM     11  C   UNL     1      -4.921  -0.176  -0.011  0.00  0.00    +0.002 C 
ATOM     12  C   UNL     1      -4.449  -0.729  -1.099  0.00  0.00    -0.026 C 
BRANCH  11  13
ATOM     13  C   UNL     1      -6.378   0.490  -0.221  0.00  0.00    +0.175 C 
ATOM     14  O   UNL     1      -6.806   0.129   1.192  0.00  0.00    -0.218 OA
BRANCH  13  15
ATOM     15  C   UNL     1      -5.973   2.083   0.283  0.00  0.00    +0.048 C 
ATOM     16  C   UNL     1      -4.453   2.130  -0.272  0.00  0.00    +0.004 C 
BRANCH  15  17
ATOM     17  C   UNL     1      -6.546   2.665  -1.114  0.00  0.00    +0.079 C 
BRANCH  17  20
ATOM     18  C   UNL     1      -9.929   4.376   0.251  0.00  0.00    +0.090 C 
ATOM     19  C   UNL     1      -8.880   3.738  -0.561  0.00  0.00    -0.090 C 
ATOM     20  C   UNL     1      -7.905   3.130  -0.891  0.00  0.00    -0.091 C 
ENDBRANCH  17  20
ENDBRANCH  15  17
ENDBRANCH  13  15
ENDBRANCH  11  13
ENDBRANCH   1  12
BRANCH   8  21
ATOM     21  C   UNL     1       1.538   0.175  -0.428  0.00  0.00    +0.026 C 
BRANCH  21  22
ATOM     22  C   UNL     1       1.918  -1.118  -1.142  0.00  0.00    +0.016 C 
BRANCH  22  23
ATOM     23  C   UNL     1       2.620  -2.035  -0.173  0.00  0.00    +0.110 C 
BRANCH  23  24
ATOM     24  C   UNL     1       3.846  -1.357   0.322  0.00  0.00    +0.317 C 
ATOM     25  O   UNL     1       3.966  -0.106   0.182  0.00  0.00    -0.250 OA
BRANCH  24  26
ATOM     26  O   UNL     1       4.775  -1.944   1.155  0.00  0.00    -0.440 OA
BRANCH  26  27
ATOM     27  C   UNL     1       6.023  -1.306   1.418  0.00  0.00    +0.277 C 
BRANCH  27  28
ATOM     28  C   UNL     1       6.363  -0.426   0.257  0.00  0.00    +0.217 C 
ATOM     29  O   UNL     1       6.521  -1.029  -0.847  0.00  0.00    -0.287 OA
BRANCH  28  30
ATOM     30  C   UNL     1       7.257   0.728   0.490  0.00  0.00    +0.038 A 
ATOM     31  C   UNL     1       6.829   2.029   0.386  0.00  0.00    +0.003 A 
ATOM     32  C   UNL     1       7.647   3.131   0.343  0.00  0.00    +0.000 A 
ATOM     33  C   UNL     1       9.011   2.869   0.498  0.00  0.00    +0.000 A 
ATOM     34  C   UNL     1       9.452   1.551   0.536  0.00  0.00    +0.000 A 
ATOM     35  C   UNL     1       8.595   0.462   0.457  0.00  0.00    +0.003 A 
ENDBRANCH  28  30
ENDBRANCH  27  28
ENDBRANCH  26  27
ENDBRANCH  24  26
ENDBRANCH  23  24
ENDBRANCH  22  23
ENDBRANCH  21  22
ENDBRANCH   8  21
TORSDOF 13
