REMARK  Name = 
REMARK  0 active torsions:
REMARK  status: ('A' for Active; 'I' for Inactive)
REMARK                            x       y       z     vdW  Elec       q    Type
REMARK                         _______ _______ _______ _____ _____    ______ ____
ROOT
ATOM      1  C   UNL     1      -2.925  -2.275   0.244  0.00  0.00    +0.137 C 
ATOM      2  C   UNL     1      -2.029  -1.110  -0.036  0.00  0.00    +0.368 C 
ATOM      3  N   UNL     1      -1.041  -1.144  -1.071  0.00  0.00    -0.007 NA
ATOM      4  C   UNL     1       0.188  -0.455  -1.002  0.00  0.00    +0.204 A 
ATOM      5  C   UNL     1       0.326   0.609  -0.116  0.00  0.00    +0.193 A 
ATOM      6  C   UNL     1       1.498   0.816   0.601  0.00  0.00    +0.038 A 
ATOM      7  C   UNL     1       2.624   0.054   0.314  0.00  0.00    +0.059 A 
ATOM      8  C   UNL     1       2.591  -0.647  -0.886  0.00  0.00    +0.015 A 
ATOM      9 CL   UNL     1       3.720  -0.375   1.618  0.00  0.00    -0.082 Cl
ATOM     10  S   UNL     1      -1.209   1.307   0.388  0.00  0.00    +0.183 S 
ATOM     11  O   UNL     1      -1.798   2.033  -0.801  0.00  0.00    -0.125 OA
ATOM     12  O   UNL     1      -1.073   2.180   1.583  0.00  0.00    -0.125 OA
ATOM     13  C   UNL     1       1.384  -0.943  -1.511  0.00  0.00    +0.047 A 
ATOM     14  N   UNL     1      -2.254  -0.050   0.677  0.00  0.00    +0.095 NA
ENDROOT
TORSDOF 0
