REMARK  Name = 
REMARK  0 active torsions:
REMARK  status: ('A' for Active; 'I' for Inactive)
REMARK                            x       y       z     vdW  Elec       q    Type
REMARK                         _______ _______ _______ _____ _____    ______ ____
ROOT
ATOM      1  C   UNL     1      -1.669  -0.225  -0.201  0.00  0.00    +0.154 C 
ATOM      2  N   UNL     1      -1.030   0.677   0.726  0.00  0.00    -0.230 NA
ATOM      3  C   UNL     1      -0.233   1.691   0.085  0.00  0.00    +0.154 C 
ATOM      4  N   UNL     1       0.788   1.004  -0.690  0.00  0.00    -0.230 NA
ATOM      5  C   UNL     1       1.670   0.221   0.165  0.00  0.00    +0.154 C 
ATOM      6  N   UNL     1       0.887  -0.775   0.885  0.00  0.00    -0.230 NA
ATOM      7  C   UNL     1       0.230  -1.700  -0.033  0.00  0.00    +0.154 C 
ATOM      8  C   UNL     1       0.138   0.108  -1.623  0.00  0.00    +0.154 C 
ATOM      9  C   UNL     1      -0.166  -0.081   1.596  0.00  0.00    +0.154 C 
ATOM     10  N   UNL     1      -0.616  -0.920  -0.911  0.00  0.00    -0.230 NA
ENDROOT
TORSDOF 0
