REMARK  Name = 
REMARK  2 active torsions:
REMARK  status: ('A' for Active; 'I' for Inactive)
REMARK    1  A    between atoms: C_2  and  C_3
REMARK    2  A    between atoms: C_3  and  C_4
REMARK                            x       y       z     vdW  Elec       q    Type
REMARK                         _______ _______ _______ _____ _____    ______ ____
ROOT
ATOM      1  C   UNL     1      -0.142  -0.524   0.032  0.00  0.00    +0.081 A 
ATOM      2  N   UNL     1      -0.686   0.082   1.112  0.00  0.00    -0.227 NA
ATOM      3  C   UNL     1      -1.739   0.768   0.621  0.00  0.00    +0.199 A 
ATOM      4  N   UNL     1      -1.982   0.405  -0.656  0.00  0.00    -0.221 NA
ATOM      5  C   UNL     1      -1.069  -0.532  -1.002  0.00  0.00    +0.115 A 
ENDROOT
BRANCH   1   6
ATOM      6  C   UNL     1       1.192  -1.140  -0.101  0.00  0.00    +0.068 C 
BRANCH   6   8
ATOM      7  N   UNL     1       2.122   1.135  -0.270  0.00  0.00    -0.131 NA
ATOM      8  C   UNL     1       2.303  -0.194   0.263  0.00  0.00    +0.116 C 
ENDBRANCH   6   8
ENDBRANCH   1   6
TORSDOF 2
