REMARK  Name = 
REMARK  7 active torsions:
REMARK  status: ('A' for Active; 'I' for Inactive)
REMARK    1  A    between atoms: N_2  and  C_3
REMARK    2  A    between atoms: C_3  and  C_5
REMARK    3  A    between atoms: C_10  and  O_11
REMARK    4  A    between atoms: O_11  and  C_12
REMARK    5  A    between atoms: C_15  and  O_16
REMARK    6  A    between atoms: O_16  and  C_17
REMARK    7  A    between atoms: C_23  and  N_24
REMARK                            x       y       z     vdW  Elec       q    Type
REMARK                         _______ _______ _______ _____ _____    ______ ____
ROOT
ATOM      1  C   UNL     1       1.785  -1.362   0.765  0.00  0.00    +0.168 C 
ATOM      2  C   UNL     1       1.218  -2.974   0.922  0.00  0.00    +0.123 C 
ATOM      3  N   UNL     1       1.435  -2.918   2.497  0.00  0.00    -0.130 NA
ATOM      4  C   UNL     1      -0.323  -3.012   1.018  0.00  0.00    +0.043 C 
ATOM      5  C   UNL     1      -1.393  -1.942   1.370  0.00  0.00    +0.123 C 
ATOM      6  N   UNL     1      -0.709  -1.399   2.675  0.00  0.00    -0.130 NA
ATOM      7  C   UNL     1      -0.693  -0.943   0.159  0.00  0.00    +0.168 C 
ATOM      8  C   UNL     1       0.467  -0.459   1.297  0.00  0.00    +0.209 C 
ATOM      9  O   UNL     1       0.865   0.734   0.474  0.00  0.00    -0.218 OA
ENDROOT
BRANCH   1  10
ATOM     10  O   UNL     1       1.599  -1.248  -0.707  0.00  0.00    -0.328 OA
BRANCH  10  13
ATOM     11  C   UNL     1       4.247   0.670  -1.753  0.00  0.00    +0.134 C 
ATOM     12  O   UNL     1       3.173   0.446  -0.715  0.00  0.00    -0.331 OA
ATOM     13  C   UNL     1       2.989  -0.965  -1.277  0.00  0.00    +0.253 C 
ATOM     14  C   UNL     1       3.926  -1.782  -0.078  0.00  0.00    +0.148 C 
ATOM     15  N   UNL     1       4.021  -0.712   1.040  0.00  0.00    -0.128 NA
ATOM     16  C   UNL     1       5.312  -1.258  -0.764  0.00  0.00    +0.027 C 
ATOM     17  C   UNL     1       5.392   0.256  -0.656  0.00  0.00    +0.033 C 
BRANCH  11  18
ATOM     18  C   UNL     1       4.388   2.370  -1.575  0.00  0.00    +0.100 C 
ATOM     19  C   UNL     1       2.782   2.604  -1.725  0.00  0.00    +0.021 C 
BRANCH  18  21
ATOM     20  C   UNL     1       4.552   3.817   0.214  0.00  0.00    +0.107 C 
ATOM     21  N   UNL     1       4.339   2.433  -0.022  0.00  0.00    -0.215 NA
ENDBRANCH  18  21
ENDBRANCH  11  18
ENDBRANCH  10  13
ENDBRANCH   1  10
BRANCH   7  22
ATOM     22  O   UNL     1      -1.409   0.305   0.435  0.00  0.00    -0.327 OA
BRANCH  22  23
ATOM     23  C   UNL     1      -2.895   0.233   0.423  0.00  0.00    +0.268 C 
ATOM     24  C   UNL     1      -2.929   0.946  -1.157  0.00  0.00    +0.226 C 
ATOM     25  O   UNL     1      -3.186  -0.275  -1.973  0.00  0.00    -0.216 OA
ATOM     26  C   UNL     1      -4.592   1.320  -1.139  0.00  0.00    +0.138 C 
ATOM     27  C   UNL     1      -5.073   0.325   0.044  0.00  0.00    +0.171 C 
ATOM     28  O   UNL     1      -5.191   0.938   1.206  0.00  0.00    -0.222 OA
ATOM     29  C   UNL     1      -6.517   0.194  -0.486  0.00  0.00    +0.037 C 
ATOM     30  C   UNL     1      -4.517  -1.014  -0.047  0.00  0.00    +0.176 C 
ATOM     31  O   UNL     1      -3.121  -1.197  -0.048  0.00  0.00    -0.326 OA
BRANCH  26  32
ATOM     32  N   UNL     1      -4.345   2.558  -0.206  0.00  0.00    -0.213 NA
ATOM     33  C   UNL     1      -5.595   3.311  -0.211  0.00  0.00    +0.108 C 
ENDBRANCH  26  32
ENDBRANCH  22  23
ENDBRANCH   7  22
TORSDOF 7
