REMARK  Name = 
REMARK  4 active torsions:
REMARK  status: ('A' for Active; 'I' for Inactive)
REMARK    1  A    between atoms: O_2  and  C_3
REMARK    2  A    between atoms: C_8  and  C_9
REMARK    3  A    between atoms: C_9  and  C_10
REMARK    4  A    between atoms: C_10  and  C_11
REMARK                            x       y       z     vdW  Elec       q    Type
REMARK                         _______ _______ _______ _____ _____    ______ ____
ROOT
ATOM      1  C   UNL     1      -3.519   0.438  -0.311  0.00  0.00    +0.139 A 
ATOM      2  C   UNL     1      -2.317   0.882  -0.851  0.00  0.00    +0.037 A 
ATOM      3  C   UNL     1      -1.143   0.225  -0.622  0.00  0.00    +0.003 A 
ATOM      4  C   UNL     1      -1.057  -0.713   0.400  0.00  0.00    -0.000 A 
ATOM      5  C   UNL     1       0.179  -1.197   0.814  0.00  0.00    -0.004 A 
ATOM      6  C   UNL     1       1.357  -0.746   0.228  0.00  0.00    -0.022 A 
ATOM      7  C   UNL     1       1.207  -0.181  -1.032  0.00  0.00    -0.004 A 
ATOM      8  C   UNL     1      -2.230  -1.201   0.942  0.00  0.00    +0.003 A 
ATOM      9  C   UNL     1      -0.027   0.310  -1.437  0.00  0.00    -0.000 A 
ATOM     10  C   UNL     1      -3.436  -0.700   0.480  0.00  0.00    +0.037 A 
ENDROOT
BRANCH   1  12
ATOM     11  C   UNL     1      -5.827   1.171  -0.574  0.00  0.00    +0.252 C 
ATOM     12  O   UNL     1      -4.528   1.365  -0.024  0.00  0.00    -0.471 OA
ENDBRANCH   1  12
BRANCH   6  13
ATOM     13  C   UNL     1       2.561  -0.496   1.077  0.00  0.00    +0.034 C 
BRANCH  13  14
ATOM     14  C   UNL     1       3.834  -0.947   0.421  0.00  0.00    +0.069 C 
BRANCH  14  15
ATOM     15  C   UNL     1       4.684   0.223   0.109  0.00  0.00    +0.151 C 
ATOM     16  O   UNL     1       4.812   0.577  -1.052  0.00  0.00    -0.296 OA
ATOM     17  C   UNL     1       5.449   0.990   1.132  0.00  0.00    +0.072 C 
ENDBRANCH  14  15
ENDBRANCH  13  14
ENDBRANCH   6  13
TORSDOF 4
