REMARK  Name = 
REMARK  3 active torsions:
REMARK  status: ('A' for Active; 'I' for Inactive)
REMARK    1  A    between atoms: C_5  and  N_6
REMARK    2  A    between atoms: C_9  and  S_10
REMARK    3  A    between atoms: S_10  and  C_11
REMARK                            x       y       z     vdW  Elec       q    Type
REMARK                         _______ _______ _______ _____ _____    ______ ____
ROOT
ATOM      1  S   UNL     1      -0.323   0.179  -1.285  0.00  0.00    -0.041 S 
ENDROOT
BRANCH   1   2
ATOM      2  C   UNL     1       1.021  -0.007  -0.108  0.00  0.00    +0.135 A 
ATOM      3  C   UNL     1       2.205   0.703  -0.232  0.00  0.00    +0.143 A 
ATOM      4  C   UNL     1       3.400   0.056   0.056  0.00  0.00    +0.185 A 
ATOM      5  N   UNL     1       4.389   0.854  -0.381  0.00  0.00    -0.203 NA
ATOM      6  C   UNL     1       3.810   2.013  -0.774  0.00  0.00    +0.200 A 
ATOM      7  N   UNL     1       3.302  -0.976   0.930  0.00  0.00    -0.203 NA
ATOM      8  C   UNL     1       2.101  -1.343   1.439  0.00  0.00    +0.201 A 
ATOM      9  N   UNL     1       2.468   1.852  -0.863  0.00  0.00    -0.219 NA
ATOM     10  N   UNL     1       0.936  -0.917   0.894  0.00  0.00    -0.216 NA
ENDBRANCH   1   2
BRANCH   1  13
ATOM     11  C   UNL     1      -1.152  -2.975  -0.930  0.00  0.00    +0.133 C 
ATOM     12  N   UNL     1      -2.053  -1.904  -0.516  0.00  0.00    -0.297 N 
ATOM     13  C   UNL     1      -1.781  -0.593  -0.626  0.00  0.00    +0.184 A 
ATOM     14  C   UNL     1      -2.743   0.088   0.099  0.00  0.00    +0.400 A 
ATOM     15  N   UNL     1      -3.639  -0.842   0.453  0.00  0.00    -0.158 NA
ATOM     16  C   UNL     1      -3.291  -2.057   0.004  0.00  0.00    +0.185 A 
BRANCH  14  17
ATOM     17  N   UNL     1      -2.930   1.508   0.076  0.00  0.00    +0.103 N 
ATOM     18  O   UNL     1      -1.815   2.293   0.309  0.00  0.00    -0.575 OA
ATOM     19  O   UNL     1      -3.905   2.067  -0.435  0.00  0.00    +0.043 OA
ENDBRANCH  14  17
ENDBRANCH   1  13
TORSDOF 3
