REMARK  Name = 
REMARK  11 active torsions:
REMARK  status: ('A' for Active; 'I' for Inactive)
REMARK    1  A    between atoms: C_2  and  C_3
REMARK    2  A    between atoms: C_3  and  N_5
REMARK    3  A    between atoms: N_8  and  C_9
REMARK    4  A    between atoms: C_12  and  N_13
REMARK    5  A    between atoms: N_16  and  C_17
REMARK    6  A    between atoms: C_20  and  O_21
REMARK    7  A    between atoms: O_21  and  C_22
REMARK    8  A    between atoms: C_22  and  C_23
REMARK    9  A    between atoms: C_26  and  C_27
REMARK   10  A    between atoms: C_26  and  C_33
REMARK   11  A    between atoms: C_27  and  N_28
REMARK                            x       y       z     vdW  Elec       q    Type
REMARK                         _______ _______ _______ _____ _____    ______ ____
ROOT
ATOM      1  C   UNL     1      -0.009  -0.812   0.703  0.00  0.00    +0.048 A 
ATOM      2  C   UNL     1      -0.081  -1.722  -0.336  0.00  0.00    +0.018 A 
ATOM      3  C   UNL     1      -1.297  -2.182  -0.827  0.00  0.00    +0.038 A 
ATOM      4  C   UNL     1      -2.428  -1.595  -0.298  0.00  0.00    +0.139 A 
ATOM      5  C   UNL     1      -2.341  -1.205   1.033  0.00  0.00    +0.038 A 
ATOM      6  C   UNL     1      -1.123  -0.762   1.529  0.00  0.00    +0.018 A 
ENDROOT
BRANCH   1  10
ATOM      7  N   UNL     1       3.089  -1.434  -0.158  0.00  0.00    -0.304 N 
ATOM      8  C   UNL     1       2.296  -0.619  -1.076  0.00  0.00    +0.112 C 
ATOM      9  C   UNL     1       1.719   0.577  -0.329  0.00  0.00    +0.112 C 
ATOM     10  N   UNL     1       1.122   0.046   0.895  0.00  0.00    -0.304 N 
ATOM     11  C   UNL     1       2.108  -0.499   1.830  0.00  0.00    +0.112 C 
ATOM     12  C   UNL     1       2.589  -1.787   1.169  0.00  0.00    +0.112 C 
BRANCH   7  16
ATOM     13  C   UNL     1       7.209  -1.207   0.158  0.00  0.00    +0.070 A 
ATOM     14  C   UNL     1       6.398  -0.231   0.691  0.00  0.00    +0.019 A 
ATOM     15  C   UNL     1       5.035  -0.306   0.605  0.00  0.00    +0.016 A 
ATOM     16  C   UNL     1       4.511  -1.278  -0.238  0.00  0.00    +0.048 A 
ATOM     17  C   UNL     1       5.286  -2.376  -0.530  0.00  0.00    +0.016 A 
ATOM     18  C   UNL     1       6.633  -2.400  -0.189  0.00  0.00    +0.019 A 
BRANCH  13  22
ATOM     19  N   UNL     1      10.464   0.037   0.050  0.00  0.00    -0.202 N 
ATOM     20  C   UNL     1       9.171   0.248  -0.015  0.00  0.00    +0.352 A 
ATOM     21  O   UNL     1       8.622   1.381  -0.160  0.00  0.00    -0.244 OA
ATOM     22  N   UNL     1       8.600  -0.979  -0.096  0.00  0.00    -0.240 N 
ATOM     23  C   UNL     1       9.551  -1.858   0.303  0.00  0.00    +0.207 A 
ATOM     24  N   UNL     1      10.696  -1.169   0.527  0.00  0.00    -0.144 NA
BRANCH  19  25
ATOM     25  C   UNL     1      11.543   1.182   0.268  0.00  0.00    +0.110 C 
ATOM     26  C   UNL     1      10.838   2.180  -0.865  0.00  0.00    +0.027 C 
BRANCH  25  28
ATOM     27  C   UNL     1      10.494   1.944   1.723  0.00  0.00    +0.002 C 
ATOM     28  C   UNL     1      10.688   1.896   1.508  0.00  0.00    +0.025 C 
ENDBRANCH  25  28
ENDBRANCH  19  25
ENDBRANCH  13  22
ENDBRANCH   7  16
ENDBRANCH   1  10
BRANCH   4  29
ATOM     29  O   UNL     1      -3.552  -1.375  -1.055  0.00  0.00    -0.473 OA
BRANCH  29  30
ATOM     30  C   UNL     1      -3.737  -0.461  -2.064  0.00  0.00    +0.237 C 
BRANCH  30  31
ATOM     31  C   UNL     1      -4.052   1.018  -1.338  0.00  0.00    +0.191 C 
ATOM     32  O   UNL     1      -4.788   0.379  -0.149  0.00  0.00    -0.325 OA
ATOM     33  C   UNL     1      -6.084   0.616  -0.355  0.00  0.00    +0.231 C 
ATOM     34  O   UNL     1      -6.303   1.602  -1.271  0.00  0.00    -0.327 OA
ATOM     35  C   UNL     1      -5.449   1.179  -2.249  0.00  0.00    +0.178 C 
BRANCH  33  36
ATOM     36  C   UNL     1      -6.662   1.133   0.930  0.00  0.00    +0.041 A 
ATOM     37  C   UNL     1      -7.651   2.111   0.932  0.00  0.00    +0.059 A 
ATOM     38 CL   UNL     1      -8.600   2.360  -0.514  0.00  0.00    -0.082 Cl
ATOM     39  C   UNL     1      -7.985   2.801   2.091  0.00  0.00    +0.023 A 
ATOM     40  C   UNL     1      -7.035   2.880   3.103  0.00  0.00    +0.058 A 
ATOM     41 CL   UNL     1      -6.921   4.271   4.167  0.00  0.00    -0.082 Cl
ATOM     42  C   UNL     1      -6.186   1.810   3.218  0.00  0.00    +0.011 A 
ATOM     43  C   UNL     1      -5.993   0.983   2.139  0.00  0.00    +0.002 A 
ENDBRANCH  33  36
BRANCH  33  44
ATOM     44  C   UNL     1      -6.698  -0.711  -0.664  0.00  0.00    +0.190 C 
BRANCH  44  45
ATOM     45  N   UNL     1      -7.911  -0.672  -1.418  0.00  0.00    -0.225 N 
ATOM     46  N   UNL     1      -7.961  -0.700  -2.751  0.00  0.00    -0.145 NA
ATOM     47  C   UNL     1      -9.145  -1.136  -3.180  0.00  0.00    +0.221 A 
ATOM     48  N   UNL     1      -9.734  -1.671  -2.111  0.00  0.00    -0.201 NA
ATOM     49  C   UNL     1      -8.937  -1.490  -1.064  0.00  0.00    +0.197 A 
ENDBRANCH  44  45
ENDBRANCH  33  44
ENDBRANCH  30  31
ENDBRANCH  29  30
ENDBRANCH   4  29
TORSDOF 11
