REMARK  Name = 
REMARK  2 active torsions:
REMARK  status: ('A' for Active; 'I' for Inactive)
REMARK    1  A    between atoms: C_7  and  C_8
REMARK    2  A    between atoms: C_9  and  C_10
REMARK                            x       y       z     vdW  Elec       q    Type
REMARK                         _______ _______ _______ _____ _____    ______ ____
ROOT
ATOM      1  C   UNL     1       1.977  -1.544   1.375  0.00  0.00    +0.254 C 
ATOM      2  N   UNL     1       2.194  -0.365   0.572  0.00  0.00    -0.187 N 
ATOM      3  C   UNL     1       1.413  -0.190  -0.616  0.00  0.00    +0.319 C 
ATOM      4  N   UNL     1       1.654   0.912  -1.265  0.00  0.00    -0.065 NA
ATOM      5  C   UNL     1       2.979   1.492  -1.357  0.00  0.00    +0.267 C 
ATOM      6  C   UNL     1       3.801   1.255  -0.111  0.00  0.00    +0.109 C 
ATOM      7  C   UNL     1       2.930   0.804   1.052  0.00  0.00    +0.207 C 
ENDROOT
BRANCH   3   8
ATOM      8  C   UNL     1       0.115  -0.860  -0.776  0.00  0.00    +0.089 C 
ATOM      9  C   UNL     1      -0.693  -1.133   0.218  0.00  0.00    +0.014 C 
BRANCH   9  10
ATOM     10  C   UNL     1      -2.062  -0.619   0.335  0.00  0.00    +0.030 A 
ATOM     11  S   UNL     1      -2.725   0.585   1.361  0.00  0.00    -0.086 S 
ATOM     12  C   UNL     1      -4.294   0.694   0.673  0.00  0.00    +0.035 A 
ATOM     13  C   UNL     1      -4.088  -0.005  -0.511  0.00  0.00    +0.007 A 
ATOM     14  C   UNL     1      -3.200  -1.027  -0.344  0.00  0.00    +0.007 A 
ENDBRANCH   9  10
ENDBRANCH   3   8
TORSDOF 2
