REMARK  Name = 
REMARK  3 active torsions:
REMARK  status: ('A' for Active; 'I' for Inactive)
REMARK    1  A    between atoms: C_2  and  O_3
REMARK    2  A    between atoms: C_2  and  C_16
REMARK    3  A    between atoms: O_3  and  C_4
REMARK                            x       y       z     vdW  Elec       q    Type
REMARK                         _______ _______ _______ _____ _____    ______ ____
ROOT
ATOM      1  O   UNL     1      -0.378  -0.380  -0.688  0.00  0.00    -0.449 OA
ENDROOT
BRANCH   1   2
ATOM      2  C   UNL     1       0.985  -0.685  -0.630  0.00  0.00    +0.172 C 
ATOM      3  C   UNL     1       1.589   0.318  -1.615  0.00  0.00    +0.060 C 
ATOM      4  C   UNL     1       3.212   0.050  -1.757  0.00  0.00    +0.062 C 
ATOM      5  N   UNL     1       3.258  -0.708  -0.397  0.00  0.00    -0.269 NA
ATOM      6  C   UNL     1       2.528   0.555   0.225  0.00  0.00    +0.062 C 
ATOM      7  C   UNL     1       3.683   0.717   1.352  0.00  0.00    +0.024 C 
ATOM      8  C   UNL     1       4.526   1.276   0.160  0.00  0.00    +0.062 C 
ATOM      9  C   UNL     1       5.434   0.097  -0.073  0.00  0.00    +0.166 C 
ATOM     10  O   UNL     1       6.359   0.012   0.735  0.00  0.00    -0.295 OA
ATOM     11  C   UNL     1       4.463  -1.050   0.009  0.00  0.00    +0.137 C 
ATOM     12  C   UNL     1       3.779   1.468  -1.128  0.00  0.00    +0.024 C 
ATOM     13  C   UNL     1       1.434  -0.472   0.849  0.00  0.00    +0.060 C 
ENDBRANCH   1   2
BRANCH   1  15
ATOM     14  O   UNL     1      -1.075  -1.807   0.685  0.00  0.00    -0.245 OA
ATOM     15  C   UNL     1      -1.240  -0.806   0.330  0.00  0.00    +0.343 C 
BRANCH  15  16
ATOM     16  C   UNL     1      -2.416   0.037   0.595  0.00  0.00    +0.096 A 
ATOM     17  C   UNL     1      -3.668  -0.179   0.087  0.00  0.00    +0.025 A 
ATOM     18  C   UNL     1      -4.483   0.813   0.613  0.00  0.00    +0.082 A 
ATOM     19  C   UNL     1      -5.854   0.604   0.639  0.00  0.00    +0.019 A 
ATOM     20  C   UNL     1      -6.350  -0.563   0.072  0.00  0.00    +0.002 A 
ATOM     21  C   UNL     1      -5.515  -1.452  -0.593  0.00  0.00    +0.000 A 
ATOM     22  N   UNL     1      -3.658   1.790   1.053  0.00  0.00    -0.244 NA
ATOM     23  C   UNL     1      -4.228  -1.005  -0.870  0.00  0.00    +0.002 A 
ATOM     24  C   UNL     1      -2.386   1.371   0.970  0.00  0.00    +0.105 A 
ENDBRANCH  15  16
ENDBRANCH   1  15
TORSDOF 3
