REMARK  Name = 
REMARK  4 active torsions:
REMARK  status: ('A' for Active; 'I' for Inactive)
REMARK    1  A    between atoms: C_2  and  C_4
REMARK    2  A    between atoms: N_11  and  C_12
REMARK    3  A    between atoms: C_15  and  N_16
REMARK    4  A    between atoms: N_26  and  C_27
REMARK                            x       y       z     vdW  Elec       q    Type
REMARK                         _______ _______ _______ _____ _____    ______ ____
ROOT
ATOM      1  C   UNL     1      -4.645  -0.305   1.011  0.00  0.00    +0.087 A 
ATOM      2  C   UNL     1      -4.254   0.751   0.205  0.00  0.00    +0.264 A 
ATOM      3  O   UNL     1      -4.908   1.833   0.306  0.00  0.00    -0.267 OA
ATOM      4  N   UNL     1      -3.122   0.726  -0.504  0.00  0.00    -0.282 N 
ATOM      5  C   UNL     1      -2.269  -0.320  -0.407  0.00  0.00    +0.150 A 
ATOM      6  C   UNL     1      -2.502  -1.197   0.639  0.00  0.00    +0.050 A 
ATOM      7  C   UNL     1      -1.615  -2.232   0.846  0.00  0.00    +0.105 A 
ATOM      8  N   UNL     1      -0.397  -2.102   0.282  0.00  0.00    -0.210 NA
ATOM      9  C   UNL     1      -0.238  -1.312  -0.809  0.00  0.00    +0.244 A 
ATOM     10  N   UNL     1       1.121  -1.135  -1.225  0.00  0.00    -0.159 NA
ATOM     11  N   UNL     1      -1.183  -0.438  -1.209  0.00  0.00    -0.195 NA
ATOM     12  C   UNL     1      -3.732  -1.312   1.251  0.00  0.00    -0.010 A 
ATOM     13  C   UNL     1      -4.177  -2.615   1.808  0.00  0.00    +0.031 C 
ENDROOT
BRANCH  10  14
ATOM     14  C   UNL     1       2.026  -0.755  -0.181  0.00  0.00    +0.155 A 
ATOM     15  N   UNL     1       2.663  -1.671   0.584  0.00  0.00    -0.226 NA
ATOM     16  C   UNL     1       3.965  -1.485   0.911  0.00  0.00    +0.115 A 
ATOM     17  C   UNL     1       4.585  -0.260   0.697  0.00  0.00    +0.067 A 
ATOM     18  C   UNL     1       3.721   0.791   0.419  0.00  0.00    +0.019 A 
ATOM     19  C   UNL     1       2.408   0.559   0.027  0.00  0.00    +0.037 A 
BRANCH  17  20
ATOM     20  N   UNL     1       5.973  -0.216   0.351  0.00  0.00    -0.303 N 
ATOM     21  C   UNL     1       7.013  -0.523   1.300  0.00  0.00    +0.110 C 
ATOM     22  C   UNL     1       8.317   0.149   0.975  0.00  0.00    +0.110 C 
ATOM     23  N   UNL     1       8.634   0.137  -0.433  0.00  0.00    -0.214 NA
ATOM     24  C   UNL     1       7.542   0.601  -1.256  0.00  0.00    +0.110 C 
ATOM     25  C   UNL     1       6.312  -0.251  -1.065  0.00  0.00    +0.110 C 
ENDBRANCH  17  20
ENDBRANCH  10  14
BRANCH   4  26
ATOM     26  C   UNL     1      -3.041   1.524  -1.712  0.00  0.00    +0.090 C 
ATOM     27  C   UNL     1      -3.608   2.893  -1.464  0.00  0.00    +0.023 C 
ATOM     28  C   UNL     1      -2.486   3.880  -1.616  0.00  0.00    +0.002 C 
ATOM     29  C   UNL     1      -1.200   3.103  -1.635  0.00  0.00    +0.002 C 
ATOM     30  C   UNL     1      -1.575   1.695  -2.026  0.00  0.00    +0.023 C 
ENDBRANCH   4  26
BRANCH   1  32
ATOM     31  C   UNL     1      -6.433   0.639   2.524  0.00  0.00    +0.077 C 
ATOM     32  C   UNL     1      -5.998  -0.383   1.527  0.00  0.00    +0.178 C 
ATOM     33  O   UNL     1      -6.894  -0.773   0.721  0.00  0.00    -0.291 OA
ENDBRANCH   1  32
TORSDOF 4
