REMARK  Name = 
REMARK  5 active torsions:
REMARK  status: ('A' for Active; 'I' for Inactive)
REMARK    1  A    between atoms: C_2  and  C_3
REMARK    2  A    between atoms: C_3  and  C_5
REMARK    3  A    between atoms: C_5  and  C_7
REMARK    4  A    between atoms: C_7  and  C_9
REMARK    5  A    between atoms: C_9  and  C_11
REMARK                            x       y       z     vdW  Elec       q    Type
REMARK                         _______ _______ _______ _____ _____    ______ ____
ROOT
ATOM      1  C   UNL     1      -0.584  -1.127  -0.717  0.00  0.00    +0.223 C 
ATOM      2  O   UNL     1      -0.356  -1.107  -2.208  0.00  0.00    -0.217 OA
ENDROOT
BRANCH   1   3
ATOM      3  C   UNL     1      -1.726   0.177  -0.885  0.00  0.00    +0.249 C 
ATOM      4  O   UNL     1      -2.876  -0.828  -0.988  0.00  0.00    -0.212 OA
BRANCH   3   6
ATOM      5  O   UNL     1      -3.085   0.646   0.996  0.00  0.00    -0.285 OA
ATOM      6  C   UNL     1      -1.967   0.287   0.731  0.00  0.00    +0.243 C 
ENDBRANCH   3   6
ENDBRANCH   1   3
BRANCH   1   7
ATOM      7  C   UNL     1       0.708  -0.047  -0.346  0.00  0.00    +0.218 C 
ATOM      8  O   UNL     1       1.689  -0.801  -1.204  0.00  0.00    -0.217 OA
BRANCH   7   9
ATOM      9  C   UNL     1       1.050  -0.966   1.095  0.00  0.00    +0.218 C 
ATOM     10  O   UNL     1       1.240   0.277   1.967  0.00  0.00    -0.217 OA
BRANCH   9  11
ATOM     11  C   UNL     1       2.679  -1.121   0.820  0.00  0.00    +0.217 C 
ATOM     12  O   UNL     1       3.227   0.115   0.739  0.00  0.00    -0.217 OA
ENDBRANCH   9  11
ENDBRANCH   7   9
ENDBRANCH   1   7
TORSDOF 5
