REMARK  Name = 
REMARK  10 active torsions:
REMARK  status: ('A' for Active; 'I' for Inactive)
REMARK    1  A    between atoms: C_2  and  O_3
REMARK    2  A    between atoms: O_3  and  C_4
REMARK    3  A    between atoms: C_4  and  C_6
REMARK    4  A    between atoms: C_6  and  C_7
REMARK    5  A    between atoms: C_6  and  N_15
REMARK    6  A    between atoms: C_7  and  C_8
REMARK    7  A    between atoms: C_8  and  C_9
REMARK    8  A    between atoms: N_15  and  CA_16
REMARK    9  A    between atoms: CA_16  and  C_18
REMARK   10  A    between atoms: CA_24  and  C_25
REMARK                            x       y       z     vdW  Elec       q    Type
REMARK                         _______ _______ _______ _____ _____    ______ ____
ROOT
ATOM      1  C   UNK A   0      -0.886   1.320  -0.199  0.00  0.00    +0.172 C 
ENDROOT
BRANCH   1   2
ATOM      2  C   UNK A   0      -0.977   2.815   0.393  0.00  0.00    +0.333 C 
ATOM      3  O   UNK A   0      -2.079   3.238   0.738  0.00  0.00    -0.249 OA
BRANCH   2   4
ATOM      4  O   UNK A   0      -0.070   3.671  -0.245  0.00  0.00    -0.448 OA
BRANCH   4   6
ATOM      5  C   UNK A   0      -0.780   5.789   0.300  0.00  0.00    +0.051 C 
ATOM      6  C   UNK A   0       0.119   4.913   0.405  0.00  0.00    +0.209 C 
ENDBRANCH   4   6
ENDBRANCH   2   4
ENDBRANCH   1   2
BRANCH   1   7
ATOM      7  N   ALA A   1       0.376   1.009   0.674  0.00  0.00    -0.201 NA
BRANCH   7   8
ATOM      8  CA  ALA A   1       0.623  -0.526   0.455  0.00  0.00    +0.149 C 
ATOM      9  CB  ALA A   1      -0.112  -0.659  -1.014  0.00  0.00    +0.029 C 
BRANCH   8  10
ATOM     10  C   ALA A   1       2.065  -0.248  -0.213  0.00  0.00    +0.242 C 
ATOM     11  N   PRO A   2       2.921  -1.316   0.116  0.00  0.00    -0.270 N 
ATOM     12  CA  PRO A   2       4.274  -1.384  -0.686  0.00  0.00    +0.179 C 
ATOM     13  CB  PRO A   2       4.964  -0.295   0.336  0.00  0.00    +0.033 C 
ATOM     14  CG  PRO A   2       4.517  -0.790   1.664  0.00  0.00    +0.024 C 
ATOM     15  CD  PRO A   2       3.258  -1.574   1.484  0.00  0.00    +0.094 C 
ATOM     16  O   ALA A   1       2.141   0.522  -1.159  0.00  0.00    -0.273 OA
BRANCH  12  17
ATOM     17  C   PRO A   2       4.805  -2.667   0.137  0.00  0.00    +0.382 C 
ATOM     18  OXT PRO A   2       4.064  -3.817  -0.093  0.00  0.00    -0.244 OA
ATOM     19  O   PRO A   2       5.972  -2.663   0.517  0.00  0.00    -0.244 OA
ENDBRANCH  12  17
ENDBRANCH   8  10
ENDBRANCH   7   8
ENDBRANCH   1   7
BRANCH   1  20
ATOM     20  C   UNK A   0      -1.908   0.691   0.930  0.00  0.00    +0.033 C 
BRANCH  20  21
ATOM     21  C   UNK A   0      -3.135   0.615   0.030  0.00  0.00    +0.028 C 
BRANCH  21  22
ATOM     22  C   UNK A   0      -3.880  -0.670   0.221  0.00  0.00    -0.022 A 
ATOM     23  C   UNK A   0      -5.121  -0.497   0.826  0.00  0.00    -0.004 A 
ATOM     24  C   UNK A   0      -6.212  -1.280   0.534  0.00  0.00    -0.000 A 
ATOM     25  C   UNK A   0      -6.165  -2.126  -0.559  0.00  0.00    -0.000 A 
ATOM     26  C   UNK A   0      -4.927  -2.430  -1.086  0.00  0.00    -0.000 A 
ATOM     27  C   UNK A   0      -3.848  -1.641  -0.774  0.00  0.00    -0.004 A 
ENDBRANCH  21  22
ENDBRANCH  20  21
ENDBRANCH   1  20
TORSDOF 10
