REMARK  Name = 
REMARK  0 active torsions:
REMARK  status: ('A' for Active; 'I' for Inactive)
REMARK                            x       y       z     vdW  Elec       q    Type
REMARK                         _______ _______ _______ _____ _____    ______ ____
ROOT
ATOM      1  C   UNL     1       5.384   1.739   0.629  0.00  0.00    +0.090 C 
ATOM      2  N   UNL     1       4.622   0.655   0.092  0.00  0.00    -0.265 NA
ATOM      3  C   UNL     1       3.945  -0.159   1.025  0.00  0.00    +0.124 C 
ATOM      4  C   UNL     1       2.465   0.003   1.106  0.00  0.00    +0.220 C 
ATOM      5  N   UNL     1       1.936  -0.054  -0.254  0.00  0.00    -0.188 N 
ATOM      6  C   UNL     1       0.514  -0.203  -0.347  0.00  0.00    +0.325 C 
ATOM      7  C   UNL     1      -0.009  -1.522   0.026  0.00  0.00    +0.097 A 
ATOM      8  C   UNL     1      -1.324  -1.957  -0.091  0.00  0.00    +0.078 A 
ATOM      9  C   UNL     1      -1.722  -3.164   0.471  0.00  0.00    +0.017 A 
ATOM     10  C   UNL     1      -0.705  -4.008   0.861  0.00  0.00    +0.001 A 
ATOM     11  C   UNL     1       0.593  -3.782   0.432  0.00  0.00    +0.000 A 
ATOM     12  N   UNL     1      -2.443  -1.192  -0.552  0.00  0.00    -0.208 NA
ATOM     13  C   UNL     1      -2.477   0.234  -0.641  0.00  0.00    +0.113 A 
ATOM     14  C   UNL     1      -1.516   1.177  -0.294  0.00  0.00    +0.209 A 
ATOM     15  C   UNL     1      -1.869   2.457   0.097  0.00  0.00    +0.059 A 
ATOM     16  C   UNL     1      -3.221   2.762   0.191  0.00  0.00    +0.061 A 
ATOM     17  C   UNL     1      -4.063   2.019  -0.622  0.00  0.00    +0.013 A 
ATOM     18 CL   UNL     1      -3.801   4.047   1.226  0.00  0.00    -0.082 Cl
ATOM     19  C   UNL     1      -3.724   0.729  -1.003  0.00  0.00    +0.021 A 
ATOM     20  C   UNL     1       0.981  -2.475   0.179  0.00  0.00    +0.009 A 
ATOM     21  N   UNL     1      -0.114   0.919  -0.151  0.00  0.00    -0.039 NA
ATOM     22  C   UNL     1       2.526   0.900  -1.187  0.00  0.00    +0.220 C 
ATOM     23  C   UNL     1       4.022   0.874  -1.168  0.00  0.00    +0.124 C 
ENDROOT
TORSDOF 0
