REMARK  Name = 
REMARK  3 active torsions:
REMARK  status: ('A' for Active; 'I' for Inactive)
REMARK    1  A    between atoms: C_3  and  C_5
REMARK    2  A    between atoms: C_8  and  N_9
REMARK    3  A    between atoms: C_15  and  C_16
REMARK                            x       y       z     vdW  Elec       q    Type
REMARK                         _______ _______ _______ _____ _____    ______ ____
ROOT
ATOM      1  C   UNL     1       1.269  -0.141  -0.409  0.00  0.00    +0.067 A 
ATOM      2  C   UNL     1       0.948   1.209  -0.375  0.00  0.00    +0.042 A 
ATOM      3  I   UNL     1       2.463   2.678  -0.487  0.00  0.00    -0.042 I 
ATOM      4  C   UNL     1      -0.358   1.656  -0.413  0.00  0.00    +0.092 A 
ATOM      5  C   UNL     1      -1.323   0.737  -0.807  0.00  0.00    +0.053 A 
ATOM      6  I   UNL     1      -3.240   1.510  -1.181  0.00  0.00    -0.041 I 
ATOM      7  C   UNL     1      -1.007  -0.606  -0.981  0.00  0.00    +0.084 A 
ATOM      8  C   UNL     1       0.248  -1.060  -0.598  0.00  0.00    +0.051 A 
ATOM      9  I   UNL     1       0.517  -3.022   0.108  0.00  0.00    -0.041 I 
ENDROOT
BRANCH   1  12
ATOM     10  C   UNL     1       3.870  -1.970   1.583  0.00  0.00    +0.139 C 
ATOM     11  N   UNL     1       2.902  -0.944   1.259  0.00  0.00    -0.200 NA
ATOM     12  C   UNL     1       2.641  -0.553  -0.090  0.00  0.00    +0.266 C 
ATOM     13  O   UNL     1       3.279  -1.143  -0.982  0.00  0.00    -0.268 OA
ENDBRANCH   1  12
BRANCH   7  14
ATOM     14  N   UNL     1      -2.076  -1.523  -0.905  0.00  0.00    -0.178 NA
ATOM     15  C   UNL     1      -2.517  -1.993   0.375  0.00  0.00    +0.246 C 
ATOM     16  O   UNL     1      -2.279  -1.251   1.349  0.00  0.00    -0.273 OA
ATOM     17  C   UNL     1      -3.670  -2.945   0.323  0.00  0.00    +0.097 C 
ENDBRANCH   7  14
BRANCH   4  18
ATOM     18  C   UNL     1      -0.692   2.844   0.384  0.00  0.00    +0.389 C 
ATOM     19  O   UNL     1       0.196   3.912   0.314  0.00  0.00    -0.241 OA
ATOM     20  O   UNL     1      -1.171   2.605   1.534  0.00  0.00    -0.241 OA
ENDBRANCH   4  18
TORSDOF 3
