REMARK  Name = 
REMARK  4 active torsions:
REMARK  status: ('A' for Active; 'I' for Inactive)
REMARK    1  A    between atoms: C_2  and  O_4
REMARK    2  A    between atoms: O_4  and  C_5
REMARK    3  A    between atoms: C_5  and  C_6
REMARK    4  A    between atoms: C_6  and  C_8
REMARK                            x       y       z     vdW  Elec       q    Type
REMARK                         _______ _______ _______ _____ _____    ______ ____
ROOT
ATOM      1  C   UNL     1       2.187  -0.180  -0.442  0.00  0.00    +0.178 C 
ATOM      2  C   UNL     1       0.836   0.140  -0.119  0.00  0.00    +0.031 C 
ATOM      3  C   UNL     1       0.013  -0.675  -1.274  0.00  0.00    +0.006 C 
ATOM      4  C   UNL     1      -1.357  -0.654  -0.265  0.00  0.00    +0.004 C 
ATOM      5  C   UNL     1      -1.917   0.744  -1.030  0.00  0.00    +0.038 C 
ATOM      6  C   UNL     1      -1.097   1.866   0.018  0.00  0.00    +0.153 C 
ATOM      7  O   UNL     1      -1.178   0.975   1.269  0.00  0.00    -0.223 OA
ATOM      8  C   UNL     1      -3.312   0.820  -0.251  0.00  0.00    +0.036 C 
ATOM      9  C   UNL     1      -3.695  -0.475   0.318  0.00  0.00    -0.038 C 
ATOM     10  C   UNL     1      -4.835  -0.348   1.011  0.00  0.00    +0.034 C 
ATOM     11  C   UNL     1      -5.827   0.686   0.667  0.00  0.00    +0.195 C 
ATOM     12  C   UNL     1      -5.588   1.246  -0.673  0.00  0.00    +0.038 C 
ATOM     13  O   UNL     1      -6.859   0.842   1.333  0.00  0.00    -0.287 OA
ATOM     14  C   UNL     1      -3.432  -1.770  -0.393  0.00  0.00    +0.022 C 
ATOM     15  C   UNL     1      -3.399   1.967   0.657  0.00  0.00    +0.009 C 
ATOM     16  C   UNL     1      -4.393   1.099  -1.261  0.00  0.00    -0.020 C 
ATOM     17  C   UNL     1      -2.203  -1.586  -1.277  0.00  0.00    +0.004 C 
ATOM     18  C   UNL     1       0.600  -2.050  -0.620  0.00  0.00    +0.046 C 
ATOM     19  C   UNL     1       0.638  -0.556   1.178  0.00  0.00    +0.003 C 
ATOM     20  C   UNL     1       0.435   1.427  -0.433  0.00  0.00    +0.035 C 
ATOM     21  C   UNL     1       2.183  -1.724  -1.064  0.00  0.00    +0.194 C 
ATOM     22  O   UNL     1       1.803  -1.194  -2.492  0.00  0.00    -0.465 OA
ATOM     23  C   UNL     1       2.730  -0.152  -2.624  0.00  0.00    +0.196 C 
ATOM     24  C   UNL     1       3.108   0.501  -3.918  0.00  0.00    +0.094 C 
ATOM     25  N   UNL     1       2.853   0.475  -1.509  0.00  0.00    -0.235 NA
ENDROOT
BRANCH   1  26
ATOM     26  C   UNL     1       3.087  -0.346   0.745  0.00  0.00    +0.218 C 
ATOM     27  O   UNL     1       3.824  -1.309   0.900  0.00  0.00    -0.290 OA
BRANCH  26  28
ATOM     28  C   UNL     1       3.112   0.685   1.821  0.00  0.00    +0.274 C 
BRANCH  28  29
ATOM     29  O   UNL     1       4.477   1.096   1.912  0.00  0.00    -0.440 OA
BRANCH  29  31
ATOM     30  C   UNL     1       6.642   0.305   2.090  0.00  0.00    +0.121 C 
ATOM     31  C   UNL     1       5.447   0.182   2.342  0.00  0.00    +0.318 C 
ATOM     32  O   UNL     1       5.117  -0.458   3.383  0.00  0.00    -0.250 OA
ENDBRANCH  29  31
ENDBRANCH  28  29
ENDBRANCH  26  28
ENDBRANCH   1  26
TORSDOF 4
