REMARK  Name = 
REMARK  2 active torsions:
REMARK  status: ('A' for Active; 'I' for Inactive)
REMARK    1  A    between atoms: N_4  and  S_5
REMARK    2  A    between atoms: S_5  and  C_8
REMARK                            x       y       z     vdW  Elec       q    Type
REMARK                         _______ _______ _______ _____ _____    ______ ____
ROOT
ATOM      1  S   UNL     1      -1.218  -1.160  -0.713  0.00  0.00    +0.103 S 
ATOM      2  O   UNL     1      -1.131  -2.613  -0.302  0.00  0.00    -0.146 OA
ATOM      3  O   UNL     1      -1.579  -1.085  -2.166  0.00  0.00    -0.146 OA
ENDROOT
BRANCH   1   4
ATOM      4  C   UNL     1       0.379  -0.503  -0.508  0.00  0.00    +0.129 A 
ATOM      5  C   UNL     1       1.278  -0.676  -1.554  0.00  0.00    +0.022 A 
ATOM      6  C   UNL     1       2.589  -0.234  -1.434  0.00  0.00    +0.019 A 
ATOM      7  C   UNL     1       2.887   0.610  -0.371  0.00  0.00    +0.089 A 
ATOM      8  N   UNL     1       3.798   1.707  -0.512  0.00  0.00    -0.128 NA
ATOM      9  C   UNL     1       2.100   0.468   0.757  0.00  0.00    +0.019 A 
ATOM     10  C   UNL     1       0.968  -0.337   0.740  0.00  0.00    +0.022 A 
ENDBRANCH   1   4
BRANCH   1  13
ATOM     11  C   UNL     1      -3.835   1.619   0.292  0.00  0.00    +0.101 C 
ATOM     12  C   UNL     1      -2.511   0.924   0.211  0.00  0.00    +0.274 C 
ATOM     13  N   UNL     1      -2.398  -0.363   0.238  0.00  0.00    -0.090 NA
ATOM     14  O   UNL     1      -1.328   1.641   0.128  0.00  0.00    -0.269 OA
ENDBRANCH   1  13
TORSDOF 2
