REMARK  Name = 
REMARK  5 active torsions:
REMARK  status: ('A' for Active; 'I' for Inactive)
REMARK    1  A    between atoms: C_2  and  O_3
REMARK    2  A    between atoms: O_3  and  C_4
REMARK    3  A    between atoms: C_4  and  C_6
REMARK    4  A    between atoms: C_9  and  C_10
REMARK    5  A    between atoms: C_11  and  C_12
REMARK                            x       y       z     vdW  Elec       q    Type
REMARK                         _______ _______ _______ _____ _____    ______ ____
ROOT
ATOM      1  C   UNL     1       0.529   0.293  -0.920  0.00  0.00    -0.040 C 
ATOM      2  C   UNL     1      -0.643   0.146  -0.625  0.00  0.00    -0.058 C 
ENDROOT
BRANCH   2   3
ATOM      3  C   UNL     1      -1.931  -0.211  -0.073  0.00  0.00    +0.042 A 
ATOM      4  C   UNL     1      -3.033   0.449  -0.543  0.00  0.00    +0.004 A 
ATOM      5  C   UNL     1      -4.256   0.465   0.118  0.00  0.00    -0.016 A 
ATOM      6  C   UNL     1      -5.429   0.800  -0.708  0.00  0.00    +0.020 C 
ATOM      7  C   UNL     1      -6.724   0.834   0.031  0.00  0.00    +0.016 C 
ATOM      8  C   UNL     1      -6.627   1.339   1.442  0.00  0.00    +0.062 C 
ATOM      9  S   UNL     1      -5.681   0.078   2.366  0.00  0.00    -0.114 S 
ATOM     10  C   UNL     1      -5.545  -0.300  -1.758  0.00  0.00    +0.004 C 
ATOM     11  C   UNL     1      -5.252   2.112  -1.434  0.00  0.00    +0.004 C 
ATOM     12  C   UNL     1      -4.315  -0.321   1.263  0.00  0.00    +0.021 A 
ATOM     13  C   UNL     1      -3.236  -0.993   1.772  0.00  0.00    +0.006 A 
ATOM     14  C   UNL     1      -1.997  -0.818   1.175  0.00  0.00    +0.009 A 
ENDBRANCH   2   3
BRANCH   1  18
ATOM     15  C   UNL     1       4.447  -0.997  -0.252  0.00  0.00    +0.095 A 
ATOM     16  C   UNL     1       3.794  -1.299  -1.441  0.00  0.00    +0.106 A 
ATOM     17  N   UNL     1       2.568  -0.812  -1.707  0.00  0.00    -0.235 NA
ATOM     18  C   UNL     1       1.964   0.120  -0.934  0.00  0.00    +0.123 A 
ATOM     19  C   UNL     1       2.734   0.630   0.102  0.00  0.00    +0.028 A 
ATOM     20  C   UNL     1       3.985   0.120   0.417  0.00  0.00    +0.010 A 
BRANCH  15  21
ATOM     21  C   UNL     1       5.903  -1.191  -0.254  0.00  0.00    +0.343 C 
ATOM     22  O   UNL     1       6.413  -1.470   0.869  0.00  0.00    -0.245 OA
BRANCH  21  23
ATOM     23  O   UNL     1       6.727  -0.618  -1.216  0.00  0.00    -0.445 OA
BRANCH  23  25
ATOM     24  C   UNL     1       7.675   1.570  -0.791  0.00  0.00    +0.051 C 
ATOM     25  C   UNL     1       7.929   0.070  -0.891  0.00  0.00    +0.209 C 
ENDBRANCH  23  25
ENDBRANCH  21  23
ENDBRANCH  15  21
ENDBRANCH   1  18
TORSDOF 5
