REMARK  Name = 
REMARK  3 active torsions:
REMARK  status: ('A' for Active; 'I' for Inactive)
REMARK    1  A    between atoms: N_2  and  C_4
REMARK    2  A    between atoms: C_4  and  C_5
REMARK    3  A    between atoms: C_5  and  C_6
REMARK                            x       y       z     vdW  Elec       q    Type
REMARK                         _______ _______ _______ _____ _____    ______ ____
ROOT
ATOM      1  C   UNL     1       0.886  -0.815   0.137  0.00  0.00    -0.025 C 
ATOM      2  C   UNL     1      -0.227  -0.238  -0.291  0.00  0.00    -0.001 C 
ATOM      3  C   UNL     1      -1.404  -1.118  -0.272  0.00  0.00    +0.034 A 
ATOM      4  C   UNL     1      -2.732  -0.725  -0.150  0.00  0.00    +0.139 A 
ATOM      5  C   UNL     1      -3.709  -1.656   0.106  0.00  0.00    +0.037 A 
ATOM      6  C   UNL     1      -3.377  -2.991  -0.070  0.00  0.00    +0.003 A 
ATOM      7  C   UNL     1      -2.123  -3.332  -0.544  0.00  0.00    +0.000 A 
ATOM      8  O   UNL     1      -3.212   0.582  -0.284  0.00  0.00    -0.471 OA
ATOM      9  C   UNL     1      -2.620   1.728  -0.892  0.00  0.00    +0.232 C 
ATOM     10  C   UNL     1      -1.291   2.038  -0.278  0.00  0.00    +0.021 A 
ATOM     11  C   UNL     1      -1.165   3.365   0.093  0.00  0.00    -0.001 A 
ATOM     12  C   UNL     1      -0.264   3.640   1.114  0.00  0.00    -0.000 A 
ATOM     13  C   UNL     1       0.942   2.954   1.026  0.00  0.00    -0.000 A 
ATOM     14  C   UNL     1       0.969   1.659   0.522  0.00  0.00    -0.000 A 
ATOM     15  C   UNL     1      -1.060  -2.451  -0.386  0.00  0.00    +0.003 A 
ATOM     16  C   UNL     1      -0.173   1.222  -0.138  0.00  0.00    -0.001 A 
ENDROOT
BRANCH   1  17
ATOM     17  C   UNL     1       2.176  -0.074   0.288  0.00  0.00    +0.043 C 
BRANCH  17  18
ATOM     18  C   UNL     1       3.259  -1.140   0.237  0.00  0.00    +0.077 C 
BRANCH  18  20
ATOM     19  C   UNL     1       5.466  -1.514   0.857  0.00  0.00    +0.090 C 
ATOM     20  N   UNL     1       4.584  -0.586   0.148  0.00  0.00    -0.270 NA
ATOM     21  C   UNL     1       5.075  -0.549  -1.224  0.00  0.00    +0.090 C 
ENDBRANCH  18  20
ENDBRANCH  17  18
ENDBRANCH   1  17
TORSDOF 3
