REMARK  Name = 
REMARK  3 active torsions:
REMARK  status: ('A' for Active; 'I' for Inactive)
REMARK    1  A    between atoms: O_2  and  C_3
REMARK    2  A    between atoms: C_12  and  C_14
REMARK    3  A    between atoms: C_26  and  O_27
REMARK                            x       y       z     vdW  Elec       q    Type
REMARK                         _______ _______ _______ _____ _____    ______ ____
ROOT
ATOM      1  C   UNL     1       4.864   0.723  -0.369  0.00  0.00    +0.174 A 
ATOM      2  C   UNL     1       4.936  -0.602   0.040  0.00  0.00    +0.173 A 
ATOM      3  C   UNL     1       4.006  -1.034   0.959  0.00  0.00    +0.044 A 
ATOM      4  C   UNL     1       2.736  -0.487   0.876  0.00  0.00    +0.056 A 
ATOM      5  C   UNL     1       2.589   0.806   0.412  0.00  0.00    +0.090 A 
ATOM      6  N   UNL     1       1.343   1.303   0.394  0.00  0.00    -0.213 NA
ATOM      7  C   UNL     1       0.304   0.731   1.040  0.00  0.00    +0.221 A 
ATOM      8  N   UNL     1       0.558  -0.446   1.661  0.00  0.00    -0.195 NA
ATOM      9  N   UNL     1      -0.973   1.377   1.121  0.00  0.00    -0.275 N 
ATOM     10  C   UNL     1      -1.487   2.142  -0.011  0.00  0.00    +0.115 C 
ATOM     11  C   UNL     1      -2.882   1.679  -0.403  0.00  0.00    +0.115 C 
ATOM     12  N   UNL     1      -2.920   0.223  -0.298  0.00  0.00    -0.270 N 
ATOM     13  C   UNL     1      -3.921  -0.476  -1.048  0.00  0.00    +0.284 C 
ATOM     14  O   UNL     1      -3.611  -1.450  -1.797  0.00  0.00    -0.267 OA
ATOM     15  C   UNL     1      -2.600  -0.347   1.007  0.00  0.00    +0.115 C 
ATOM     16  C   UNL     1      -1.989   0.705   1.927  0.00  0.00    +0.115 C 
ATOM     17  C   UNL     1       1.603  -1.181   1.278  0.00  0.00    +0.174 A 
ATOM     18  N   UNL     1       1.698  -2.568   1.534  0.00  0.00    -0.107 NA
ATOM     19  C   UNL     1       3.632   1.344  -0.329  0.00  0.00    +0.059 A 
ENDROOT
BRANCH  13  20
ATOM     20  C   UNL     1      -5.254  -0.507  -0.434  0.00  0.00    +0.199 A 
ATOM     21  O   UNL     1      -5.804   0.503   0.215  0.00  0.00    -0.446 OA
ATOM     22  C   UNL     1      -7.089   0.326   0.339  0.00  0.00    +0.180 A 
ATOM     23  C   UNL     1      -7.383  -0.970  -0.029  0.00  0.00    +0.044 A 
ATOM     24  C   UNL     1      -6.213  -1.507  -0.524  0.00  0.00    +0.045 A 
ENDBRANCH  13  20
BRANCH   1  26
ATOM     25  C   UNL     1       6.371   2.566  -0.984  0.00  0.00    +0.253 C 
ATOM     26  O   UNL     1       5.955   1.221  -1.056  0.00  0.00    -0.468 OA
ENDBRANCH   1  26
BRANCH   2  27
ATOM     27  O   UNL     1       5.944  -1.429  -0.465  0.00  0.00    -0.468 OA
ATOM     28  C   UNL     1       5.585  -2.646  -1.107  0.00  0.00    +0.253 C 
ENDBRANCH   2  27
TORSDOF 3
