REMARK  Name = 
REMARK  10 active torsions:
REMARK  status: ('A' for Active; 'I' for Inactive)
REMARK    1  A    between atoms: C_2  and  C_3
REMARK    2  A    between atoms: C_3  and  C_4
REMARK    3  A    between atoms: C_4  and  C_5
REMARK    4  A    between atoms: C_5  and  C_6
REMARK    5  A    between atoms: C_5  and  C_8
REMARK    6  A    between atoms: C_8  and  O_9
REMARK    7  A    between atoms: O_9  and  C_10
REMARK    8  A    between atoms: C_10  and  C_12
REMARK    9  A    between atoms: C_13  and  C_14
REMARK   10  A    between atoms: C_17  and  O_18
REMARK                            x       y       z     vdW  Elec       q    Type
REMARK                         _______ _______ _______ _____ _____    ______ ____
ROOT
ATOM      1  C   UNL     1       0.483  -0.731   0.528  0.00  0.00    +0.341 C 
ATOM      2  O   UNL     1       0.218  -1.895   0.932  0.00  0.00    -0.245 OA
ENDROOT
BRANCH   1   3
ATOM      3  C   UNL     1      -0.484   0.307   0.824  0.00  0.00    +0.082 C 
ATOM      4  C   UNL     1      -1.054   1.097  -0.048  0.00  0.00    +0.007 C 
BRANCH   4   5
ATOM      5  C   UNL     1      -2.508   1.169  -0.260  0.00  0.00    +0.000 A 
ATOM      6  C   UNL     1      -3.374   1.307   0.820  0.00  0.00    +0.003 A 
ATOM      7  C   UNL     1      -4.605   0.662   0.843  0.00  0.00    +0.037 A 
ATOM      8  C   UNL     1      -4.900  -0.319  -0.095  0.00  0.00    +0.139 A 
ATOM      9  C   UNL     1      -4.207  -0.242  -1.278  0.00  0.00    +0.037 A 
ATOM     10  C   UNL     1      -3.054   0.527  -1.367  0.00  0.00    +0.003 A 
BRANCH   8  11
ATOM     11  O   UNL     1      -5.653  -1.428   0.213  0.00  0.00    -0.471 OA
ATOM     12  C   UNL     1      -6.414  -1.466   1.415  0.00  0.00    +0.252 C 
ENDBRANCH   8  11
ENDBRANCH   4   5
ENDBRANCH   1   3
BRANCH   1  13
ATOM     13  O   UNL     1       1.540  -0.583  -0.341  0.00  0.00    -0.445 OA
BRANCH  13  14
ATOM     14  C   UNL     1       2.677  -1.431  -0.231  0.00  0.00    +0.209 C 
BRANCH  14  15
ATOM     15  C   UNL     1       3.559  -0.565   0.871  0.00  0.00    +0.044 C 
BRANCH  15  16
ATOM     16  C   UNL     1       4.797  -1.665   0.823  0.00  0.00    +0.004 C 
ATOM     17  C   UNL     1       4.144  -2.980   1.139  0.00  0.00    +0.000 C 
ENDBRANCH  15  16
BRANCH  15  18
ATOM     18  C   UNL     1       4.258   0.346  -0.323  0.00  0.00    +0.004 C 
BRANCH  18  19
ATOM     19  C   UNL     1       4.063   1.725   0.239  0.00  0.00    +0.000 C 
BRANCH  19  21
ATOM     20  C   UNL     1       5.834   3.433  -0.093  0.00  0.00    +0.000 C 
ATOM     21  C   UNL     1       4.679   2.732  -0.691  0.00  0.00    +0.000 C 
ENDBRANCH  19  21
ENDBRANCH  18  19
ENDBRANCH  15  18
ENDBRANCH  14  15
ENDBRANCH  13  14
ENDBRANCH   1  13
TORSDOF 10
