REMARK  Name = 
REMARK  6 active torsions:
REMARK  status: ('A' for Active; 'I' for Inactive)
REMARK    1  A    between atoms: O_2  and  C_3
REMARK    2  A    between atoms: C_10  and  C_11
REMARK    3  A    between atoms: C_11  and  C_12
REMARK    4  A    between atoms: C_13  and  C_15
REMARK    5  A    between atoms: C_15  and  C_16
REMARK    6  A    between atoms: C_16  and  C_17
REMARK                            x       y       z     vdW  Elec       q    Type
REMARK                         _______ _______ _______ _____ _____    ______ ____
ROOT
ATOM      1  C   UNL     1      -0.971  -1.638   0.349  0.00  0.00    +0.134 A 
ATOM      2  C   UNL     1      -0.355  -0.439   0.005  0.00  0.00    +0.055 A 
ATOM      3  C   UNL     1      -1.155   0.694   0.092  0.00  0.00    +0.201 A 
ATOM      4  O   UNL     1      -0.571   1.909  -0.273  0.00  0.00    -0.287 OA
ATOM      5  C   UNL     1      -2.530   0.610   0.273  0.00  0.00    +0.114 A 
ATOM      6  C   UNL     1      -3.648   1.528   0.016  0.00  0.00    +0.344 C 
ATOM      7  O   UNL     1      -4.750   0.763  -0.380  0.00  0.00    -0.440 OA
ATOM      8  C   UNL     1      -4.619  -0.455   0.332  0.00  0.00    +0.235 C 
ATOM      9  O   UNL     1      -3.490   2.702  -0.400  0.00  0.00    -0.245 OA
ATOM     10  C   UNL     1      -3.136  -0.625   0.438  0.00  0.00    +0.030 A 
ATOM     11  C   UNL     1      -2.307  -1.703   0.719  0.00  0.00    +0.012 A 
ATOM     12  C   UNL     1      -2.998  -3.021   0.875  0.00  0.00    +0.034 C 
ENDROOT
BRANCH   1  14
ATOM     13  C   UNL     1      -0.501  -4.008   0.844  0.00  0.00    +0.252 C 
ATOM     14  O   UNL     1      -0.360  -2.859   0.045  0.00  0.00    -0.472 OA
ENDBRANCH   1  14
BRANCH   2  15
ATOM     15  C   UNL     1       0.760  -0.545  -0.958  0.00  0.00    +0.058 C 
BRANCH  15  16
ATOM     16  C   UNL     1       1.940   0.271  -0.614  0.00  0.00    -0.030 C 
ATOM     17  C   UNL     1       2.971  -0.166   0.109  0.00  0.00    -0.047 C 
ATOM     18  C   UNL     1       2.578  -1.099   1.215  0.00  0.00    +0.026 C 
BRANCH  17  19
ATOM     19  C   UNL     1       4.359  -0.282  -0.395  0.00  0.00    +0.034 C 
BRANCH  19  20
ATOM     20  C   UNL     1       5.207   0.920  -0.128  0.00  0.00    +0.118 C 
BRANCH  20  21
ATOM     21  C   UNL     1       4.477   2.024   0.546  0.00  0.00    +0.365 C 
ATOM     22  O   UNL     1       5.039   2.479   1.744  0.00  0.00    -0.246 OA
ATOM     23  O   UNL     1       4.060   2.941  -0.226  0.00  0.00    -0.246 OA
ENDBRANCH  20  21
ENDBRANCH  19  20
ENDBRANCH  17  19
ENDBRANCH  15  16
ENDBRANCH   2  15
TORSDOF 6
