REMARK  Name = 
REMARK  12 active torsions:
REMARK  status: ('A' for Active; 'I' for Inactive)
REMARK    1  A    between atoms: C_2  and  C_3
REMARK    2  A    between atoms: C_3  and  C_4
REMARK    3  A    between atoms: C_3  and  N_7
REMARK    4  A    between atoms: N_10  and  C_11
REMARK    5  A    between atoms: C_14  and  N_15
REMARK    6  A    between atoms: N_18  and  C_19
REMARK    7  A    between atoms: C_22  and  O_23
REMARK    8  A    between atoms: O_23  and  C_24
REMARK    9  A    between atoms: C_24  and  C_25
REMARK   10  A    between atoms: C_28  and  C_29
REMARK   11  A    between atoms: C_28  and  C_35
REMARK   12  A    between atoms: C_29  and  N_30
REMARK                            x       y       z     vdW  Elec       q    Type
REMARK                         _______ _______ _______ _____ _____    ______ ____
ROOT
ATOM      1  C   UNL     1      -0.322  -0.039   0.334  0.00  0.00    +0.048 A 
ATOM      2  C   UNL     1      -1.124   1.057   0.083  0.00  0.00    +0.018 A 
ATOM      3  C   UNL     1      -2.134   1.061  -0.859  0.00  0.00    +0.038 A 
ATOM      4  C   UNL     1      -2.237  -0.049  -1.674  0.00  0.00    +0.139 A 
ATOM      5  C   UNL     1      -1.596  -1.233  -1.347  0.00  0.00    +0.038 A 
ATOM      6  C   UNL     1      -0.756  -1.226  -0.246  0.00  0.00    +0.018 A 
ENDROOT
BRANCH   1  10
ATOM      7  N   UNL     1       2.605  -0.711  -1.222  0.00  0.00    -0.304 N 
ATOM      8  C   UNL     1       1.707   0.439  -1.405  0.00  0.00    +0.112 C 
ATOM      9  C   UNL     1       1.787   1.075  -0.013  0.00  0.00    +0.112 C 
ATOM     10  N   UNL     1       1.028   0.116   0.799  0.00  0.00    -0.304 N 
ATOM     11  C   UNL     1       1.766  -1.129   1.021  0.00  0.00    +0.112 C 
ATOM     12  C   UNL     1       1.981  -1.725  -0.367  0.00  0.00    +0.112 C 
BRANCH   7  16
ATOM     13  C   UNL     1       6.239   0.714   0.401  0.00  0.00    +0.070 A 
ATOM     14  C   UNL     1       5.820  -0.577   0.628  0.00  0.00    +0.019 A 
ATOM     15  C   UNL     1       4.689  -1.095   0.041  0.00  0.00    +0.016 A 
ATOM     16  C   UNL     1       3.940  -0.334  -0.848  0.00  0.00    +0.048 A 
ATOM     17  C   UNL     1       4.463   0.919  -1.142  0.00  0.00    +0.016 A 
ATOM     18  C   UNL     1       5.444   1.519  -0.361  0.00  0.00    +0.019 A 
BRANCH  13  22
ATOM     19  N   UNL     1       9.741   0.886   0.616  0.00  0.00    -0.200 N 
ATOM     20  C   UNL     1       8.607   0.222   0.360  0.00  0.00    +0.352 A 
ATOM     21  O   UNL     1       8.488  -1.007   0.540  0.00  0.00    -0.244 OA
ATOM     22  N   UNL     1       7.599   1.077   0.667  0.00  0.00    -0.240 N 
ATOM     23  C   UNL     1       8.136   2.307   0.597  0.00  0.00    +0.207 A 
ATOM     24  N   UNL     1       9.449   2.151   0.298  0.00  0.00    -0.144 NA
BRANCH  19  25
ATOM     25  C   UNL     1      11.104   0.380  -0.002  0.00  0.00    +0.140 C 
BRANCH  25  26
ATOM     26  C   UNL     1      10.982  -1.167   0.808  0.00  0.00    +0.174 C 
ATOM     27  O   UNL     1      10.930  -1.912  -0.533  0.00  0.00    -0.221 OA
ATOM     28  C   UNL     1      12.640  -1.326   0.867  0.00  0.00    +0.038 C 
ENDBRANCH  25  26
BRANCH  25  30
ATOM     29  C   UNL     1      11.500   1.721   1.722  0.00  0.00    +0.002 C 
ATOM     30  C   UNL     1      11.963   1.027   1.250  0.00  0.00    +0.027 C 
ENDBRANCH  25  30
ENDBRANCH  19  25
ENDBRANCH  13  22
ENDBRANCH   7  16
ENDBRANCH   1  10
BRANCH   4  31
ATOM     31  O   UNL     1      -3.364  -0.185  -2.485  0.00  0.00    -0.475 OA
BRANCH  31  32
ATOM     32  C   UNL     1      -4.486  -0.896  -1.964  0.00  0.00    +0.208 C 
BRANCH  32  33
ATOM     33  C   UNL     1      -5.029   0.246  -0.892  0.00  0.00    +0.076 C 
ATOM     34  C   UNL     1      -6.552  -0.403  -0.880  0.00  0.00    +0.040 C 
ATOM     35  C   UNL     1      -6.801  -0.279   0.590  0.00  0.00    +0.136 C 
ATOM     36  O   UNL     1      -5.592  -0.135   1.233  0.00  0.00    -0.352 OA
ATOM     37  C   UNL     1      -4.606  -0.691   0.406  0.00  0.00    +0.146 C 
BRANCH  35  38
ATOM     38  C   UNL     1      -7.723   0.877   0.803  0.00  0.00    +0.032 A 
ATOM     39  C   UNL     1      -7.247   2.162   0.561  0.00  0.00    +0.141 A 
ATOM     40  F   UNL     1      -6.037   2.433   1.129  0.00  0.00    -0.204 F 
ATOM     41  C   UNL     1      -8.077   3.159   0.089  0.00  0.00    +0.059 A 
ATOM     42  C   UNL     1      -9.422   2.870  -0.098  0.00  0.00    +0.142 A 
ATOM     43  F   UNL     1     -10.192   3.786  -0.718  0.00  0.00    -0.204 F 
ATOM     44  C   UNL     1      -9.924   1.669   0.388  0.00  0.00    +0.030 A 
ATOM     45  C   UNL     1      -9.081   0.647   0.808  0.00  0.00    +0.003 A 
ENDBRANCH  35  38
BRANCH  35  46
ATOM     46  C   UNL     1      -7.487  -1.474   1.206  0.00  0.00    +0.160 C 
BRANCH  46  47
ATOM     47  N   UNL     1      -8.026  -2.375   0.190  0.00  0.00    -0.227 N 
ATOM     48  N   UNL     1      -9.334  -2.581   0.041  0.00  0.00    -0.145 NA
ATOM     49  C   UNL     1      -9.581  -3.872  -0.219  0.00  0.00    +0.221 A 
ATOM     50  N   UNL     1      -8.406  -4.503  -0.324  0.00  0.00    -0.201 NA
ATOM     51  C   UNL     1      -7.471  -3.598   0.014  0.00  0.00    +0.197 A 
ENDBRANCH  46  47
ENDBRANCH  35  46
ENDBRANCH  32  33
ENDBRANCH  31  32
ENDBRANCH   4  31
TORSDOF 12
