REMARK  Name = 
REMARK  4 active torsions:
REMARK  status: ('A' for Active; 'I' for Inactive)
REMARK    1  A    between atoms: C_2  and  O_4
REMARK    2  A    between atoms: O_4  and  C_5
REMARK    3  A    between atoms: C_5  and  C_7
REMARK    4  A    between atoms: C_7  and  N_8
REMARK                            x       y       z     vdW  Elec       q    Type
REMARK                         _______ _______ _______ _____ _____    ______ ____
ROOT
ATOM      1  C   UNL     1       0.136   0.859   0.304  0.00  0.00    +0.223 C 
ATOM      2  C   UNL     1      -0.150   2.181  -0.686  0.00  0.00    +0.054 C 
ENDROOT
BRANCH   1   3
ATOM      3  O   UNL     1       1.532   0.622  -0.366  0.00  0.00    -0.446 OA
BRANCH   3   5
ATOM      4  C   UNL     1       3.794  -0.197   0.265  0.00  0.00    +0.121 C 
ATOM      5  C   UNL     1       2.306  -0.222   0.406  0.00  0.00    +0.318 C 
ATOM      6  O   UNL     1       1.828  -1.309   0.816  0.00  0.00    -0.250 OA
ENDBRANCH   3   5
ENDBRANCH   1   3
BRANCH   1   7
ATOM      7  C   UNL     1      -0.605  -0.175  -0.786  0.00  0.00    +0.153 C 
BRANCH   7   8
ATOM      8  N   UNL     1      -1.874  -0.386  -0.119  0.00  0.00    +0.313 N 
ATOM      9  C   UNL     1      -2.566  -1.404  -0.881  0.00  0.00    +0.171 C 
ATOM     10  C   UNL     1      -1.729  -0.800   1.252  0.00  0.00    +0.171 C 
ATOM     11  C   UNL     1      -2.671   0.831  -0.204  0.00  0.00    +0.171 C 
ENDBRANCH   7   8
ENDBRANCH   1   7
TORSDOF 4
