REMARK  Name = 
REMARK  4 active torsions:
REMARK  status: ('A' for Active; 'I' for Inactive)
REMARK    1  A    between atoms: C_4  and  C_5
REMARK    2  A    between atoms: N_7  and  C_8
REMARK    3  A    between atoms: C_20  and  C_21
REMARK    4  A    between atoms: C_21  and  C_22
REMARK                            x       y       z     vdW  Elec       q    Type
REMARK                         _______ _______ _______ _____ _____    ______ ____
ROOT
ATOM      1  C   UNL     1      -0.855  -1.908   0.069  0.00  0.00    +0.243 C 
ATOM      2  C   UNL     1      -1.505  -1.277   1.237  0.00  0.00    +0.274 C 
ATOM      3  O   UNL     1      -1.704  -1.913   2.318  0.00  0.00    -0.270 OA
ATOM      4  N   UNL     1      -2.521  -0.515   0.616  0.00  0.00    -0.225 N 
ATOM      5  C   UNL     1      -2.499  -0.637  -0.787  0.00  0.00    +0.307 C 
ATOM      6  C   UNL     1      -3.406  -1.971  -1.160  0.00  0.00    +0.149 C 
ATOM      7  N   UNL     1      -4.708  -1.465  -0.414  0.00  0.00    -0.273 N 
ATOM      8  C   UNL     1      -4.770  -0.156   0.041  0.00  0.00    +0.244 C 
ATOM      9  O   UNL     1      -5.917   0.287   0.354  0.00  0.00    -0.273 OA
ATOM     10  C   UNL     1      -5.678  -2.253  -1.174  0.00  0.00    +0.094 C 
ATOM     11  C   UNL     1      -5.303  -2.039  -2.636  0.00  0.00    +0.023 C 
ATOM     12  C   UNL     1      -3.949  -1.379  -2.612  0.00  0.00    +0.029 C 
ATOM     13  O   UNL     1      -2.874   0.404  -1.534  0.00  0.00    -0.172 OA
ATOM     14  C   UNL     1      -3.772   0.176   1.294  0.00  0.00    +0.160 C 
ATOM     15  O   UNL     1      -1.262  -1.129  -1.031  0.00  0.00    -0.294 OA
ATOM     16  C   UNL     1      -1.294  -3.359  -0.100  0.00  0.00    +0.063 C 
ENDROOT
BRANCH   1  18
ATOM     17  C   UNL     1       1.560  -1.739   0.897  0.00  0.00    +0.245 C 
ATOM     18  N   UNL     1       0.527  -1.893  -0.011  0.00  0.00    -0.173 NA
ATOM     19  O   UNL     1       1.168  -1.914   2.093  0.00  0.00    -0.273 OA
BRANCH  17  34
ATOM     20  C   UNL     1       2.287  -0.369  -1.689  0.00  0.00    +0.090 C 
ATOM     21  N   UNL     1       2.538  -0.765  -1.086  0.00  0.00    -0.272 NA
ATOM     22  C   UNL     1       3.458   0.198  -0.253  0.00  0.00    +0.066 C 
ATOM     23  C   UNL     1       4.688  -0.992  -0.056  0.00  0.00    +0.038 C 
ATOM     24  C   UNL     1       5.596  -0.009   0.825  0.00  0.00    -0.020 A 
ATOM     25  C   UNL     1       5.904   1.162   0.151  0.00  0.00    +0.011 A 
ATOM     26  C   UNL     1       7.130   1.754   0.139  0.00  0.00    +0.081 A 
ATOM     27  N   UNL     1       6.951   2.917  -0.533  0.00  0.00    -0.244 NA
ATOM     28  C   UNL     1       5.783   2.868  -1.222  0.00  0.00    +0.095 A 
ATOM     29  C   UNL     1       8.203   1.129   0.756  0.00  0.00    +0.019 A 
ATOM     30  C   UNL     1       7.977  -0.122   1.321  0.00  0.00    +0.001 A 
ATOM     31  C   UNL     1       5.216   1.629  -0.945  0.00  0.00    -0.001 A 
ATOM     32  C   UNL     1       6.705  -0.686   1.330  0.00  0.00    -0.004 A 
ATOM     33  C   UNL     1       3.895  -1.582   1.239  0.00  0.00    +0.016 C 
ATOM     34  C   UNL     1       2.854  -2.650   0.531  0.00  0.00    +0.095 C 
ATOM     35  C   UNL     1       4.170   0.787  -1.611  0.00  0.00    +0.044 C 
ATOM     36  C   UNL     1       2.990  -2.068  -1.006  0.00  0.00    +0.081 C 
ENDBRANCH  17  34
ENDBRANCH   1  18
BRANCH  14  37
ATOM     37  C   UNL     1      -3.365   1.655   0.648  0.00  0.00    +0.056 C 
BRANCH  37  38
ATOM     38  C   UNL     1      -4.612   2.442   0.693  0.00  0.00    -0.020 A 
ATOM     39  C   UNL     1      -5.167   2.910   1.878  0.00  0.00    -0.004 A 
ATOM     40  C   UNL     1      -6.365   3.610   1.802  0.00  0.00    -0.000 A 
ATOM     41  C   UNL     1      -6.979   3.802   0.580  0.00  0.00    -0.000 A 
ATOM     42  C   UNL     1      -6.128   3.910  -0.513  0.00  0.00    -0.000 A 
ATOM     43  C   UNL     1      -4.968   3.151  -0.447  0.00  0.00    -0.004 A 
ENDBRANCH  37  38
ENDBRANCH  14  37
TORSDOF 4
