REMARK  Name = 
REMARK  2 active torsions:
REMARK  status: ('A' for Active; 'I' for Inactive)
REMARK    1  A    between atoms: C_2  and  N_3
REMARK    2  A    between atoms: C_7  and  C_8
REMARK                            x       y       z     vdW  Elec       q    Type
REMARK                         _______ _______ _______ _____ _____    ______ ____
ROOT
ATOM      1  N   UNL     1      -2.076  -0.350   0.382  0.00  0.00    -0.211 N 
ATOM      2  C   UNL     1      -0.890  -0.903  -0.213  0.00  0.00    +0.257 C 
ATOM      3  O   UNL     1      -0.949  -2.085  -0.680  0.00  0.00    -0.272 OA
ATOM      4  C   UNL     1       0.116  -0.871   1.075  0.00  0.00    +0.195 C 
ATOM      5  N   UNL     1      -0.337   0.583   1.529  0.00  0.00    -0.176 NA
ATOM      6  C   UNL     1      -1.560   0.843   0.959  0.00  0.00    +0.330 C 
ATOM      7  O   UNL     1      -2.109   1.986   1.017  0.00  0.00    -0.250 OA
ENDROOT
BRANCH   4   8
ATOM      8  C   UNL     1       1.372  -0.363   0.165  0.00  0.00    +0.006 A 
ATOM      9  C   UNL     1       2.553  -1.053   0.422  0.00  0.00    -0.002 A 
ATOM     10  C   UNL     1       3.731  -0.324   0.410  0.00  0.00    -0.000 A 
ATOM     11  C   UNL     1       3.687   1.027   0.106  0.00  0.00    -0.000 A 
ATOM     12  C   UNL     1       2.617   1.448  -0.662  0.00  0.00    -0.000 A 
ATOM     13  C   UNL     1       1.399   0.907  -0.263  0.00  0.00    -0.002 A 
ENDBRANCH   4   8
BRANCH   1  15
ATOM     14  C   UNL     1      -4.088  -0.212   0.458  0.00  0.00    +0.024 C 
ATOM     15  C   UNL     1      -3.466  -0.633   0.107  0.00  0.00    +0.103 C 
ENDBRANCH   1  15
TORSDOF 2
