REMARK  Name = 
REMARK  6 active torsions:
REMARK  status: ('A' for Active; 'I' for Inactive)
REMARK    1  A    between atoms: C_2  and  N_5
REMARK    2  A    between atoms: N_5  and  C_6
REMARK    3  A    between atoms: C_6  and  C_7
REMARK    4  A    between atoms: C_7  and  C_9
REMARK    5  A    between atoms: C_9  and  O_10
REMARK    6  A    between atoms: O_10  and  C_11
REMARK                            x       y       z     vdW  Elec       q    Type
REMARK                         _______ _______ _______ _____ _____    ______ ____
ROOT
ATOM      1  C   UNL     1      -0.790  -0.918   0.172  0.00  0.00    +0.134 A 
ATOM      2  C   UNL     1      -1.715  -0.053  -0.403  0.00  0.00    +0.011 A 
ATOM      3  C   UNL     1      -2.958  -0.665  -0.993  0.00  0.00    +0.065 C 
ATOM      4  C   UNL     1      -3.896  -0.519   0.359  0.00  0.00    +0.187 C 
ATOM      5  C   UNL     1      -4.608   1.011  -0.087  0.00  0.00    +0.187 C 
ATOM      6  C   UNL     1      -3.185   1.766  -0.431  0.00  0.00    +0.062 C 
ATOM      7  O   UNL     1      -4.836   0.634  -1.543  0.00  0.00    -0.220 OA
ATOM      8  O   UNL     1      -5.034  -1.319  -0.245  0.00  0.00    -0.220 OA
ATOM      9  C   UNL     1      -2.106   1.099   0.290  0.00  0.00    -0.021 A 
ATOM     10  C   UNL     1      -1.282   1.639   1.247  0.00  0.00    -0.004 A 
ATOM     11  C   UNL     1      -0.347   0.778   1.816  0.00  0.00    +0.003 A 
ATOM     12  C   UNL     1      -0.021  -0.436   1.222  0.00  0.00    +0.037 A 
ENDROOT
BRANCH   1  13
ATOM     13  O   UNL     1      -0.373  -1.937  -0.672  0.00  0.00    -0.473 OA
BRANCH  13  14
ATOM     14  C   UNL     1       1.018  -2.073  -0.962  0.00  0.00    +0.239 C 
BRANCH  14  15
ATOM     15  C   UNL     1       1.554  -0.501  -1.055  0.00  0.00    +0.213 C 
ATOM     16  O   UNL     1       2.271  -0.774  -2.379  0.00  0.00    -0.218 OA
BRANCH  15  17
ATOM     17  C   UNL     1       2.927  -0.855  -0.182  0.00  0.00    +0.125 C 
BRANCH  17  18
ATOM     18  N   UNL     1       3.873   0.138  -0.602  0.00  0.00    -0.218 NA
BRANCH  18  20
ATOM     19  C   UNL     1       4.906   0.898   0.231  0.00  0.00    +0.017 C 
ATOM     20  C   UNL     1       4.708   0.673   0.399  0.00  0.00    +0.060 C 
ATOM     21  C   UNL     1       5.778  -0.216   0.934  0.00  0.00    +0.017 C 
ATOM     22  C   UNL     1       4.116   1.632   1.351  0.00  0.00    +0.017 C 
ENDBRANCH  18  20
ENDBRANCH  17  18
ENDBRANCH  15  17
ENDBRANCH  14  15
ENDBRANCH  13  14
ENDBRANCH   1  13
TORSDOF 6
