REMARK  Name = 
REMARK  7 active torsions:
REMARK  status: ('A' for Active; 'I' for Inactive)
REMARK    1  A    between atoms: N_2  and  C_4
REMARK    2  A    between atoms: C_4  and  C_5
REMARK    3  A    between atoms: C_5  and  O_6
REMARK    4  A    between atoms: O_6  and  C_7
REMARK    5  A    between atoms: C_7  and  C_9
REMARK    6  A    between atoms: C_9  and  C_10
REMARK    7  A    between atoms: C_9  and  C_16
REMARK                            x       y       z     vdW  Elec       q    Type
REMARK                         _______ _______ _______ _____ _____    ______ ____
ROOT
ATOM      1  C   UNL     1      -0.749   0.229  -0.756  0.00  0.00    +0.149 C 
ENDROOT
BRANCH   1   2
ATOM      2  C   UNL     1      -1.559  -1.148  -0.527  0.00  0.00    -0.010 A 
ATOM      3  C   UNL     1      -1.411  -1.893   0.557  0.00  0.00    -0.004 A 
ATOM      4  C   UNL     1      -2.452  -2.720   0.957  0.00  0.00    -0.000 A 
ATOM      5  C   UNL     1      -3.473  -2.993   0.060  0.00  0.00    -0.000 A 
ATOM      6  C   UNL     1      -3.650  -2.152  -1.020  0.00  0.00    -0.000 A 
ATOM      7  C   UNL     1      -2.580  -1.371  -1.442  0.00  0.00    -0.004 A 
ENDBRANCH   1   2
BRANCH   1   8
ATOM      8  C   UNL     1      -1.575   1.121   0.352  0.00  0.00    +0.140 C 
ATOM      9  C   UNL     1      -2.340   2.063  -0.561  0.00  0.00    +0.031 C 
ATOM     10  C   UNL     1      -1.565   3.342  -0.634  0.00  0.00    +0.003 C 
ATOM     11  C   UNL     1      -0.860   3.427   0.683  0.00  0.00    +0.003 C 
ATOM     12  C   UNL     1      -0.612   2.003   1.037  0.00  0.00    +0.031 C 
ATOM     13  O   UNL     1      -2.408   0.375   1.065  0.00  0.00    -0.225 OA
ENDBRANCH   1   8
BRANCH   1  14
ATOM     14  C   UNL     1       0.468  -0.145   0.238  0.00  0.00    +0.323 C 
ATOM     15  O   UNL     1       0.282  -0.286   1.428  0.00  0.00    -0.250 OA
BRANCH  14  16
ATOM     16  O   UNL     1       1.621   0.491  -0.237  0.00  0.00    -0.447 OA
BRANCH  16  17
ATOM     17  C   UNL     1       2.837   0.020   0.338  0.00  0.00    +0.226 C 
BRANCH  17  18
ATOM     18  C   UNL     1       3.805  -0.364  -0.775  0.00  0.00    +0.120 C 
BRANCH  18  20
ATOM     19  C   UNL     1       5.370   1.190   0.098  0.00  0.00    +0.090 C 
ATOM     20  N   UNL     1       5.171  -0.076  -0.416  0.00  0.00    -0.267 NA
ATOM     21  C   UNL     1       5.681  -1.114   0.476  0.00  0.00    +0.090 C 
ENDBRANCH  18  20
ENDBRANCH  17  18
ENDBRANCH  16  17
ENDBRANCH  14  16
ENDBRANCH   1  14
TORSDOF 7
