REMARK  Name = 
REMARK  1 active torsions:
REMARK  status: ('A' for Active; 'I' for Inactive)
REMARK    1  A    between atoms: C_10  and  C_11
REMARK                            x       y       z     vdW  Elec       q    Type
REMARK                         _______ _______ _______ _____ _____    ______ ____
ROOT
ATOM      1  C   UNL     1      -3.724   1.046   0.745  0.00  0.00    +0.120 C 
ATOM      2  N   UNL     1      -2.456   1.106   0.067  0.00  0.00    -0.255 N 
ATOM      3  C   UNL     1      -1.889   2.412  -0.004  0.00  0.00    +0.254 C 
ATOM      4  O   UNL     1      -2.731   3.349  -0.153  0.00  0.00    -0.272 OA
ATOM      5  C   UNL     1      -0.544   2.817  -0.520  0.00  0.00    +0.210 C 
ATOM      6  N   UNL     1       0.466   1.825  -0.234  0.00  0.00    -0.261 NA
ATOM      7  C   UNL     1       0.580   0.580  -0.592  0.00  0.00    +0.078 C 
ATOM      8  C   UNL     1      -0.558  -0.341  -0.697  0.00  0.00    +0.032 A 
ATOM      9  C   UNL     1      -0.157  -1.669  -0.672  0.00  0.00    +0.014 A 
ATOM     10  C   UNL     1      -1.085  -2.698  -0.578  0.00  0.00    +0.058 A 
ATOM     11 CL   UNL     1      -0.552  -4.296  -0.107  0.00  0.00    -0.082 Cl
ATOM     12  C   UNL     1      -2.440  -2.394  -0.528  0.00  0.00    +0.013 A 
ATOM     13  C   UNL     1      -2.860  -1.091  -0.497  0.00  0.00    +0.016 A 
ATOM     14  C   UNL     1      -1.905  -0.108  -0.456  0.00  0.00    +0.055 A 
ENDROOT
BRANCH   7  15
ATOM     15  C   UNL     1       1.905  -0.018  -0.387  0.00  0.00    +0.017 A 
ATOM     16  C   UNL     1       2.686  -0.212  -1.520  0.00  0.00    +0.001 A 
ATOM     17  C   UNL     1       4.021  -0.547  -1.409  0.00  0.00    +0.000 A 
ATOM     18  C   UNL     1       4.710  -0.263  -0.242  0.00  0.00    +0.000 A 
ATOM     19  C   UNL     1       3.934   0.098   0.848  0.00  0.00    +0.000 A 
ATOM     20  C   UNL     1       2.598   0.405   0.742  0.00  0.00    +0.001 A 
ENDBRANCH   7  15
TORSDOF 1
