REMARK  Name = 
REMARK  13 active torsions:
REMARK  status: ('A' for Active; 'I' for Inactive)
REMARK    1  A    between atoms: O_2  and  C_3
REMARK    2  A    between atoms: N_5  and  C_6
REMARK    3  A    between atoms: C_6  and  C_7
REMARK    4  A    between atoms: C_6  and  C_52
REMARK    5  A    between atoms: C_13  and  C_14
REMARK    6  A    between atoms: C_17  and  C_18
REMARK    7  A    between atoms: C_21  and  C_22
REMARK    8  A    between atoms: C_25  and  C_26
REMARK    9  A    between atoms: C_29  and  C_30
REMARK   10  A    between atoms: C_35  and  C_37
REMARK   11  A    between atoms: C_37  and  N_38
REMARK   12  A    between atoms: C_37  and  C_43
REMARK   13  A    between atoms: C_39  and  O_41
REMARK                            x       y       z     vdW  Elec       q    Type
REMARK                         _______ _______ _______ _____ _____    ______ ____
ROOT
ATOM      1  C   UNL     1       3.417   1.879  -0.307  0.00  0.00    +0.019 A 
ATOM      2  C   UNL     1       2.947   1.807  -1.619  0.00  0.00    +0.002 A 
ATOM      3  C   UNL     1       1.582   1.739  -1.894  0.00  0.00    +0.000 A 
ATOM      4  C   UNL     1       0.645   1.871  -0.870  0.00  0.00    +0.000 A 
ATOM      5  C   UNL     1       1.152   2.591   0.211  0.00  0.00    +0.000 A 
ATOM      6  C   UNL     1       2.525   2.590   0.493  0.00  0.00    +0.002 A 
ENDROOT
BRANCH   4   7
ATOM      7  C   UNL     1      -0.440   0.887  -0.717  0.00  0.00    +0.000 A 
ATOM      8  C   UNL     1      -0.442   0.004   0.360  0.00  0.00    +0.000 A 
ATOM      9  C   UNL     1      -1.020  -1.257   0.264  0.00  0.00    +0.002 A 
ATOM     10  C   UNL     1      -2.048  -1.430  -0.657  0.00  0.00    +0.019 A 
ATOM     11  C   UNL     1      -1.912  -0.637  -1.792  0.00  0.00    +0.002 A 
ATOM     12  C   UNL     1      -0.903   0.316  -1.899  0.00  0.00    +0.000 A 
BRANCH  10  13
ATOM     13  C   UNL     1      -3.393  -1.881  -0.260  0.00  0.00    +0.102 A 
ATOM     14  N   UNL     1      -4.553  -1.184  -0.362  0.00  0.00    -0.227 NA
ATOM     15  C   UNL     1      -5.376  -1.520   0.664  0.00  0.00    +0.157 A 
ATOM     16  N   UNL     1      -4.716  -2.302   1.504  0.00  0.00    -0.226 NA
ATOM     17  C   UNL     1      -3.632  -2.732   0.814  0.00  0.00    +0.119 A 
BRANCH  15  18
ATOM     18  C   UNL     1      -6.392  -0.365   1.181  0.00  0.00    +0.134 C 
ATOM     19  N   UNL     1      -7.467  -0.742   0.087  0.00  0.00    -0.273 N 
ATOM     20  C   UNL     1      -8.152   0.290  -0.622  0.00  0.00    +0.246 C 
ATOM     21  O   UNL     1      -8.653  -0.005  -1.701  0.00  0.00    -0.273 OA
ATOM     22  C   UNL     1      -7.532  -2.154   0.051  0.00  0.00    +0.094 C 
ATOM     23  C   UNL     1      -7.338  -2.580   1.478  0.00  0.00    +0.024 C 
ATOM     24  C   UNL     1      -7.131  -1.344   2.287  0.00  0.00    +0.029 C 
BRANCH  20  25
ATOM     25  C   UNL     1      -9.075   1.028   0.487  0.00  0.00    +0.175 C 
BRANCH  25  26
ATOM     26  N   UNL     1      -9.901   1.863  -0.577  0.00  0.00    -0.161 NA
ATOM     27  C   UNL     1      -9.492   3.231  -0.453  0.00  0.00    +0.422 C 
ATOM     28  O   UNL     1      -9.648   3.770   0.683  0.00  0.00    -0.225 OA
BRANCH  27  29
ATOM     29  O   UNL     1      -9.230   4.041  -1.562  0.00  0.00    -0.429 OA
ATOM     30  C   UNL     1      -9.318   5.455  -1.418  0.00  0.00    +0.257 C 
ENDBRANCH  27  29
ENDBRANCH  25  26
BRANCH  25  31
ATOM     31  C   UNL     1     -10.142  -0.227   0.552  0.00  0.00    +0.029 C 
ATOM     32  C   UNL     1     -10.992   0.136   1.764  0.00  0.00    +0.002 C 
ATOM     33  C   UNL     1     -10.908  -0.323  -0.683  0.00  0.00    +0.002 C 
ENDBRANCH  25  31
ENDBRANCH  20  25
ENDBRANCH  15  18
ENDBRANCH  10  13
ENDBRANCH   4   7
BRANCH   1  36
ATOM     34  C   UNL     1       5.561  -0.965  -0.074  0.00  0.00    +0.157 A 
ATOM     35  N   UNL     1       5.317   0.308  -0.492  0.00  0.00    -0.227 NA
ATOM     36  C   UNL     1       4.318   0.850   0.250  0.00  0.00    +0.102 A 
ATOM     37  C   UNL     1       3.966  -0.223   1.069  0.00  0.00    +0.119 A 
ATOM     38  N   UNL     1       4.458  -1.355   0.501  0.00  0.00    -0.226 NA
BRANCH  34  41
ATOM     39  C   UNL     1       8.329  -1.300   0.425  0.00  0.00    +0.246 C 
ATOM     40  N   UNL     1       7.417  -2.338  -0.000  0.00  0.00    -0.273 N 
ATOM     41  C   UNL     1       6.457  -1.791  -1.139  0.00  0.00    +0.134 C 
ATOM     42  C   UNL     1       5.514  -3.145  -1.172  0.00  0.00    +0.029 C 
ATOM     43  C   UNL     1       5.610  -3.712   0.150  0.00  0.00    +0.024 C 
ATOM     44  C   UNL     1       6.521  -2.926   0.965  0.00  0.00    +0.094 C 
ATOM     45  O   UNL     1       7.752  -0.389   1.094  0.00  0.00    -0.273 OA
BRANCH  39  46
ATOM     46  C   UNL     1       9.213  -0.754  -0.822  0.00  0.00    +0.175 C 
BRANCH  46  48
ATOM     47  C   UNL     1       9.142   1.712  -0.656  0.00  0.00    +0.422 C 
ATOM     48  N   UNL     1       9.726   0.546  -0.075  0.00  0.00    -0.161 NA
ATOM     49  O   UNL     1       8.012   1.684  -1.223  0.00  0.00    -0.225 OA
BRANCH  47  51
ATOM     50  C   UNL     1       9.159   4.054  -0.809  0.00  0.00    +0.257 C 
ATOM     51  O   UNL     1       9.701   2.984  -0.512  0.00  0.00    -0.429 OA
ENDBRANCH  47  51
ENDBRANCH  46  48
BRANCH  46  52
ATOM     52  C   UNL     1      10.540  -1.620  -0.357  0.00  0.00    +0.029 C 
ATOM     53  C   UNL     1      10.112  -3.056  -0.563  0.00  0.00    +0.002 C 
ATOM     54  C   UNL     1      10.710  -1.378   1.112  0.00  0.00    +0.002 C 
ENDBRANCH  46  52
ENDBRANCH  39  46
ENDBRANCH  34  41
ENDBRANCH   1  36
TORSDOF 13
