REMARK  Name = 
REMARK  9 active torsions:
REMARK  status: ('A' for Active; 'I' for Inactive)
REMARK    1  A    between atoms: C_2  and  C_3
REMARK    2  A    between atoms: N_5  and  C_6
REMARK    3  A    between atoms: N_5  and  C_12
REMARK    4  A    between atoms: C_12  and  C_13
REMARK    5  A    between atoms: C_13  and  O_15
REMARK    6  A    between atoms: N_19  and  C_20
REMARK    7  A    between atoms: C_20  and  C_21
REMARK    8  A    between atoms: C_21  and  C_22
REMARK    9  A    between atoms: C_22  and  O_24
REMARK                            x       y       z     vdW  Elec       q    Type
REMARK                         _______ _______ _______ _____ _____    ______ ____
ROOT
ATOM      1  C   UNL     1      -0.404  -0.512   0.149  0.00  0.00    +0.156 C 
ATOM      2  C   UNL     1       0.810  -0.183  -0.701  0.00  0.00    +0.047 C 
ATOM      3  C   UNL     1       1.980   0.171   0.188  0.00  0.00    +0.074 C 
ATOM      4  N   UNL     1       2.477  -1.059   0.800  0.00  0.00    -0.272 NA
ATOM      5  C   UNL     1       1.320  -1.796   1.286  0.00  0.00    +0.074 C 
ATOM      6  C   UNL     1       0.135  -0.867   1.530  0.00  0.00    +0.047 C 
ENDROOT
BRANCH   1   8
ATOM      7  C   UNL     1      -0.997   1.776  -0.551  0.00  0.00    +0.230 C 
ATOM      8  N   UNL     1      -1.319   0.595   0.185  0.00  0.00    -0.252 N 
ATOM      9  O   UNL     1      -0.832   2.837   0.083  0.00  0.00    -0.275 OA
BRANCH   8  10
ATOM     10  C   UNL     1      -2.706   0.429   0.507  0.00  0.00    +0.054 A 
ATOM     11  C   UNL     1      -3.160   0.985   1.697  0.00  0.00    +0.015 A 
ATOM     12  C   UNL     1      -4.425   1.549   1.802  0.00  0.00    +0.001 A 
ATOM     13  C   UNL     1      -5.307   1.474   0.746  0.00  0.00    +0.000 A 
ATOM     14  C   UNL     1      -4.969   0.646  -0.306  0.00  0.00    +0.001 A 
ATOM     15  C   UNL     1      -3.611   0.476  -0.546  0.00  0.00    +0.015 A 
ENDBRANCH   8  10
BRANCH   7  17
ATOM     16  C   UNL     1      -1.806   1.954  -2.895  0.00  0.00    +0.010 C 
ATOM     17  C   UNL     1      -0.624   1.751  -1.986  0.00  0.00    +0.086 C 
ENDBRANCH   7  17
ENDBRANCH   1   8
BRANCH   1  18
ATOM     18  C   UNL     1      -1.080  -1.665  -0.493  0.00  0.00    +0.334 C 
ATOM     19  O   UNL     1      -0.849  -1.979  -1.699  0.00  0.00    -0.248 OA
BRANCH  18  20
ATOM     20  O   UNL     1      -2.181  -2.201   0.152  0.00  0.00    -0.443 OA
ATOM     21  C   UNL     1      -2.829  -3.347  -0.342  0.00  0.00    +0.256 C 
ENDBRANCH  18  20
ENDBRANCH   1  18
BRANCH   4  22
ATOM     22  C   UNL     1       3.178  -1.813  -0.207  0.00  0.00    +0.084 C 
BRANCH  22  23
ATOM     23  C   UNL     1       4.657  -1.551  -0.233  0.00  0.00    +0.127 C 
BRANCH  23  24
ATOM     24  C   UNL     1       4.987  -0.106  -0.372  0.00  0.00    +0.319 C 
ATOM     25  O   UNL     1       4.690   0.514  -1.437  0.00  0.00    -0.250 OA
BRANCH  24  26
ATOM     26  O   UNL     1       6.176   0.306   0.238  0.00  0.00    -0.444 OA
ATOM     27  C   UNL     1       6.690   1.613   0.103  0.00  0.00    +0.256 C 
ENDBRANCH  24  26
ENDBRANCH  23  24
ENDBRANCH  22  23
ENDBRANCH   4  22
TORSDOF 9
