REMARK  Name = 
REMARK  6 active torsions:
REMARK  status: ('A' for Active; 'I' for Inactive)
REMARK    1  A    between atoms: N_2  and  C_4
REMARK    2  A    between atoms: C_4  and  C_5
REMARK    3  A    between atoms: C_5  and  O_6
REMARK    4  A    between atoms: O_6  and  C_7
REMARK    5  A    between atoms: C_7  and  C_8
REMARK    6  A    between atoms: C_7  and  C_15
REMARK                            x       y       z     vdW  Elec       q    Type
REMARK                         _______ _______ _______ _____ _____    ______ ____
ROOT
ATOM      1  C   UNL     1      -0.489  -0.312  -1.351  0.00  0.00    +0.177 C 
ENDROOT
BRANCH   1   2
ATOM      2  C   UNL     1      -0.959   1.228  -0.971  0.00  0.00    +0.010 A 
ATOM      3  C   UNL     1      -0.118   2.182  -1.473  0.00  0.00    -0.001 A 
ATOM      4  C   UNL     1      -0.101   3.454  -0.906  0.00  0.00    +0.011 A 
ATOM      5  C   UNL     1      -0.598   3.539   0.384  0.00  0.00    +0.058 A 
ATOM      6 CL   UNL     1       0.161   4.498   1.648  0.00  0.00    -0.082 Cl
ATOM      7  C   UNL     1      -1.698   2.727   0.635  0.00  0.00    +0.011 A 
ATOM      8  C   UNL     1      -1.743   1.454   0.068  0.00  0.00    -0.001 A 
ENDBRANCH   1   2
BRANCH   1   9
ATOM      9  C   UNL     1      -1.286  -1.028  -0.076  0.00  0.00    +0.090 A 
ATOM     10  N   UNL     1      -2.627  -1.038  -0.294  0.00  0.00    -0.245 NA
ATOM     11  C   UNL     1      -3.346  -1.613   0.702  0.00  0.00    +0.099 A 
ATOM     12  C   UNL     1      -2.760  -2.722   1.302  0.00  0.00    +0.021 A 
ATOM     13  C   UNL     1      -1.454  -3.103   1.012  0.00  0.00    +0.003 A 
ATOM     14  C   UNL     1      -0.738  -2.281   0.189  0.00  0.00    +0.018 A 
ENDBRANCH   1   9
BRANCH   1  15
ATOM     15  O   UNL     1       0.810  -0.189  -0.499  0.00  0.00    -0.344 OA
BRANCH  15  16
ATOM     16  C   UNL     1       1.583  -1.278  -0.942  0.00  0.00    +0.160 C 
BRANCH  16  17
ATOM     17  C   UNL     1       2.491  -1.614   0.235  0.00  0.00    +0.105 C 
BRANCH  17  19
ATOM     18  C   UNL     1       4.656  -1.947   1.029  0.00  0.00    +0.090 C 
ATOM     19  N   UNL     1       3.883  -1.625  -0.128  0.00  0.00    -0.268 NA
ATOM     20  C   UNL     1       4.333  -0.331  -0.564  0.00  0.00    +0.090 C 
ENDBRANCH  17  19
ENDBRANCH  16  17
ENDBRANCH  15  16
ENDBRANCH   1  15
TORSDOF 6
