REMARK  Name = 
REMARK  0 active torsions:
REMARK  status: ('A' for Active; 'I' for Inactive)
REMARK                            x       y       z     vdW  Elec       q    Type
REMARK                         _______ _______ _______ _____ _____    ______ ____
ROOT
ATOM      1  C   UNL     1      -0.549   1.290  -0.112  0.00  0.00    +0.035 C 
ATOM      2  C   UNL     1       0.040  -0.026   0.366  0.00  0.00    +0.152 C 
ATOM      3  O   UNL     1       1.332  -0.100  -0.132  0.00  0.00    -0.223 OA
ATOM      4  C   UNL     1      -0.822  -1.164  -0.121  0.00  0.00    +0.035 C 
ENDROOT
TORSDOF 0
