REMARK  Name = 
REMARK  5 active torsions:
REMARK  status: ('A' for Active; 'I' for Inactive)
REMARK    1  A    between atoms: C_2  and  C_4
REMARK    2  A    between atoms: C_4  and  C_5
REMARK    3  A    between atoms: C_5  and  C_7
REMARK    4  A    between atoms: C_5  and  C_11
REMARK    5  A    between atoms: C_7  and  C_8
REMARK                            x       y       z     vdW  Elec       q    Type
REMARK                         _______ _______ _______ _____ _____    ______ ____
ROOT
ATOM      1  C   UNL     1      -0.028  -0.396  -0.550  0.00  0.00    +0.240 C 
ATOM      2  O   UNL     1       0.828  -0.698  -1.587  0.00  0.00    -0.213 OA
ENDROOT
BRANCH   1   3
ATOM      3  C   UNL     1      -0.728  -1.630  -0.083  0.00  0.00    +0.393 C 
ATOM      4  O   UNL     1      -0.247  -2.247   1.051  0.00  0.00    -0.243 OA
ATOM      5  O   UNL     1      -1.472  -2.190  -0.936  0.00  0.00    -0.243 OA
ENDBRANCH   1   3
BRANCH   1   6
ATOM      6  C   UNL     1      -1.106   0.514  -1.119  0.00  0.00    +0.156 C 
BRANCH   6   8
ATOM      7  O   UNL     1      -1.302   2.602  -0.030  0.00  0.00    -0.246 OA
ATOM      8  C   UNL     1      -1.643   1.381  -0.056  0.00  0.00    +0.368 C 
ATOM      9  O   UNL     1      -2.504   0.966   0.938  0.00  0.00    -0.246 OA
ENDBRANCH   6   8
ENDBRANCH   1   6
BRANCH   1  10
ATOM     10  C   UNL     1       0.609   0.336   0.591  0.00  0.00    +0.156 C 
BRANCH  10  11
ATOM     11  C   UNL     1       2.083   0.298   0.575  0.00  0.00    +0.368 C 
ATOM     12  O   UNL     1       2.745   0.786   1.701  0.00  0.00    -0.246 OA
ATOM     13  O   UNL     1       2.766   0.278  -0.493  0.00  0.00    -0.246 OA
ENDBRANCH  10  11
ENDBRANCH   1  10
TORSDOF 5
