REMARK  Name = 
REMARK  0 active torsions:
REMARK  status: ('A' for Active; 'I' for Inactive)
REMARK                            x       y       z     vdW  Elec       q    Type
REMARK                         _______ _______ _______ _____ _____    ______ ____
ROOT
ATOM      1  N   UNL     1      -0.579   2.826  -1.675  0.00  0.00    -0.069 NA
ATOM      2  C   UNL     1      -0.412   2.322  -0.344  0.00  0.00    +0.350 C 
ATOM      3  N   UNL     1      -0.210   0.927  -0.186  0.00  0.00    -0.220 N 
ATOM      4  C   UNL     1       1.153   0.502  -0.286  0.00  0.00    +0.062 A 
ATOM      5  C   UNL     1       1.575  -0.821  -0.254  0.00  0.00    +0.049 A 
ATOM      6  C   UNL     1       2.818  -1.174   0.231  0.00  0.00    +0.004 A 
ATOM      7  C   UNL     1       3.580  -0.209   0.875  0.00  0.00    +0.000 A 
ATOM      8  C   UNL     1       3.189   1.120   0.851  0.00  0.00    +0.001 A 
ATOM      9  C   UNL     1       0.802  -1.957  -0.762  0.00  0.00    +0.179 C 
ATOM     10  O   UNL     1       1.511  -2.977  -0.997  0.00  0.00    -0.291 OA
ATOM     11  C   UNL     1      -0.644  -2.208  -0.904  0.00  0.00    +0.097 C 
ATOM     12  C   UNL     1      -1.493  -1.190  -0.263  0.00  0.00    -0.000 A 
ATOM     13  C   UNL     1      -2.629  -1.813   0.237  0.00  0.00    -0.003 A 
ATOM     14  C   UNL     1      -3.446  -1.168   1.146  0.00  0.00    -0.000 A 
ATOM     15  C   UNL     1      -3.417   0.215   1.185  0.00  0.00    +0.001 A 
ATOM     16  C   UNL     1      -2.433   0.895   0.479  0.00  0.00    +0.015 A 
ATOM     17  C   UNL     1       1.981   1.475   0.262  0.00  0.00    +0.015 A 
ATOM     18  C   UNL     1      -1.421   0.170  -0.134  0.00  0.00    +0.056 A 
ATOM     19  O   UNL     1       0.074   3.065   0.539  0.00  0.00    -0.248 OA
ENDROOT
TORSDOF 0
