REMARK  Name = 
REMARK  7 active torsions:
REMARK  status: ('A' for Active; 'I' for Inactive)
REMARK    1  A    between atoms: N_2  and  C_4
REMARK    2  A    between atoms: C_6  and  N_7
REMARK    3  A    between atoms: C_8  and  C_10
REMARK    4  A    between atoms: C_10  and  N_11
REMARK    5  A    between atoms: N_11  and  C_12
REMARK    6  A    between atoms: C_24  and  N_25
REMARK    7  A    between atoms: C_30  and  C_31
REMARK                            x       y       z     vdW  Elec       q    Type
REMARK                         _______ _______ _______ _____ _____    ______ ____
ROOT
ATOM      1  C   UNL     1       2.069  -1.299   1.280  0.00  0.00    +0.045 A 
ATOM      2  C   UNL     1       0.947  -0.617   0.823  0.00  0.00    -0.002 A 
ATOM      3  C   UNL     1      -0.356  -0.633   1.514  0.00  0.00    +0.032 C 
ATOM      4  C   UNL     1      -1.335  -1.494   0.531  0.00  0.00    +0.033 C 
ATOM      5  C   UNL     1      -1.326  -0.452  -0.682  0.00  0.00    +0.054 C 
ATOM      6  C   UNL     1      -0.234   0.353  -1.024  0.00  0.00    +0.197 C 
ATOM      7  O   UNL     1      -0.128   0.761  -2.221  0.00  0.00    -0.287 OA
ATOM      8  C   UNL     1      -2.259  -0.924  -1.515  0.00  0.00    +0.207 C 
ATOM      9  O   UNL     1      -2.113  -0.573  -2.864  0.00  0.00    -0.289 OA
ATOM     10  C   UNL     1      -3.691  -1.044  -1.080  0.00  0.00    +0.237 C 
ATOM     11  C   UNL     1      -3.679  -1.823   0.316  0.00  0.00    +0.065 C 
ATOM     12  C   UNL     1      -5.130  -1.253   1.028  0.00  0.00    +0.124 C 
ATOM     13  C   UNL     1      -4.796   0.306   1.102  0.00  0.00    +0.195 C 
ATOM     14  C   UNL     1      -4.574   0.999   0.057  0.00  0.00    +0.130 C 
ATOM     15  O   UNL     1      -5.538   0.877   2.147  0.00  0.00    -0.290 OA
ATOM     16  O   UNL     1      -4.236  -1.921  -2.040  0.00  0.00    -0.210 OA
ATOM     17  C   UNL     1      -4.204   0.244  -1.108  0.00  0.00    +0.215 C 
ATOM     18  O   UNL     1      -4.000   0.903  -2.172  0.00  0.00    -0.288 OA
ATOM     19  C   UNL     1      -2.698  -0.793   1.111  0.00  0.00    +0.010 C 
ATOM     20  C   UNL     1       1.008   0.271  -0.246  0.00  0.00    +0.076 A 
ATOM     21  C   UNL     1       2.223   0.705  -0.696  0.00  0.00    +0.214 A 
ATOM     22  O   UNL     1       2.290   1.450  -1.850  0.00  0.00    -0.285 OA
ATOM     23  C   UNL     1       3.344   0.198  -0.070  0.00  0.00    +0.114 A 
ATOM     24  C   UNL     1       3.225  -1.042   0.547  0.00  0.00    +0.034 A 
ENDROOT
BRANCH  14  25
ATOM     25  C   UNL     1      -4.147   2.394   0.242  0.00  0.00    +0.290 C 
ATOM     26  O   UNL     1      -3.534   2.763   1.274  0.00  0.00    -0.266 OA
ATOM     27  N   UNL     1      -4.068   3.227  -0.920  0.00  0.00    -0.084 NA
ENDBRANCH  14  25
BRANCH  12  28
ATOM     28  N   UNL     1      -5.968  -1.162  -0.301  0.00  0.00    -0.265 NA
ATOM     29  C   UNL     1      -6.595  -2.490  -0.231  0.00  0.00    +0.090 C 
ATOM     30  C   UNL     1      -7.060  -0.283   0.135  0.00  0.00    +0.090 C 
ENDBRANCH  12  28
BRANCH   1  32
ATOM     31  C   UNL     1       1.670  -2.878   2.524  0.00  0.00    +0.112 C 
ATOM     32  N   UNL     1       1.780  -2.625   1.762  0.00  0.00    -0.304 N 
ATOM     33  C   UNL     1       1.998  -3.628   0.710  0.00  0.00    +0.112 C 
ENDBRANCH   1  32
BRANCH  23  34
ATOM     34  N   UNL     1       4.591   0.856  -0.258  0.00  0.00    -0.175 NA
ATOM     35  C   UNL     1       5.169   1.605   0.792  0.00  0.00    +0.263 C 
ATOM     36  O   UNL     1       4.392   2.357   1.435  0.00  0.00    -0.271 OA
BRANCH  35  37
ATOM     37  C   UNL     1       6.529   1.362   1.352  0.00  0.00    +0.176 C 
BRANCH  37  38
ATOM     38  N   UNL     1       7.260   0.396   0.569  0.00  0.00    -0.211 NA
BRANCH  38  39
ATOM     39  C   UNL     1       8.071   1.059  -0.419  0.00  0.00    +0.060 C 
ATOM     40  C   UNL     1       7.573   0.682  -1.800  0.00  0.00    +0.017 C 
ATOM     41  C   UNL     1       8.027   2.558  -0.292  0.00  0.00    +0.017 C 
ATOM     42  C   UNL     1       9.501   0.605  -0.285  0.00  0.00    +0.017 C 
ENDBRANCH  38  39
ENDBRANCH  37  38
ENDBRANCH  35  37
ENDBRANCH  23  34
TORSDOF 7
