REMARK  Name = 
REMARK  4 active torsions:
REMARK  status: ('A' for Active; 'I' for Inactive)
REMARK    1  A    between atoms: C_2  and  O_4
REMARK    2  A    between atoms: O_4  and  C_5
REMARK    3  A    between atoms: C_5  and  C_6
REMARK    4  A    between atoms: C_6  and  N_7
REMARK                            x       y       z     vdW  Elec       q    Type
REMARK                         _______ _______ _______ _____ _____    ______ ____
ROOT
ATOM      1  C   UNL     1       0.119  -0.593  -0.953  0.00  0.00    +0.269 C 
ENDROOT
BRANCH   1   2
ATOM      2  O   UNL     1       1.417  -0.052  -1.181  0.00  0.00    -0.442 OA
BRANCH   2   4
ATOM      3  C   UNL     1       3.251   1.118   0.090  0.00  0.00    +0.121 C 
ATOM      4  C   UNL     1       2.319  -0.011  -0.115  0.00  0.00    +0.318 C 
ATOM      5  O   UNL     1       2.441  -1.102   0.512  0.00  0.00    -0.250 OA
ENDBRANCH   2   4
ENDBRANCH   1   2
BRANCH   1   6
ATOM      6  C   UNL     1      -0.726   0.535  -0.427  0.00  0.00    +0.157 C 
BRANCH   6   7
ATOM      7  N   UNL     1      -1.871   0.095   0.328  0.00  0.00    +0.313 N 
ATOM      8  C   UNL     1      -2.343  -1.214  -0.039  0.00  0.00    +0.171 C 
ATOM      9  C   UNL     1      -2.956   1.025   0.016  0.00  0.00    +0.171 C 
ATOM     10  C   UNL     1      -1.650   0.199   1.767  0.00  0.00    +0.171 C 
ENDBRANCH   6   7
ENDBRANCH   1   6
TORSDOF 4
