REMARK  Name = 
REMARK  2 active torsions:
REMARK  status: ('A' for Active; 'I' for Inactive)
REMARK    1  A    between atoms: N_11  and  C_12
REMARK    2  A    between atoms: C_14  and  C_15
REMARK                            x       y       z     vdW  Elec       q    Type
REMARK                         _______ _______ _______ _____ _____    ______ ____
ROOT
ATOM      1  N   UNL     1       4.560  -0.844   0.070  0.00  0.00    -0.105 NA
ATOM      2  C   UNL     1       3.394  -0.303   0.282  0.00  0.00    +0.193 A 
ATOM      3  C   UNL     1       2.276  -0.916  -0.289  0.00  0.00    +0.152 A 
ATOM      4  N   UNL     1       2.087  -1.654  -1.419  0.00  0.00    -0.219 NA
ATOM      5  C   UNL     1       0.736  -1.733  -1.569  0.00  0.00    +0.182 A 
ATOM      6  N   UNL     1       0.189  -1.080  -0.493  0.00  0.00    -0.269 N 
ATOM      7  C   UNL     1       1.059  -0.240  -0.140  0.00  0.00    +0.170 A 
ATOM      8  N   UNL     1       1.009   1.081   0.061  0.00  0.00    -0.198 NA
ATOM      9  C   UNL     1       2.076   1.606   0.729  0.00  0.00    +0.227 A 
ATOM     10 CL   UNL     1       2.072   3.370   0.597  0.00  0.00    -0.041 Cl
ATOM     11  N   UNL     1       3.233   0.904   0.898  0.00  0.00    -0.197 NA
ENDROOT
BRANCH   6  12
ATOM     12  C   UNL     1      -1.374  -1.097  -0.578  0.00  0.00    +0.243 C 
ATOM     13  C   UNL     1      -1.744  -1.231   1.110  0.00  0.00    +0.243 C 
ATOM     14  F   UNL     1      -0.571  -0.538   1.672  0.00  0.00    -0.230 F 
ATOM     15  C   UNL     1      -2.646   0.217   1.169  0.00  0.00    +0.218 C 
ATOM     16  O   UNL     1      -3.839  -0.486   1.739  0.00  0.00    -0.217 OA
ATOM     17  C   UNL     1      -3.077  -0.110  -0.446  0.00  0.00    +0.183 C 
ATOM     18  O   UNL     1      -1.653   0.395  -0.658  0.00  0.00    -0.330 OA
BRANCH  17  19
ATOM     19  C   UNL     1      -3.783   1.351  -0.676  0.00  0.00    +0.214 C 
ATOM     20  O   UNL     1      -4.003   1.310  -2.061  0.00  0.00    -0.218 OA
ENDBRANCH  17  19
ENDBRANCH   6  12
TORSDOF 2
