REMARK  Name = 
REMARK  6 active torsions:
REMARK  status: ('A' for Active; 'I' for Inactive)
REMARK    1  A    between atoms: O_2  and  C_3
REMARK    2  A    between atoms: C_3  and  C_5
REMARK    3  A    between atoms: C_11  and  C_12
REMARK    4  A    between atoms: C_12  and  O_14
REMARK    5  A    between atoms: C_16  and  C_17
REMARK    6  A    between atoms: C_22  and  N_23
REMARK                            x       y       z     vdW  Elec       q    Type
REMARK                         _______ _______ _______ _____ _____    ______ ____
ROOT
ATOM      1  C   UNL     1       0.234   1.540  -0.409  0.00  0.00    +0.073 C 
ATOM      2  C   UNL     1       0.299   0.083  -0.237  0.00  0.00    +0.087 C 
ATOM      3  C   UNL     1       1.562  -0.358   0.373  0.00  0.00    +0.073 C 
ATOM      4  C   UNL     1       2.567   0.509   0.499  0.00  0.00    +0.051 C 
ATOM      5  C   UNL     1       3.577   0.248   1.561  0.00  0.00    +0.049 C 
ATOM      6  N   UNL     1       2.614   1.699  -0.296  0.00  0.00    -0.221 NA
ATOM      7  C   UNL     1       1.350   2.158  -0.790  0.00  0.00    +0.051 C 
ATOM      8  C   UNL     1       1.266   3.411  -1.605  0.00  0.00    +0.049 C 
ENDROOT
BRANCH   2   9
ATOM      9  C   UNL     1      -0.904  -0.506   0.372  0.00  0.00    +0.055 A 
ATOM     10  C   UNL     1      -1.744  -1.216  -0.479  0.00  0.00    +0.287 A 
ATOM     11  C   UNL     1      -3.104  -1.308  -0.211  0.00  0.00    +0.075 A 
ATOM     12  C   UNL     1      -3.658  -0.523   0.795  0.00  0.00    +0.006 A 
ATOM     13  C   UNL     1      -2.782  -0.177   1.816  0.00  0.00    +0.000 A 
ATOM     14  C   UNL     1      -1.409  -0.124   1.609  0.00  0.00    +0.002 A 
BRANCH  10  15
ATOM     15  N   UNL     1      -1.123  -2.180  -1.338  0.00  0.00    +0.081 N 
ATOM     16  O   UNL     1      -0.650  -1.866  -2.581  0.00  0.00    -0.576 OA
ATOM     17  O   UNL     1      -1.294  -3.382  -1.012  0.00  0.00    +0.041 OA
ENDBRANCH  10  15
ENDBRANCH   2   9
BRANCH   1  18
ATOM     18  C   UNL     1      -0.989   2.333  -0.234  0.00  0.00    +0.339 C 
ATOM     19  O   UNL     1      -1.371   2.961  -1.268  0.00  0.00    -0.245 OA
BRANCH  18  21
ATOM     20  C   UNL     1      -1.681   4.351   1.012  0.00  0.00    +0.256 C 
ATOM     21  O   UNL     1      -1.168   3.022   0.970  0.00  0.00    -0.442 OA
ENDBRANCH  18  21
ENDBRANCH   1  18
BRANCH   3  22
ATOM     22  C   UNL     1       1.829  -1.774   0.553  0.00  0.00    +0.339 C 
ATOM     23  O   UNL     1       1.203  -2.461   1.415  0.00  0.00    -0.245 OA
BRANCH  22  24
ATOM     24  O   UNL     1       2.664  -2.508  -0.291  0.00  0.00    -0.442 OA
ATOM     25  C   UNL     1       2.709  -3.932  -0.223  0.00  0.00    +0.256 C 
ENDBRANCH  22  24
ENDBRANCH   3  22
TORSDOF 6
