REMARK  Name = 
REMARK  1 active torsions:
REMARK  status: ('A' for Active; 'I' for Inactive)
REMARK    1  A    between atoms: C_11  and  C_12
REMARK                            x       y       z     vdW  Elec       q    Type
REMARK                         _______ _______ _______ _____ _____    ______ ____
ROOT
ATOM      1  O   UNL     1      -3.520  -2.248   0.248  0.00  0.00    -0.268 OA
ATOM      2  C   UNL     1      -2.839  -1.661   0.300  0.00  0.00    +0.300 C 
ATOM      3  C   UNL     1      -1.837  -2.013  -0.959  0.00  0.00    +0.333 C 
ATOM      4  O   UNL     1      -1.836  -0.550  -1.467  0.00  0.00    -0.186 OA
ATOM      5  N   UNL     1      -0.514  -1.886  -0.063  0.00  0.00    -0.233 NA
ATOM      6  C   UNL     1       0.159  -0.842   0.130  0.00  0.00    +0.080 C 
ATOM      7  C   UNL     1      -0.501   0.422   0.499  0.00  0.00    +0.034 A 
ATOM      8  C   UNL     1      -1.743   0.542   1.117  0.00  0.00    +0.075 A 
ATOM      9  C   UNL     1      -2.150   1.786   1.486  0.00  0.00    +0.018 A 
ATOM     10  C   UNL     1      -1.458   2.864   0.937  0.00  0.00    +0.013 A 
ATOM     11  C   UNL     1      -0.112   2.752   0.613  0.00  0.00    +0.058 A 
ATOM     12 CL   UNL     1       0.787   4.034  -0.179  0.00  0.00    -0.082 Cl
ATOM     13  C   UNL     1       0.392   1.456   0.620  0.00  0.00    +0.014 A 
ATOM     14  N   UNL     1      -2.753  -0.472   1.065  0.00  0.00    -0.175 NA
ENDROOT
BRANCH   6  15
ATOM     15  C   UNL     1       1.612  -0.885   0.310  0.00  0.00    +0.017 A 
ATOM     16  C   UNL     1       2.420  -1.513  -0.631  0.00  0.00    +0.001 A 
ATOM     17  C   UNL     1       3.790  -1.292  -0.586  0.00  0.00    +0.000 A 
ATOM     18  C   UNL     1       4.350  -0.652   0.504  0.00  0.00    +0.000 A 
ATOM     19  C   UNL     1       3.540   0.016   1.415  0.00  0.00    +0.000 A 
ATOM     20  C   UNL     1       2.214   0.142   1.032  0.00  0.00    +0.001 A 
ENDBRANCH   6  15
TORSDOF 1
