REMARK  Name = 
REMARK  0 active torsions:
REMARK  status: ('A' for Active; 'I' for Inactive)
REMARK                            x       y       z     vdW  Elec       q    Type
REMARK                         _______ _______ _______ _____ _____    ______ ____
ROOT
ATOM      1  O   UNL     1      -1.008   2.815  -2.694  0.00  0.00    -0.245 OA
ATOM      2  C   UNL     1      -0.390   2.197  -1.788  0.00  0.00    +0.342 C 
ATOM      3  C   UNL     1      -0.163   2.577  -0.402  0.00  0.00    +0.076 A 
ATOM      4  C   UNL     1       0.111   1.451   0.364  0.00  0.00    +0.028 A 
ATOM      5  C   UNL     1      -0.246   1.494   1.706  0.00  0.00    -0.000 A 
ATOM      6  C   UNL     1      -0.593   2.704   2.296  0.00  0.00    -0.000 A 
ATOM      7  C   UNL     1      -0.155   3.840   1.627  0.00  0.00    +0.000 A 
ATOM      8  C   UNL     1       0.120   0.307  -0.586  0.00  0.00    +0.198 C 
ATOM      9  C   UNL     1       1.379  -0.463  -0.540  0.00  0.00    +0.056 A 
ATOM     10  C   UNL     1       1.383  -1.822  -0.248  0.00  0.00    +0.148 A 
ATOM     11  C   UNL     1       2.489  -2.425   0.339  0.00  0.00    +0.079 A 
ATOM     12  C   UNL     1       3.618  -1.677   0.605  0.00  0.00    +0.199 A 
ATOM     13  C   UNL     1       3.756  -0.488  -0.077  0.00  0.00    +0.042 A 
ATOM     14  O   UNL     1       4.401  -1.995   1.712  0.00  0.00    -0.286 OA
ATOM     15  O   UNL     1       0.243  -2.557  -0.566  0.00  0.00    -0.454 OA
ATOM     16  C   UNL     1      -1.011  -1.946  -0.469  0.00  0.00    +0.148 A 
ATOM     17  C   UNL     1      -2.165  -2.682  -0.224  0.00  0.00    +0.079 A 
ATOM     18  C   UNL     1      -3.299  -2.087   0.312  0.00  0.00    +0.199 A 
ATOM     19  O   UNL     1      -4.061  -2.757   1.274  0.00  0.00    -0.286 OA
ATOM     20  C   UNL     1      -3.381  -0.707   0.175  0.00  0.00    +0.042 A 
ATOM     21  C   UNL     1      -2.292   0.009  -0.288  0.00  0.00    +0.006 A 
ATOM     22  C   UNL     1       2.620   0.144  -0.568  0.00  0.00    +0.006 A 
ATOM     23  C   UNL     1      -1.032  -0.576  -0.324  0.00  0.00    +0.056 A 
ATOM     24  C   UNL     1      -0.277   3.798   0.243  0.00  0.00    +0.006 A 
ATOM     25  O   UNL     1      -0.046   0.847  -1.879  0.00  0.00    -0.440 OA
ENDROOT
TORSDOF 0
