REMARK  Name = 
REMARK  11 active torsions:
REMARK  status: ('A' for Active; 'I' for Inactive)
REMARK    1  A    between atoms: O_2  and  C_3
REMARK    2  A    between atoms: C_3  and  C_4
REMARK    3  A    between atoms: N_6  and  C_7
REMARK    4  A    between atoms: C_10  and  C_11
REMARK    5  A    between atoms: N_13  and  C_14
REMARK    6  A    between atoms: C_14  and  C_15
REMARK    7  A    between atoms: C_15  and  C_17
REMARK    8  A    between atoms: C_21  and  C_22
REMARK    9  A    between atoms: N_24  and  C_26
REMARK   10  A    between atoms: C_26  and  C_27
REMARK   11  A    between atoms: C_27  and  C_29
REMARK                            x       y       z     vdW  Elec       q    Type
REMARK                         _______ _______ _______ _____ _____    ______ ____
ROOT
ATOM      1  C   UNL     1      -0.877   1.500   0.303  0.00  0.00    +0.084 A 
ATOM      2  C   UNL     1       0.474   1.259   0.518  0.00  0.00    +0.051 A 
ATOM      3  I   UNL     1       1.500   2.501   1.895  0.00  0.00    -0.041 I 
ATOM      4  C   UNL     1       1.017   0.053   0.082  0.00  0.00    +0.066 A 
ATOM      5  C   UNL     1       0.129  -0.946  -0.302  0.00  0.00    +0.040 A 
ATOM      6  I   UNL     1       0.872  -2.868  -0.782  0.00  0.00    -0.042 I 
ATOM      7  C   UNL     1      -1.249  -0.774  -0.254  0.00  0.00    +0.067 A 
ATOM      8  C   UNL     1      -1.767   0.480  -0.007  0.00  0.00    +0.051 A 
ATOM      9  I   UNL     1      -3.814   0.811   0.402  0.00  0.00    -0.041 I 
ENDROOT
BRANCH   4  10
ATOM     10  C   UNL     1       2.298  -0.309   0.673  0.00  0.00    +0.250 C 
ATOM     11  N   UNL     1       3.554  -0.145   0.017  0.00  0.00    -0.272 N 
ATOM     12  C   UNL     1       4.056   1.226  -0.061  0.00  0.00    +0.115 C 
ATOM     13  O   UNL     1       2.345  -0.465   1.932  0.00  0.00    -0.270 OA
BRANCH  11  14
ATOM     14  C   UNL     1       4.491  -1.244   0.262  0.00  0.00    +0.129 C 
BRANCH  14  15
ATOM     15  C   UNL     1       5.943  -0.639  -0.326  0.00  0.00    +0.204 C 
ATOM     16  O   UNL     1       6.474  -0.416   1.111  0.00  0.00    -0.218 OA
BRANCH  15  17
ATOM     17  C   UNL     1       6.622  -2.178  -0.374  0.00  0.00    +0.217 C 
ATOM     18  O   UNL     1       5.920  -2.680  -1.460  0.00  0.00    -0.218 OA
ENDBRANCH  15  17
ENDBRANCH  14  15
ENDBRANCH  11  14
ENDBRANCH   4  10
BRANCH   7  19
ATOM     19  C   UNL     1      -2.166  -1.906  -0.041  0.00  0.00    +0.266 C 
ATOM     20  N   UNL     1      -3.002  -2.419  -1.036  0.00  0.00    -0.199 NA
ATOM     21  O   UNL     1      -2.102  -2.613   1.011  0.00  0.00    -0.268 OA
BRANCH  20  22
ATOM     22  C   UNL     1      -3.624  -3.660  -1.175  0.00  0.00    +0.151 C 
BRANCH  22  23
ATOM     23  C   UNL     1      -5.257  -3.375  -1.470  0.00  0.00    +0.206 C 
ATOM     24  O   UNL     1      -5.024  -1.938  -2.002  0.00  0.00    -0.218 OA
BRANCH  23  25
ATOM     25  C   UNL     1      -5.486  -2.829   0.104  0.00  0.00    +0.217 C 
ATOM     26  O   UNL     1      -5.271  -3.972   0.862  0.00  0.00    -0.218 OA
ENDBRANCH  23  25
ENDBRANCH  22  23
ENDBRANCH  20  22
ENDBRANCH   7  19
BRANCH   1  28
ATOM     27  C   UNL     1      -0.825   3.681  -0.781  0.00  0.00    +0.276 C 
ATOM     28  N   UNL     1      -1.309   2.864   0.292  0.00  0.00    -0.176 NA
ATOM     29  O   UNL     1      -0.216   3.169  -1.747  0.00  0.00    -0.270 OA
BRANCH  27  30
ATOM     30  C   UNL     1      -1.419   5.048  -0.902  0.00  0.00    +0.229 C 
BRANCH  30  32
ATOM     31  C   UNL     1      -1.541   6.904   0.320  0.00  0.00    +0.175 C 
ATOM     32  O   UNL     1      -0.748   5.880   0.009  0.00  0.00    -0.342 OA
ENDBRANCH  30  32
ENDBRANCH  27  30
ENDBRANCH   1  28
TORSDOF 11
