REMARK  Name = 
REMARK  4 active torsions:
REMARK  status: ('A' for Active; 'I' for Inactive)
REMARK    1  A    between atoms: C_2  and  C_4
REMARK    2  A    between atoms: C_4  and  C_5
REMARK    3  A    between atoms: C_5  and  C_6
REMARK    4  A    between atoms: C_5  and  C_12
REMARK                            x       y       z     vdW  Elec       q    Type
REMARK                         _______ _______ _______ _____ _____    ______ ____
ROOT
ATOM      1  C   UNL     1       0.323   0.569  -0.245  0.00  0.00    +0.097 A 
ATOM      2  C   UNL     1       1.077   1.566   0.370  0.00  0.00    +0.345 A 
ATOM      3  O   UNL     1       0.599   2.426   1.133  0.00  0.00    -0.245 OA
ATOM      4  O   UNL     1       2.353   1.637   0.040  0.00  0.00    -0.421 OA
ATOM      5  C   UNL     1       2.972   0.596  -0.490  0.00  0.00    +0.152 A 
ATOM      6  C   UNL     1       2.289  -0.556  -0.860  0.00  0.00    +0.073 A 
ATOM      7  C   UNL     1       2.910  -1.556  -1.570  0.00  0.00    +0.006 A 
ATOM      8  C   UNL     1       4.299  -1.578  -1.489  0.00  0.00    +0.000 A 
ATOM      9  C   UNL     1       4.992  -0.709  -0.657  0.00  0.00    +0.003 A 
ATOM     10  C   UNL     1       4.349   0.484  -0.346  0.00  0.00    +0.038 A 
ATOM     11  C   UNL     1       0.928  -0.609  -0.588  0.00  0.00    +0.201 A 
ATOM     12  O   UNL     1       0.097  -1.310  -1.475  0.00  0.00    -0.287 OA
ENDROOT
BRANCH   1  13
ATOM     13  C   UNL     1      -1.088   0.407   0.569  0.00  0.00    +0.061 C 
BRANCH  13  14
ATOM     14  C   UNL     1      -1.607  -0.938  -0.223  0.00  0.00    -0.018 A 
ATOM     15  C   UNL     1      -2.864  -0.800  -0.807  0.00  0.00    -0.004 A 
ATOM     16  C   UNL     1      -3.734  -1.876  -0.942  0.00  0.00    -0.000 A 
ATOM     17  C   UNL     1      -3.778  -2.716   0.165  0.00  0.00    -0.000 A 
ATOM     18  C   UNL     1      -2.544  -2.961   0.754  0.00  0.00    -0.000 A 
ATOM     19  C   UNL     1      -1.700  -1.875   0.819  0.00  0.00    -0.004 A 
ENDBRANCH  13  14
BRANCH  13  20
ATOM     20  C   UNL     1      -1.824   1.490  -0.471  0.00  0.00    +0.074 C 
BRANCH  20  22
ATOM     21  C   UNL     1      -2.604   3.849   0.086  0.00  0.00    +0.072 C 
ATOM     22  C   UNL     1      -2.485   2.429   0.466  0.00  0.00    +0.152 C 
ATOM     23  O   UNL     1      -2.961   2.031   1.526  0.00  0.00    -0.296 OA
ENDBRANCH  20  22
ENDBRANCH  13  20
ENDBRANCH   1  13
TORSDOF 4
