REMARK  Name = 
REMARK  3 active torsions:
REMARK  status: ('A' for Active; 'I' for Inactive)
REMARK    1  A    between atoms: O_2  and  C_3
REMARK    2  A    between atoms: C_12  and  C_14
REMARK    3  A    between atoms: C_31  and  O_32
REMARK                            x       y       z     vdW  Elec       q    Type
REMARK                         _______ _______ _______ _____ _____    ______ ____
ROOT
ATOM      1  C   UNL     1      -6.479  -0.959  -0.664  0.00  0.00    +0.174 A 
ATOM      2  C   UNL     1      -6.462   0.424  -0.537  0.00  0.00    +0.173 A 
ATOM      3  C   UNL     1      -5.276   1.051  -0.217  0.00  0.00    +0.044 A 
ATOM      4  C   UNL     1      -4.132   0.340   0.029  0.00  0.00    +0.056 A 
ATOM      5  C   UNL     1      -4.114  -1.005  -0.314  0.00  0.00    +0.090 A 
ATOM      6  N   UNL     1      -2.929  -1.663  -0.314  0.00  0.00    -0.213 NA
ATOM      7  C   UNL     1      -1.870  -1.112   0.319  0.00  0.00    +0.221 A 
ATOM      8  N   UNL     1      -2.134  -0.063   1.136  0.00  0.00    -0.195 NA
ATOM      9  N   UNL     1      -0.525  -1.466  -0.035  0.00  0.00    -0.275 N 
ATOM     10  C   UNL     1      -0.163  -1.319  -1.409  0.00  0.00    +0.115 C 
ATOM     11  C   UNL     1       1.194  -0.792  -1.682  0.00  0.00    +0.115 C 
ATOM     12  N   UNL     1       1.862  -0.159  -0.584  0.00  0.00    -0.273 N 
ATOM     13  C   UNL     1       3.174  -0.648  -0.252  0.00  0.00    +0.270 C 
ATOM     14  O   UNL     1       3.156  -1.593   0.598  0.00  0.00    -0.271 OA
ATOM     15  C   UNL     1       1.041   0.185   0.577  0.00  0.00    +0.115 C 
ATOM     16  C   UNL     1       0.457  -1.159   1.004  0.00  0.00    +0.115 C 
ATOM     17  C   UNL     1      -3.165   0.780   0.900  0.00  0.00    +0.174 A 
ATOM     18  N   UNL     1      -3.233   2.082   1.468  0.00  0.00    -0.107 NA
ATOM     19  C   UNL     1      -5.284  -1.654  -0.689  0.00  0.00    +0.059 A 
ENDROOT
BRANCH  13  20
ATOM     20  C   UNL     1       4.042   0.633   0.330  0.00  0.00    +0.284 C 
ATOM     21  O   UNL     1       5.334  -0.253   0.478  0.00  0.00    -0.463 OA
ATOM     22  C   UNL     1       6.481   0.530   0.660  0.00  0.00    +0.173 A 
ATOM     23  C   UNL     1       6.739   1.490  -0.312  0.00  0.00    +0.172 A 
ATOM     24  C   UNL     1       8.023   1.716  -0.796  0.00  0.00    +0.040 A 
ATOM     25  C   UNL     1       9.094   1.200  -0.117  0.00  0.00    +0.003 A 
ATOM     26  C   UNL     1       8.849   0.381   0.975  0.00  0.00    +0.003 A 
ATOM     27  O   UNL     1       5.602   1.937  -0.994  0.00  0.00    -0.468 OA
ATOM     28  C   UNL     1       7.558   0.033   1.343  0.00  0.00    +0.040 A 
ATOM     29  C   UNL     1       4.486   1.090  -1.227  0.00  0.00    +0.258 C 
ENDBRANCH  13  20
BRANCH   1  31
ATOM     30  C   UNL     1      -8.235  -1.748   0.039  0.00  0.00    +0.253 C 
ATOM     31  O   UNL     1      -7.647  -1.647  -0.321  0.00  0.00    -0.468 OA
ENDBRANCH   1  31
BRANCH   2  32
ATOM     32  O   UNL     1      -7.695   1.065  -0.395  0.00  0.00    -0.468 OA
ATOM     33  C   UNL     1      -7.746   2.301   0.298  0.00  0.00    +0.253 C 
ENDBRANCH   2  32
TORSDOF 3
