REMARK  Name = 
REMARK  8 active torsions:
REMARK  status: ('A' for Active; 'I' for Inactive)
REMARK    1  A    between atoms: O_2  and  C_3
REMARK    2  A    between atoms: C_13  and  C_14
REMARK    3  A    between atoms: C_14  and  C_15
REMARK    4  A    between atoms: C_14  and  C_21
REMARK    5  A    between atoms: C_21  and  C_23
REMARK    6  A    between atoms: C_21  and  C_28
REMARK    7  A    between atoms: C_23  and  C_24
REMARK    8  A    between atoms: C_24  and  N_25
REMARK                            x       y       z     vdW  Elec       q    Type
REMARK                         _______ _______ _______ _____ _____    ______ ____
ROOT
ATOM      1  C   UNL     1      -0.393  -0.166  -1.172  0.00  0.00    +0.081 C 
ENDROOT
BRANCH   1   3
ATOM      2  C   UNL     1       2.072  -0.240  -1.657  0.00  0.00    +0.221 A 
ATOM      3  C   UNL     1       1.153  -0.029  -0.634  0.00  0.00    +0.037 A 
ATOM      4  C   UNL     1       1.370   1.142   0.089  0.00  0.00    +0.002 A 
ATOM      5  C   UNL     1       2.700   1.396   0.406  0.00  0.00    +0.018 A 
ATOM      6  C   UNL     1       3.680   0.563  -0.123  0.00  0.00    +0.084 A 
ATOM      7  C   UNL     1       5.024   0.823   0.076  0.00  0.00    +0.020 A 
ATOM      8  C   UNL     1       5.367   1.703   1.069  0.00  0.00    +0.008 A 
ATOM      9  C   UNL     1       4.394   2.253   1.894  0.00  0.00    +0.035 A 
ATOM     10 BR   UNL     1       4.957   3.596   3.132  0.00  0.00    -0.049 Br
ATOM     11  C   UNL     1       3.068   2.049   1.575  0.00  0.00    +0.008 A 
ATOM     12  N   UNL     1       3.365  -0.052  -1.290  0.00  0.00    -0.212 NA
BRANCH   2  14
ATOM     13  C   UNL     1       1.640   0.486  -3.977  0.00  0.00    +0.254 C 
ATOM     14  O   UNL     1       1.712  -0.516  -2.968  0.00  0.00    -0.456 OA
ENDBRANCH   2  14
ENDBRANCH   1   3
BRANCH   1  15
ATOM     15  C   UNL     1      -0.177  -1.727  -1.598  0.00  0.00    -0.016 A 
ATOM     16  C   UNL     1      -0.905  -2.131  -2.690  0.00  0.00    -0.004 A 
ATOM     17  C   UNL     1      -0.647  -3.436  -3.103  0.00  0.00    -0.000 A 
ATOM     18  C   UNL     1       0.122  -4.303  -2.337  0.00  0.00    -0.000 A 
ATOM     19  C   UNL     1       0.544  -3.879  -1.087  0.00  0.00    -0.000 A 
ATOM     20  C   UNL     1       0.429  -2.542  -0.725  0.00  0.00    -0.004 A 
ENDBRANCH   1  15
BRANCH   1  21
ATOM     21  C   UNL     1      -1.065  -0.542   0.308  0.00  0.00    +0.154 C 
ATOM     22  O   UNL     1      -1.953  -1.573   0.031  0.00  0.00    -0.220 OA
BRANCH  21  23
ATOM     23  C   UNL     1      -1.912   0.648   0.599  0.00  0.00    +0.006 A 
ATOM     24  C   UNL     1      -3.203   0.746   0.088  0.00  0.00    -0.002 A 
ATOM     25  C   UNL     1      -3.640   1.996  -0.330  0.00  0.00    -0.000 A 
ATOM     26  C   UNL     1      -4.830   2.116  -1.021  0.00  0.00    -0.000 A 
ATOM     27  C   UNL     1      -5.551   0.954  -1.245  0.00  0.00    -0.000 A 
ATOM     28  C   UNL     1      -5.210  -0.251  -0.640  0.00  0.00    -0.000 A 
ATOM     29  C   UNL     1      -2.994   3.130   0.149  0.00  0.00    -0.000 A 
ATOM     30  C   UNL     1      -2.064   2.948   1.167  0.00  0.00    -0.000 A 
ATOM     31  C   UNL     1      -3.901  -0.418  -0.200  0.00  0.00    -0.000 A 
ATOM     32  C   UNL     1      -1.543   1.700   1.409  0.00  0.00    -0.002 A 
ENDBRANCH  21  23
BRANCH  21  33
ATOM     33  C   UNL     1      -0.032  -0.845   1.271  0.00  0.00    +0.053 C 
BRANCH  33  34
ATOM     34  C   UNL     1      -0.189  -0.280   2.635  0.00  0.00    +0.075 C 
BRANCH  34  35
ATOM     35  N   UNL     1      -0.664  -1.217   3.625  0.00  0.00    -0.270 NA
ATOM     36  C   UNL     1      -1.251  -2.381   2.965  0.00  0.00    +0.090 C 
ATOM     37  C   UNL     1       0.527  -1.720   4.306  0.00  0.00    +0.090 C 
ENDBRANCH  34  35
ENDBRANCH  33  34
ENDBRANCH  21  33
ENDBRANCH   1  21
TORSDOF 8
