REMARK  Name = 
REMARK  6 active torsions:
REMARK  status: ('A' for Active; 'I' for Inactive)
REMARK    1  A    between atoms: O_2  and  C_3
REMARK    2  A    between atoms: C_5  and  C_6
REMARK    3  A    between atoms: C_13  and  O_14
REMARK    4  A    between atoms: O_14  and  C_15
REMARK    5  A    between atoms: C_20  and  C_21
REMARK    6  A    between atoms: C_42  and  O_43
REMARK                            x       y       z     vdW  Elec       q    Type
REMARK                         _______ _______ _______ _____ _____    ______ ____
ROOT
ATOM      1  C   UNL     1       2.702  -1.131  -0.221  0.00  0.00    +0.055 C 
ATOM      2  C   UNL     1       1.242  -0.657   0.261  0.00  0.00    +0.113 C 
ATOM      3  C   UNL     1       0.465  -1.582   1.276  0.00  0.00    +0.086 C 
ATOM      4  C   UNL     1       0.189  -2.807   0.260  0.00  0.00    +0.212 C 
ATOM      5  O   UNL     1       1.010  -2.643  -0.798  0.00  0.00    -0.448 OA
ATOM      6  C   UNL     1      -0.512  -0.240   0.582  0.00  0.00    +0.144 C 
ATOM      7  C   UNL     1       0.687   0.655  -0.141  0.00  0.00    +0.004 A 
ATOM      8  C   UNL     1       0.565   2.018   0.087  0.00  0.00    +0.038 A 
ATOM      9  C   UNL     1       1.574   2.897  -0.345  0.00  0.00    +0.176 A 
ATOM     10  O   UNL     1       2.228   4.004   0.229  0.00  0.00    -0.435 OA
ATOM     11  C   UNL     1       3.468   4.251  -0.383  0.00  0.00    +0.429 C 
ATOM     12  O   UNL     1       3.530   3.341  -1.457  0.00  0.00    -0.435 OA
ATOM     13  C   UNL     1       2.445   2.436  -1.351  0.00  0.00    +0.176 A 
ATOM     14  C   UNL     1       2.753   1.064  -1.392  0.00  0.00    +0.036 A 
ATOM     15  C   UNL     1       0.817  -1.351  -1.206  0.00  0.00    +0.317 C 
ATOM     16  O   UNL     1       1.016  -0.932  -2.354  0.00  0.00    -0.250 OA
ATOM     17  C   UNL     1       2.031   0.385  -0.586  0.00  0.00    -0.016 A 
ENDROOT
BRANCH   1  23
ATOM     18  C   UNL     1       6.066  -1.014   0.238  0.00  0.00    +0.180 A 
ATOM     19  C   UNL     1       6.317   0.317   0.160  0.00  0.00    +0.263 A 
ATOM     20  O   UNL     1       7.318   0.836  -0.607  0.00  0.00    -0.280 OA
ATOM     21  C   UNL     1       5.424   1.108   0.857  0.00  0.00    +0.180 A 
ATOM     22  C   UNL     1       4.127   0.643   1.111  0.00  0.00    +0.036 A 
ATOM     23  C   UNL     1       3.722  -0.614   0.970  0.00  0.00    -0.012 A 
ATOM     24  C   UNL     1       4.805  -1.427   0.540  0.00  0.00    +0.036 A 
BRANCH  21  25
ATOM     25  O   UNL     1       5.624   2.468   0.858  0.00  0.00    -0.468 OA
ATOM     26  C   UNL     1       5.513   3.312  -0.294  0.00  0.00    +0.253 C 
ENDBRANCH  21  25
BRANCH  18  28
ATOM     27  C   UNL     1       7.460  -2.284  -0.685  0.00  0.00    +0.253 C 
ATOM     28  O   UNL     1       7.072  -1.891  -0.139  0.00  0.00    -0.468 OA
ENDBRANCH  18  28
ENDBRANCH   1  23
BRANCH   6  29
ATOM     29  O   UNL     1      -0.974  -1.074  -0.486  0.00  0.00    -0.326 OA
BRANCH  29  30
ATOM     30  C   UNL     1      -2.361  -1.282  -0.937  0.00  0.00    +0.270 C 
ATOM     31  C   UNL     1      -2.663  -2.539   0.204  0.00  0.00    +0.240 C 
ATOM     32  O   UNL     1      -3.425  -3.359  -0.821  0.00  0.00    -0.215 OA
ATOM     33  C   UNL     1      -4.016  -2.142   1.124  0.00  0.00    +0.217 C 
ATOM     34  O   UNL     1      -3.224  -1.069   1.853  0.00  0.00    -0.218 OA
ATOM     35  C   UNL     1      -4.919  -1.011   0.262  0.00  0.00    +0.181 C 
ATOM     36  C   UNL     1      -3.990  -0.957  -1.146  0.00  0.00    +0.177 C 
ATOM     37  C   UNL     1      -4.992   0.228  -1.672  0.00  0.00    +0.177 C 
ATOM     38  O   UNL     1      -5.979  -0.552  -2.091  0.00  0.00    -0.324 OA
ATOM     39  C   UNL     1      -6.882  -1.137  -0.998  0.00  0.00    +0.266 C 
ATOM     40  O   UNL     1      -5.806  -2.048  -0.363  0.00  0.00    -0.324 OA
ATOM     41  O   UNL     1      -3.049  -0.114  -0.255  0.00  0.00    -0.326 OA
BRANCH  39  42
ATOM     42  C   UNL     1      -6.749   0.111   0.068  0.00  0.00    +0.063 A 
ATOM     43  S   UNL     1      -6.408   1.723  -0.140  0.00  0.00    -0.086 S 
ATOM     44  C   UNL     1      -7.721   2.471   0.679  0.00  0.00    +0.035 A 
ATOM     45  C   UNL     1      -8.589   1.381   0.647  0.00  0.00    +0.007 A 
ATOM     46  C   UNL     1      -7.912   0.206   0.831  0.00  0.00    +0.008 A 
ENDBRANCH  39  42
ENDBRANCH  29  30
ENDBRANCH   6  29
TORSDOF 6
