REMARK  Name = 
REMARK  10 active torsions:
REMARK  status: ('A' for Active; 'I' for Inactive)
REMARK    1  A    between atoms: O_2  and  C_3
REMARK    2  A    between atoms: C_8  and  O_9
REMARK    3  A    between atoms: O_9  and  C_10
REMARK    4  A    between atoms: C_10  and  C_11
REMARK    5  A    between atoms: C_11  and  N_12
REMARK    6  A    between atoms: N_12  and  C_13
REMARK    7  A    between atoms: C_13  and  C_14
REMARK    8  A    between atoms: C_14  and  C_16
REMARK    9  A    between atoms: C_16  and  O_17
REMARK   10  A    between atoms: O_17  and  C_18
REMARK                            x       y       z     vdW  Elec       q    Type
REMARK                         _______ _______ _______ _____ _____    ______ ____
ROOT
ATOM      1  C   UNL     1       0.232  -1.306  -0.157  0.00  0.00    +0.213 C 
ATOM      2  O   UNL     1      -0.916  -0.956   0.772  0.00  0.00    -0.218 OA
ENDROOT
BRANCH   1   3
ATOM      3  C   UNL     1       0.390   0.265  -0.639  0.00  0.00    +0.126 C 
BRANCH   3   4
ATOM      4  N   UNL     1       0.627   0.946   0.620  0.00  0.00    -0.211 NA
BRANCH   4   5
ATOM      5  C   UNL     1       1.763   0.326   1.288  0.00  0.00    +0.136 C 
BRANCH   5   6
ATOM      6  C   UNL     1       2.981   1.152   0.898  0.00  0.00    +0.224 C 
BRANCH   6   7
ATOM      7  O   UNL     1       3.621   0.500  -0.171  0.00  0.00    -0.471 OA
BRANCH   7   9
ATOM      8  C   UNL     1       5.972   1.048  -0.281  0.00  0.00    +0.172 A 
ATOM      9  C   UNL     1       4.958   0.141  -0.045  0.00  0.00    +0.172 A 
ATOM     10  C   UNL     1       5.249  -1.115   0.441  0.00  0.00    +0.040 A 
ATOM     11  C   UNL     1       6.539  -1.605   0.442  0.00  0.00    +0.003 A 
ATOM     12  C   UNL     1       7.522  -0.796  -0.113  0.00  0.00    +0.003 A 
ATOM     13  C   UNL     1       7.242   0.509  -0.446  0.00  0.00    +0.040 A 
BRANCH   8  15
ATOM     14  C   UNL     1       5.450   3.334   0.398  0.00  0.00    +0.253 C 
ATOM     15  O   UNL     1       5.692   2.375  -0.595  0.00  0.00    -0.468 OA
ENDBRANCH   8  15
ENDBRANCH   7   9
ENDBRANCH   6   7
ENDBRANCH   5   6
ENDBRANCH   4   5
ENDBRANCH   3   4
ENDBRANCH   1   3
BRANCH   1  16
ATOM     16  C   UNL     1      -0.728  -1.673  -1.436  0.00  0.00    +0.240 C 
BRANCH  16  17
ATOM     17  O   UNL     1      -2.013  -1.382  -1.246  0.00  0.00    -0.473 OA
BRANCH  17  18
ATOM     18  C   UNL     1      -2.994  -1.827  -0.416  0.00  0.00    +0.140 A 
ATOM     19  C   UNL     1      -3.958  -0.896  -0.038  0.00  0.00    +0.053 A 
ATOM     20  C   UNL     1      -4.760  -1.111   1.073  0.00  0.00    +0.084 A 
ATOM     21  N   UNL     1      -5.223   0.080   1.525  0.00  0.00    -0.245 NA
ATOM     22  C   UNL     1      -4.746   1.080   0.758  0.00  0.00    +0.081 A 
ATOM     23  C   UNL     1      -4.590   2.450   0.906  0.00  0.00    +0.019 A 
ATOM     24  C   UNL     1      -4.391   3.160  -0.272  0.00  0.00    +0.002 A 
ATOM     25  C   UNL     1      -3.757   2.574  -1.347  0.00  0.00    +0.000 A 
ATOM     26  C   UNL     1      -3.645   1.190  -1.387  0.00  0.00    +0.002 A 
ATOM     27  C   UNL     1      -5.019  -2.429   1.429  0.00  0.00    +0.019 A 
ATOM     28  C   UNL     1      -4.269  -3.427   0.835  0.00  0.00    +0.005 A 
ATOM     29  C   UNL     1      -4.120   0.456  -0.315  0.00  0.00    +0.022 A 
ATOM     30  C   UNL     1      -3.109  -3.062   0.159  0.00  0.00    +0.037 A 
ENDBRANCH  17  18
ENDBRANCH  16  17
ENDBRANCH   1  16
TORSDOF 10
