REMARK  Name = 
REMARK  10 active torsions:
REMARK  status: ('A' for Active; 'I' for Inactive)
REMARK    1  A    between atoms: C_2  and  C_3
REMARK    2  A    between atoms: C_3  and  C_4
REMARK    3  A    between atoms: C_4  and  C_5
REMARK    4  A    between atoms: C_5  and  C_6
REMARK    5  A    between atoms: C_5  and  C_8
REMARK    6  A    between atoms: C_8  and  O_9
REMARK    7  A    between atoms: O_9  and  C_10
REMARK    8  A    between atoms: C_10  and  C_12
REMARK    9  A    between atoms: C_13  and  C_14
REMARK   10  A    between atoms: C_17  and  O_18
REMARK                            x       y       z     vdW  Elec       q    Type
REMARK                         _______ _______ _______ _____ _____    ______ ____
ROOT
ATOM      1  C   UNL     1      -0.211  -1.016  -0.259  0.00  0.00    +0.341 C 
ATOM      2  O   UNL     1      -0.355  -0.146  -1.175  0.00  0.00    -0.245 OA
ENDROOT
BRANCH   1   3
ATOM      3  C   UNL     1       0.840  -2.022  -0.469  0.00  0.00    +0.082 C 
ATOM      4  C   UNL     1       2.106  -1.815  -0.221  0.00  0.00    +0.007 C 
BRANCH   4   5
ATOM      5  C   UNL     1       2.550  -0.521   0.314  0.00  0.00    +0.000 A 
ATOM      6  C   UNL     1       3.742  -0.611   1.032  0.00  0.00    +0.003 A 
ATOM      7  C   UNL     1       4.633   0.448   1.100  0.00  0.00    +0.037 A 
ATOM      8  C   UNL     1       4.407   1.604   0.410  0.00  0.00    +0.139 A 
ATOM      9  C   UNL     1       3.334   1.643  -0.457  0.00  0.00    +0.037 A 
ATOM     10  C   UNL     1       2.564   0.518  -0.612  0.00  0.00    +0.003 A 
BRANCH   8  11
ATOM     11  O   UNL     1       4.962   2.817   0.837  0.00  0.00    -0.471 OA
ATOM     12  C   UNL     1       6.063   3.364   0.113  0.00  0.00    +0.252 C 
ENDBRANCH   8  11
ENDBRANCH   4   5
ENDBRANCH   1   3
BRANCH   1  13
ATOM     13  O   UNL     1      -1.454  -1.570   0.088  0.00  0.00    -0.445 OA
BRANCH  13  14
ATOM     14  C   UNL     1      -2.656  -0.845   0.040  0.00  0.00    +0.209 C 
BRANCH  14  15
ATOM     15  C   UNL     1      -3.274  -1.230   1.512  0.00  0.00    +0.044 C 
BRANCH  15  16
ATOM     16  C   UNL     1      -4.552  -2.024   0.858  0.00  0.00    +0.004 C 
ATOM     17  C   UNL     1      -3.951  -3.389   0.556  0.00  0.00    +0.000 C 
ENDBRANCH  15  16
BRANCH  15  18
ATOM     18  C   UNL     1      -4.102   0.181   1.624  0.00  0.00    +0.004 C 
BRANCH  18  19
ATOM     19  C   UNL     1      -4.804   0.380   0.313  0.00  0.00    +0.000 C 
BRANCH  19  21
ATOM     20  C   UNL     1      -5.288   2.437  -0.189  0.00  0.00    +0.000 C 
ATOM     21  C   UNL     1      -4.554   1.796  -0.154  0.00  0.00    +0.000 C 
ENDBRANCH  19  21
ENDBRANCH  18  19
ENDBRANCH  15  18
ENDBRANCH  14  15
ENDBRANCH  13  14
ENDBRANCH   1  13
TORSDOF 10
