REMARK  Name = 
REMARK  4 active torsions:
REMARK  status: ('A' for Active; 'I' for Inactive)
REMARK    1  A    between atoms: C_5  and  C_6
REMARK    2  A    between atoms: C_12  and  C_13
REMARK    3  A    between atoms: N_15  and  CA_16
REMARK    4  A    between atoms: CA_25  and  C_26
REMARK                            x       y       z     vdW  Elec       q    Type
REMARK                         _______ _______ _______ _____ _____    ______ ____
ROOT
ATOM      1  C   UNL     1      -0.552   0.847   0.085  0.00  0.00    +0.270 C 
ATOM      2  N   UNL     1      -0.126  -0.452  -0.280  0.00  0.00    -0.191 NA
ATOM      3  O   UNL     1       0.431   1.601   0.379  0.00  0.00    -0.268 OA
ENDROOT
BRANCH   2   4
ATOM      4  CA  UNL     1       0.927  -0.474  -1.498  0.00  0.00    +0.200 C 
ATOM      5  C   UNL     1       2.238   0.106  -0.576  0.00  0.00    +0.153 C 
ATOM      6  S   UNL     1       2.091  -0.976   1.005  0.00  0.00    -0.118 S 
ATOM      7  C   UNL     1       3.786  -1.382   0.983  0.00  0.00    +0.068 C 
ATOM      8  CA  UNL     1       4.296  -1.166  -0.600  0.00  0.00    +0.189 C 
ATOM      9  C   UNL     1       4.721  -0.618   1.826  0.00  0.00    +0.013 C 
ATOM     10  C   UNL     1       4.111  -2.868   1.102  0.00  0.00    +0.013 C 
ATOM     11  N   UNL     1       2.816  -1.157  -1.209  0.00  0.00    -0.259 N 
ATOM     12  C   UNL     1       1.580  -1.911  -1.100  0.00  0.00    +0.249 C 
ATOM     13  O   UNL     1       1.098  -3.028  -1.215  0.00  0.00    -0.273 OA
BRANCH   8  14
ATOM     14  C   UNL     1       4.432   0.479  -0.479  0.00  0.00    +0.383 C 
ATOM     15  OXT UNL     1       4.223   1.064  -1.745  0.00  0.00    -0.244 OA
ATOM     16  O   UNL     1       5.611   0.752  -0.084  0.00  0.00    -0.244 OA
ENDBRANCH   8  14
ENDBRANCH   2   4
BRANCH   1  19
ATOM     17  C   UNL     1      -0.766   3.807  -0.990  0.00  0.00    +0.076 C 
ATOM     18  C   UNL     1      -1.795   2.805  -0.964  0.00  0.00    +0.159 A 
ATOM     19  C   UNL     1      -1.749   1.554  -0.346  0.00  0.00    +0.109 A 
ATOM     20  C   UNL     1      -2.992   1.008  -0.614  0.00  0.00    +0.127 A 
ATOM     21  N   UNL     1      -3.510   1.761  -1.595  0.00  0.00    -0.077 NA
ATOM     22  O   UNL     1      -2.679   2.700  -1.946  0.00  0.00    -0.358 OA
BRANCH  20  23
ATOM     23  C   UNL     1      -3.659   0.138   0.360  0.00  0.00    +0.021 A 
ATOM     24  C   UNL     1      -3.519  -1.244   0.308  0.00  0.00    +0.002 A 
ATOM     25  C   UNL     1      -4.498  -2.096   0.795  0.00  0.00    +0.000 A 
ATOM     26  C   UNL     1      -5.688  -1.587   1.285  0.00  0.00    +0.000 A 
ATOM     27  C   UNL     1      -5.910  -0.246   1.199  0.00  0.00    +0.000 A 
ATOM     28  C   UNL     1      -4.919   0.582   0.754  0.00  0.00    +0.002 A 
ENDBRANCH  20  23
ENDBRANCH   1  19
TORSDOF 4
