REMARK  Name = 
REMARK  0 active torsions:
REMARK  status: ('A' for Active; 'I' for Inactive)
REMARK                            x       y       z     vdW  Elec       q    Type
REMARK                         _______ _______ _______ _____ _____    ______ ____
ROOT
ATOM      1  O   UNL     1      -1.516   1.974   0.021  0.00  0.00    -0.265 OA
ATOM      2  C   UNL     1      -1.127   0.791  -0.006  0.00  0.00    +0.285 A 
ATOM      3  C   UNL     1       0.231   0.566   0.192  0.00  0.00    +0.116 A 
ATOM      4  C   UNL     1       0.573  -0.755   0.462  0.00  0.00    +0.191 A 
ATOM      5  N   UNL     1       1.919  -0.744   0.552  0.00  0.00    -0.128 NA
ATOM      6  N   UNL     1       2.399   0.340  -0.058  0.00  0.00    -0.145 NA
ATOM      7  N   UNL     1      -0.345  -1.723   0.221  0.00  0.00    -0.203 NA
ATOM      8  C   UNL     1      -1.533  -1.473  -0.349  0.00  0.00    +0.203 A 
ATOM      9  C   UNL     1       1.378   1.219  -0.188  0.00  0.00    +0.130 A 
ATOM     10  N   UNL     1      -1.978  -0.195  -0.354  0.00  0.00    -0.185 NA
ENDROOT
TORSDOF 0
