REMARK  Name = 
REMARK  5 active torsions:
REMARK  status: ('A' for Active; 'I' for Inactive)
REMARK    1  A    between atoms: N_2  and  S_3
REMARK    2  A    between atoms: S_3  and  C_6
REMARK    3  A    between atoms: C_6  and  C_7
REMARK    4  A    between atoms: C_7  and  C_8
REMARK    5  A    between atoms: C_14  and  C_15
REMARK                            x       y       z     vdW  Elec       q    Type
REMARK                         _______ _______ _______ _____ _____    ______ ____
ROOT
ATOM      1  C   UNL     1      -1.714  -1.466   0.233  0.00  0.00    -0.020 A 
ATOM      2  C   UNL     1      -0.696  -0.528   0.279  0.00  0.00    -0.003 A 
ATOM      3  C   UNL     1       0.512  -0.892  -0.291  0.00  0.00    +0.015 A 
ATOM      4  C   UNL     1       0.605  -1.990  -1.111  0.00  0.00    +0.081 A 
ATOM      5  N   UNL     1       1.643  -1.800  -1.964  0.00  0.00    -0.244 NA
ATOM      6  C   UNL     1       2.331  -0.731  -1.534  0.00  0.00    +0.095 A 
ATOM      7  C   UNL     1      -0.336  -2.986  -1.008  0.00  0.00    +0.019 A 
ATOM      8  C   UNL     1       1.765  -0.295  -0.344  0.00  0.00    -0.002 A 
ATOM      9  C   UNL     1      -1.433  -2.758  -0.192  0.00  0.00    -0.003 A 
ENDROOT
BRANCH   8  10
ATOM     10  C   UNL     1       2.241   0.843   0.469  0.00  0.00    +0.027 C 
ATOM     11  C   UNL     1       2.909   0.411   1.751  0.00  0.00    +0.022 C 
ATOM     12  C   UNL     1       4.351   0.041   1.581  0.00  0.00    +0.072 C 
ATOM     13  N   UNL     1       5.135   1.015   0.879  0.00  0.00    -0.271 NA
ATOM     14  C   UNL     1       6.078   0.447  -0.051  0.00  0.00    +0.090 C 
ATOM     15  C   UNL     1       4.383   2.113   0.342  0.00  0.00    +0.072 C 
ATOM     16  C   UNL     1       3.138   1.702  -0.387  0.00  0.00    +0.022 C 
ENDBRANCH   8  10
BRANCH   1  17
ATOM     17  C   UNL     1      -3.077  -1.146   0.760  0.00  0.00    +0.053 C 
BRANCH  17  18
ATOM     18  C   UNL     1      -3.213   0.352   0.790  0.00  0.00    +0.175 C 
BRANCH  18  19
ATOM     19  S   UNL     1      -4.811   0.919   0.313  0.00  0.00    +0.058 S 
ATOM     20  O   UNL     1      -5.684   1.253   1.485  0.00  0.00    -0.156 OA
ATOM     21  O   UNL     1      -5.459  -0.175  -0.502  0.00  0.00    -0.156 OA
BRANCH  19  23
ATOM     22  C   UNL     1      -3.928   3.363  -0.162  0.00  0.00    +0.136 C 
ATOM     23  N   UNL     1      -4.737   2.306  -0.724  0.00  0.00    -0.080 NA
ENDBRANCH  19  23
ENDBRANCH  18  19
ENDBRANCH  17  18
ENDBRANCH   1  17
TORSDOF 5
