REMARK  Name = 
REMARK  12 active torsions:
REMARK  status: ('A' for Active; 'I' for Inactive)
REMARK    1  A    between atoms: C_2  and  C_5
REMARK    2  A    between atoms: C_5  and  C_6
REMARK    3  A    between atoms: C_6  and  C_9
REMARK    4  A    between atoms: C_12  and  O_13
REMARK    5  A    between atoms: O_13  and  C_14
REMARK    6  A    between atoms: C_14  and  C_15
REMARK    7  A    between atoms: C_15  and  O_16
REMARK    8  A    between atoms: O_16  and  C_17
REMARK    9  A    between atoms: C_17  and  C_18
REMARK   10  A    between atoms: C_18  and  N_19
REMARK   11  A    between atoms: N_19  and  C_22
REMARK   12  A    between atoms: C_22  and  C_23
REMARK                            x       y       z     vdW  Elec       q    Type
REMARK                         _______ _______ _______ _____ _____    ______ ____
ROOT
ATOM      1  O   UNL     1       0.765   0.478   1.567  0.00  0.00    -0.473 OA
ENDROOT
BRANCH   1   5
ATOM      2  C   UNL     1       4.500  -0.139  -0.011  0.00  0.00    -0.023 A 
ATOM      3  C   UNL     1       3.433  -0.785  -0.626  0.00  0.00    -0.001 A 
ATOM      4  C   UNL     1       2.143  -0.507  -0.188  0.00  0.00    +0.037 A 
ATOM      5  C   UNL     1       1.887   0.501   0.733  0.00  0.00    +0.139 A 
ATOM      6  C   UNL     1       2.941   1.378   0.956  0.00  0.00    +0.037 A 
ATOM      7  C   UNL     1       4.249   0.918   0.856  0.00  0.00    -0.001 A 
BRANCH   2   8
ATOM      8  C   UNL     1       5.781  -0.871   0.240  0.00  0.00    +0.019 C 
ATOM      9  C   UNL     1       5.765  -1.336   1.684  0.00  0.00    +0.004 C 
ATOM     10  C   UNL     1       5.915  -2.098  -0.617  0.00  0.00    +0.004 C 
BRANCH   8  11
ATOM     11  C   UNL     1       6.921   0.093   0.086  0.00  0.00    +0.004 C 
BRANCH  11  13
ATOM     12  C   UNL     1       6.227   0.000  -2.330  0.00  0.00    +0.000 C 
ATOM     13  C   UNL     1       6.974   0.759  -1.259  0.00  0.00    +0.000 C 
ATOM     14  C   UNL     1       8.445   0.818  -1.656  0.00  0.00    +0.000 C 
ATOM     15  C   UNL     1       6.488   2.198  -1.221  0.00  0.00    +0.000 C 
ENDBRANCH  11  13
ENDBRANCH   8  11
ENDBRANCH   2   8
ENDBRANCH   1   5
BRANCH   1  16
ATOM     16  C   UNL     1       0.026  -0.737   1.611  0.00  0.00    +0.237 C 
BRANCH  16  17
ATOM     17  C   UNL     1      -0.735  -0.811   0.294  0.00  0.00    +0.190 C 
BRANCH  17  18
ATOM     18  O   UNL     1      -1.991  -0.237   0.550  0.00  0.00    -0.344 OA
BRANCH  18  19
ATOM     19  C   UNL     1      -2.844  -1.306   0.860  0.00  0.00    +0.203 C 
BRANCH  19  20
ATOM     20  C   UNL     1      -3.422  -1.831  -0.449  0.00  0.00    +0.142 C 
BRANCH  20  21
ATOM     21  N   UNL     1      -4.425  -0.872  -0.905  0.00  0.00    +0.311 N 
ATOM     22  C   UNL     1      -5.417  -1.558  -1.684  0.00  0.00    +0.171 C 
ATOM     23  C   UNL     1      -3.712   0.067  -1.764  0.00  0.00    +0.171 C 
BRANCH  21  24
ATOM     24  C   UNL     1      -4.937  -0.216   0.263  0.00  0.00    +0.137 C 
BRANCH  24  25
ATOM     25  C   UNL     1      -6.209   0.486   0.064  0.00  0.00    +0.033 A 
ATOM     26  C   UNL     1      -6.837   0.695  -1.130  0.00  0.00    +0.001 A 
ATOM     27  C   UNL     1      -8.215   0.876  -1.133  0.00  0.00    -0.000 A 
ATOM     28  C   UNL     1      -8.782   1.506  -0.032  0.00  0.00    -0.000 A 
ATOM     29  C   UNL     1      -8.067   1.605   1.155  0.00  0.00    -0.000 A 
ATOM     30  C   UNL     1      -6.866   0.927   1.207  0.00  0.00    +0.001 A 
ENDBRANCH  24  25
ENDBRANCH  21  24
ENDBRANCH  20  21
ENDBRANCH  19  20
ENDBRANCH  18  19
ENDBRANCH  17  18
ENDBRANCH  16  17
ENDBRANCH   1  16
TORSDOF 12
