REMARK  Name = 
REMARK  4 active torsions:
REMARK  status: ('A' for Active; 'I' for Inactive)
REMARK    1  A    between atoms: C_3  and  C_4
REMARK    2  A    between atoms: C_4  and  N_5
REMARK    3  A    between atoms: N_19  and  C_20
REMARK    4  A    between atoms: C_20  and  C_21
REMARK                            x       y       z     vdW  Elec       q    Type
REMARK                         _______ _______ _______ _____ _____    ______ ____
ROOT
ATOM      1  N   UNL     1       2.775  -0.854   0.059  0.00  0.00    -0.282 N 
ATOM      2  C   UNL     1       1.479  -0.509   0.049  0.00  0.00    +0.154 A 
ATOM      3  C   UNL     1       0.282  -1.145   0.355  0.00  0.00    +0.284 A 
ATOM      4  N   UNL     1      -0.900  -0.527   0.168  0.00  0.00    -0.240 N 
ATOM      5  C   UNL     1      -0.908   0.632  -0.491  0.00  0.00    +0.335 A 
ATOM      6  N   UNL     1       0.216   1.302  -0.752  0.00  0.00    -0.263 N 
ATOM      7  C   UNL     1       0.222   2.645  -1.291  0.00  0.00    +0.137 C 
ATOM      8  O   UNL     1      -1.983   1.021  -1.024  0.00  0.00    -0.246 OA
ATOM      9  O   UNL     1       0.335  -2.343   0.762  0.00  0.00    -0.265 OA
ATOM     10  C   UNL     1       1.414   0.754  -0.479  0.00  0.00    +0.171 A 
ATOM     11  N   UNL     1       2.606   0.936  -1.100  0.00  0.00    -0.196 NA
ATOM     12  C   UNL     1       3.514   0.117  -0.533  0.00  0.00    +0.203 A 
ATOM     13  N   UNL     1       4.914   0.380  -0.364  0.00  0.00    -0.278 N 
ATOM     14  C   UNL     1       5.563   0.392   0.879  0.00  0.00    +0.112 C 
ATOM     15  C   UNL     1       6.087   1.899   1.246  0.00  0.00    +0.112 C 
ATOM     16  N   UNL     1       4.930   2.630   0.469  0.00  0.00    -0.131 NA
ATOM     17  C   UNL     1       7.136   1.940  -0.009  0.00  0.00    +0.023 C 
ATOM     18  C   UNL     1       6.432   1.919  -1.291  0.00  0.00    +0.023 C 
ATOM     19  C   UNL     1       5.668   0.654  -1.580  0.00  0.00    +0.094 C 
ENDROOT
BRANCH   1  20
ATOM     20  C   UNL     1       3.306  -1.907   0.889  0.00  0.00    +0.185 C 
BRANCH  20  23
ATOM     21  C   UNL     1       3.471  -5.243  -0.886  0.00  0.00    +0.090 C 
ATOM     22  C   UNL     1       3.393  -4.263  -0.404  0.00  0.00    -0.088 C 
ATOM     23  C   UNL     1       3.445  -3.179   0.152  0.00  0.00    -0.066 C 
ENDBRANCH  20  23
ENDBRANCH   1  20
BRANCH   4  24
ATOM     24  C   UNL     1      -2.058  -0.989   0.877  0.00  0.00    +0.179 C 
BRANCH  24  25
ATOM     25  C   UNL     1      -3.334  -0.479   0.344  0.00  0.00    +0.162 A 
ATOM     26  N   UNL     1      -3.998   0.411   1.124  0.00  0.00    -0.229 NA
ATOM     27  C   UNL     1      -5.185   0.894   0.686  0.00  0.00    +0.084 A 
ATOM     28  C   UNL     1      -5.872   0.164  -0.274  0.00  0.00    +0.031 A 
ATOM     29  C   UNL     1      -7.032   0.678  -0.836  0.00  0.00    +0.003 A 
ATOM     30  C   UNL     1      -7.586   1.867  -0.381  0.00  0.00    +0.000 A 
ATOM     31  C   UNL     1      -6.979   2.444   0.726  0.00  0.00    +0.002 A 
ATOM     32  C   UNL     1      -5.363  -1.040  -0.699  0.00  0.00    +0.062 A 
ATOM     33  C   UNL     1      -6.113  -1.875  -1.683  0.00  0.00    +0.052 C 
ATOM     34  C   UNL     1      -5.741   2.059   1.166  0.00  0.00    +0.019 A 
ATOM     35  N   UNL     1      -4.136  -1.386  -0.269  0.00  0.00    -0.233 NA
ENDBRANCH  24  25
ENDBRANCH   4  24
TORSDOF 4
