REMARK  Name = 
REMARK  5 active torsions:
REMARK  status: ('A' for Active; 'I' for Inactive)
REMARK    1  A    between atoms: C_8  and  O_9
REMARK    2  A    between atoms: O_9  and  C_10
REMARK    3  A    between atoms: C_10  and  C_12
REMARK    4  A    between atoms: C_12  and  C_14
REMARK    5  A    between atoms: C_12  and  C_20
REMARK                            x       y       z     vdW  Elec       q    Type
REMARK                         _______ _______ _______ _____ _____    ______ ____
ROOT
ATOM      1  C   UNL     1      -1.304  -0.092  -0.619  0.00  0.00    +0.252 C 
ATOM      2  O   UNL     1      -1.722  -0.423  -1.920  0.00  0.00    -0.205 OA
ENDROOT
BRANCH   1   3
ATOM      3  C   UNL     1      -1.921  -1.131   0.267  0.00  0.00    +0.019 A 
ATOM      4  C   UNL     1      -3.274  -1.004   0.548  0.00  0.00    -0.001 A 
ATOM      5  C   UNL     1      -4.108  -2.107   0.684  0.00  0.00    -0.000 A 
ATOM      6  C   UNL     1      -3.635  -3.360   0.313  0.00  0.00    -0.000 A 
ATOM      7  C   UNL     1      -2.260  -3.527   0.438  0.00  0.00    -0.000 A 
ATOM      8  C   UNL     1      -1.424  -2.425   0.315  0.00  0.00    -0.001 A 
ENDBRANCH   1   3
BRANCH   1   9
ATOM      9  C   UNL     1      -1.904   1.219  -0.301  0.00  0.00    +0.019 A 
ATOM     10  C   UNL     1      -1.948   1.675   1.011  0.00  0.00    -0.001 A 
ATOM     11  C   UNL     1      -2.566   2.867   1.342  0.00  0.00    -0.000 A 
ATOM     12  C   UNL     1      -3.046   3.640   0.299  0.00  0.00    -0.000 A 
ATOM     13  C   UNL     1      -3.517   2.963  -0.818  0.00  0.00    -0.000 A 
ATOM     14  C   UNL     1      -2.846   1.806  -1.140  0.00  0.00    -0.001 A 
ENDBRANCH   1   9
BRANCH   1  15
ATOM     15  C   UNL     1       0.161  -0.109  -0.585  0.00  0.00    +0.353 C 
ATOM     16  O   UNL     1       0.796  -0.661  -1.534  0.00  0.00    -0.247 OA
BRANCH  15  17
ATOM     17  O   UNL     1       0.964   0.445   0.409  0.00  0.00    -0.444 OA
BRANCH  17  21
ATOM     18  C   UNL     1       4.739  -1.212  -1.545  0.00  0.00    +0.171 C 
ATOM     19  N   UNL     1       4.144  -0.469  -0.577  0.00  0.00    +0.304 N 
ATOM     20  C   UNL     1       2.739  -0.371  -0.856  0.00  0.00    +0.153 C 
ATOM     21  C   UNL     1       2.261   1.093  -0.191  0.00  0.00    +0.224 C 
ATOM     22  C   UNL     1       3.103   0.844   1.238  0.00  0.00    +0.058 C 
ATOM     23  C   UNL     1       4.499   1.350   0.909  0.00  0.00    +0.065 C 
ATOM     24  C   UNL     1       3.043  -0.624   1.481  0.00  0.00    +0.065 C 
ATOM     25  C   UNL     1       4.802   0.806  -0.483  0.00  0.00    +0.109 C 
ATOM     26  C   UNL     1       4.224  -1.193   0.695  0.00  0.00    +0.109 C 
ENDBRANCH  17  21
ENDBRANCH  15  17
ENDBRANCH   1  15
TORSDOF 5
