REMARK  Name = 
REMARK  6 active torsions:
REMARK  status: ('A' for Active; 'I' for Inactive)
REMARK    1  A    between atoms: N_2  and  C_4
REMARK    2  A    between atoms: C_4  and  C_5
REMARK    3  A    between atoms: C_5  and  C_6
REMARK    4  A    between atoms: C_6  and  C_7
REMARK    5  A    between atoms: C_7  and  C_8
REMARK    6  A    between atoms: C_19  and  C_20
REMARK                            x       y       z     vdW  Elec       q    Type
REMARK                         _______ _______ _______ _____ _____    ______ ____
ROOT
ATOM      1  C   UNL     1      -0.351  -0.453  -1.051  0.00  0.00    +0.130 C 
ATOM      2  C   UNL     1       0.158   0.740  -0.327  0.00  0.00    +0.004 A 
ATOM      3  C   UNL     1      -0.724   1.755  -0.679  0.00  0.00    +0.006 A 
ATOM      4  C   UNL     1      -0.647   2.998  -0.074  0.00  0.00    +0.008 A 
ATOM      5  C   UNL     1       0.451   3.288   0.695  0.00  0.00    +0.068 A 
ATOM      6  C   UNL     1       1.167   2.222   1.222  0.00  0.00    +0.010 A 
ATOM      7  C   UNL     1      -1.508   1.191  -1.822  0.00  0.00    +0.169 C 
ATOM      8  C   UNL     1       0.803   0.923   0.890  0.00  0.00    -0.001 A 
ATOM      9  O   UNL     1      -0.744   0.098  -2.261  0.00  0.00    -0.346 OA
ENDROOT
BRANCH   1  10
ATOM     10  C   UNL     1      -1.538  -0.968  -0.344  0.00  0.00    +0.006 A 
ATOM     11  C   UNL     1      -2.060  -0.319   0.747  0.00  0.00    +0.001 A 
ATOM     12  C   UNL     1      -2.862  -0.991   1.652  0.00  0.00    +0.029 A 
ATOM     13  C   UNL     1      -3.025  -2.360   1.489  0.00  0.00    +0.140 A 
ATOM     14  F   UNL     1      -3.284  -3.178   2.538  0.00  0.00    -0.204 F 
ATOM     15  C   UNL     1      -2.902  -2.833   0.197  0.00  0.00    +0.029 A 
ATOM     16  C   UNL     1      -2.145  -2.144  -0.741  0.00  0.00    +0.001 A 
ENDBRANCH   1  10
BRANCH   5  17
ATOM     17  C   UNL     1       1.006   4.615   0.807  0.00  0.00    +0.100 C 
ATOM     18  N   UNL     1       1.431   5.657   1.031  0.00  0.00    -0.191 NA
ENDBRANCH   5  17
BRANCH   1  19
ATOM     19  C   UNL     1       0.669  -1.543  -1.188  0.00  0.00    +0.037 C 
BRANCH  19  20
ATOM     20  C   UNL     1       1.907  -1.043  -1.903  0.00  0.00    +0.020 C 
BRANCH  20  21
ATOM     21  C   UNL     1       3.058  -1.924  -1.453  0.00  0.00    +0.072 C 
BRANCH  21  23
ATOM     22  C   UNL     1       4.136  -1.100   0.054  0.00  0.00    +0.090 C 
ATOM     23  N   UNL     1       3.437  -1.672  -0.080  0.00  0.00    -0.270 NA
ATOM     24  C   UNL     1       3.566  -2.959   0.599  0.00  0.00    +0.090 C 
ENDBRANCH  21  23
ENDBRANCH  20  21
ENDBRANCH  19  20
ENDBRANCH   1  19
TORSDOF 6
