REMARK  Name = 
REMARK  7 active torsions:
REMARK  status: ('A' for Active; 'I' for Inactive)
REMARK    1  A    between atoms: C_2  and  C_3
REMARK    2  A    between atoms: N_10  and  C_11
REMARK    3  A    between atoms: C_11  and  C_12
REMARK    4  A    between atoms: C_12  and  C_13
REMARK    5  A    between atoms: C_16  and  S_17
REMARK    6  A    between atoms: S_17  and  N_20
REMARK    7  A    between atoms: N_23  and  C_24
REMARK                            x       y       z     vdW  Elec       q    Type
REMARK                         _______ _______ _______ _____ _____    ______ ____
ROOT
ATOM      1  C   UNL     1      -2.009   1.452  -0.377  0.00  0.00    -0.020 A 
ATOM      2  C   UNL     1      -1.514   1.058   0.865  0.00  0.00    -0.003 A 
ATOM      3  C   UNL     1      -0.237   0.514   0.993  0.00  0.00    +0.020 A 
ATOM      4  C   UNL     1       0.566   0.331  -0.128  0.00  0.00    +0.127 A 
ATOM      5  C   UNL     1      -0.159   0.175  -1.306  0.00  0.00    +0.020 A 
ATOM      6  C   UNL     1      -1.437   0.715  -1.413  0.00  0.00    -0.003 A 
ENDROOT
BRANCH   4   7
ATOM      7  S   UNL     1       2.268   0.719  -0.113  0.00  0.00    +0.097 S 
ATOM      8  O   UNL     1       2.586   1.961   0.640  0.00  0.00    -0.148 OA
ATOM      9  O   UNL     1       2.770   0.898  -1.525  0.00  0.00    -0.148 OA
BRANCH   7  10
ATOM     10  N   UNL     1       3.051  -0.681   0.545  0.00  0.00    -0.040 NA
ATOM     11  C   UNL     1       4.447  -0.763   0.660  0.00  0.00    +0.360 C 
ATOM     12  N   UNL     1       5.231  -1.937   0.537  0.00  0.00    -0.188 NA
ATOM     13  O   UNL     1       5.067   0.318   0.892  0.00  0.00    -0.247 OA
BRANCH  12  14
ATOM     14  C   UNL     1       6.510  -1.749  -0.403  0.00  0.00    +0.097 C 
ATOM     15  C   UNL     1       7.409  -2.826   0.499  0.00  0.00    +0.022 C 
ATOM     16  C   UNL     1       8.810  -2.249   0.457  0.00  0.00    +0.002 C 
ATOM     17  C   UNL     1       8.876  -1.378  -0.949  0.00  0.00    +0.000 C 
ATOM     18  C   UNL     1      10.445  -0.936  -0.671  0.00  0.00    +0.000 C 
ATOM     19  C   UNL     1       8.309  -0.019  -0.194  0.00  0.00    +0.002 C 
ATOM     20  C   UNL     1       7.054  -0.461   0.511  0.00  0.00    +0.022 C 
ENDBRANCH  12  14
ENDBRANCH   7  10
ENDBRANCH   4   7
BRANCH   1  21
ATOM     21  C   UNL     1      -2.528   2.843  -0.608  0.00  0.00    +0.050 C 
BRANCH  21  22
ATOM     22  C   UNL     1      -2.914   3.378   0.762  0.00  0.00    +0.121 C 
BRANCH  22  28
ATOM     23  C   UNL     1      -6.890  -1.100   0.178  0.00  0.00    +0.026 C 
ATOM     24  C   UNL     1      -6.660   0.270  -0.254  0.00  0.00    +0.252 C 
ATOM     25  O   UNL     1      -7.246   0.932  -1.162  0.00  0.00    -0.270 OA
ATOM     26  N   UNL     1      -5.673   0.796   0.606  0.00  0.00    -0.206 N 
ATOM     27  C   UNL     1      -4.900   1.969   0.324  0.00  0.00    +0.329 C 
ATOM     28  N   UNL     1      -3.949   2.475   1.262  0.00  0.00    -0.188 NA
ATOM     29  O   UNL     1      -5.000   2.570  -0.788  0.00  0.00    -0.250 OA
ATOM     30  C   UNL     1      -5.144  -0.309   1.389  0.00  0.00    +0.125 C 
ATOM     31  C   UNL     1      -5.811  -1.518   0.835  0.00  0.00    -0.023 C 
ATOM     32  C   UNL     1      -5.702  -2.849   1.504  0.00  0.00    +0.028 C 
BRANCH  23  34
ATOM     33  C   UNL     1      -7.851  -2.561  -0.650  0.00  0.00    +0.005 C 
ATOM     34  C   UNL     1      -7.776  -2.038  -0.554  0.00  0.00    +0.030 C 
ENDBRANCH  23  34
ENDBRANCH  22  28
ENDBRANCH  21  22
ENDBRANCH   1  21
TORSDOF 7
