REMARK  Name = 
REMARK  11 active torsions:
REMARK  status: ('A' for Active; 'I' for Inactive)
REMARK    1  A    between atoms: O_2  and  C_3
REMARK    2  A    between atoms: C_3  and  C_5
REMARK    3  A    between atoms: C_5  and  C_6
REMARK    4  A    between atoms: C_6  and  C_8
REMARK    5  A    between atoms: C_6  and  C_15
REMARK    6  A    between atoms: C_8  and  C_9
REMARK    7  A    between atoms: C_9  and  C_10
REMARK    8  A    between atoms: C_10  and  C_11
REMARK    9  A    between atoms: C_15  and  O_17
REMARK   10  A    between atoms: O_17  and  C_18
REMARK   11  A    between atoms: C_19  and  O_20
REMARK                            x       y       z     vdW  Elec       q    Type
REMARK                         _______ _______ _______ _____ _____    ______ ____
ROOT
ATOM      1  C   UNL     1      -0.985  -0.972   0.294  0.00  0.00    +0.230 C 
ATOM      2  C   UNL     1      -2.239  -1.050  -0.922  0.00  0.00    +0.087 C 
ATOM      3  C   UNL     1      -3.048  -2.054   0.072  0.00  0.00    +0.074 C 
ATOM      4  N   UNL     1      -4.176  -2.580  -0.538  0.00  0.00    -0.271 NA
ATOM      5  C   UNL     1      -5.028  -1.713  -1.288  0.00  0.00    +0.077 C 
ATOM      6  C   UNL     1      -5.444  -0.588  -0.348  0.00  0.00    +0.043 C 
ATOM      7  C   UNL     1      -4.359   0.423  -0.442  0.00  0.00    -0.021 A 
ATOM      8  C   UNL     1      -4.857   1.696  -0.188  0.00  0.00    +0.036 A 
ATOM      9  C   UNL     1      -4.006   2.790  -0.179  0.00  0.00    +0.176 A 
ATOM     10  O   UNL     1      -4.121   4.094   0.300  0.00  0.00    -0.435 OA
ATOM     11  C   UNL     1      -2.999   4.804  -0.147  0.00  0.00    +0.429 C 
ATOM     12  O   UNL     1      -2.243   3.879  -0.889  0.00  0.00    -0.435 OA
ATOM     13  C   UNL     1      -2.779   2.602  -0.782  0.00  0.00    +0.176 A 
ATOM     14  C   UNL     1      -2.336   1.326  -1.085  0.00  0.00    +0.036 A 
ATOM     15  C   UNL     1      -4.964  -3.002   0.618  0.00  0.00    +0.072 C 
ATOM     16  C   UNL     1      -4.628  -2.078   1.753  0.00  0.00    +0.019 C 
ATOM     17  C   UNL     1      -3.347  -1.365   1.339  0.00  0.00    +0.021 C 
ATOM     18  C   UNL     1      -2.006  -3.054   0.349  0.00  0.00    +0.024 C 
ATOM     19  C   UNL     1      -2.971   0.292  -0.396  0.00  0.00    -0.018 A 
ATOM     20  C   UNL     1      -0.790  -2.590   0.178  0.00  0.00    +0.153 C 
ENDROOT
BRANCH  20  21
ATOM     21  O   UNL     1       0.189  -3.217  -0.509  0.00  0.00    -0.472 OA
ATOM     22  C   UNL     1       0.716  -4.416  -0.027  0.00  0.00    +0.252 C 
ENDBRANCH  20  21
BRANCH   1  23
ATOM     23  O   UNL     1       0.143  -0.643  -0.742  0.00  0.00    -0.442 OA
BRANCH  23  24
ATOM     24  C   UNL     1       1.218   0.015  -0.150  0.00  0.00    +0.346 C 
ATOM     25  O   UNL     1       0.883   1.119   0.377  0.00  0.00    -0.247 OA
BRANCH  24  26
ATOM     26  C   UNL     1       2.601  -0.414  -0.043  0.00  0.00    +0.225 C 
ATOM     27  O   UNL     1       2.800  -1.545   0.769  0.00  0.00    -0.214 OA
BRANCH  26  28
ATOM     28  C   UNL     1       3.401   0.662   0.686  0.00  0.00    +0.042 C 
BRANCH  28  29
ATOM     29  C   UNL     1       3.462   1.954  -0.090  0.00  0.00    +0.006 C 
BRANCH  29  30
ATOM     30  C   UNL     1       4.474   2.822   0.656  0.00  0.00    +0.031 C 
BRANCH  30  31
ATOM     31  C   UNL     1       5.717   2.847  -0.223  0.00  0.00    +0.127 C 
ATOM     32  O   UNL     1       6.454   1.679  -0.126  0.00  0.00    -0.226 OA
ATOM     33  C   UNL     1       5.204   2.955  -1.647  0.00  0.00    +0.033 C 
ATOM     34  C   UNL     1       6.589   4.047   0.103  0.00  0.00    +0.033 C 
ENDBRANCH  30  31
ENDBRANCH  29  30
ENDBRANCH  28  29
ENDBRANCH  26  28
BRANCH  26  35
ATOM     35  C   UNL     1       3.312  -0.684  -1.331  0.00  0.00    +0.151 C 
BRANCH  35  36
ATOM     36  C   UNL     1       4.466  -1.595  -1.047  0.00  0.00    +0.320 C 
ATOM     37  O   UNL     1       4.352  -2.792  -1.448  0.00  0.00    -0.250 OA
BRANCH  36  39
ATOM     38  C   UNL     1       6.066  -2.224   0.549  0.00  0.00    +0.256 C 
ATOM     39  O   UNL     1       5.282  -1.430   0.076  0.00  0.00    -0.444 OA
ENDBRANCH  36  39
ENDBRANCH  35  36
ENDBRANCH  26  35
ENDBRANCH  24  26
ENDBRANCH  23  24
ENDBRANCH   1  23
TORSDOF 11
