REMARK  Name = 
REMARK  12 active torsions:
REMARK  status: ('A' for Active; 'I' for Inactive)
REMARK    1  A    between atoms: C_2  and  C_3
REMARK    2  A    between atoms: C_3  and  C_4
REMARK    3  A    between atoms: C_4  and  C_5
REMARK    4  A    between atoms: C_5  and  O_7
REMARK    5  A    between atoms: O_7  and  C_8
REMARK    6  A    between atoms: C_8  and  C_9
REMARK    7  A    between atoms: C_9  and  C_11
REMARK    8  A    between atoms: C_22  and  O_23
REMARK    9  A    between atoms: O_23  and  C_24
REMARK   10  A    between atoms: C_26  and  N_27
REMARK   11  A    between atoms: C_28  and  C_30
REMARK   12  A    between atoms: C_43  and  O_44
REMARK                            x       y       z     vdW  Elec       q    Type
REMARK                         _______ _______ _______ _____ _____    ______ ____
ROOT
ATOM      1  C   UNL     1       1.248   1.464   0.085  0.00  0.00    +0.188 C 
ATOM      2  C   UNL     1       1.042   0.051  -0.266  0.00  0.00    +0.072 C 
ATOM      3  C   UNL     1       0.517  -0.738   1.094  0.00  0.00    +0.146 C 
ATOM      4  C   UNL     1      -0.785   0.208   1.214  0.00  0.00    +0.043 A 
ATOM      5  C   UNL     1      -0.508   1.496   1.667  0.00  0.00    +0.021 A 
ATOM      6  C   UNL     1      -1.438   2.454   1.275  0.00  0.00    +0.195 A 
ATOM      7  C   UNL     1      -2.588   2.148   0.589  0.00  0.00    +0.084 A 
ATOM      8  C   UNL     1      -3.528   3.119   0.065  0.00  0.00    +0.199 C 
ATOM      9  O   UNL     1      -3.201   4.329   0.157  0.00  0.00    -0.286 OA
ATOM     10  C   UNL     1      -4.894   2.718  -0.300  0.00  0.00    +0.045 A 
ATOM     11  C   UNL     1      -5.253   1.377  -0.210  0.00  0.00    +0.076 A 
ATOM     12  C   UNL     1      -6.578   1.010  -0.009  0.00  0.00    +0.142 A 
ATOM     13  C   UNL     1      -7.546   1.963  -0.173  0.00  0.00    +0.037 A 
ATOM     14  C   UNL     1      -7.189   3.272  -0.432  0.00  0.00    +0.003 A 
ATOM     15  C   UNL     1      -4.165   0.408  -0.239  0.00  0.00    +0.202 C 
ATOM     16  O   UNL     1      -4.495  -0.814  -0.311  0.00  0.00    -0.286 OA
ATOM     17  C   UNL     1      -5.875   3.687  -0.477  0.00  0.00    +0.003 A 
ATOM     18  C   UNL     1      -2.879   0.828   0.300  0.00  0.00    +0.084 A 
ATOM     19  O   UNL     1      -1.161   3.774   1.544  0.00  0.00    -0.287 OA
ATOM     20  C   UNL     1      -1.962  -0.122   0.695  0.00  0.00    +0.197 A 
ATOM     21  O   UNL     1      -2.284  -1.478   0.761  0.00  0.00    -0.287 OA
ATOM     22  C   UNL     1       0.954   1.820   1.538  0.00  0.00    +0.067 C 
ATOM     23  O   UNL     1       0.336   2.218  -0.676  0.00  0.00    -0.218 OA
ENDROOT
BRANCH   1  24
ATOM     24  C   UNL     1       2.558   2.076  -0.207  0.00  0.00    +0.222 C 
ATOM     25  O   UNL     1       3.473   1.530  -0.772  0.00  0.00    -0.290 OA
BRANCH  24  26
ATOM     26  C   UNL     1       2.617   3.538   0.141  0.00  0.00    +0.275 C 
BRANCH  26  27
ATOM     27  O   UNL     1       3.265   4.308  -0.833  0.00  0.00    -0.440 OA
BRANCH  27  28
ATOM     28  C   UNL     1       4.345   5.116  -0.464  0.00  0.00    +0.317 C 
ATOM     29  O   UNL     1       4.563   5.336   0.767  0.00  0.00    -0.250 OA
BRANCH  28  30
ATOM     30  C   UNL     1       5.567   5.241  -1.318  0.00  0.00    +0.110 C 
BRANCH  30  31
ATOM     31  C   UNL     1       6.546   4.207  -0.835  0.00  0.00    +0.012 C 
BRANCH  31  33
ATOM     32  C   UNL     1       7.413   6.036   0.187  0.00  0.00    +0.000 C 
ATOM     33  C   UNL     1       7.526   4.899   0.081  0.00  0.00    +0.001 C 
ENDBRANCH  31  33
ENDBRANCH  30  31
ENDBRANCH  28  30
ENDBRANCH  27  28
ENDBRANCH  26  27
ENDBRANCH  24  26
ENDBRANCH   1  24
BRANCH  12  34
ATOM     34  O   UNL     1      -6.854  -0.274   0.470  0.00  0.00    -0.471 OA
ATOM     35  C   UNL     1      -6.717  -0.608   1.849  0.00  0.00    +0.252 C 
ENDBRANCH  12  34
BRANCH   3  36
ATOM     36  O   UNL     1      -0.165  -1.839   0.296  0.00  0.00    -0.328 OA
BRANCH  36  37
ATOM     37  C   UNL     1       0.978  -2.873   0.426  0.00  0.00    +0.237 C 
ATOM     38  O   UNL     1       1.292  -2.785  -1.025  0.00  0.00    -0.330 OA
ATOM     39  C   UNL     1       0.161  -2.968  -1.956  0.00  0.00    +0.150 C 
ATOM     40  C   UNL     1      -1.163  -3.357  -1.067  0.00  0.00    +0.035 C 
ATOM     41  C   UNL     1       0.690  -4.572  -2.277  0.00  0.00    +0.199 C 
ATOM     42  O   UNL     1      -0.690  -5.122  -2.514  0.00  0.00    -0.219 OA
ATOM     43  C   UNL     1       0.785  -5.265  -0.719  0.00  0.00    +0.133 C 
ATOM     44  C   UNL     1       0.062  -4.222   0.256  0.00  0.00    +0.086 C 
BRANCH  43  45
ATOM     45  N   UNL     1       2.275  -4.803  -0.440  0.00  0.00    -0.197 NA
ATOM     46  C   UNL     1       2.951  -5.881   0.220  0.00  0.00    +0.337 C 
ATOM     47  O   UNL     1       2.299  -6.676   0.964  0.00  0.00    -0.264 OA
BRANCH  46  48
ATOM     48  C   UNL     1       4.275  -6.401  -0.213  0.00  0.00    +0.471 C 
ATOM     49  F   UNL     1       4.212  -7.028  -1.454  0.00  0.00    -0.162 F 
ATOM     50  F   UNL     1       4.721  -7.365   0.656  0.00  0.00    -0.162 F 
ATOM     51  F   UNL     1       5.244  -5.441  -0.274  0.00  0.00    -0.162 F 
ENDBRANCH  46  48
ENDBRANCH  43  45
ENDBRANCH  36  37
ENDBRANCH   3  36
TORSDOF 12
