REMARK  Name = 
REMARK  0 active torsions:
REMARK  status: ('A' for Active; 'I' for Inactive)
REMARK                            x       y       z     vdW  Elec       q    Type
REMARK                         _______ _______ _______ _____ _____    ______ ____
ROOT
ATOM      1  C   UNL     1       2.185  -0.008   0.133  0.00  0.00    +0.034 C 
ATOM      2  C   UNL     1       0.727  -0.034  -0.210  0.00  0.00    +0.020 A 
ATOM      3  C   UNL     1      -0.131  -1.085   0.094  0.00  0.00    +0.119 A 
ATOM      4  N   UNL     1      -1.384  -0.620  -0.126  0.00  0.00    -0.147 NA
ATOM      5  N   UNL     1      -1.312   0.654   0.240  0.00  0.00    -0.147 NA
ATOM      6  C   UNL     1      -0.085   1.091  -0.131  0.00  0.00    +0.119 A 
ENDROOT
TORSDOF 0
