REMARK  Name = 
REMARK  7 active torsions:
REMARK  status: ('A' for Active; 'I' for Inactive)
REMARK    1  A    between atoms: C_2  and  C_3
REMARK    2  A    between atoms: C_3  and  C_4
REMARK    3  A    between atoms: C_12  and  O_13
REMARK    4  A    between atoms: C_32  and  C_33
REMARK    5  A    between atoms: C_35  and  C_36
REMARK    6  A    between atoms: C_41  and  O_42
REMARK    7  A    between atoms: C_55  and  O_56
REMARK                            x       y       z     vdW  Elec       q    Type
REMARK                         _______ _______ _______ _____ _____    ______ ____
ROOT
ATOM      1  C   UNL     1      -1.831   5.096  -0.261  0.00  0.00    +0.083 C 
ATOM      2  C   UNL     1      -0.635   4.462   0.605  0.00  0.00    +0.157 C 
ATOM      3  O   UNL     1       0.411   5.104   0.503  0.00  0.00    -0.296 OA
ATOM      4  C   UNL     1      -0.565   3.040   0.819  0.00  0.00    +0.098 C 
ATOM      5  C   UNL     1       0.435   2.372  -0.298  0.00  0.00    +0.163 C 
ATOM      6  O   UNL     1      -0.652   1.437  -0.781  0.00  0.00    -0.223 OA
ATOM      7  C   UNL     1       1.153   1.277   0.792  0.00  0.00    +0.075 C 
ATOM      8  C   UNL     1      -0.187   0.704   1.445  0.00  0.00    +0.007 C 
ATOM      9  C   UNL     1       1.250   0.028  -0.354  0.00  0.00    +0.189 C 
ATOM     10  O   UNL     1       1.964  -0.949   0.576  0.00  0.00    -0.447 OA
ATOM     11  C   UNL     1       1.839  -2.300   0.324  0.00  0.00    +0.335 C 
ATOM     12  O   UNL     1       2.221  -2.937  -0.693  0.00  0.00    -0.248 OA
ATOM     13  C   UNL     1       0.331  -2.614   0.817  0.00  0.00    +0.175 C 
ATOM     14  N   UNL     1       0.459  -4.157   0.570  0.00  0.00    -0.265 N 
ATOM     15  C   UNL     1       1.677  -4.845   0.790  0.00  0.00    +0.094 C 
ATOM     16  C   UNL     1       2.422  -4.541   2.031  0.00  0.00    +0.022 C 
ATOM     17  C   UNL     1       2.171  -3.157   2.508  0.00  0.00    +0.004 C 
ATOM     18  C   UNL     1      -0.753  -4.883   0.657  0.00  0.00    +0.289 C 
ATOM     19  O   UNL     1      -0.673  -6.099   0.978  0.00  0.00    -0.267 OA
ATOM     20  C   UNL     1      -1.964  -4.147   0.395  0.00  0.00    +0.279 C 
ATOM     21  O   UNL     1      -2.972  -4.927   0.549  0.00  0.00    -0.281 OA
ATOM     22  C   UNL     1      -2.115  -2.907  -0.346  0.00  0.00    +0.279 C 
ATOM     23  C   UNL     1      -2.902  -3.620  -1.631  0.00  0.00    +0.065 C 
ATOM     24  C   UNL     1      -3.818  -2.477  -2.191  0.00  0.00    +0.038 C 
ATOM     25  C   UNL     1      -3.804  -0.940  -1.861  0.00  0.00    +0.145 C 
ATOM     26  C   UNL     1      -3.062  -0.930  -0.306  0.00  0.00    +0.172 C 
ATOM     27  C   UNL     1      -4.596  -0.404   0.268  0.00  0.00    +0.145 C 
ATOM     28  C   UNL     1      -3.984   1.045   0.716  0.00  0.00    +0.032 C 
ATOM     29  C   UNL     1      -5.240   1.943   0.179  0.00  0.00    +0.007 C 
ATOM     30  C   UNL     1      -5.340   2.744   1.594  0.00  0.00    +0.000 C 
ATOM     31  C   UNL     1      -4.262   3.002  -0.557  0.00  0.00    +0.022 C 
ATOM     32  C   UNL     1      -4.136   4.258   0.110  0.00  0.00    -0.048 C 
ATOM     33  C   UNL     1      -5.424   5.017   0.241  0.00  0.00    +0.026 C 
ATOM     34  C   UNL     1      -1.778  -3.375  -2.818  0.00  0.00    +0.006 C 
ATOM     35  O   UNL     1      -1.295  -2.224  -1.007  0.00  0.00    -0.187 OA
ATOM     36  O   UNL     1      -3.338  -2.337   0.090  0.00  0.00    -0.324 OA
ATOM     37  C   UNL     1       0.764  -2.805   2.392  0.00  0.00    +0.031 C 
ATOM     38  C   UNL     1      -3.006   4.550   0.703  0.00  0.00    -0.027 C 
ENDROOT
BRANCH   9  39
ATOM     39  C   UNL     1       2.608   0.642  -0.973  0.00  0.00    -0.009 C 
ATOM     40  C   UNL     1       3.756   0.556  -0.351  0.00  0.00    -0.031 C 
ATOM     41  C   UNL     1       2.628   0.644  -2.475  0.00  0.00    +0.030 C 
BRANCH  40  42
ATOM     42  C   UNL     1       5.037   0.224  -1.274  0.00  0.00    +0.024 C 
ATOM     43  C   UNL     1       6.091   1.108  -0.385  0.00  0.00    +0.037 C 
ATOM     44  C   UNL     1       7.343   0.237  -1.002  0.00  0.00    +0.146 C 
ATOM     45  C   UNL     1       7.645  -0.663   0.434  0.00  0.00    +0.179 C 
ATOM     46  O   UNL     1       7.711  -1.944  -0.360  0.00  0.00    -0.221 OA
ATOM     47  C   UNL     1       6.062  -0.902   0.780  0.00  0.00    +0.036 C 
ATOM     48  C   UNL     1       5.367  -1.159  -0.478  0.00  0.00    +0.007 C 
BRANCH  44  49
ATOM     49  O   UNL     1       8.362   1.275  -0.622  0.00  0.00    -0.351 OA
ATOM     50  C   UNL     1       8.169   1.597   0.693  0.00  0.00    +0.174 C 
ENDBRANCH  44  49
ENDBRANCH  40  42
ENDBRANCH   9  39
BRANCH  27  51
ATOM     51  O   UNL     1      -4.441  -0.952   1.664  0.00  0.00    -0.351 OA
ATOM     52  C   UNL     1      -5.767  -0.942   2.096  0.00  0.00    +0.174 C 
ENDBRANCH  27  51
BRANCH  25  53
ATOM     53  O   UNL     1      -2.522  -0.621  -2.623  0.00  0.00    -0.351 OA
ATOM     54  C   UNL     1      -2.437   0.766  -2.663  0.00  0.00    +0.174 C 
ENDBRANCH  25  53
BRANCH   1  55
ATOM     55  C   UNL     1      -1.766   6.524   0.542  0.00  0.00    +0.038 C 
BRANCH  55  57
ATOM     56  C   UNL     1      -1.082   7.582  -1.235  0.00  0.00    -0.005 C 
ATOM     57  C   UNL     1      -1.530   7.520  -0.518  0.00  0.00    -0.025 C 
ENDBRANCH  55  57
ENDBRANCH   1  55
TORSDOF 7
