REMARK  Name = 
REMARK  10 active torsions:
REMARK  status: ('A' for Active; 'I' for Inactive)
REMARK    1  A    between atoms: O_2  and  C_3
REMARK    2  A    between atoms: C_3  and  C_4
REMARK    3  A    between atoms: C_4  and  C_5
REMARK    4  A    between atoms: C_5  and  C_6
REMARK    5  A    between atoms: C_6  and  C_7
REMARK    6  A    between atoms: C_7  and  C_13
REMARK    7  A    between atoms: N_8  and  O_9
REMARK    8  A    between atoms: O_9  and  C_10
REMARK    9  A    between atoms: C_10  and  C_11
REMARK   10  A    between atoms: C_16  and  C_17
REMARK                            x       y       z     vdW  Elec       q    Type
REMARK                         _______ _______ _______ _____ _____    ______ ____
ROOT
ATOM      1  C   UNL     1       0.972   0.625  -0.321  0.00  0.00    +0.097 C 
ATOM      2  N   UNL     1       1.098   1.914  -0.432  0.00  0.00    -0.087 NA
ENDROOT
BRANCH   1   3
ATOM      3  C   UNL     1      -0.401   0.119  -0.437  0.00  0.00    +0.017 A 
ATOM      4  C   UNL     1      -1.212   0.323   0.671  0.00  0.00    +0.001 A 
ATOM      5  C   UNL     1      -2.498  -0.169   0.625  0.00  0.00    +0.004 A 
ATOM      6  C   UNL     1      -2.650  -1.439   0.091  0.00  0.00    +0.071 A 
ATOM      7  C   UNL     1      -1.731  -1.872  -0.832  0.00  0.00    +0.004 A 
ATOM      8  C   UNL     1      -0.658  -1.048  -1.146  0.00  0.00    +0.001 A 
BRANCH   6   9
ATOM      9  C   UNL     1      -3.968  -2.095   0.303  0.00  0.00    +0.419 C 
ATOM     10  F   UNL     1      -3.836  -3.424  -0.045  0.00  0.00    -0.166 F 
ATOM     11  F   UNL     1      -4.244  -2.069   1.662  0.00  0.00    -0.166 F 
ATOM     12  F   UNL     1      -4.947  -1.449  -0.417  0.00  0.00    -0.166 F 
ENDBRANCH   6   9
ENDBRANCH   1   3
BRANCH   1  13
ATOM     13  C   UNL     1       2.120  -0.309  -0.336  0.00  0.00    +0.049 C 
BRANCH  13  14
ATOM     14  C   UNL     1       2.790  -0.444   1.003  0.00  0.00    +0.009 C 
BRANCH  14  15
ATOM     15  C   UNL     1       4.078   0.320   0.961  0.00  0.00    +0.032 C 
BRANCH  15  16
ATOM     16  C   UNL     1       5.305  -0.533   1.070  0.00  0.00    +0.142 C 
BRANCH  16  18
ATOM     17  C   UNL     1       5.546  -2.101  -0.619  0.00  0.00    +0.174 C 
ATOM     18  O   UNL     1       5.120  -1.845   0.680  0.00  0.00    -0.351 OA
ENDBRANCH  16  18
ENDBRANCH  15  16
ENDBRANCH  14  15
ENDBRANCH  13  14
ENDBRANCH   1  13
BRANCH   2  19
ATOM     19  O   UNL     1       0.309   2.660  -1.281  0.00  0.00    -0.376 OA
BRANCH  19  20
ATOM     20  C   UNL     1      -0.930   3.214  -0.921  0.00  0.00    +0.259 C 
BRANCH  20  21
ATOM     21  C   UNL     1      -0.830   4.624  -0.410  0.00  0.00    +0.159 C 
ATOM     22  N   UNL     1       0.568   4.997  -0.252  0.00  0.00    -0.127 NA
ENDBRANCH  20  21
ENDBRANCH  19  20
ENDBRANCH   2  19
TORSDOF 10
