REMARK  Name = 
REMARK  7 active torsions:
REMARK  status: ('A' for Active; 'I' for Inactive)
REMARK    1  A    between atoms: C_2  and  C_3
REMARK    2  A    between atoms: C_3  and  C_4
REMARK    3  A    between atoms: C_6  and  C_7
REMARK    4  A    between atoms: N_9  and  C_10
REMARK    5  A    between atoms: C_10  and  C_11
REMARK    6  A    between atoms: C_10  and  C_14
REMARK    7  A    between atoms: C_16  and  S_17
REMARK                            x       y       z     vdW  Elec       q    Type
REMARK                         _______ _______ _______ _____ _____    ______ ____
ROOT
ATOM      1  C   UNL     1      -0.022  -0.170   0.476  0.00  0.00    +0.140 C 
ENDROOT
BRANCH   1   2
ATOM      2  C   UNL     1      -1.623   0.347   0.594  0.00  0.00    +0.170 C 
ATOM      3  C   UNL     1      -2.006   0.011   2.223  0.00  0.00    +0.213 C 
ATOM      4  O   UNL     1      -3.341  -0.662   2.152  0.00  0.00    -0.218 OA
ATOM      5  C   UNL     1      -2.598   1.608   2.013  0.00  0.00    +0.218 C 
ATOM      6  O   UNL     1      -3.593   1.490   3.134  0.00  0.00    -0.217 OA
ATOM      7  C   UNL     1      -3.725   1.375   0.755  0.00  0.00    +0.222 C 
ATOM      8  O   UNL     1      -2.806   1.825  -0.374  0.00  0.00    -0.217 OA
ATOM      9  C   UNL     1      -3.731  -0.263   0.357  0.00  0.00    +0.195 C 
ATOM     10  O   UNL     1      -2.396  -0.703  -0.092  0.00  0.00    -0.341 OA
BRANCH   9  11
ATOM     11  S   UNL     1      -4.408   0.119  -1.410  0.00  0.00    -0.108 S 
ATOM     12  C   UNL     1      -5.964   0.926  -0.894  0.00  0.00    +0.072 C 
ENDBRANCH   9  11
ENDBRANCH   1   2
BRANCH   1  13
ATOM     13  C   UNL     1       0.302  -1.240   1.748  0.00  0.00    +0.102 C 
ATOM     14 CL   UNL     1      -1.071  -2.497   1.653  0.00  0.00    -0.113 Cl
ATOM     15  C   UNL     1      -0.076  -0.292   2.984  0.00  0.00    +0.019 C 
ENDBRANCH   1  13
BRANCH   1  17
ATOM     16  C   UNL     1       0.874  -1.136  -1.636  0.00  0.00    +0.256 C 
ATOM     17  N   UNL     1      -0.072  -1.336  -0.566  0.00  0.00    -0.202 NA
ATOM     18  O   UNL     1       0.297  -0.602  -2.539  0.00  0.00    -0.272 OA
BRANCH  16  23
ATOM     19  C   UNL     1       4.189   0.434  -1.004  0.00  0.00    +0.018 C 
ATOM     20  C   UNL     1       4.266  -0.603  -2.248  0.00  0.00    +0.073 C 
ATOM     21  N   UNL     1       2.925  -0.615  -2.816  0.00  0.00    -0.265 NA
ATOM     22  C   UNL     1       2.434   0.744  -2.958  0.00  0.00    +0.090 C 
ATOM     23  C   UNL     1       2.460  -1.260  -1.463  0.00  0.00    +0.137 C 
ATOM     24  C   UNL     1       2.614   0.226  -0.789  0.00  0.00    +0.027 C 
BRANCH  19  25
ATOM     25  C   UNL     1       4.491  -0.675   0.157  0.00  0.00    +0.001 C 
BRANCH  25  27
ATOM     26  C   UNL     1       6.632  -0.038   0.504  0.00  0.00    +0.000 C 
ATOM     27  C   UNL     1       5.948  -0.980   0.037  0.00  0.00    +0.000 C 
ENDBRANCH  25  27
ENDBRANCH  19  25
ENDBRANCH  16  23
ENDBRANCH   1  17
TORSDOF 7
