REMARK  Name = 
REMARK  10 active torsions:
REMARK  status: ('A' for Active; 'I' for Inactive)
REMARK    1  A    between atoms: O_2  and  C_3
REMARK    2  A    between atoms: C_3  and  C_5
REMARK    3  A    between atoms: C_6  and  O_7
REMARK    4  A    between atoms: C_9  and  O_10
REMARK    5  A    between atoms: O_10  and  C_11
REMARK    6  A    between atoms: C_11  and  C_13
REMARK    7  A    between atoms: C_15  and  O_16
REMARK    8  A    between atoms: C_18  and  O_19
REMARK    9  A    between atoms: C_21  and  O_22
REMARK   10  A    between atoms: C_35  and  O_36
REMARK                            x       y       z     vdW  Elec       q    Type
REMARK                         _______ _______ _______ _____ _____    ______ ____
ROOT
ATOM      1  C   UNL     1       0.695   0.220   0.493  0.00  0.00    +0.130 C 
ATOM      2  C   UNL     1       0.757   1.511  -0.564  0.00  0.00    +0.016 C 
ATOM      3  C   UNL     1       0.240   0.986  -2.084  0.00  0.00    +0.020 C 
ATOM      4  C   UNL     1       1.178  -0.284  -2.375  0.00  0.00    +0.072 C 
ATOM      5  N   UNL     1       2.518   0.188  -2.595  0.00  0.00    -0.269 NA
ATOM      6  C   UNL     1       2.844   0.090  -1.050  0.00  0.00    +0.098 C 
ATOM      7  C   UNL     1       4.385   0.538  -1.231  0.00  0.00    +0.069 A 
ATOM      8  C   UNL     1       5.021  -0.660  -1.548  0.00  0.00    -0.004 A 
ATOM      9  C   UNL     1       6.310  -0.651  -1.067  0.00  0.00    +0.015 A 
ATOM     10  C   UNL     1       6.420   0.612  -0.505  0.00  0.00    +0.084 A 
ATOM     11  C   UNL     1       7.696   1.023  -0.186  0.00  0.00    +0.056 A 
ATOM     12  C   UNL     1       8.716   0.132  -0.015  0.00  0.00    +0.140 A 
ATOM     13  C   UNL     1       8.409  -1.205  -0.214  0.00  0.00    +0.037 A 
ATOM     14  C   UNL     1       7.200  -1.653  -0.735  0.00  0.00    +0.004 A 
ATOM     15  C   UNL     1       4.254  -1.574  -2.433  0.00  0.00    +0.045 C 
ATOM     16  N   UNL     1       5.154   1.000  -0.205  0.00  0.00    -0.249 NA
ATOM     17  C   UNL     1       3.286  -0.760  -3.286  0.00  0.00    +0.077 C 
ATOM     18  C   UNL     1      -1.104   0.287  -1.468  0.00  0.00    +0.048 C 
ATOM     19  C   UNL     1      -1.362   1.531  -0.432  0.00  0.00    +0.197 C 
ATOM     20  C   UNL     1       2.352   1.612  -0.838  0.00  0.00    +0.023 C 
ATOM     21  C   UNL     1      -0.907   0.653   0.957  0.00  0.00    +0.166 C 
ENDROOT
BRANCH   1  22
ATOM     22  C   UNL     1       0.344  -1.136  -0.244  0.00  0.00    +0.319 C 
ATOM     23  O   UNL     1       1.279  -2.031  -0.246  0.00  0.00    -0.250 OA
BRANCH  22  25
ATOM     24  C   UNL     1      -0.342  -3.051   1.244  0.00  0.00    +0.256 C 
ATOM     25  O   UNL     1      -0.555  -1.889   0.552  0.00  0.00    -0.444 OA
ENDBRANCH  22  25
ENDBRANCH   1  22
BRANCH  12  26
ATOM     26  O   UNL     1      10.067   0.476   0.052  0.00  0.00    -0.471 OA
ATOM     27  C   UNL     1      10.423   1.847  -0.132  0.00  0.00    +0.252 C 
ENDBRANCH  12  26
BRANCH  21  28
ATOM     28  O   UNL     1      -0.393   1.912   1.580  0.00  0.00    -0.349 OA
ATOM     29  C   UNL     1      -0.105   1.705   2.892  0.00  0.00    +0.174 C 
ENDBRANCH  21  28
BRANCH  19  30
ATOM     30  O   UNL     1      -2.857   1.281  -0.351  0.00  0.00    -0.447 OA
BRANCH  30  31
ATOM     31  C   UNL     1      -3.397   0.249   0.294  0.00  0.00    +0.341 C 
ATOM     32  O   UNL     1      -2.905   0.050   1.440  0.00  0.00    -0.245 OA
BRANCH  31  33
ATOM     33  C   UNL     1      -4.862   0.111   0.263  0.00  0.00    +0.082 A 
ATOM     34  C   UNL     1      -5.398  -0.994   0.918  0.00  0.00    +0.047 A 
ATOM     35  C   UNL     1      -6.782  -1.136   1.018  0.00  0.00    +0.176 A 
ATOM     36  C   UNL     1      -7.521  -0.003   1.133  0.00  0.00    +0.206 A 
ATOM     37  C   UNL     1      -6.899   1.224   0.938  0.00  0.00    +0.176 A 
ATOM     38  C   UNL     1      -5.630   1.256   0.410  0.00  0.00    +0.047 A 
BRANCH  35  39
ATOM     39  O   UNL     1      -7.398  -2.389   0.925  0.00  0.00    -0.468 OA
ATOM     40  C   UNL     1      -8.236  -2.780   1.966  0.00  0.00    +0.253 C 
ENDBRANCH  35  39
BRANCH  36  41
ATOM     41  O   UNL     1      -8.822  -0.065   1.630  0.00  0.00    -0.465 OA
ATOM     42  C   UNL     1      -9.671   1.073   1.470  0.00  0.00    +0.253 C 
ENDBRANCH  36  41
BRANCH  37  43
ATOM     43  O   UNL     1      -7.543   2.379   1.390  0.00  0.00    -0.468 OA
ATOM     44  C   UNL     1      -6.858   3.261   2.238  0.00  0.00    +0.253 C 
ENDBRANCH  37  43
ENDBRANCH  31  33
ENDBRANCH  30  31
ENDBRANCH  19  30
TORSDOF 10
