REMARK  Name = 
REMARK  2 active torsions:
REMARK  status: ('A' for Active; 'I' for Inactive)
REMARK    1  A    between atoms: C_8  and  O_9
REMARK    2  A    between atoms: O_9  and  C_10
REMARK                            x       y       z     vdW  Elec       q    Type
REMARK                         _______ _______ _______ _____ _____    ______ ____
ROOT
ATOM      1  O   UNL     1      -0.020  -1.617   0.529  0.00  0.00    -0.449 OA
ENDROOT
BRANCH   1   4
ATOM      2  O   UNL     1       1.395  -1.813  -1.900  0.00  0.00    -0.283 OA
ATOM      3  C   UNL     1       1.617  -0.799  -0.968  0.00  0.00    +0.231 A 
ATOM      4  C   UNL     1       1.231  -1.048   0.344  0.00  0.00    +0.184 A 
ATOM      5  C   UNL     1       1.980  -0.516   1.388  0.00  0.00    +0.042 A 
ATOM      6  C   UNL     1       2.995   0.392   1.110  0.00  0.00    +0.015 A 
ATOM      7  C   UNL     1       2.994   1.014  -0.134  0.00  0.00    +0.061 A 
ATOM      8 CL   UNL     1       3.489   2.677  -0.350  0.00  0.00    -0.082 Cl
ATOM      9  C   UNL     1       2.529   0.227  -1.182  0.00  0.00    +0.057 A 
ENDBRANCH   1   4
BRANCH   1  10
ATOM     10  C   UNL     1      -1.196  -1.011   0.131  0.00  0.00    +0.156 A 
ATOM     11  C   UNL     1      -2.087  -0.558   1.087  0.00  0.00    +0.093 A 
ATOM     12 CL   UNL     1      -2.229  -1.474   2.583  0.00  0.00    -0.079 Cl
ATOM     13  C   UNL     1      -2.905   0.532   0.845  0.00  0.00    +0.026 A 
ATOM     14  C   UNL     1      -2.833   1.174  -0.382  0.00  0.00    +0.059 A 
ATOM     15 CL   UNL     1      -3.351   2.849  -0.504  0.00  0.00    -0.082 Cl
ATOM     16  C   UNL     1      -2.256   0.496  -1.438  0.00  0.00    +0.015 A 
ATOM     17  C   UNL     1      -1.353  -0.523  -1.160  0.00  0.00    +0.039 A 
ENDBRANCH   1  10
TORSDOF 2
