REMARK  Name = 
REMARK  6 active torsions:
REMARK  status: ('A' for Active; 'I' for Inactive)
REMARK    1  A    between atoms: O_2  and  C_3
REMARK    2  A    between atoms: C_6  and  C_7
REMARK    3  A    between atoms: C_7  and  N_8
REMARK    4  A    between atoms: N_8  and  C_9
REMARK    5  A    between atoms: C_9  and  C_10
REMARK    6  A    between atoms: C_10  and  N_11
REMARK                            x       y       z     vdW  Elec       q    Type
REMARK                         _______ _______ _______ _____ _____    ______ ____
ROOT
ATOM      1  N   UNL     1      -0.957   0.350   0.138  0.00  0.00    -0.273 N 
ATOM      2  C   UNL     1      -1.807   1.504   0.152  0.00  0.00    +0.220 A 
ATOM      3  N   UNL     1      -1.359   2.580   0.829  0.00  0.00    -0.212 NA
ATOM      4  C   UNL     1      -1.919   3.806   0.701  0.00  0.00    +0.103 A 
ATOM      5  C   UNL     1      -2.905   3.944  -0.235  0.00  0.00    +0.041 A 
ATOM      6  C   UNL     1      -3.240   2.876  -1.047  0.00  0.00    +0.103 A 
ATOM      7  N   UNL     1      -2.858   1.650  -0.659  0.00  0.00    -0.212 NA
ENDROOT
BRANCH   1   8
ATOM      8  C   UNL     1       0.387   0.551  -0.333  0.00  0.00    +0.120 C 
BRANCH   8  12
ATOM      9  C   UNL     1       4.098  -0.938   0.638  0.00  0.00    +0.139 A 
ATOM     10  C   UNL     1       3.712   0.261   1.225  0.00  0.00    +0.037 A 
ATOM     11  C   UNL     1       2.400   0.714   1.139  0.00  0.00    +0.001 A 
ATOM     12  C   UNL     1       1.410  -0.075   0.563  0.00  0.00    -0.002 A 
ATOM     13  C   UNL     1       1.738  -1.423   0.463  0.00  0.00    +0.001 A 
ATOM     14  C   UNL     1       3.062  -1.847   0.454  0.00  0.00    +0.037 A 
BRANCH   9  16
ATOM     15  C   UNL     1       5.310  -1.212  -1.489  0.00  0.00    +0.252 C 
ATOM     16  O   UNL     1       5.288  -1.043  -0.089  0.00  0.00    -0.471 OA
ENDBRANCH   9  16
ENDBRANCH   8  12
ENDBRANCH   1   8
BRANCH   1  17
ATOM     17  C   UNL     1      -1.508  -0.970   0.321  0.00  0.00    +0.111 C 
BRANCH  17  18
ATOM     18  C   UNL     1      -1.890  -1.623  -0.981  0.00  0.00    +0.094 C 
BRANCH  18  19
ATOM     19  N   UNL     1      -2.427  -2.931  -0.725  0.00  0.00    -0.269 NA
ATOM     20  C   UNL     1      -3.504  -3.256  -1.656  0.00  0.00    +0.090 C 
ATOM     21  C   UNL     1      -3.030  -2.916   0.593  0.00  0.00    +0.090 C 
ENDBRANCH  18  19
ENDBRANCH  17  18
ENDBRANCH   1  17
TORSDOF 6
