REMARK  Name = 
REMARK  6 active torsions:
REMARK  status: ('A' for Active; 'I' for Inactive)
REMARK    1  A    between atoms: C_2  and  N_4
REMARK    2  A    between atoms: N_4  and  C_5
REMARK    3  A    between atoms: C_5  and  C_6
REMARK    4  A    between atoms: C_6  and  C_8
REMARK    5  A    between atoms: C_8  and  O_9
REMARK    6  A    between atoms: O_9  and  C_10
REMARK                            x       y       z     vdW  Elec       q    Type
REMARK                         _______ _______ _______ _____ _____    ______ ____
ROOT
ATOM      1  O   UNL     1      -0.163   0.718   0.775  0.00  0.00    -0.473 OA
ENDROOT
BRANCH   1   2
ATOM      2  C   UNL     1      -1.528   0.769   0.604  0.00  0.00    +0.140 A 
ATOM      3  C   UNL     1      -2.238  -0.412   0.482  0.00  0.00    +0.053 A 
ATOM      4  C   UNL     1      -3.598  -0.383   0.208  0.00  0.00    +0.084 A 
ATOM      5  N   UNL     1      -4.045  -1.625  -0.074  0.00  0.00    -0.244 NA
ATOM      6  C   UNL     1      -2.986  -2.432  -0.104  0.00  0.00    +0.099 A 
ATOM      7  C   UNL     1      -4.315   0.807   0.227  0.00  0.00    +0.019 A 
ATOM      8  C   UNL     1      -3.557   1.961   0.207  0.00  0.00    +0.005 A 
ATOM      9  C   UNL     1      -1.882  -1.735   0.311  0.00  0.00    +0.025 A 
ATOM     10  C   UNL     1      -2.190   1.974   0.412  0.00  0.00    +0.037 A 
ENDBRANCH   1   2
BRANCH   1  11
ATOM     11  C   UNL     1       0.580  -0.321   0.192  0.00  0.00    +0.240 C 
BRANCH  11  12
ATOM     12  C   UNL     1       2.133   0.256   0.331  0.00  0.00    +0.213 C 
ATOM     13  O   UNL     1       1.791   1.503  -0.489  0.00  0.00    -0.218 OA
BRANCH  12  14
ATOM     14  C   UNL     1       2.610  -0.570  -1.031  0.00  0.00    +0.125 C 
BRANCH  14  15
ATOM     15  N   UNL     1       4.021  -0.764  -0.884  0.00  0.00    -0.217 NA
BRANCH  15  17
ATOM     16  C   UNL     1       5.213  -0.794   0.904  0.00  0.00    +0.019 C 
ATOM     17  C   UNL     1       4.620   0.007   0.172  0.00  0.00    +0.073 C 
ATOM     18  C   UNL     1       5.535   1.042  -0.474  0.00  0.00    +0.019 C 
ENDBRANCH  15  17
ENDBRANCH  14  15
ENDBRANCH  12  14
ENDBRANCH  11  12
ENDBRANCH   1  11
TORSDOF 6
