REMARK  Name = 
REMARK  3 active torsions:
REMARK  status: ('A' for Active; 'I' for Inactive)
REMARK    1  A    between atoms: N_4  and  C_5
REMARK    2  A    between atoms: C_5  and  C_7
REMARK    3  A    between atoms: C_7  and  C_8
REMARK                            x       y       z     vdW  Elec       q    Type
REMARK                         _______ _______ _______ _____ _____    ______ ____
ROOT
ATOM      1  C   UNL     1      -1.058   0.248  -0.037  0.00  0.00    +0.010 A 
ATOM      2  C   UNL     1      -2.236   0.851   0.382  0.00  0.00    +0.055 A 
ATOM      3 CL   UNL     1      -2.682   2.449  -0.209  0.00  0.00    -0.083 Cl
ATOM      4  C   UNL     1      -3.177   0.151   1.127  0.00  0.00    +0.011 A 
ATOM      5  C   UNL     1      -2.703  -1.004   1.738  0.00  0.00    +0.002 A 
ATOM      6  C   UNL     1      -1.648  -1.709   1.173  0.00  0.00    +0.011 A 
ATOM      7  C   UNL     1      -0.928  -1.123   0.139  0.00  0.00    +0.055 A 
ATOM      8 CL   UNL     1      -0.071  -2.126  -1.030  0.00  0.00    -0.083 Cl
ENDROOT
BRANCH   1   9
ATOM      9  C   UNL     1      -0.328   0.873  -1.171  0.00  0.00    +0.134 C 
BRANCH   9  10
ATOM     10  C   UNL     1       1.116   0.506  -1.168  0.00  0.00    +0.323 C 
ATOM     11  O   UNL     1       1.683   0.295  -2.282  0.00  0.00    -0.253 OA
BRANCH  10  14
ATOM     12  N   UNL     1       3.653   0.583   1.470  0.00  0.00    +0.133 NA
ATOM     13  C   UNL     1       3.022   0.234   0.239  0.00  0.00    +0.532 C 
ATOM     14  N   UNL     1       1.868   0.741   0.010  0.00  0.00    +0.008 NA
ATOM     15  N   UNL     1       3.490  -0.971  -0.382  0.00  0.00    +0.133 NA
ENDBRANCH  10  14
ENDBRANCH   9  10
ENDBRANCH   1   9
TORSDOF 3
