REMARK  Name = 
REMARK  5 active torsions:
REMARK  status: ('A' for Active; 'I' for Inactive)
REMARK    1  A    between atoms: O_2  and  C_3
REMARK    2  A    between atoms: C_6  and  C_7
REMARK    3  A    between atoms: C_7  and  C_8
REMARK    4  A    between atoms: C_7  and  C_12
REMARK    5  A    between atoms: C_8  and  N_9
REMARK                            x       y       z     vdW  Elec       q    Type
REMARK                         _______ _______ _______ _____ _____    ______ ____
ROOT
ATOM      1  C   UNL     1      -0.550   0.394   0.383  0.00  0.00    +0.066 C 
ENDROOT
BRANCH   1   2
ATOM      2  C   UNL     1      -1.772   0.042  -0.650  0.00  0.00    +0.132 C 
ATOM      3  C   UNL     1      -2.956   0.544   0.093  0.00  0.00    +0.031 C 
ATOM      4  C   UNL     1      -4.058  -0.399   0.354  0.00  0.00    +0.003 C 
ATOM      5  C   UNL     1      -3.682  -1.828   0.537  0.00  0.00    +0.000 C 
ATOM      6  C   UNL     1      -2.930  -2.228  -0.694  0.00  0.00    +0.003 C 
ATOM      7  C   UNL     1      -1.747  -1.406  -0.872  0.00  0.00    +0.031 C 
ATOM      8  O   UNL     1      -1.505   0.726  -1.822  0.00  0.00    -0.225 OA
ENDBRANCH   1   2
BRANCH   1  12
ATOM      9  C   UNL     1       3.143  -1.130  -0.398  0.00  0.00    +0.139 A 
ATOM     10  C   UNL     1       3.022   0.253  -0.451  0.00  0.00    +0.037 A 
ATOM     11  C   UNL     1       1.765   0.839  -0.486  0.00  0.00    -0.001 A 
ATOM     12  C   UNL     1       0.607   0.093  -0.696  0.00  0.00    -0.019 A 
ATOM     13  C   UNL     1       0.853  -1.238  -0.950  0.00  0.00    -0.001 A 
ATOM     14  C   UNL     1       2.051  -1.873  -0.813  0.00  0.00    +0.037 A 
BRANCH   9  16
ATOM     15  C   UNL     1       3.813  -2.012   1.688  0.00  0.00    +0.252 C 
ATOM     16  O   UNL     1       4.100  -1.701   0.448  0.00  0.00    -0.471 OA
ENDBRANCH   9  16
ENDBRANCH   1  12
BRANCH   1  17
ATOM     17  C   UNL     1      -0.578   1.993   0.033  0.00  0.00    +0.079 C 
BRANCH  17  18
ATOM     18  N   UNL     1       0.189   2.538   1.125  0.00  0.00    -0.270 NA
ATOM     19  C   UNL     1      -0.598   2.604   2.345  0.00  0.00    +0.090 C 
ATOM     20  C   UNL     1       0.834   3.789   0.826  0.00  0.00    +0.090 C 
ENDBRANCH  17  18
ENDBRANCH   1  17
TORSDOF 5
