REMARK  Name = 
REMARK  4 active torsions:
REMARK  status: ('A' for Active; 'I' for Inactive)
REMARK    1  A    between atoms: C_2  and  C_3
REMARK    2  A    between atoms: C_2  and  C_8
REMARK    3  A    between atoms: C_3  and  C_4
REMARK    4  A    between atoms: C_4  and  C_5
REMARK                            x       y       z     vdW  Elec       q    Type
REMARK                         _______ _______ _______ _____ _____    ______ ____
ROOT
ATOM      1  C   UNL     1       2.620   0.387  -0.097  0.00  0.00    +0.000 C 
ATOM      2  C   UNL     1       1.186  -0.318  -0.141  0.00  0.00    +0.000 C 
ATOM      3  C   UNL     1       0.489   1.140  -0.352  0.00  0.00    +0.002 C 
ATOM      4  C   UNL     1      -0.963   0.356  -0.631  0.00  0.00    +0.030 C 
ATOM      5  C   UNL     1      -1.261   0.502   1.019  0.00  0.00    +0.002 C 
ATOM      6  C   UNL     1      -0.574  -0.956   1.268  0.00  0.00    +0.000 C 
ATOM      7  C   UNL     1      -2.792   0.004   1.089  0.00  0.00    +0.000 C 
ATOM      8  C   UNL     1      -3.036  -0.658  -0.357  0.00  0.00    +0.005 C 
ATOM      9  C   UNL     1      -4.657  -0.827  -0.297  0.00  0.00    +0.033 C 
ATOM     10  C   UNL     1      -4.971  -1.093   1.286  0.00  0.00    +0.152 C 
ATOM     11  C   UNL     1      -5.077   0.535   1.556  0.00  0.00    +0.033 C 
ATOM     12  O   UNL     1      -6.463  -1.220   1.028  0.00  0.00    -0.223 OA
ATOM     13  C   UNL     1      -3.262   0.758  -1.133  0.00  0.00    +0.033 C 
ATOM     14  C   UNL     1      -2.678  -0.992   2.180  0.00  0.00    +0.000 C 
ATOM     15  C   UNL     1      -3.706   1.108   1.356  0.00  0.00    +0.003 C 
ATOM     16  C   UNL     1      -1.948   1.686  -0.875  0.00  0.00    +0.152 C 
ATOM     17  O   UNL     1      -1.628   1.725  -2.358  0.00  0.00    -0.223 OA
ATOM     18  C   UNL     1       1.076   1.202  -1.856  0.00  0.00    +0.000 C 
ATOM     19  C   UNL     1       0.897  -1.034  -1.342  0.00  0.00    +0.000 C 
ATOM     20  C   UNL     1       0.882  -0.733   1.195  0.00  0.00    +0.000 C 
ATOM     21  C   UNL     1       2.520   0.725  -1.679  0.00  0.00    +0.000 C 
ENDROOT
BRANCH   1  23
ATOM     22  C   UNL     1       2.638  -2.191  -0.077  0.00  0.00    +0.000 C 
ATOM     23  C   UNL     1       3.648  -0.953  -0.288  0.00  0.00    +0.001 C 
BRANCH  23  24
ATOM     24  C   UNL     1       3.965  -0.987   1.309  0.00  0.00    +0.012 C 
BRANCH  24  25
ATOM     25  C   UNL     1       4.770   0.169   1.658  0.00  0.00    +0.114 C 
BRANCH  25  26
ATOM     26  C   UNL     1       5.700   0.468   0.592  0.00  0.00    +0.365 C 
ATOM     27  O   UNL     1       6.488   1.597   0.879  0.00  0.00    -0.246 OA
ATOM     28  O   UNL     1       6.138  -0.402  -0.219  0.00  0.00    -0.246 OA
ENDBRANCH  25  26
ENDBRANCH  24  25
ENDBRANCH  23  24
ENDBRANCH   1  23
TORSDOF 4
