REMARK  Name = 
REMARK  5 active torsions:
REMARK  status: ('A' for Active; 'I' for Inactive)
REMARK    1  A    between atoms: O_2  and  C_3
REMARK    2  A    between atoms: C_8  and  S_9
REMARK    3  A    between atoms: S_9  and  C_11
REMARK    4  A    between atoms: C_11  and  C_12
REMARK    5  A    between atoms: C_17  and  O_18
REMARK                            x       y       z     vdW  Elec       q    Type
REMARK                         _______ _______ _______ _____ _____    ______ ____
ROOT
ATOM      1  S   UNL     1      -0.330  -1.321  -0.670  0.00  0.00    +0.107 S 
ATOM      2  O   UNL     1      -0.684  -1.856   0.749  0.00  0.00    -0.248 OA
ENDROOT
BRANCH   1   8
ATOM      3  C   UNL     1       5.599  -0.069   0.765  0.00  0.00    +0.140 A 
ATOM      4  C   UNL     1       4.753  -1.144   0.602  0.00  0.00    +0.058 A 
ATOM      5  C   UNL     1       3.520  -0.906   0.058  0.00  0.00    +0.104 A 
ATOM      6  C   UNL     1       3.285   0.297  -0.575  0.00  0.00    +0.101 A 
ATOM      7  N   UNL     1       2.017   0.200  -1.039  0.00  0.00    -0.218 NA
ATOM      8  C   UNL     1       1.383  -0.800  -0.394  0.00  0.00    +0.221 A 
ATOM      9  C   UNL     1       4.066   1.402  -0.257  0.00  0.00    +0.024 A 
ATOM     10  N   UNL     1       2.357  -1.567   0.117  0.00  0.00    -0.218 NA
ATOM     11  C   UNL     1       5.270   1.215   0.408  0.00  0.00    +0.039 A 
BRANCH   3  13
ATOM     12  C   UNL     1       7.454  -0.504   1.312  0.00  0.00    +0.252 C 
ATOM     13  O   UNL     1       6.909  -0.373   1.150  0.00  0.00    -0.471 OA
ENDBRANCH   3  13
ENDBRANCH   1   8
BRANCH   1  14
ATOM     14  C   UNL     1      -1.185   0.309  -0.623  0.00  0.00    +0.145 C 
BRANCH  14  15
ATOM     15  C   UNL     1      -2.622   0.009  -0.370  0.00  0.00    +0.072 A 
ATOM     16  C   UNL     1      -3.369   0.946   0.330  0.00  0.00    +0.026 A 
ATOM     17  C   UNL     1      -2.764   2.122   0.998  0.00  0.00    +0.035 C 
ATOM     18  C   UNL     1      -4.730   0.765   0.473  0.00  0.00    +0.133 A 
ATOM     19  C   UNL     1      -5.259  -0.406  -0.020  0.00  0.00    +0.031 A 
ATOM     20  C   UNL     1      -6.631  -0.786   0.378  0.00  0.00    +0.036 C 
ATOM     21  C   UNL     1      -4.521  -1.182  -0.905  0.00  0.00    +0.097 A 
ATOM     22  N   UNL     1      -3.197  -1.013  -1.010  0.00  0.00    -0.248 NA
BRANCH  18  23
ATOM     23  O   UNL     1      -5.573   1.852   0.715  0.00  0.00    -0.472 OA
ATOM     24  C   UNL     1      -5.746   2.811  -0.300  0.00  0.00    +0.252 C 
ENDBRANCH  18  23
ENDBRANCH  14  15
ENDBRANCH   1  14
TORSDOF 5
