REMARK  Name = 
REMARK  0 active torsions:
REMARK  status: ('A' for Active; 'I' for Inactive)
REMARK                            x       y       z     vdW  Elec       q    Type
REMARK                         _______ _______ _______ _____ _____    ______ ____
ROOT
ATOM      1  N   UNL     1      -2.152   2.468  -0.437  0.00  0.00    -0.057 NA
ATOM      2  C   UNL     1      -1.722   1.113  -0.623  0.00  0.00    +0.336 A 
ATOM      3  N   UNL     1      -2.521   0.172  -0.065  0.00  0.00    -0.113 N 
ATOM      4  O   UNL     1      -3.438   0.479   0.926  0.00  0.00    -0.616 OA
ATOM      5  C   UNL     1      -2.080  -1.107  -0.146  0.00  0.00    +0.429 A 
ATOM      6  N   UNL     1      -2.997  -2.156   0.185  0.00  0.00    -0.038 NA
ATOM      7  N   UNL     1      -0.811  -1.383  -0.533  0.00  0.00    -0.152 NA
ATOM      8  C   UNL     1       0.136  -0.418  -0.607  0.00  0.00    +0.147 A 
ATOM      9  N   UNL     1       1.440  -0.589  -0.040  0.00  0.00    -0.293 N 
ATOM     10  C   UNL     1       1.726  -0.107   1.307  0.00  0.00    +0.092 C 
ATOM     11  C   UNL     1       2.555   1.167   1.274  0.00  0.00    +0.022 C 
ATOM     12  C   UNL     1       3.821   0.847   0.522  0.00  0.00    +0.004 C 
ATOM     13  C   UNL     1       3.817  -0.555  -0.033  0.00  0.00    +0.022 C 
ATOM     14  C   UNL     1       2.594  -0.792  -0.912  0.00  0.00    +0.092 C 
ATOM     15  C   UNL     1      -0.368   0.861  -0.819  0.00  0.00    +0.126 A 
ENDROOT
TORSDOF 0
