REMARK  Name = 
REMARK  5 active torsions:
REMARK  status: ('A' for Active; 'I' for Inactive)
REMARK    1  A    between atoms: C_6  and  O_7
REMARK    2  A    between atoms: O_7  and  C_8
REMARK    3  A    between atoms: C_8  and  C_10
REMARK    4  A    between atoms: C_10  and  C_11
REMARK    5  A    between atoms: C_10  and  C_13
REMARK                            x       y       z     vdW  Elec       q    Type
REMARK                         _______ _______ _______ _____ _____    ______ ____
ROOT
ATOM      1  O   UNL     1      -0.127  -0.361   1.161  0.00  0.00    -0.452 OA
ENDROOT
BRANCH   1   9
ATOM      2  C   UNL     1      -3.799   0.362  -1.597  0.00  0.00    +0.170 C 
ATOM      3  N   UNL     1      -3.376  -0.577  -0.655  0.00  0.00    +0.302 N 
ATOM      4  C   UNL     1      -1.773  -0.518  -0.864  0.00  0.00    +0.093 C 
ATOM      5  C   UNL     1      -2.054  -0.859   0.682  0.00  0.00    +0.197 C 
ATOM      6  C   UNL     1      -2.756   0.812   0.226  0.00  0.00    +0.197 C 
ATOM      7  O   UNL     1      -3.284  -0.712  -0.384  0.00  0.00    -0.342 OA
ATOM      8  C   UNL     1      -1.371   0.960  -0.201  0.00  0.00    +0.101 C 
ATOM      9  C   UNL     1      -1.258   0.528   1.290  0.00  0.00    +0.180 C 
ATOM     10  C   UNL     1      -2.436  -0.384   1.773  0.00  0.00    +0.101 C 
ATOM     11  C   UNL     1      -3.843  -0.080   0.877  0.00  0.00    +0.093 C 
ATOM     12  C   UNL     1      -3.719  -1.980  -0.703  0.00  0.00    +0.170 C 
ENDBRANCH   1   9
BRANCH   1  13
ATOM     13  C   UNL     1       0.767  -0.146   0.301  0.00  0.00    +0.323 C 
ATOM     14  O   UNL     1       0.793   1.015  -0.231  0.00  0.00    -0.250 OA
BRANCH  13  15
ATOM     15  C   UNL     1       1.913  -0.939  -0.461  0.00  0.00    +0.154 C 
BRANCH  15  16
ATOM     16  C   UNL     1       3.066  -0.082   0.295  0.00  0.00    -0.009 A 
ATOM     17  C   UNL     1       3.712   0.556  -0.757  0.00  0.00    -0.004 A 
ATOM     18  C   UNL     1       4.306   1.764  -0.504  0.00  0.00    -0.000 A 
ATOM     19  C   UNL     1       3.756   2.637   0.427  0.00  0.00    -0.000 A 
ATOM     20  C   UNL     1       3.167   2.024   1.525  0.00  0.00    -0.000 A 
ATOM     21  C   UNL     1       2.810   0.676   1.389  0.00  0.00    -0.004 A 
ENDBRANCH  15  16
BRANCH  15  22
ATOM     22  C   UNL     1       2.083  -2.202   0.590  0.00  0.00    +0.198 C 
ATOM     23  O   UNL     1       3.424  -2.496   0.281  0.00  0.00    -0.219 OA
ENDBRANCH  15  22
ENDBRANCH  13  15
ENDBRANCH   1  13
TORSDOF 5
