REMARK  Name = 
REMARK  7 active torsions:
REMARK  status: ('A' for Active; 'I' for Inactive)
REMARK    1  A    between atoms: C_2  and  N_3
REMARK    2  A    between atoms: C_2  and  C_17
REMARK    3  A    between atoms: N_3  and  C_4
REMARK    4  A    between atoms: C_4  and  C_5
REMARK    5  A    between atoms: C_5  and  C_6
REMARK    6  A    between atoms: C_6  and  C_7
REMARK    7  A    between atoms: C_11  and  C_12
REMARK                            x       y       z     vdW  Elec       q    Type
REMARK                         _______ _______ _______ _____ _____    ______ ____
ROOT
ATOM      1  N   UNL     1      -1.363   0.079  -1.447  0.00  0.00    -0.215 NA
ENDROOT
BRANCH   1   3
ATOM      2  C   UNL     1      -1.181  -2.224  -1.029  0.00  0.00    +0.024 C 
ATOM      3  C   UNL     1      -1.460  -0.836  -0.129  0.00  0.00    +0.095 C 
BRANCH   3   4
ATOM      4  C   UNL     1      -3.088  -1.000  -0.312  0.00  0.00    -0.006 A 
ATOM      5  C   UNL     1      -3.761   0.181  -0.121  0.00  0.00    -0.003 A 
ATOM      6  C   UNL     1      -5.130   0.102   0.095  0.00  0.00    -0.000 A 
ATOM      7  C   UNL     1      -5.881   1.236  -0.112  0.00  0.00    -0.000 A 
ATOM      8  C   UNL     1      -5.233   2.449  -0.282  0.00  0.00    -0.000 A 
ATOM      9  C   UNL     1      -3.880   2.565  -0.045  0.00  0.00    -0.000 A 
ATOM     10  C   UNL     1      -5.678  -1.111   0.488  0.00  0.00    -0.000 A 
ATOM     11  C   UNL     1      -4.886  -2.215   0.759  0.00  0.00    -0.000 A 
ATOM     12  C   UNL     1      -3.163   1.405   0.052  0.00  0.00    -0.000 A 
ATOM     13  C   UNL     1      -3.548  -2.105   0.401  0.00  0.00    -0.003 A 
ENDBRANCH   3   4
ENDBRANCH   1   3
BRANCH   1  14
ATOM     14  C   UNL     1       0.054   0.317  -1.600  0.00  0.00    +0.089 C 
BRANCH  14  15
ATOM     15  C   UNL     1       0.670   1.002  -0.405  0.00  0.00    +0.023 C 
BRANCH  15  16
ATOM     16  C   UNL     1       1.064  -0.072   0.603  0.00  0.00    +0.028 C 
BRANCH  16  17
ATOM     17  C   UNL     1       2.432  -0.504   0.205  0.00  0.00    -0.022 A 
ATOM     18  C   UNL     1       3.445   0.417   0.442  0.00  0.00    -0.000 A 
ATOM     19  C   UNL     1       4.752   0.047   0.287  0.00  0.00    +0.071 A 
ATOM     20  C   UNL     1       5.010  -1.203  -0.217  0.00  0.00    +0.004 A 
ATOM     21  C   UNL     1       3.986  -1.956  -0.777  0.00  0.00    -0.000 A 
ATOM     22  C   UNL     1       2.687  -1.466  -0.735  0.00  0.00    -0.004 A 
BRANCH  19  23
ATOM     23  C   UNL     1       5.810   1.002   0.702  0.00  0.00    +0.419 C 
ATOM     24  F   UNL     1       6.889   0.318   1.216  0.00  0.00    -0.166 F 
ATOM     25  F   UNL     1       6.149   1.784  -0.382  0.00  0.00    -0.166 F 
ATOM     26  F   UNL     1       5.303   1.790   1.728  0.00  0.00    -0.166 F 
ENDBRANCH  19  23
ENDBRANCH  16  17
ENDBRANCH  15  16
ENDBRANCH  14  15
ENDBRANCH   1  14
TORSDOF 7
