REMARK  Name = 
REMARK  10 active torsions:
REMARK  status: ('A' for Active; 'I' for Inactive)
REMARK    1  A    between atoms: O_2  and  C_3
REMARK    2  A    between atoms: C_10  and  C_11
REMARK    3  A    between atoms: C_11  and  C_12
REMARK    4  A    between atoms: C_13  and  C_15
REMARK    5  A    between atoms: C_15  and  C_16
REMARK    6  A    between atoms: C_16  and  C_17
REMARK    7  A    between atoms: C_17  and  O_19
REMARK    8  A    between atoms: O_19  and  C_20
REMARK    9  A    between atoms: C_20  and  C_21
REMARK   10  A    between atoms: C_21  and  N_22
REMARK                            x       y       z     vdW  Elec       q    Type
REMARK                         _______ _______ _______ _____ _____    ______ ____
ROOT
ATOM      1  C   UNL     1      -0.666  -0.715  -0.047  0.00  0.00    -0.030 C 
ATOM      2  C   UNL     1       0.370   0.117  -0.210  0.00  0.00    -0.047 C 
ATOM      3  C   UNL     1       0.841   0.806   1.033  0.00  0.00    +0.026 C 
ENDROOT
BRANCH   1   4
ATOM      4  C   UNL     1      -1.738  -0.472   0.941  0.00  0.00    +0.058 C 
BRANCH   4   6
ATOM      5  C   UNL     1      -3.402   1.241   0.219  0.00  0.00    +0.134 A 
ATOM      6  C   UNL     1      -3.022  -0.084   0.277  0.00  0.00    +0.055 A 
ATOM      7  C   UNL     1      -4.031  -1.020   0.088  0.00  0.00    +0.201 A 
ATOM      8  O   UNL     1      -3.635  -2.333  -0.167  0.00  0.00    -0.287 OA
ATOM      9  C   UNL     1      -5.375  -0.678   0.132  0.00  0.00    +0.114 A 
ATOM     10  C   UNL     1      -6.561  -1.499   0.408  0.00  0.00    +0.344 C 
ATOM     11  O   UNL     1      -7.496  -0.634   0.982  0.00  0.00    -0.440 OA
ATOM     12  C   UNL     1      -7.077   0.703   0.854  0.00  0.00    +0.235 C 
ATOM     13  O   UNL     1      -6.509  -2.734   0.692  0.00  0.00    -0.245 OA
ATOM     14  C   UNL     1      -5.709   0.665   0.248  0.00  0.00    +0.030 A 
ATOM     15  C   UNL     1      -4.727   1.646   0.320  0.00  0.00    +0.012 A 
ATOM     16  C   UNL     1      -5.068   3.061   0.669  0.00  0.00    +0.034 C 
BRANCH   5  18
ATOM     17  C   UNL     1      -2.322   3.099  -0.994  0.00  0.00    +0.252 C 
ATOM     18  O   UNL     1      -2.397   2.202   0.105  0.00  0.00    -0.472 OA
ENDBRANCH   5  18
ENDBRANCH   4   6
ENDBRANCH   1   4
BRANCH   2  19
ATOM     19  C   UNL     1       0.873   0.499  -1.569  0.00  0.00    +0.033 C 
BRANCH  19  20
ATOM     20  C   UNL     1       1.639  -0.667  -2.142  0.00  0.00    +0.114 C 
BRANCH  20  21
ATOM     21  C   UNL     1       2.904  -0.821  -1.393  0.00  0.00    +0.317 C 
ATOM     22  O   UNL     1       3.328   0.122  -0.689  0.00  0.00    -0.250 OA
BRANCH  21  23
ATOM     23  O   UNL     1       3.709  -1.957  -1.467  0.00  0.00    -0.447 OA
BRANCH  23  24
ATOM     24  C   UNL     1       4.994  -2.016  -0.853  0.00  0.00    +0.226 C 
BRANCH  24  25
ATOM     25  C   UNL     1       5.175  -0.757  -0.015  0.00  0.00    +0.120 C 
BRANCH  25  26
ATOM     26  N   UNL     1       6.561  -0.377   0.103  0.00  0.00    -0.265 NA
ATOM     27  C   UNL     1       6.934   0.677  -0.818  0.00  0.00    +0.105 C 
ATOM     28  C   UNL     1       8.215   1.334  -0.375  0.00  0.00    +0.159 C 
ATOM     29  O   UNL     1       8.954   0.360   0.312  0.00  0.00    -0.351 OA
ATOM     30  C   UNL     1       8.374   0.184   1.577  0.00  0.00    +0.159 C 
ATOM     31  C   UNL     1       6.865   0.046   1.465  0.00  0.00    +0.105 C 
ENDBRANCH  25  26
ENDBRANCH  24  25
ENDBRANCH  23  24
ENDBRANCH  21  23
ENDBRANCH  20  21
ENDBRANCH  19  20
ENDBRANCH   2  19
TORSDOF 10
