REMARK  Name = 
REMARK  1 active torsions:
REMARK  status: ('A' for Active; 'I' for Inactive)
REMARK    1  A    between atoms: C_8  and  C_9
REMARK                            x       y       z     vdW  Elec       q    Type
REMARK                         _______ _______ _______ _____ _____    ______ ____
ROOT
ATOM      1  C   UNL     1       2.603   2.780  -0.224  0.00  0.00    +0.031 C 
ATOM      2  C   UNL     1       2.135   1.374  -0.172  0.00  0.00    -0.016 A 
ATOM      3  C   UNL     1       0.809   1.132   0.139  0.00  0.00    +0.011 A 
ATOM      4  C   UNL     1       0.154  -0.024  -0.270  0.00  0.00    +0.070 A 
ATOM      5  N   UNL     1       0.980  -1.050  -0.596  0.00  0.00    -0.153 N 
ATOM      6  O   UNL     1       0.432  -2.260  -0.897  0.00  0.00    -0.077 OA
ATOM      7  C   UNL     1       2.318  -0.930  -0.586  0.00  0.00    +0.286 A 
ATOM      8  O   UNL     1       3.026  -1.981  -0.535  0.00  0.00    -0.265 OA
ATOM      9  C   UNL     1       2.933   0.315  -0.538  0.00  0.00    +0.059 A 
ENDROOT
BRANCH   4  10
ATOM     10  C   UNL     1      -1.166  -0.274   0.349  0.00  0.00    +0.041 C 
ATOM     11  C   UNL     1      -1.848   1.078   0.527  0.00  0.00    +0.006 C 
ATOM     12  C   UNL     1      -2.796   1.357  -0.635  0.00  0.00    +0.000 C 
ATOM     13  C   UNL     1      -4.005   0.433  -0.543  0.00  0.00    +0.000 C 
ATOM     14  C   UNL     1      -3.485  -0.884   0.014  0.00  0.00    +0.000 C 
ATOM     15  C   UNL     1      -2.089  -1.067  -0.570  0.00  0.00    +0.006 C 
ENDBRANCH   4  10
TORSDOF 1
