REMARK  Name = 
REMARK  3 active torsions:
REMARK  status: ('A' for Active; 'I' for Inactive)
REMARK    1  A    between atoms: C_2  and  C_3
REMARK    2  A    between atoms: C_9  and  C_11
REMARK    3  A    between atoms: C_11  and  C_13
REMARK                            x       y       z     vdW  Elec       q    Type
REMARK                         _______ _______ _______ _____ _____    ______ ____
ROOT
ATOM      1  C   UNL     1       0.198  -0.269  -0.752  0.00  0.00    +0.168 C 
ATOM      2  N   UNL     1      -0.168  -1.823  -0.653  0.00  0.00    -0.123 NA
ENDROOT
BRANCH   1   3
ATOM      3  C   UNL     1      -0.963   0.401   0.205  0.00  0.00    +0.027 C 
ATOM      4  C   UNL     1      -1.045   1.489  -0.755  0.00  0.00    +0.002 C 
ATOM      5  C   UNL     1      -2.173   1.109  -1.896  0.00  0.00    +0.002 C 
ATOM      6  C   UNL     1      -3.478   1.550  -1.018  0.00  0.00    +0.030 C 
ATOM      7  C   UNL     1      -3.593   0.516   0.060  0.00  0.00    +0.127 C 
ATOM      8  C   UNL     1      -3.411   0.172   1.166  0.00  0.00    +0.030 C 
ATOM      9  C   UNL     1      -2.204   0.388   0.044  0.00  0.00    +0.002 C 
ATOM     10  O   UNL     1      -4.621  -0.345  -0.182  0.00  0.00    -0.226 OA
ATOM     11  C   UNL     1      -2.541  -0.418  -1.346  0.00  0.00    +0.000 C 
ATOM     12  C   UNL     1      -2.296  -0.299   0.282  0.00  0.00    +0.032 C 
ATOM     13  C   UNL     1      -1.275  -0.660   0.894  0.00  0.00    +0.002 C 
ENDBRANCH   1   3
BRANCH   1  16
ATOM     14  C   UNL     1       3.614   0.547  -0.486  0.00  0.00    +0.167 C 
ATOM     15  N   UNL     1       2.594  -0.025   0.573  0.00  0.00    -0.269 N 
ATOM     16  C   UNL     1       1.263  -0.085   0.455  0.00  0.00    +0.244 C 
ATOM     17  O   UNL     1       1.063  -1.212   0.906  0.00  0.00    -0.273 OA
ATOM     18  C   UNL     1       3.676  -1.162   0.798  0.00  0.00    +0.076 C 
ATOM     19  C   UNL     1       3.847  -1.610  -0.831  0.00  0.00    +0.023 C 
ATOM     20  C   UNL     1       2.786  -2.482   0.176  0.00  0.00    +0.022 C 
ATOM     21  C   UNL     1       2.792  -0.513  -1.450  0.00  0.00    +0.037 C 
BRANCH  14  23
ATOM     22  N   UNL     1       3.221   2.884  -0.565  0.00  0.00    -0.194 NA
ATOM     23  C   UNL     1       2.715   1.847  -0.769  0.00  0.00    +0.093 C 
ENDBRANCH  14  23
ENDBRANCH   1  16
TORSDOF 3
