REMARK  Name = 
REMARK  2 active torsions:
REMARK  status: ('A' for Active; 'I' for Inactive)
REMARK    1  A    between atoms: CB_2  and  CA_4
REMARK    2  A    between atoms: CA_4  and  C_6
REMARK                            x       y       z     vdW  Elec       q    Type
REMARK                         _______ _______ _______ _____ _____    ______ ____
ROOT
ATOM      1  CA  VAL A   1      -0.128   0.667  -0.730  0.00  0.00    +0.194 C 
ATOM      2  N   VAL A   1       0.178   1.882   0.234  0.00  0.00    -0.121 NA
ENDROOT
BRANCH   1   4
ATOM      3  CG1 VAL A   1       1.198  -1.387  -0.910  0.00  0.00    +0.002 C 
ATOM      4  CB  VAL A   1       1.095  -0.270  -0.172  0.00  0.00    +0.029 C 
ATOM      5  CG2 VAL A   1       2.007   0.369   0.669  0.00  0.00    +0.002 C 
ENDBRANCH   1   4
BRANCH   1   6
ATOM      6  C   VAL A   1      -1.244   0.046   0.260  0.00  0.00    +0.382 C 
ATOM      7  OXT VAL A   1      -2.209  -0.607  -0.533  0.00  0.00    -0.244 OA
ATOM      8  O   VAL A   1      -0.898  -0.700   1.182  0.00  0.00    -0.244 OA
ENDBRANCH   1   6
TORSDOF 2
