REMARK  Name = 
REMARK  3 active torsions:
REMARK  status: ('A' for Active; 'I' for Inactive)
REMARK    1  A    between atoms: N_5  and  C_6
REMARK    2  A    between atoms: C_6  and  C_7
REMARK    3  A    between atoms: C_6  and  C_13
REMARK                            x       y       z     vdW  Elec       q    Type
REMARK                         _______ _______ _______ _____ _____    ______ ____
ROOT
ATOM      1  C   UNL     1       0.295   0.312   0.961  0.00  0.00    +0.103 C 
ENDROOT
BRANCH   1   6
ATOM      2  C   UNL     1       4.178  -2.271  -1.002  0.00  0.00    +0.090 C 
ATOM      3  N   UNL     1       3.944  -1.281  -0.123  0.00  0.00    -0.269 NA
ATOM      4  C   UNL     1       3.046  -1.603   0.965  0.00  0.00    +0.090 C 
ATOM      5  C   UNL     1       1.593  -1.576   0.559  0.00  0.00    +0.090 C 
ATOM      6  N   UNL     1       1.242  -0.352  -0.163  0.00  0.00    -0.264 NA
ATOM      7  C   UNL     1       2.393   0.513  -0.038  0.00  0.00    +0.090 C 
ATOM      8  C   UNL     1       3.545  -0.068  -0.790  0.00  0.00    +0.090 C 
ENDBRANCH   1   6
BRANCH   1   9
ATOM      9  C   UNL     1      -0.976  -0.640   0.538  0.00  0.00    -0.004 A 
ATOM     10  C   UNL     1      -1.286  -0.708  -0.766  0.00  0.00    -0.002 A 
ATOM     11  C   UNL     1      -2.390  -1.498  -1.076  0.00  0.00    +0.011 A 
ATOM     12  C   UNL     1      -3.201  -2.013  -0.070  0.00  0.00    +0.058 A 
ATOM     13 CL   UNL     1      -4.508  -3.068  -0.570  0.00  0.00    -0.082 Cl
ATOM     14  C   UNL     1      -2.786  -1.919   1.253  0.00  0.00    +0.011 A 
ATOM     15  C   UNL     1      -1.679  -1.147   1.594  0.00  0.00    -0.002 A 
ENDBRANCH   1   9
BRANCH   1  16
ATOM     16  C   UNL     1      -0.149   1.538  -0.057  0.00  0.00    -0.004 A 
ATOM     17  C   UNL     1       0.739   2.610   0.043  0.00  0.00    -0.003 A 
ATOM     18  C   UNL     1       0.328   3.805  -0.527  0.00  0.00    -0.000 A 
ATOM     19  C   UNL     1      -0.998   4.189  -0.359  0.00  0.00    -0.000 A 
ATOM     20  C   UNL     1      -1.858   3.254   0.204  0.00  0.00    -0.000 A 
ATOM     21  C   UNL     1      -1.472   1.922   0.159  0.00  0.00    -0.003 A 
ENDBRANCH   1  16
TORSDOF 3
