REMARK  Name = 
REMARK  9 active torsions:
REMARK  status: ('A' for Active; 'I' for Inactive)
REMARK    1  A    between atoms: C_2  and  C_4
REMARK    2  A    between atoms: N_7  and  S_9
REMARK    3  A    between atoms: C_14  and  C_15
REMARK    4  A    between atoms: C_22  and  C_23
REMARK    5  A    between atoms: C_24  and  C_25
REMARK    6  A    between atoms: C_25  and  C_27
REMARK    7  A    between atoms: C_27  and  C_28
REMARK    8  A    between atoms: C_28  and  C_30
REMARK    9  A    between atoms: C_30  and  C_31
REMARK                            x       y       z     vdW  Elec       q    Type
REMARK                         _______ _______ _______ _____ _____    ______ ____
ROOT
ATOM      1  C   UNL     1      -0.398  -1.376   0.730  0.00  0.00    +0.063 A 
ATOM      2  C   UNL     1      -0.490   0.008   0.779  0.00  0.00    +0.031 A 
ATOM      3  C   UNL     1      -1.679   0.525   0.276  0.00  0.00    +0.085 A 
ATOM      4  N   UNL     1      -2.674  -0.329  -0.059  0.00  0.00    -0.212 NA
ATOM      5  C   UNL     1      -2.355  -1.583  -0.447  0.00  0.00    +0.239 A 
ATOM      6  N   UNL     1      -3.205  -2.363  -1.262  0.00  0.00    -0.160 N 
ATOM      7  C   UNL     1      -2.904  -2.498  -2.673  0.00  0.00    +0.142 C 
ATOM      8  N   UNL     1      -1.159  -2.121  -0.106  0.00  0.00    -0.217 NA
ENDROOT
BRANCH   3   9
ATOM      9  C   UNL     1      -1.892   1.963   0.169  0.00  0.00    +0.018 A 
ATOM     10  C   UNL     1      -1.696   2.811   1.231  0.00  0.00    +0.004 A 
ATOM     11  C   UNL     1      -2.002   4.140   1.052  0.00  0.00    +0.030 A 
ATOM     12  C   UNL     1      -2.623   4.575  -0.102  0.00  0.00    +0.140 A 
ATOM     13  F   UNL     1      -3.406   5.687  -0.079  0.00  0.00    -0.204 F 
ATOM     14  C   UNL     1      -2.482   3.795  -1.222  0.00  0.00    +0.030 A 
ATOM     15  C   UNL     1      -2.125   2.480  -1.094  0.00  0.00    +0.004 A 
ENDBRANCH   3   9
BRANCH   6  16
ATOM     16  S   UNL     1      -4.275  -3.493  -0.506  0.00  0.00    +0.061 S 
ATOM     17  O   UNL     1      -5.546  -3.567  -1.318  0.00  0.00    -0.154 OA
ATOM     18  O   UNL     1      -4.649  -2.999   0.852  0.00  0.00    -0.154 OA
ATOM     19  C   UNL     1      -3.449  -5.061  -0.439  0.00  0.00    +0.200 C 
ENDBRANCH   6  16
BRANCH   1  21
ATOM     20  C   UNL     1       1.107  -2.296   0.934  0.00  0.00    +0.006 C 
ATOM     21  C   UNL     1       0.853  -1.964   1.266  0.00  0.00    +0.040 C 
ATOM     22  C   UNL     1       0.778  -2.227   2.755  0.00  0.00    +0.006 C 
ENDBRANCH   1  21
BRANCH   2  23
ATOM     23  C   UNL     1       0.662   0.886   0.754  0.00  0.00    +0.001 C 
ATOM     24  C   UNL     1       1.916   0.525   0.919  0.00  0.00    +0.006 C 
BRANCH  24  25
ATOM     25  C   UNL     1       2.867   1.082  -0.317  0.00  0.00    +0.177 C 
ATOM     26  O   UNL     1       2.582   2.555   0.079  0.00  0.00    -0.218 OA
BRANCH  25  27
ATOM     27  C   UNL     1       4.248   1.051   0.654  0.00  0.00    +0.071 C 
BRANCH  27  28
ATOM     28  C   UNL     1       5.189   1.590  -0.636  0.00  0.00    +0.166 C 
ATOM     29  O   UNL     1       6.481   1.556   0.213  0.00  0.00    -0.222 OA
BRANCH  28  30
ATOM     30  C   UNL     1       5.464   0.036  -1.210  0.00  0.00    +0.147 C 
BRANCH  30  31
ATOM     31  C   UNL     1       5.597  -0.830  -0.063  0.00  0.00    +0.367 C 
ATOM     32  O   UNL     1       6.174  -0.568   1.156  0.00  0.00    -0.246 OA
ATOM     33  O   UNL     1       5.091  -1.990  -0.166  0.00  0.00    -0.246 OA
ENDBRANCH  30  31
ENDBRANCH  28  30
ENDBRANCH  27  28
ENDBRANCH  25  27
ENDBRANCH  24  25
ENDBRANCH   2  23
TORSDOF 9
