REMARK  Name = 
REMARK  6 active torsions:
REMARK  status: ('A' for Active; 'I' for Inactive)
REMARK    1  A    between atoms: C_2  and  C_3
REMARK    2  A    between atoms: C_3  and  N_4
REMARK    3  A    between atoms: N_4  and  C_5
REMARK    4  A    between atoms: C_15  and  N_16
REMARK    5  A    between atoms: C_30  and  O_31
REMARK    6  A    between atoms: O_31  and  C_32
REMARK                            x       y       z     vdW  Elec       q    Type
REMARK                         _______ _______ _______ _____ _____    ______ ____
ROOT
ATOM      1  C   UNL     1       2.738   1.186  -0.028  0.00  0.00    +0.099 C 
ATOM      2  C   UNL     1       3.085  -0.077   1.139  0.00  0.00    +0.217 C 
ATOM      3  C   UNL     1       1.680  -0.867   0.843  0.00  0.00    +0.043 C 
ATOM      4  C   UNL     1       0.999   0.236  -0.149  0.00  0.00    +0.009 C 
ATOM      5  C   UNL     1       0.005  -0.986  -0.810  0.00  0.00    +0.000 C 
ATOM      6  C   UNL     1      -1.133  -0.390   0.326  0.00  0.00    +0.000 C 
ATOM      7  C   UNL     1      -0.548  -1.419   1.468  0.00  0.00    +0.000 C 
ATOM      8  C   UNL     1      -2.344  -1.378  -0.152  0.00  0.00    +0.001 C 
ATOM      9  C   UNL     1      -2.820  -0.517  -1.488  0.00  0.00    +0.003 C 
ATOM     10  C   UNL     1      -3.862  -1.702  -1.963  0.00  0.00    +0.034 C 
ATOM     11  C   UNL     1      -5.114  -1.541  -0.883  0.00  0.00    +0.166 C 
ATOM     12  C   UNL     1      -4.471  -0.114  -0.098  0.00  0.00    +0.088 C 
ATOM     13  O   UNL     1      -5.918  -0.694  -1.885  0.00  0.00    -0.222 OA
ATOM     14  C   UNL     1      -1.617  -1.131  -2.448  0.00  0.00    +0.000 C 
ATOM     15  C   UNL     1      -1.916  -2.662  -0.496  0.00  0.00    +0.000 C 
ATOM     16  C   UNL     1      -3.456  -1.075   0.787  0.00  0.00    +0.019 C 
ATOM     17  C   UNL     1      -0.569  -0.091  -2.026  0.00  0.00    +0.000 C 
ATOM     18  C   UNL     1       1.909  -2.116   0.165  0.00  0.00    +0.004 C 
ATOM     19  C   UNL     1       0.754  -0.788   1.970  0.00  0.00    +0.004 C 
ATOM     20  C   UNL     1       2.285   0.053  -1.159  0.00  0.00    +0.059 C 
ENDROOT
BRANCH  12  21
ATOM     21  N   UNL     1      -5.602  -0.134   0.997  0.00  0.00    -0.267 NA
ATOM     22  C   UNL     1      -5.140   1.005   1.793  0.00  0.00    +0.105 C 
ATOM     23  C   UNL     1      -4.949   2.204   0.868  0.00  0.00    +0.159 C 
ATOM     24  O   UNL     1      -6.237   2.692   0.637  0.00  0.00    -0.351 OA
ATOM     25  C   UNL     1      -7.209   1.716   0.798  0.00  0.00    +0.159 C 
ATOM     26  C   UNL     1      -6.750   0.394   0.259  0.00  0.00    +0.105 C 
ENDBRANCH  12  21
BRANCH   1  27
ATOM     27  N   UNL     1       4.232   1.378  -0.486  0.00  0.00    +0.299 N 
ATOM     28  C   UNL     1       4.190   2.814  -0.792  0.00  0.00    +0.109 C 
ATOM     29  C   UNL     1       3.166   2.781  -1.926  0.00  0.00    +0.067 C 
ATOM     30  C   UNL     1       3.810   1.658  -2.742  0.00  0.00    +0.067 C 
ATOM     31  C   UNL     1       4.479   0.777  -1.693  0.00  0.00    +0.109 C 
BRANCH  27  32
ATOM     32  C   UNL     1       5.062   1.237   0.633  0.00  0.00    +0.136 C 
BRANCH  32  34
ATOM     33  C   UNL     1       6.382   2.858   0.416  0.00  0.00    +0.001 C 
ATOM     34  C   UNL     1       6.077   2.331   0.679  0.00  0.00    +0.034 C 
ENDBRANCH  32  34
ENDBRANCH  27  32
ENDBRANCH   1  27
BRANCH   2  35
ATOM     35  O   UNL     1       3.903  -0.914   0.103  0.00  0.00    -0.446 OA
BRANCH  35  36
ATOM     36  C   UNL     1       4.587  -1.976   0.635  0.00  0.00    +0.318 C 
ATOM     37  O   UNL     1       4.571  -2.168   1.866  0.00  0.00    -0.250 OA
ATOM     38  C   UNL     1       5.743  -2.582  -0.098  0.00  0.00    +0.121 C 
ENDBRANCH  35  36
ENDBRANCH   2  35
TORSDOF 6
