REMARK  Name = 
REMARK  12 active torsions:
REMARK  status: ('A' for Active; 'I' for Inactive)
REMARK    1  A    between atoms: C_2  and  O_3
REMARK    2  A    between atoms: O_3  and  C_4
REMARK    3  A    between atoms: C_4  and  C_6
REMARK    4  A    between atoms: C_6  and  C_7
REMARK    5  A    between atoms: C_6  and  N_15
REMARK    6  A    between atoms: C_7  and  C_8
REMARK    7  A    between atoms: C_8  and  C_9
REMARK    8  A    between atoms: N_15  and  CA_16
REMARK    9  A    between atoms: CA_16  and  C_18
REMARK   10  A    between atoms: C_24  and  O_25
REMARK   11  A    between atoms: C_27  and  O_28
REMARK   12  A    between atoms: C_33  and  C_34
REMARK                            x       y       z     vdW  Elec       q    Type
REMARK                         _______ _______ _______ _____ _____    ______ ____
ROOT
ATOM      1  C   ALA A   1       0.561   0.479   1.070  0.00  0.00    +0.242 C 
ATOM      2  N   UNK A   2       1.391   1.004   0.013  0.00  0.00    -0.266 N 
ATOM      3  C   UNK A   2       1.244   0.127  -1.314  0.00  0.00    +0.184 C 
ATOM      4  C   UNK A   2       2.423   0.948  -2.175  0.00  0.00    +0.058 C 
ATOM      5  C   UNK A   2       3.647   0.887  -1.387  0.00  0.00    -0.019 A 
ATOM      6  C   UNK A   2       3.638   1.672  -0.238  0.00  0.00    -0.003 A 
ATOM      7  C   UNK A   2       4.667   1.650   0.662  0.00  0.00    +0.037 A 
ATOM      8  C   UNK A   2       5.818   0.943   0.312  0.00  0.00    +0.172 A 
ATOM      9  C   UNK A   2       5.746   0.001  -0.707  0.00  0.00    +0.172 A 
ATOM     10  C   UNK A   2       4.748   0.090  -1.656  0.00  0.00    +0.036 A 
ATOM     11  C   UNK A   2       2.240   2.109   0.075  0.00  0.00    +0.120 C 
ATOM     12  O   ALA A   1       0.869   1.063   2.163  0.00  0.00    -0.273 OA
ENDROOT
BRANCH   3  13
ATOM     13  C   UNK A   2       2.305  -1.021  -0.808  0.00  0.00    +0.383 C 
ATOM     14  O   UNK A   2       2.273  -1.343   0.512  0.00  0.00    -0.244 OA
ATOM     15  O   UNK A   2       2.199  -1.982  -1.633  0.00  0.00    -0.244 OA
ENDBRANCH   3  13
BRANCH   9  16
ATOM     16  O   UNK A   2       6.607  -1.095  -0.604  0.00  0.00    -0.468 OA
ATOM     17  C   UNK A   2       6.131  -2.422  -0.756  0.00  0.00    +0.253 C 
ENDBRANCH   9  16
BRANCH   1  18
ATOM     18  CA  ALA A   1      -1.045   0.612   0.747  0.00  0.00    +0.149 C 
ATOM     19  CB  ALA A   1      -1.465   0.218   2.319  0.00  0.00    +0.029 C 
BRANCH  18  20
ATOM     20  N   ALA A   1      -1.183  -0.912   0.275  0.00  0.00    -0.201 NA
BRANCH  20  21
ATOM     21  C   UNK A   0      -2.641  -1.194   0.882  0.00  0.00    +0.172 C 
BRANCH  21  22
ATOM     22  C   UNK A   0      -2.812  -2.564   0.010  0.00  0.00    +0.333 C 
ATOM     23  O   UNK A   0      -2.711  -2.482  -1.200  0.00  0.00    -0.249 OA
BRANCH  22  24
ATOM     24  O   UNK A   0      -3.353  -3.621   0.708  0.00  0.00    -0.448 OA
BRANCH  24  26
ATOM     25  C   UNK A   0      -5.355  -4.255   0.798  0.00  0.00    +0.051 C 
ATOM     26  C   UNK A   0      -4.444  -4.290   0.076  0.00  0.00    +0.209 C 
ENDBRANCH  24  26
ENDBRANCH  22  24
ENDBRANCH  21  22
BRANCH  21  27
ATOM     27  C   UNK A   0      -3.376  -0.231  -0.275  0.00  0.00    +0.033 C 
BRANCH  27  28
ATOM     28  C   UNK A   0      -4.510   0.278   0.600  0.00  0.00    +0.028 C 
BRANCH  28  29
ATOM     29  C   UNK A   0      -5.421   1.204  -0.093  0.00  0.00    -0.022 A 
ATOM     30  C   UNK A   0      -6.663   0.696  -0.460  0.00  0.00    -0.004 A 
ATOM     31  C   UNK A   0      -7.591   1.577  -1.005  0.00  0.00    -0.000 A 
ATOM     32  C   UNK A   0      -7.354   2.924  -0.955  0.00  0.00    -0.000 A 
ATOM     33  C   UNK A   0      -6.338   3.386  -0.138  0.00  0.00    -0.000 A 
ATOM     34  C   UNK A   0      -5.439   2.506   0.394  0.00  0.00    -0.004 A 
ENDBRANCH  28  29
ENDBRANCH  27  28
ENDBRANCH  21  27
ENDBRANCH  20  21
ENDBRANCH  18  20
ENDBRANCH   1  18
BRANCH   8  35
ATOM     35  O   UNK A   2       7.052   1.268   0.858  0.00  0.00    -0.468 OA
ATOM     36  C   UNK A   2       8.142   1.771   0.103  0.00  0.00    +0.253 C 
ENDBRANCH   8  35
TORSDOF 12
