REMARK  Name = 
REMARK  2 active torsions:
REMARK  status: ('A' for Active; 'I' for Inactive)
REMARK    1  A    between atoms: N_18  and  C_19
REMARK    2  A    between atoms: C_19  and  C_20
REMARK                            x       y       z     vdW  Elec       q    Type
REMARK                         _______ _______ _______ _____ _____    ______ ____
ROOT
ATOM      1  O   UNL     1      -3.897   1.500  -1.925  0.00  0.00    -0.283 OA
ATOM      2  C   UNL     1      -3.008   1.677  -1.267  0.00  0.00    +0.229 A 
ATOM      3  C   UNL     1      -2.583   0.697  -0.373  0.00  0.00    +0.173 A 
ATOM      4  O   UNL     1      -2.837  -0.680  -0.260  0.00  0.00    -0.473 OA
ATOM      5  C   UNL     1      -2.261  -1.047   1.112  0.00  0.00    +0.202 C 
ATOM      6  C   UNL     1      -0.838  -0.299   0.910  0.00  0.00    +0.089 C 
ATOM      7  C   UNL     1       0.031  -0.906   0.031  0.00  0.00    +0.147 C 
ATOM      8  C   UNL     1       1.244   0.116  -0.358  0.00  0.00    +0.090 C 
ATOM      9  N   UNL     1       2.051  -0.195   0.956  0.00  0.00    -0.271 NA
ATOM     10  C   UNL     1       1.334  -0.178   2.063  0.00  0.00    +0.073 C 
ATOM     11  C   UNL     1       0.790   1.518   0.363  0.00  0.00    +0.045 C 
ATOM     12  C   UNL     1      -0.548   1.863   0.005  0.00  0.00    -0.021 A 
ATOM     13  C   UNL     1      -0.992   2.948  -0.733  0.00  0.00    -0.001 A 
ATOM     14  O   UNL     1       0.684  -2.055   0.546  0.00  0.00    -0.224 OA
ATOM     15  C   UNL     1      -0.580  -1.421  -1.210  0.00  0.00    +0.035 C 
ATOM     16  C   UNL     1      -1.576  -2.435  -0.919  0.00  0.00    +0.039 C 
ATOM     17  C   UNL     1      -0.127  -0.250   2.198  0.00  0.00    +0.027 C 
ATOM     18  C   UNL     1      -1.736  -2.635   0.695  0.00  0.00    +0.192 C 
ATOM     19  O   UNL     1      -3.188  -3.052   0.606  0.00  0.00    -0.219 OA
ATOM     20  C   UNL     1      -1.487   0.942   0.452  0.00  0.00    +0.016 A 
ATOM     21  C   UNL     1      -2.230   2.827  -1.349  0.00  0.00    +0.045 A 
ENDROOT
BRANCH   9  22
ATOM     22  C   UNL     1       3.133  -0.892   0.523  0.00  0.00    +0.072 C 
BRANCH  22  23
ATOM     23  C   UNL     1       3.873  -0.021  -0.495  0.00  0.00    +0.016 C 
ATOM     24  C   UNL     1       4.055   1.355   0.142  0.00  0.00    +0.001 C 
ATOM     25  C   UNL     1       5.306   0.777   0.792  0.00  0.00    +0.000 C 
ATOM     26  C   UNL     1       5.386  -0.154  -0.413  0.00  0.00    +0.001 C 
ENDBRANCH  22  23
ENDBRANCH   9  22
TORSDOF 2
