REMARK  Name = 
REMARK  10 active torsions:
REMARK  status: ('A' for Active; 'I' for Inactive)
REMARK    1  A    between atoms: C_2  and  O_3
REMARK    2  A    between atoms: O_3  and  C_4
REMARK    3  A    between atoms: C_4  and  C_6
REMARK    4  A    between atoms: C_7  and  C_8
REMARK    5  A    between atoms: C_8  and  O_9
REMARK    6  A    between atoms: O_9  and  C_10
REMARK    7  A    between atoms: C_10  and  C_11
REMARK    8  A    between atoms: C_16  and  C_17
REMARK    9  A    between atoms: C_17  and  O_19
REMARK   10  A    between atoms: C_21  and  C_22
REMARK                            x       y       z     vdW  Elec       q    Type
REMARK                         _______ _______ _______ _____ _____    ______ ____
ROOT
ATOM      1  C   UNL     1       0.505   0.532  -0.739  0.00  0.00    +0.075 C 
ATOM      2  C   UNL     1      -0.893   0.921  -0.028  0.00  0.00    +0.082 C 
ATOM      3  C   UNL     1      -0.587   0.244   1.418  0.00  0.00    +0.073 C 
ATOM      4  C   UNL     1       0.521   0.838   1.875  0.00  0.00    +0.051 C 
ATOM      5  C   UNL     1       0.674   1.382   3.236  0.00  0.00    +0.049 C 
ATOM      6  N   UNL     1       1.632   0.194   1.236  0.00  0.00    -0.219 NA
ATOM      7  C   UNL     1       1.370  -0.175  -0.125  0.00  0.00    +0.080 C 
ENDROOT
BRANCH   2   8
ATOM      8  C   UNL     1      -1.684  -0.394  -0.563  0.00  0.00    -0.003 A 
ATOM      9  C   UNL     1      -3.056  -0.334  -0.320  0.00  0.00    +0.054 A 
ATOM     10 CL   UNL     1      -3.906   1.137   0.158  0.00  0.00    -0.083 Cl
ATOM     11  C   UNL     1      -3.774  -1.395  -0.867  0.00  0.00    +0.011 A 
ATOM     12  C   UNL     1      -3.280  -2.095  -1.963  0.00  0.00    +0.001 A 
ATOM     13  C   UNL     1      -2.110  -1.672  -2.586  0.00  0.00    -0.000 A 
ATOM     14  C   UNL     1      -1.366  -0.774  -1.866  0.00  0.00    -0.003 A 
ENDBRANCH   2   8
BRANCH   1  15
ATOM     15  C   UNL     1       0.799   1.402  -1.892  0.00  0.00    +0.339 C 
ATOM     16  O   UNL     1       1.798   1.216  -2.607  0.00  0.00    -0.245 OA
BRANCH  15  17
ATOM     17  O   UNL     1       0.386   2.739  -1.837  0.00  0.00    -0.446 OA
BRANCH  17  19
ATOM     18  C   UNL     1       1.911   4.218  -0.863  0.00  0.00    +0.051 C 
ATOM     19  C   UNL     1       1.263   3.826  -2.106  0.00  0.00    +0.209 C 
ENDBRANCH  17  19
ENDBRANCH  15  17
ENDBRANCH   1  15
BRANCH   3  20
ATOM     20  C   UNL     1      -1.712   0.219   2.344  0.00  0.00    +0.339 C 
ATOM     21  O   UNL     1      -1.858   1.160   3.181  0.00  0.00    -0.245 OA
BRANCH  20  22
ATOM     22  O   UNL     1      -2.181  -1.041   2.716  0.00  0.00    -0.442 OA
ATOM     23  C   UNL     1      -2.479  -1.377   4.069  0.00  0.00    +0.256 C 
ENDBRANCH  20  22
ENDBRANCH   3  20
BRANCH   7  24
ATOM     24  C   UNL     1       2.429  -0.796  -0.983  0.00  0.00    +0.185 C 
BRANCH  24  25
ATOM     25  O   UNL     1       2.405  -2.135  -0.549  0.00  0.00    -0.346 OA
BRANCH  25  26
ATOM     26  C   UNL     1       3.545  -2.784  -1.019  0.00  0.00    +0.163 C 
BRANCH  26  27
ATOM     27  C   UNL     1       4.399  -3.100   0.175  0.00  0.00    +0.141 C 
ATOM     28  N   UNL     1       5.250  -1.958   0.502  0.00  0.00    -0.129 NA
ENDBRANCH  26  27
ENDBRANCH  25  26
ENDBRANCH  24  25
ENDBRANCH   7  24
TORSDOF 10
