REMARK  Name = 
REMARK  0 active torsions:
REMARK  status: ('A' for Active; 'I' for Inactive)
REMARK                            x       y       z     vdW  Elec       q    Type
REMARK                         _______ _______ _______ _____ _____    ______ ____
ROOT
ATOM      1  C   UNL     1      -0.003   2.691   0.673  0.00  0.00    +0.137 C 
ATOM      2  N   UNL     1       0.125   1.353   0.131  0.00  0.00    -0.263 N 
ATOM      3  C   UNL     1       1.323   0.833  -0.229  0.00  0.00    +0.335 A 
ATOM      4  O   UNL     1       2.259   1.611  -0.492  0.00  0.00    -0.246 OA
ATOM      5  N   UNL     1       1.480  -0.513  -0.197  0.00  0.00    -0.245 N 
ATOM      6  C   UNL     1       2.786  -1.103  -0.361  0.00  0.00    +0.138 C 
ATOM      7  C   UNL     1       0.442  -1.318   0.137  0.00  0.00    +0.285 A 
ATOM      8  O   UNL     1       0.616  -2.458   0.659  0.00  0.00    -0.265 OA
ATOM      9  C   UNL     1      -0.840  -0.789   0.076  0.00  0.00    +0.173 A 
ATOM     10  N   UNL     1      -2.014  -1.367  -0.189  0.00  0.00    -0.216 NA
ATOM     11  C   UNL     1      -2.883  -0.348  -0.378  0.00  0.00    +0.200 A 
ATOM     12  N   UNL     1      -2.300   0.824  -0.027  0.00  0.00    -0.205 NA
ATOM     13  C   UNL     1      -0.991   0.585   0.196  0.00  0.00    +0.172 A 
ENDROOT
TORSDOF 0
