REMARK  Name = 
REMARK  3 active torsions:
REMARK  status: ('A' for Active; 'I' for Inactive)
REMARK    1  A    between atoms: C_2  and  C_3
REMARK    2  A    between atoms: C_3  and  C_4
REMARK    3  A    between atoms: C_9  and  O_10
REMARK                            x       y       z     vdW  Elec       q    Type
REMARK                         _______ _______ _______ _____ _____    ______ ____
ROOT
ATOM      1  C   UNL     1       1.110  -0.058   0.342  0.00  0.00    -0.015 A 
ATOM      2  C   UNL     1       0.061   0.759  -0.045  0.00  0.00    +0.036 A 
ATOM      3  C   UNL     1      -1.246   0.317   0.122  0.00  0.00    +0.177 A 
ATOM      4  C   UNL     1      -1.508  -1.021   0.387  0.00  0.00    +0.229 A 
ATOM      5  O   UNL     1      -2.651  -1.617  -0.118  0.00  0.00    -0.283 OA
ATOM      6  C   UNL     1      -0.428  -1.831   0.701  0.00  0.00    +0.045 A 
ATOM      7  C   UNL     1       0.768  -1.208   1.040  0.00  0.00    -0.000 A 
ENDROOT
BRANCH   3   8
ATOM      8  O   UNL     1      -2.317   1.125  -0.191  0.00  0.00    -0.468 OA
ATOM      9  C   UNL     1      -3.364   0.595  -0.962  0.00  0.00    +0.253 C 
ENDBRANCH   3   8
BRANCH   1  10
ATOM     10  C   UNL     1       2.509   0.389   0.443  0.00  0.00    +0.052 C 
BRANCH  10  12
ATOM     11  C   UNL     1       4.153   1.246  -1.155  0.00  0.00    -0.005 C 
ATOM     12  C   UNL     1       2.913   1.306  -0.655  0.00  0.00    -0.021 C 
ENDBRANCH  10  12
ENDBRANCH   1  10
TORSDOF 3
