REMARK  Name = 
REMARK  2 active torsions:
REMARK  status: ('A' for Active; 'I' for Inactive)
REMARK    1  A    between atoms: C_24  and  C_25
REMARK    2  A    between atoms: C_25  and  C_27
REMARK                            x       y       z     vdW  Elec       q    Type
REMARK                         _______ _______ _______ _____ _____    ______ ____
ROOT
ATOM      1  C   UNL     1       2.287  -0.105   2.991  0.00  0.00    +0.000 C 
ATOM      2  C   UNL     1       3.196   0.535   1.805  0.00  0.00    +0.007 C 
ATOM      3  C   UNL     1       3.044  -0.865   0.860  0.00  0.00    +0.060 C 
ATOM      4  C   UNL     1       1.924  -0.320  -0.156  0.00  0.00    +0.009 C 
ATOM      5  C   UNL     1       0.980   0.108   1.077  0.00  0.00    +0.002 C 
ATOM      6  C   UNL     1      -0.086   0.857  -0.006  0.00  0.00    +0.020 C 
ATOM      7  C   UNL     1      -0.850  -0.522  -0.287  0.00  0.00    +0.102 C 
ATOM      8  C   UNL     1      -0.040  -1.194  -1.551  0.00  0.00    +0.166 C 
ATOM      9  O   UNL     1       0.447   0.125  -2.132  0.00  0.00    -0.222 OA
ATOM     10 CL   UNL     1      -0.785  -1.653   1.011  0.00  0.00    -0.113 Cl
ATOM     11  C   UNL     1      -2.214  -0.308  -0.786  0.00  0.00    +0.052 C 
ATOM     12  C   UNL     1      -2.973   0.775  -0.148  0.00  0.00    -0.005 C 
ATOM     13  C   UNL     1      -4.230   0.948  -0.428  0.00  0.00    +0.036 C 
ATOM     14  C   UNL     1      -5.016  -0.296  -0.500  0.00  0.00    +0.195 C 
ATOM     15  C   UNL     1      -4.287  -1.524  -0.192  0.00  0.00    +0.038 C 
ATOM     16  O   UNL     1      -6.266  -0.273  -0.407  0.00  0.00    -0.287 OA
ATOM     17  C   UNL     1      -2.051   2.100  -0.035  0.00  0.00    +0.180 C 
ATOM     18  F   UNL     1      -2.959   2.728   0.990  0.00  0.00    -0.233 F 
ATOM     19  C   UNL     1      -2.310  -0.219  -2.307  0.00  0.00    +0.010 C 
ATOM     20  C   UNL     1      -2.984  -1.560  -0.478  0.00  0.00    -0.018 C 
ATOM     21  C   UNL     1      -1.133   1.351   1.130  0.00  0.00    +0.041 C 
ATOM     22  C   UNL     1       2.414   0.805  -0.921  0.00  0.00    +0.001 C 
ATOM     23  C   UNL     1       1.328  -1.482  -0.694  0.00  0.00    +0.035 C 
ATOM     24  C   UNL     1       1.953   1.377   1.224  0.00  0.00    +0.000 C 
ENDROOT
BRANCH   3  25
ATOM     25  C   UNL     1       4.288  -0.438  -0.066  0.00  0.00    +0.183 C 
ATOM     26  O   UNL     1       4.248  -0.893  -1.210  0.00  0.00    -0.293 OA
BRANCH  25  27
ATOM     27  C   UNL     1       5.645  -0.593   0.545  0.00  0.00    +0.246 C 
ATOM     28  O   UNL     1       6.429   0.534   0.423  0.00  0.00    -0.212 OA
ENDBRANCH  25  27
ENDBRANCH   3  25
TORSDOF 2
