REMARK  Name = 
REMARK  10 active torsions:
REMARK  status: ('A' for Active; 'I' for Inactive)
REMARK    1  A    between atoms: C_2  and  C_3
REMARK    2  A    between atoms: C_3  and  C_4
REMARK    3  A    between atoms: N_6  and  C_7
REMARK    4  A    between atoms: C_10  and  O_11
REMARK    5  A    between atoms: O_11  and  C_12
REMARK    6  A    between atoms: C_12  and  C_13
REMARK    7  A    between atoms: C_13  and  C_15
REMARK    8  A    between atoms: C_15  and  N_16
REMARK    9  A    between atoms: N_16  and  C_17
REMARK   10  A    between atoms: C_20  and  C_21
REMARK                            x       y       z     vdW  Elec       q    Type
REMARK                         _______ _______ _______ _____ _____    ______ ____
ROOT
ATOM      1  C   UNL     1      -2.000   0.613   0.370  0.00  0.00    +0.074 A 
ATOM      2  C   UNL     1      -2.020  -0.740   0.066  0.00  0.00    +0.022 A 
ATOM      3  C   UNL     1      -0.842  -1.452  -0.133  0.00  0.00    +0.070 A 
ATOM      4  C   UNL     1       0.397  -0.846   0.045  0.00  0.00    +0.141 A 
ATOM      5  C   UNL     1       0.357   0.373   0.713  0.00  0.00    +0.038 A 
ATOM      6  C   UNL     1      -0.777   1.171   0.722  0.00  0.00    +0.020 A 
ENDROOT
BRANCH   3   7
ATOM      7  C   UNL     1      -0.850  -2.900  -0.381  0.00  0.00    +0.176 C 
ATOM      8  O   UNL     1      -1.219  -3.608   0.604  0.00  0.00    -0.291 OA
ATOM      9  C   UNL     1      -1.422  -3.311  -1.702  0.00  0.00    +0.077 C 
ENDBRANCH   3   7
BRANCH   1  11
ATOM     10  C   UNL     1      -4.368   0.894  -0.168  0.00  0.00    +0.246 C 
ATOM     11  N   UNL     1      -3.071   1.452  -0.037  0.00  0.00    -0.179 NA
ATOM     12  O   UNL     1      -4.522  -0.350  -0.234  0.00  0.00    -0.273 OA
BRANCH  10  13
ATOM     13  C   UNL     1      -5.590   1.746  -0.080  0.00  0.00    +0.087 C 
BRANCH  13  15
ATOM     14  C   UNL     1      -4.581   3.439  -0.237  0.00  0.00    +0.001 C 
ATOM     15  C   UNL     1      -5.158   3.201  -0.201  0.00  0.00    +0.010 C 
ENDBRANCH  13  15
ENDBRANCH  10  13
ENDBRANCH   1  11
BRANCH   4  16
ATOM     16  O   UNL     1       1.402  -1.188  -0.842  0.00  0.00    -0.473 OA
BRANCH  16  17
ATOM     17  C   UNL     1       2.402  -2.134  -0.631  0.00  0.00    +0.240 C 
BRANCH  17  18
ATOM     18  C   UNL     1       3.381  -1.450   0.554  0.00  0.00    +0.213 C 
ATOM     19  O   UNL     1       4.657  -1.975  -0.149  0.00  0.00    -0.218 OA
BRANCH  18  20
ATOM     20  C   UNL     1       3.479   0.005  -0.288  0.00  0.00    +0.125 C 
BRANCH  20  21
ATOM     21  N   UNL     1       4.139   0.806   0.743  0.00  0.00    -0.217 NA
BRANCH  21  22
ATOM     22  C   UNL     1       5.006   1.730   0.055  0.00  0.00    +0.073 C 
ATOM     23  C   UNL     1       6.458   1.351   0.150  0.00  0.00    +0.019 C 
ATOM     24  C   UNL     1       4.742   3.170   0.387  0.00  0.00    +0.019 C 
ENDBRANCH  21  22
ENDBRANCH  20  21
ENDBRANCH  18  20
ENDBRANCH  17  18
ENDBRANCH  16  17
ENDBRANCH   4  16
TORSDOF 10
