REMARK  Name = 
REMARK  4 active torsions:
REMARK  status: ('A' for Active; 'I' for Inactive)
REMARK    1  A    between atoms: C_2  and  C_3
REMARK    2  A    between atoms: C_2  and  C_6
REMARK    3  A    between atoms: C_10  and  O_11
REMARK    4  A    between atoms: O_11  and  C_12
REMARK                            x       y       z     vdW  Elec       q    Type
REMARK                         _______ _______ _______ _____ _____    ______ ____
ROOT
ATOM      1  C   UNL     1      -1.885   0.287   0.046  0.00  0.00    -0.009 A 
ATOM      2  C   UNL     1      -0.841   0.112  -0.817  0.00  0.00    +0.034 A 
ATOM      3  C   UNL     1       0.253  -0.593  -0.327  0.00  0.00    +0.145 A 
ATOM      4  C   UNL     1       0.315  -0.897   1.028  0.00  0.00    +0.037 A 
ATOM      5  C   UNL     1      -0.596  -0.286   1.882  0.00  0.00    +0.003 A 
ATOM      6  C   UNL     1      -1.754   0.301   1.380  0.00  0.00    -0.004 A 
ENDROOT
BRANCH   1   8
ATOM      7  C   UNL     1      -3.201   2.261   0.346  0.00  0.00    +0.017 C 
ATOM      8  C   UNL     1      -3.238   0.899  -0.617  0.00  0.00    +0.126 C 
BRANCH   8   9
ATOM      9  C   UNL     1      -4.210   0.049   0.378  0.00  0.00    +0.368 C 
ATOM     10  O   UNL     1      -4.088  -1.304   0.044  0.00  0.00    -0.245 OA
ATOM     11  O   UNL     1      -4.255   0.351   1.556  0.00  0.00    -0.245 OA
ENDBRANCH   8   9
ENDBRANCH   1   8
BRANCH   3  12
ATOM     12  O   UNL     1       1.371  -0.731  -1.158  0.00  0.00    -0.454 OA
BRANCH  12  13
ATOM     13  C   UNL     1       2.616  -0.408  -0.617  0.00  0.00    +0.145 A 
ATOM     14  C   UNL     1       3.371  -1.412  -0.049  0.00  0.00    +0.037 A 
ATOM     15  C   UNL     1       4.534  -1.051   0.586  0.00  0.00    +0.003 A 
ATOM     16  C   UNL     1       4.881   0.269   0.683  0.00  0.00    +0.000 A 
ATOM     17  C   UNL     1       3.960   1.262   0.396  0.00  0.00    +0.003 A 
ATOM     18  C   UNL     1       2.767   0.891  -0.176  0.00  0.00    +0.037 A 
ENDBRANCH  12  13
ENDBRANCH   3  12
TORSDOF 4
