REMARK  Name = 
REMARK  7 active torsions:
REMARK  status: ('A' for Active; 'I' for Inactive)
REMARK    1  A    between atoms: C_2  and  C_12
REMARK    2  A    between atoms: N_3  and  C_4
REMARK    3  A    between atoms: C_15  and  O_16
REMARK    4  A    between atoms: O_16  and  C_17
REMARK    5  A    between atoms: C_20  and  O_21
REMARK    6  A    between atoms: O_21  and  C_22
REMARK    7  A    between atoms: C_22  and  C_23
REMARK                            x       y       z     vdW  Elec       q    Type
REMARK                         _______ _______ _______ _____ _____    ______ ____
ROOT
ATOM      1  C   UNL     1       0.097   0.340   0.123  0.00  0.00    +0.059 A 
ATOM      2  C   UNL     1      -1.078   0.940  -0.313  0.00  0.00    +0.045 A 
ATOM      3  C   UNL     1      -2.298   0.280  -0.234  0.00  0.00    +0.173 A 
ATOM      4  C   UNL     1      -2.212  -1.105  -0.158  0.00  0.00    +0.178 A 
ATOM      5  C   UNL     1      -1.014  -1.718   0.188  0.00  0.00    +0.040 A 
ATOM      6  C   UNL     1       0.071  -0.961   0.611  0.00  0.00    +0.008 A 
ENDROOT
BRANCH   1   8
ATOM      7  O   UNL     1       1.442   2.041  -0.816  0.00  0.00    -0.268 OA
ATOM      8  C   UNL     1       1.342   1.079   0.003  0.00  0.00    +0.269 C 
ATOM      9  N   UNL     1       2.531   0.721   0.682  0.00  0.00    -0.174 NA
BRANCH   9  10
ATOM     10  C   UNL     1       3.833   0.836   0.094  0.00  0.00    +0.098 A 
ATOM     11  C   UNL     1       4.832   1.465   0.826  0.00  0.00    +0.093 A 
ATOM     12 CL   UNL     1       4.365   2.952   1.639  0.00  0.00    -0.079 Cl
ATOM     13  C   UNL     1       6.139   0.999   0.838  0.00  0.00    +0.112 A 
ATOM     14  N   UNL     1       6.467  -0.119   0.145  0.00  0.00    -0.240 NA
ATOM     15  C   UNL     1       5.584  -0.621  -0.753  0.00  0.00    +0.112 A 
ATOM     16  C   UNL     1       4.250  -0.264  -0.645  0.00  0.00    +0.093 A 
ATOM     17 CL   UNL     1       3.114  -0.856  -1.853  0.00  0.00    -0.079 Cl
ENDBRANCH   9  10
ENDBRANCH   1   8
BRANCH   3  18
ATOM     18  O   UNL     1      -3.459   0.946   0.172  0.00  0.00    -0.472 OA
BRANCH  18  19
ATOM     19  C   UNL     1      -4.544   1.202  -0.684  0.00  0.00    +0.205 C 
BRANCH  19  20
ATOM     20  C   UNL     1      -5.750   1.477   0.205  0.00  0.00    +0.044 C 
ATOM     21  C   UNL     1      -5.855   0.582   1.468  0.00  0.00    +0.004 C 
ATOM     22  C   UNL     1      -5.504   2.072   1.560  0.00  0.00    +0.004 C 
ENDBRANCH  19  20
ENDBRANCH  18  19
ENDBRANCH   3  18
BRANCH   4  23
ATOM     23  O   UNL     1      -3.392  -1.812   0.094  0.00  0.00    -0.421 OA
BRANCH  23  24
ATOM     24  C   UNL     1      -3.372  -3.153   0.533  0.00  0.00    +0.509 C 
ATOM     25  F   UNL     1      -2.675  -3.334   1.700  0.00  0.00    -0.155 F 
ATOM     26  F   UNL     1      -2.913  -3.991  -0.449  0.00  0.00    -0.155 F 
ENDBRANCH  23  24
ENDBRANCH   4  23
TORSDOF 7
