REMARK  Name = 
REMARK  7 active torsions:
REMARK  status: ('A' for Active; 'I' for Inactive)
REMARK    1  A    between atoms: O_2  and  C_3
REMARK    2  A    between atoms: C_3  and  C_4
REMARK    3  A    between atoms: C_3  and  C_10
REMARK    4  A    between atoms: C_3  and  C_16
REMARK    5  A    between atoms: C_16  and  O_17
REMARK    6  A    between atoms: C_16  and  C_26
REMARK    7  A    between atoms: O_17  and  C_18
REMARK                            x       y       z     vdW  Elec       q    Type
REMARK                         _______ _______ _______ _____ _____    ______ ____
ROOT
ATOM      1  C   UNL     1      -1.458   0.290  -0.779  0.00  0.00    +0.178 C 
ENDROOT
BRANCH   1   2
ATOM      2  C   UNL     1      -1.594   0.794   0.539  0.00  0.00    +0.010 A 
ATOM      3  C   UNL     1      -2.347   0.066   1.459  0.00  0.00    -0.002 A 
ATOM      4  C   UNL     1      -2.740   0.558   2.672  0.00  0.00    -0.000 A 
ATOM      5  C   UNL     1      -2.671   1.924   2.868  0.00  0.00    -0.000 A 
ATOM      6  C   UNL     1      -1.715   2.593   2.114  0.00  0.00    -0.000 A 
ATOM      7  C   UNL     1      -1.045   1.948   1.085  0.00  0.00    -0.002 A 
ENDBRANCH   1   2
BRANCH   1   8
ATOM      8  C   UNL     1      -1.821  -1.165  -0.815  0.00  0.00    +0.010 A 
ATOM      9  C   UNL     1      -1.006  -2.135  -0.297  0.00  0.00    -0.002 A 
ATOM     10  C   UNL     1      -1.394  -3.446  -0.455  0.00  0.00    -0.000 A 
ATOM     11  C   UNL     1      -2.564  -3.722  -1.142  0.00  0.00    -0.000 A 
ATOM     12  C   UNL     1      -3.571  -2.788  -1.060  0.00  0.00    -0.000 A 
ATOM     13  C   UNL     1      -3.174  -1.461  -0.935  0.00  0.00    -0.002 A 
ENDBRANCH   1   8
BRANCH   1  15
ATOM     14  C   UNL     1      -2.740   0.583  -2.402  0.00  0.00    +0.175 C 
ATOM     15  O   UNL     1      -2.147   0.844  -1.803  0.00  0.00    -0.344 OA
ENDBRANCH   1  15
BRANCH   1  16
ATOM     16  C   UNL     1       0.142   0.235  -1.231  0.00  0.00    +0.303 C 
BRANCH  16  17
ATOM     17  C   UNL     1       0.331   1.865  -1.243  0.00  0.00    +0.407 C 
ATOM     18  O   UNL     1       1.604   2.069  -1.806  0.00  0.00    -0.242 OA
ATOM     19  O   UNL     1      -0.532   2.471  -1.918  0.00  0.00    -0.242 OA
ENDBRANCH  16  17
BRANCH  16  20
ATOM     20  O   UNL     1       0.675   0.141   0.238  0.00  0.00    -0.435 OA
BRANCH  20  21
ATOM     21  C   UNL     1       2.068   0.042   0.299  0.00  0.00    +0.320 A 
ATOM     22  N   UNL     1       2.872   1.056   0.703  0.00  0.00    -0.199 NA
ATOM     23  C   UNL     1       4.177   0.879   0.369  0.00  0.00    +0.065 A 
ATOM     24  C   UNL     1       5.119   2.038   0.291  0.00  0.00    +0.052 C 
ATOM     25  C   UNL     1       4.728  -0.329   0.756  0.00  0.00    +0.030 A 
ATOM     26  C   UNL     1       3.896  -1.416   0.692  0.00  0.00    +0.065 A 
ATOM     27  C   UNL     1       4.341  -2.768   1.134  0.00  0.00    +0.052 C 
ATOM     28  N   UNL     1       2.564  -1.167   0.666  0.00  0.00    -0.199 NA
ENDBRANCH  20  21
ENDBRANCH  16  20
ENDBRANCH   1  16
TORSDOF 7
