REMARK  Name = 
REMARK  8 active torsions:
REMARK  status: ('A' for Active; 'I' for Inactive)
REMARK    1  A    between atoms: O_2  and  N_3
REMARK    2  A    between atoms: C_4  and  C_5
REMARK    3  A    between atoms: C_4  and  C_25
REMARK    4  A    between atoms: N_7  and  CA_8
REMARK    5  A    between atoms: CA_12  and  C_13
REMARK    6  A    between atoms: C_16  and  C_17
REMARK    7  A    between atoms: C_17  and  O_18
REMARK    8  A    between atoms: O_18  and  C_19
REMARK                            x       y       z     vdW  Elec       q    Type
REMARK                         _______ _______ _______ _____ _____    ______ ____
ROOT
ATOM      1  CA  UNL     1      -0.179  -1.540  -0.858  0.00  0.00    +0.201 C 
ATOM      2  C   UNL     1       0.349   0.037  -0.656  0.00  0.00    +0.157 C 
ATOM      3  N   UNL     1       1.672  -0.716  -0.670  0.00  0.00    -0.242 N 
ATOM      4  CA  UNL     1       2.782   0.185  -0.596  0.00  0.00    +0.131 C 
ATOM      5  C   UNL     1       2.815   1.274   0.161  0.00  0.00    +0.030 C 
ATOM      6  C   UNL     1       1.951   1.310   1.383  0.00  0.00    +0.086 C 
ATOM      7  S   UNL     1       0.482   0.243   1.238  0.00  0.00    -0.114 S 
ATOM      8  C   UNL     1       1.144  -1.899  -0.022  0.00  0.00    +0.253 C 
ATOM      9  O   UNL     1       1.656  -3.055  -0.168  0.00  0.00    -0.273 OA
ENDROOT
BRANCH   4  10
ATOM     10  C   UNL     1       3.772  -0.140  -1.613  0.00  0.00    +0.401 C 
ATOM     11  OXT UNL     1       3.950   0.831  -2.608  0.00  0.00    -0.239 OA
ATOM     12  O   UNL     1       4.157  -1.294  -1.871  0.00  0.00    -0.239 OA
ENDBRANCH   4  10
BRANCH   1  14
ATOM     13  C   UNL     1      -2.461  -1.075  -0.263  0.00  0.00    +0.288 C 
ATOM     14  N   UNL     1      -1.221  -1.489   0.327  0.00  0.00    -0.190 NA
ATOM     15  O   UNL     1      -2.621  -0.952  -1.517  0.00  0.00    -0.267 OA
BRANCH  13  17
ATOM     16  N   UNL     1      -4.239  -1.581   1.108  0.00  0.00    -0.077 NA
ATOM     17  C   UNL     1      -3.626  -0.604   0.498  0.00  0.00    +0.192 C 
BRANCH  17  18
ATOM     18  C   UNL     1      -4.483   0.461  -0.069  0.00  0.00    +0.115 A 
ATOM     19  N   UNL     1      -5.841   0.463  -0.068  0.00  0.00    -0.220 NA
ATOM     20  C   UNL     1      -6.315   1.724  -0.094  0.00  0.00    +0.201 A 
ATOM     21  N   UNL     1      -7.563   2.230   0.395  0.00  0.00    -0.100 NA
ATOM     22  S   UNL     1      -5.248   2.419  -1.240  0.00  0.00    -0.048 S 
ATOM     23  C   UNL     1      -4.028   1.212  -1.156  0.00  0.00    +0.059 A 
ENDBRANCH  17  18
BRANCH  16  25
ATOM     24  C   UNL     1      -3.522  -2.478   2.891  0.00  0.00    +0.288 C 
ATOM     25  O   UNL     1      -3.481  -2.292   2.002  0.00  0.00    -0.373 OA
ENDBRANCH  16  25
ENDBRANCH  13  17
ENDBRANCH   1  14
BRANCH   5  26
ATOM     26  C   UNL     1       4.150   1.942   0.314  0.00  0.00    +0.233 C 
BRANCH  26  27
ATOM     27  O   UNL     1       5.154   0.970   0.193  0.00  0.00    -0.444 OA
BRANCH  27  28
ATOM     28  C   UNL     1       6.502   1.208   0.064  0.00  0.00    +0.318 C 
ATOM     29  O   UNL     1       6.859   2.412  -0.110  0.00  0.00    -0.250 OA
ATOM     30  C   UNL     1       7.431   0.195  -0.533  0.00  0.00    +0.121 C 
ENDBRANCH  27  28
ENDBRANCH  26  27
ENDBRANCH   5  26
TORSDOF 8
