REMARK  Name = 
REMARK  8 active torsions:
REMARK  status: ('A' for Active; 'I' for Inactive)
REMARK    1  A    between atoms: C_2  and  O_4
REMARK    2  A    between atoms: O_4  and  C_5
REMARK    3  A    between atoms: C_9  and  O_10
REMARK    4  A    between atoms: O_10  and  C_11
REMARK    5  A    between atoms: C_11  and  C_12
REMARK    6  A    between atoms: C_12  and  C_14
REMARK    7  A    between atoms: C_14  and  N_15
REMARK    8  A    between atoms: N_15  and  C_16
REMARK                            x       y       z     vdW  Elec       q    Type
REMARK                         _______ _______ _______ _____ _____    ______ ____
ROOT
ATOM      1  C   UNL     1      -2.816  -0.379  -0.005  0.00  0.00    +0.140 A 
ATOM      2  C   UNL     1      -1.980  -0.854  -1.011  0.00  0.00    +0.011 A 
ATOM      3  C   UNL     1      -2.586  -1.753  -2.009  0.00  0.00    +0.034 C 
ATOM      4  C   UNL     1      -0.690  -0.366  -1.188  0.00  0.00    +0.011 A 
ATOM      5  C   UNL     1       0.007  -0.490  -2.507  0.00  0.00    +0.034 C 
ATOM      6  C   UNL     1      -0.154   0.526  -0.265  0.00  0.00    +0.134 A 
ATOM      7  C   UNL     1      -0.813   0.550   0.960  0.00  0.00    +0.035 A 
ATOM      8  C   UNL     1      -2.145   0.171   1.085  0.00  0.00    +0.015 A 
ATOM      9  C   UNL     1      -2.984   0.597   2.248  0.00  0.00    +0.034 C 
ENDROOT
BRANCH   1  10
ATOM     10  O   UNL     1      -4.136  -0.021  -0.308  0.00  0.00    -0.425 OA
BRANCH  10  12
ATOM     11  C   UNL     1      -6.430   0.475   0.319  0.00  0.00    +0.122 C 
ATOM     12  C   UNL     1      -5.167  -0.216   0.615  0.00  0.00    +0.322 C 
ATOM     13  O   UNL     1      -5.141  -1.358   1.166  0.00  0.00    -0.250 OA
ENDBRANCH  10  12
ENDBRANCH   1  10
BRANCH   6  14
ATOM     14  O   UNL     1       0.610   1.607  -0.716  0.00  0.00    -0.473 OA
BRANCH  14  15
ATOM     15  C   UNL     1       1.870   1.438  -1.341  0.00  0.00    +0.239 C 
BRANCH  15  16
ATOM     16  C   UNL     1       2.783   1.147   0.043  0.00  0.00    +0.213 C 
ATOM     17  O   UNL     1       3.990   1.914  -0.554  0.00  0.00    -0.218 OA
BRANCH  16  18
ATOM     18  C   UNL     1       3.349  -0.307  -0.589  0.00  0.00    +0.125 C 
BRANCH  18  19
ATOM     19  N   UNL     1       4.234  -0.760   0.473  0.00  0.00    -0.217 NA
BRANCH  19  20
ATOM     20  C   UNL     1       5.589  -0.501   0.018  0.00  0.00    +0.073 C 
ATOM     21  C   UNL     1       6.335  -1.818  -0.147  0.00  0.00    +0.019 C 
ATOM     22  C   UNL     1       6.275   0.396   1.013  0.00  0.00    +0.019 C 
ENDBRANCH  19  20
ENDBRANCH  18  19
ENDBRANCH  16  18
ENDBRANCH  15  16
ENDBRANCH  14  15
ENDBRANCH   6  14
TORSDOF 8
