REMARK  Name = 
REMARK  6 active torsions:
REMARK  status: ('A' for Active; 'I' for Inactive)
REMARK    1  A    between atoms: C_2  and  C_4
REMARK    2  A    between atoms: C_7  and  C_8
REMARK    3  A    between atoms: N_10  and  CA_11
REMARK    4  A    between atoms: CA_11  and  CB_12
REMARK    5  A    between atoms: CA_11  and  C_19
REMARK    6  A    between atoms: CB_12  and  CG_13
REMARK                            x       y       z     vdW  Elec       q    Type
REMARK                         _______ _______ _______ _____ _____    ______ ____
ROOT
ATOM      1  C   UNK A   0       0.290   0.382   0.046  0.00  0.00    +0.241 C 
ATOM      2  N   PHE A   1      -0.330   0.059  -1.091  0.00  0.00    -0.195 NA
ATOM      3  O   UNK A   0      -0.453   1.217   0.551  0.00  0.00    -0.273 OA
ENDROOT
BRANCH   1   7
ATOM      4  C   UNK A   0       4.218   0.852   0.375  0.00  0.00    +0.000 C 
ATOM      5  C   UNK A   0       3.681  -0.521   1.075  0.00  0.00    +0.000 C 
ATOM      6  C   UNK A   0       2.204  -0.472   1.012  0.00  0.00    +0.009 C 
ATOM      7  C   UNK A   0       1.782   0.908   0.233  0.00  0.00    +0.078 C 
ATOM      8  C   UNK A   0       2.325   0.353  -1.209  0.00  0.00    +0.009 C 
ATOM      9  C   UNK A   0       3.821   0.328  -1.121  0.00  0.00    +0.000 C 
BRANCH   4  11
ATOM     10  C   UNK A   0       6.529   1.275  -0.402  0.00  0.00    +0.000 C 
ATOM     11  C   UNK A   0       5.746   0.296   0.279  0.00  0.00    +0.000 C 
ATOM     12  C   UNK A   0       5.727  -1.073  -0.270  0.00  0.00    +0.000 C 
ENDBRANCH   4  11
ENDBRANCH   1   7
BRANCH   2  13
ATOM     13  CA  PHE A   1      -1.174  -1.273  -1.026  0.00  0.00    +0.202 C 
BRANCH  13  14
ATOM     14  C   PHE A   1      -1.631  -1.333   0.507  0.00  0.00    +0.385 C 
ATOM     15  OXT PHE A   1      -1.570  -0.603   1.531  0.00  0.00    -0.244 OA
ATOM     16  O   PHE A   1      -1.530  -2.564   0.852  0.00  0.00    -0.244 OA
ENDBRANCH  13  14
BRANCH  13  17
ATOM     17  CB  PHE A   1      -2.543  -0.549  -1.605  0.00  0.00    +0.060 C 
BRANCH  17  18
ATOM     18  CG  PHE A   1      -3.400  -0.091  -0.555  0.00  0.00    -0.020 A 
ATOM     19  CD2 PHE A   1      -4.284  -0.856   0.205  0.00  0.00    -0.004 A 
ATOM     20  CE2 PHE A   1      -4.980  -0.215   1.229  0.00  0.00    -0.000 A 
ATOM     21  CZ  PHE A   1      -5.611   0.948   0.836  0.00  0.00    -0.000 A 
ATOM     22  CE1 PHE A   1      -5.003   1.696  -0.162  0.00  0.00    -0.000 A 
ATOM     23  CD1 PHE A   1      -3.815   1.235  -0.692  0.00  0.00    -0.004 A 
ENDBRANCH  17  18
ENDBRANCH  13  17
ENDBRANCH   2  13
TORSDOF 6
