REMARK  Name = 
REMARK  5 active torsions:
REMARK  status: ('A' for Active; 'I' for Inactive)
REMARK    1  A    between atoms: C_2  and  C_4
REMARK    2  A    between atoms: C_4  and  C_5
REMARK    3  A    between atoms: C_5  and  C_7
REMARK    4  A    between atoms: C_5  and  C_11
REMARK    5  A    between atoms: C_7  and  C_8
REMARK                            x       y       z     vdW  Elec       q    Type
REMARK                         _______ _______ _______ _____ _____    ______ ____
ROOT
ATOM      1  C   UNL     1       0.015   0.419  -0.477  0.00  0.00    +0.240 C 
ATOM      2  O   UNL     1      -0.800   0.654  -1.598  0.00  0.00    -0.213 OA
ENDROOT
BRANCH   1   3
ATOM      3  C   UNL     1       0.394   1.781   0.018  0.00  0.00    +0.393 C 
ATOM      4  O   UNL     1       0.735   2.719  -0.944  0.00  0.00    -0.243 OA
ATOM      5  O   UNL     1       0.097   2.195   1.167  0.00  0.00    -0.243 OA
ENDBRANCH   1   3
BRANCH   1   6
ATOM      6  C   UNL     1      -0.696  -0.269   0.636  0.00  0.00    +0.156 C 
BRANCH   6   8
ATOM      7  O   UNL     1      -2.728  -0.356  -0.682  0.00  0.00    -0.246 OA
ATOM      8  C   UNL     1      -2.075  -0.676   0.345  0.00  0.00    +0.368 C 
ATOM      9  O   UNL     1      -2.584  -1.745   1.091  0.00  0.00    -0.246 OA
ENDBRANCH   6   8
ENDBRANCH   1   6
BRANCH   1  10
ATOM     10  C   UNL     1       1.254  -0.247  -0.955  0.00  0.00    +0.156 C 
BRANCH  10  11
ATOM     11  C   UNL     1       1.837  -1.255  -0.076  0.00  0.00    +0.368 C 
ATOM     12  O   UNL     1       3.207  -1.500  -0.231  0.00  0.00    -0.246 OA
ATOM     13  O   UNL     1       1.345  -1.719   0.972  0.00  0.00    -0.246 OA
ENDBRANCH  10  11
ENDBRANCH   1  10
TORSDOF 5
