REMARK  Name = 
REMARK  3 active torsions:
REMARK  status: ('A' for Active; 'I' for Inactive)
REMARK    1  A    between atoms: C_8  and  C_9
REMARK    2  A    between atoms: C_9  and  O_10
REMARK    3  A    between atoms: O_10  and  S_11
REMARK                            x       y       z     vdW  Elec       q    Type
REMARK                         _______ _______ _______ _____ _____    ______ ____
ROOT
ATOM      1  C   UNL     1      -1.490  -1.805   1.780  0.00  0.00    +0.061 C 
ATOM      2  C   UNL     1      -2.266  -1.430   0.778  0.00  0.00    +0.187 C 
ATOM      3  O   UNL     1      -2.654  -0.148   0.730  0.00  0.00    -0.332 OA
ATOM      4  C   UNL     1      -1.958   0.452  -0.440  0.00  0.00    +0.179 C 
ATOM      5  C   UNL     1      -2.203  -0.937  -1.425  0.00  0.00    +0.177 C 
ATOM      6  C   UNL     1      -0.699  -0.909  -2.078  0.00  0.00    +0.177 C 
ATOM      7  O   UNL     1      -0.207   0.323  -2.122  0.00  0.00    -0.328 OA
ATOM      8  C   UNL     1       0.342   0.883  -0.992  0.00  0.00    +0.247 C 
ATOM      9  O   UNL     1      -0.285   2.076  -0.856  0.00  0.00    -0.310 OA
ATOM     10  C   UNL     1      -0.410   2.205   0.488  0.00  0.00    +0.190 C 
ATOM     11  O   UNL     1      -0.393   1.053   1.146  0.00  0.00    -0.329 OA
ATOM     12  C   UNL     1       0.754   3.099   0.917  0.00  0.00    +0.061 C 
ATOM     13  C   UNL     1      -1.625   3.066   0.788  0.00  0.00    +0.061 C 
ATOM     14  C   UNL     1      -0.418  -0.047   0.121  0.00  0.00    +0.201 C 
ATOM     15  O   UNL     1      -1.727  -1.889  -0.354  0.00  0.00    -0.332 OA
ATOM     16  C   UNL     1      -3.561  -2.208   1.010  0.00  0.00    +0.061 C 
ENDROOT
BRANCH   8  17
ATOM     17  C   UNL     1       1.780   0.796  -0.789  0.00  0.00    +0.234 C 
BRANCH  17  18
ATOM     18  O   UNL     1       2.183  -0.527  -0.783  0.00  0.00    -0.204 OA
BRANCH  18  19
ATOM     19  S   UNL     1       3.444  -0.862   0.246  0.00  0.00    +0.187 S 
ATOM     20  O   UNL     1       4.487  -1.606  -0.560  0.00  0.00    -0.127 OA
ATOM     21  O   UNL     1       4.012   0.355   0.902  0.00  0.00    -0.127 OA
ATOM     22  N   UNL     1       2.894  -1.941   1.493  0.00  0.00    +0.063 NA
ENDBRANCH  18  19
ENDBRANCH  17  18
ENDBRANCH   8  17
TORSDOF 3
