REMARK  Name = 
REMARK  4 active torsions:
REMARK  status: ('A' for Active; 'I' for Inactive)
REMARK    1  A    between atoms: CA_2  and  C_3
REMARK    2  A    between atoms: CA_2  and  C_19
REMARK    3  A    between atoms: N_5  and  CA_6
REMARK    4  A    between atoms: CA_10  and  C_11
REMARK                            x       y       z     vdW  Elec       q    Type
REMARK                         _______ _______ _______ _____ _____    ______ ____
ROOT
ATOM      1  CA  UNL     1      -0.285  -0.630   1.432  0.00  0.00    +0.200 C 
ATOM      2  C   UNL     1      -1.174   0.823   1.386  0.00  0.00    +0.157 C 
ATOM      3  N   UNL     1      -2.233  -0.053   0.740  0.00  0.00    -0.241 N 
ATOM      4  CA  UNL     1      -3.334   0.680   0.246  0.00  0.00    +0.142 C 
ATOM      5  C   UNL     1      -3.301   1.960  -0.118  0.00  0.00    +0.066 C 
ATOM      6  C   UNL     1      -2.108   2.574  -0.778  0.00  0.00    +0.098 C 
ATOM      7 CL   UNL     1      -4.818   2.847  -0.194  0.00  0.00    -0.085 Cl
ATOM      8  S   UNL     1      -0.659   1.610  -0.274  0.00  0.00    -0.113 S 
ATOM      9  C   UNL     1      -1.347  -1.095   0.280  0.00  0.00    +0.253 C 
ATOM     10  O   UNL     1      -1.669  -2.332   0.342  0.00  0.00    -0.273 OA
ENDROOT
BRANCH   1  12
ATOM     11  C   UNL     1       1.129  -1.111  -0.492  0.00  0.00    +0.264 C 
ATOM     12  N   UNL     1       0.893  -0.155   0.448  0.00  0.00    -0.194 NA
ATOM     13  O   UNL     1       0.211  -1.181  -1.351  0.00  0.00    -0.271 OA
BRANCH  11  15
ATOM     14  N   UNL     1       2.757  -2.751  -0.372  0.00  0.00    -0.118 NA
ATOM     15  CA  UNL     1       2.613  -1.342  -1.143  0.00  0.00    +0.191 C 
BRANCH  15  16
ATOM     16  C   UNL     1       3.432  -0.548   0.057  0.00  0.00    +0.004 A 
ATOM     17  C   UNL     1       3.331   0.818  -0.189  0.00  0.00    -0.002 A 
ATOM     18  C   UNL     1       4.421   1.654  -0.011  0.00  0.00    -0.000 A 
ATOM     19  C   UNL     1       5.706   1.135  -0.002  0.00  0.00    -0.000 A 
ATOM     20  C   UNL     1       5.855  -0.245   0.065  0.00  0.00    -0.000 A 
ATOM     21  C   UNL     1       4.735  -1.026   0.001  0.00  0.00    -0.002 A 
ENDBRANCH  15  16
ENDBRANCH  11  15
ENDBRANCH   1  12
BRANCH   4  22
ATOM     22  C   UNL     1      -4.545  -0.101  -0.045  0.00  0.00    +0.402 C 
ATOM     23  OXT UNL     1      -4.568  -0.818  -1.242  0.00  0.00    -0.239 OA
ATOM     24  O   UNL     1      -5.040  -0.716   0.948  0.00  0.00    -0.239 OA
ENDBRANCH   4  22
TORSDOF 4
