REMARK  Name = 
REMARK  5 active torsions:
REMARK  status: ('A' for Active; 'I' for Inactive)
REMARK    1  A    between atoms: O_2  and  C_3
REMARK    2  A    between atoms: C_8  and  O_9
REMARK    3  A    between atoms: O_9  and  C_10
REMARK    4  A    between atoms: C_10  and  C_11
REMARK    5  A    between atoms: N_22  and  C_23
REMARK                            x       y       z     vdW  Elec       q    Type
REMARK                         _______ _______ _______ _____ _____    ______ ____
ROOT
ATOM      1  C   UNL     1      -0.018  -0.922   1.008  0.00  0.00    +0.173 A 
ATOM      2  C   UNL     1      -1.143  -0.111   1.097  0.00  0.00    +0.174 A 
ATOM      3  C   UNL     1      -1.065   1.206   0.660  0.00  0.00    +0.059 A 
ATOM      4  C   UNL     1      -0.218   1.454  -0.390  0.00  0.00    +0.089 A 
ATOM      5  N   UNL     1      -0.176   2.605  -1.076  0.00  0.00    -0.224 NA
ATOM      6  C   UNL     1       0.504   2.627  -2.247  0.00  0.00    +0.200 A 
ATOM      7  N   UNL     1       1.574   1.817  -2.429  0.00  0.00    -0.205 NA
ATOM      8  C   UNL     1       1.862   0.955  -1.446  0.00  0.00    +0.166 A 
ATOM      9  N   UNL     1       2.956   0.269  -1.386  0.00  0.00    -0.224 NA
ATOM     10  C   UNL     1       0.888   0.625  -0.516  0.00  0.00    +0.057 A 
ATOM     11  C   UNL     1       1.110  -0.409   0.382  0.00  0.00    +0.045 A 
ENDROOT
BRANCH   9  12
ATOM     12  C   UNL     1       3.455  -0.184  -0.116  0.00  0.00    +0.110 A 
ATOM     13  C   UNL     1       4.183  -1.370  -0.209  0.00  0.00    +0.158 A 
ATOM     14  F   UNL     1       3.845  -2.284  -1.165  0.00  0.00    -0.203 F 
ATOM     15  C   UNL     1       5.182  -1.673   0.709  0.00  0.00    +0.038 A 
ATOM     16  C   UNL     1       5.839  -0.642   1.333  0.00  0.00    +0.037 A 
ATOM     17 BR   UNL     1       7.689  -0.760   1.827  0.00  0.00    -0.049 Br
ATOM     18  C   UNL     1       5.127   0.538   1.493  0.00  0.00    +0.008 A 
ATOM     19  C   UNL     1       4.135   0.810   0.588  0.00  0.00    +0.022 A 
ENDBRANCH   9  12
BRANCH   1  21
ATOM     20  C   UNL     1      -0.786  -3.260   1.174  0.00  0.00    +0.253 C 
ATOM     21  O   UNL     1      -0.037  -2.149   1.637  0.00  0.00    -0.468 OA
ENDBRANCH   1  21
BRANCH   2  22
ATOM     22  O   UNL     1      -2.209  -0.418   1.946  0.00  0.00    -0.472 OA
BRANCH  22  23
ATOM     23  C   UNL     1      -3.490   0.109   1.716  0.00  0.00    +0.206 C 
BRANCH  23  24
ATOM     24  C   UNL     1      -3.885   0.121   0.265  0.00  0.00    +0.047 C 
ATOM     25  C   UNL     1      -4.564   1.411  -0.138  0.00  0.00    +0.021 C 
ATOM     26  C   UNL     1      -6.062   1.288  -0.171  0.00  0.00    +0.072 C 
ATOM     27  N   UNL     1      -6.527   0.311  -1.122  0.00  0.00    -0.272 NA
ATOM     28  C   UNL     1      -7.839  -0.148  -0.743  0.00  0.00    +0.090 C 
ATOM     29  C   UNL     1      -5.588  -0.765  -1.342  0.00  0.00    +0.072 C 
ATOM     30  C   UNL     1      -4.743  -1.049  -0.128  0.00  0.00    +0.021 C 
ENDBRANCH  23  24
ENDBRANCH  22  23
ENDBRANCH   2  22
TORSDOF 5
