REMARK  Name = 
REMARK  9 active torsions:
REMARK  status: ('A' for Active; 'I' for Inactive)
REMARK    1  A    between atoms: C_2  and  C_11
REMARK    2  A    between atoms: N_3  and  C_4
REMARK    3  A    between atoms: C_4  and  C_5
REMARK    4  A    between atoms: C_13  and  O_14
REMARK    5  A    between atoms: O_14  and  C_15
REMARK    6  A    between atoms: C_15  and  C_16
REMARK    7  A    between atoms: C_22  and  O_23
REMARK    8  A    between atoms: O_23  and  C_24
REMARK    9  A    between atoms: C_24  and  C_25
REMARK                            x       y       z     vdW  Elec       q    Type
REMARK                         _______ _______ _______ _____ _____    ______ ____
ROOT
ATOM      1  C   UNL     1       0.073  -0.247  -0.407  0.00  0.00    +0.092 A 
ATOM      2  C   UNL     1       0.468  -1.317   0.376  0.00  0.00    +0.144 A 
ATOM      3  C   UNL     1       1.805  -1.562   0.529  0.00  0.00    +0.040 A 
ATOM      4  C   UNL     1       2.706  -0.601   0.151  0.00  0.00    +0.040 A 
ATOM      5  C   UNL     1       2.292   0.635  -0.267  0.00  0.00    +0.139 A 
ATOM      6  C   UNL     1       0.947   0.821  -0.529  0.00  0.00    +0.045 A 
ENDROOT
BRANCH   1   8
ATOM      7  O   UNL     1      -2.114  -0.869  -0.497  0.00  0.00    -0.268 OA
ATOM      8  C   UNL     1      -1.357   0.081  -0.328  0.00  0.00    +0.268 C 
ATOM      9  N   UNL     1      -1.718   0.972   0.734  0.00  0.00    -0.200 NA
BRANCH   9  10
ATOM     10  C   UNL     1      -3.063   1.064   1.256  0.00  0.00    +0.133 C 
BRANCH  10  11
ATOM     11  C   UNL     1      -3.628   2.423   0.507  0.00  0.00    +0.094 C 
ATOM     12  N   UNL     1      -3.509   1.750  -0.920  0.00  0.00    -0.218 NA
ATOM     13  C   UNL     1      -4.111   2.667  -1.839  0.00  0.00    +0.089 C 
ATOM     14  C   UNL     1      -5.218   3.489  -1.311  0.00  0.00    +0.019 C 
ATOM     15  C   UNL     1      -5.914   2.995  -0.100  0.00  0.00    +0.003 C 
ATOM     16  C   UNL     1      -5.195   1.928   0.665  0.00  0.00    +0.019 C 
ENDBRANCH  10  11
ENDBRANCH   9  10
ENDBRANCH   1   8
BRANCH   2  17
ATOM     17  O   UNL     1      -0.443  -2.025   1.164  0.00  0.00    -0.466 OA
BRANCH  17  18
ATOM     18  C   UNL     1      -0.079  -3.321   1.583  0.00  0.00    +0.308 C 
BRANCH  18  19
ATOM     19  C   UNL     1      -0.554  -4.316   0.550  0.00  0.00    +0.438 C 
ATOM     20  F   UNL     1      -1.932  -4.157   0.453  0.00  0.00    -0.166 F 
ATOM     21  F   UNL     1      -0.299  -5.595   0.980  0.00  0.00    -0.166 F 
ATOM     22  F   UNL     1       0.041  -4.079  -0.683  0.00  0.00    -0.166 F 
ENDBRANCH  18  19
ENDBRANCH  17  18
ENDBRANCH   2  17
BRANCH   5  23
ATOM     23  O   UNL     1       3.202   1.683  -0.226  0.00  0.00    -0.467 OA
BRANCH  23  24
ATOM     24  C   UNL     1       4.187   1.727   0.781  0.00  0.00    +0.308 C 
BRANCH  24  25
ATOM     25  C   UNL     1       5.531   1.530   0.127  0.00  0.00    +0.438 C 
ATOM     26  F   UNL     1       5.417   1.117  -1.190  0.00  0.00    -0.166 F 
ATOM     27  F   UNL     1       6.249   2.696   0.234  0.00  0.00    -0.166 F 
ATOM     28  F   UNL     1       6.218   0.512   0.780  0.00  0.00    -0.166 F 
ENDBRANCH  24  25
ENDBRANCH  23  24
ENDBRANCH   5  23
TORSDOF 9
