REMARK  Name = 
REMARK  10 active torsions:
REMARK  status: ('A' for Active; 'I' for Inactive)
REMARK    1  A    between atoms: C_2  and  C_3
REMARK    2  A    between atoms: C_3  and  C_4
REMARK    3  A    between atoms: C_4  and  C_5
REMARK    4  A    between atoms: N_7  and  C_8
REMARK    5  A    between atoms: N_7  and  C_26
REMARK    6  A    between atoms: C_8  and  C_9
REMARK    7  A    between atoms: C_12  and  C_13
REMARK    8  A    between atoms: C_18  and  C_19
REMARK    9  A    between atoms: C_26  and  C_27
REMARK   10  A    between atoms: C_26  and  C_30
REMARK                            x       y       z     vdW  Elec       q    Type
REMARK                         _______ _______ _______ _____ _____    ______ ____
ROOT
ATOM      1  C   UNL     1      -0.524  -0.586   0.219  0.00  0.00    -0.002 A 
ATOM      2  C   UNL     1      -0.002  -0.808  -1.028  0.00  0.00    -0.003 A 
ATOM      3  C   UNL     1       1.213  -0.282  -1.378  0.00  0.00    -0.000 A 
ATOM      4  C   UNL     1       1.998   0.337  -0.420  0.00  0.00    -0.001 A 
ATOM      5  C   UNL     1       1.359   0.784   0.719  0.00  0.00    -0.000 A 
ATOM      6  C   UNL     1       0.079   0.360   1.020  0.00  0.00    -0.003 A 
ENDROOT
BRANCH   4   7
ATOM      7  C   UNL     1       3.196   1.071  -0.818  0.00  0.00    -0.006 A 
ATOM      8  C   UNL     1       4.249   1.071   0.079  0.00  0.00    -0.015 A 
ATOM      9  C   UNL     1       5.219   2.063   0.004  0.00  0.00    -0.007 A 
ATOM     10  C   UNL     1       4.905   3.254  -0.634  0.00  0.00    -0.001 A 
ATOM     11  C   UNL     1       3.957   3.175  -1.635  0.00  0.00    -0.000 A 
ATOM     12  C   UNL     1       3.189   2.031  -1.819  0.00  0.00    -0.001 A 
BRANCH   8  13
ATOM     13  C   UNL     1       4.553  -0.132   0.842  0.00  0.00    +0.044 A 
ATOM     14  N   UNL     1       3.984  -1.346   0.644  0.00  0.00    -0.289 NA
ATOM     15  N   UNL     1       4.772  -2.260   1.159  0.00  0.00    -0.218 NA
ATOM     16  N   UNL     1       5.641  -1.659   1.938  0.00  0.00    -0.218 NA
ATOM     17  N   UNL     1       5.680  -0.402   1.531  0.00  0.00    -0.289 NA
ENDBRANCH   8  13
ENDBRANCH   4   7
BRANCH   1  18
ATOM     18  C   UNL     1      -1.601  -1.442   0.785  0.00  0.00    +0.121 C 
BRANCH  18  20
ATOM     19  C   UNL     1      -3.431   0.118   0.445  0.00  0.00    +0.226 C 
ATOM     20  N   UNL     1      -2.869  -1.105   0.135  0.00  0.00    -0.267 N 
ATOM     21  O   UNL     1      -3.476   1.153  -0.241  0.00  0.00    -0.275 OA
BRANCH  20  22
ATOM     22  C   UNL     1      -2.801  -1.611  -1.352  0.00  0.00    +0.179 C 
BRANCH  22  23
ATOM     23  C   UNL     1      -3.530  -3.037  -0.959  0.00  0.00    +0.029 C 
ATOM     24  C   UNL     1      -4.689  -2.710  -0.074  0.00  0.00    +0.002 C 
ATOM     25  C   UNL     1      -2.476  -3.869  -0.293  0.00  0.00    +0.002 C 
ENDBRANCH  22  23
BRANCH  22  26
ATOM     26  C   UNL     1      -4.163  -0.877  -1.824  0.00  0.00    +0.382 C 
ATOM     27  O   UNL     1      -3.743   0.026  -2.824  0.00  0.00    -0.244 OA
ATOM     28  O   UNL     1      -5.046  -1.627  -2.341  0.00  0.00    -0.244 OA
ENDBRANCH  22  26
ENDBRANCH  20  22
BRANCH  19  29
ATOM     29  C   UNL     1      -3.627   0.320   1.918  0.00  0.00    +0.085 C 
BRANCH  29  30
ATOM     30  C   UNL     1      -4.494   1.518   2.181  0.00  0.00    +0.010 C 
BRANCH  30  32
ATOM     31  C   UNL     1      -3.929   3.775   1.500  0.00  0.00    +0.000 C 
ATOM     32  C   UNL     1      -3.591   2.697   2.521  0.00  0.00    +0.001 C 
ENDBRANCH  30  32
ENDBRANCH  29  30
ENDBRANCH  19  29
ENDBRANCH  18  20
ENDBRANCH   1  18
TORSDOF 10
