REMARK  Name = 
REMARK  8 active torsions:
REMARK  status: ('A' for Active; 'I' for Inactive)
REMARK    1  A    between atoms: O_2  and  C_3
REMARK    2  A    between atoms: C_4  and  O_5
REMARK    3  A    between atoms: O_5  and  C_6
REMARK    4  A    between atoms: C_6  and  C_7
REMARK    5  A    between atoms: C_7  and  C_8
REMARK    6  A    between atoms: C_8  and  N_9
REMARK    7  A    between atoms: C_20  and  N_21
REMARK    8  A    between atoms: C_22  and  C_24
REMARK                            x       y       z     vdW  Elec       q    Type
REMARK                         _______ _______ _______ _____ _____    ______ ____
ROOT
ATOM      1  C   UNL     1       1.229  -1.804   0.300  0.00  0.00    +0.190 A 
ATOM      2  C   UNL     1       0.268  -0.820   0.250  0.00  0.00    +0.124 A 
ATOM      3  N   UNL     1      -1.107  -1.070   0.010  0.00  0.00    -0.208 NA
ATOM      4  C   UNL     1      -1.911  -0.151  -0.438  0.00  0.00    +0.237 A 
ATOM      5  N   UNL     1      -1.681   1.182   0.024  0.00  0.00    -0.281 N 
ATOM      6  C   UNL     1      -0.371   1.540   0.418  0.00  0.00    +0.143 A 
ATOM      7  N   UNL     1      -0.333   2.763   0.838  0.00  0.00    -0.252 NA
ATOM      8  C   UNL     1      -1.587   3.425   0.584  0.00  0.00    +0.152 C 
ATOM      9  C   UNL     1      -2.383   2.436  -0.221  0.00  0.00    +0.137 C 
ATOM     10  C   UNL     1       0.662   0.500   0.345  0.00  0.00    +0.055 A 
ATOM     11  C   UNL     1       1.967   0.797   0.713  0.00  0.00    +0.008 A 
ATOM     12  C   UNL     1       2.749  -0.231   1.225  0.00  0.00    +0.040 A 
ATOM     13  C   UNL     1       2.533  -1.480   0.655  0.00  0.00    +0.174 A 
ENDROOT
BRANCH   4  14
ATOM     14  N   UNL     1      -3.225  -0.486  -0.895  0.00  0.00    -0.172 NA
ATOM     15  C   UNL     1      -4.293  -0.175  -0.260  0.00  0.00    +0.285 C 
ATOM     16  O   UNL     1      -4.161   0.244   1.061  0.00  0.00    -0.265 OA
BRANCH  15  17
ATOM     17  C   UNL     1      -5.640  -0.332  -0.825  0.00  0.00    +0.096 A 
ATOM     18  C   UNL     1      -6.412  -1.457  -0.558  0.00  0.00    +0.108 A 
ATOM     19  N   UNL     1      -7.729  -1.321  -0.265  0.00  0.00    -0.209 NA
ATOM     20  C   UNL     1      -8.371  -0.138  -0.419  0.00  0.00    +0.257 A 
ATOM     21  N   UNL     1      -9.434   0.241   0.463  0.00  0.00    -0.086 NA
ATOM     22  N   UNL     1      -7.704   0.789  -1.151  0.00  0.00    -0.209 NA
ATOM     23  C   UNL     1      -6.354   0.778  -1.262  0.00  0.00    +0.108 A 
ENDBRANCH  15  17
ENDBRANCH   4  14
BRANCH   1  25
ATOM     24  C   UNL     1       1.665  -4.231   0.409  0.00  0.00    +0.253 C 
ATOM     25  O   UNL     1       0.803  -3.124   0.342  0.00  0.00    -0.467 OA
ENDBRANCH   1  25
BRANCH  13  26
ATOM     26  O   UNL     1       3.538  -2.447   0.581  0.00  0.00    -0.472 OA
BRANCH  26  27
ATOM     27  C   UNL     1       4.576  -2.268  -0.354  0.00  0.00    +0.207 C 
BRANCH  27  28
ATOM     28  C   UNL     1       5.883  -1.892   0.290  0.00  0.00    +0.065 C 
BRANCH  28  29
ATOM     29  C   UNL     1       5.992  -0.407   0.563  0.00  0.00    +0.076 C 
BRANCH  29  30
ATOM     30  N   UNL     1       6.851   0.261  -0.408  0.00  0.00    -0.268 NA
ATOM     31  C   UNL     1       6.130   1.447  -0.865  0.00  0.00    +0.105 C 
ATOM     32  C   UNL     1       5.509   2.062   0.380  0.00  0.00    +0.159 C 
ATOM     33  O   UNL     1       6.532   2.400   1.279  0.00  0.00    -0.351 OA
ATOM     34  C   UNL     1       7.795   2.210   0.726  0.00  0.00    +0.159 C 
ATOM     35  C   UNL     1       8.014   0.756   0.322  0.00  0.00    +0.105 C 
ENDBRANCH  29  30
ENDBRANCH  28  29
ENDBRANCH  27  28
ENDBRANCH  26  27
ENDBRANCH  13  26
TORSDOF 8
