REMARK  Name = 
REMARK  13 active torsions:
REMARK  status: ('A' for Active; 'I' for Inactive)
REMARK    1  A    between atoms: C_2  and  O_4
REMARK    2  A    between atoms: O_4  and  C_5
REMARK    3  A    between atoms: C_21  and  O_22
REMARK    4  A    between atoms: O_22  and  C_23
REMARK    5  A    between atoms: C_23  and  C_25
REMARK    6  A    between atoms: C_25  and  C_27
REMARK    7  A    between atoms: C_27  and  N_28
REMARK    8  A    between atoms: C_27  and  C_36
REMARK    9  A    between atoms: C_29  and  O_31
REMARK   10  A    between atoms: O_31  and  C_32
REMARK   11  A    between atoms: C_45  and  O_46
REMARK   12  A    between atoms: O_46  and  C_47
REMARK   13  A    between atoms: C_47  and  C_49
REMARK                            x       y       z     vdW  Elec       q    Type
REMARK                         _______ _______ _______ _____ _____    ______ ____
ROOT
ATOM      1  C   UNL     1       5.088  -1.456   0.000  0.00  0.00    +0.191 C 
ATOM      2  C   UNL     1       4.569  -0.049   0.000  0.00  0.00    +0.093 C 
ATOM      3  C   UNL     1       5.528   1.104   0.000  0.00  0.00    +0.089 C 
ATOM      4  C   UNL     1       5.391   2.598   0.000  0.00  0.00    +0.186 C 
ATOM      5  C   UNL     1       4.237   3.557   0.000  0.00  0.00    +0.227 C 
ATOM      6  C   UNL     1       2.744   3.420   0.000  0.00  0.00    -0.010 C 
ATOM      7  C   UNL     1       1.784   2.267   0.000  0.00  0.00    +0.047 C 
ATOM      8  C   UNL     1       0.648   3.246   0.000  0.00  0.00    +0.007 C 
ATOM      9  C   UNL     1       0.698   2.148   0.000  0.00  0.00    +0.007 C 
ATOM     10  C   UNL     1       1.922   0.773   0.000  0.00  0.00    +0.170 C 
ATOM     11  O   UNL     1       0.594   0.075   0.000  0.00  0.00    -0.222 OA
ATOM     12  C   UNL     1       0.489   1.218   0.000  0.00  0.00    +0.082 C 
ATOM     13  C   UNL     1       0.158   2.681   0.000  0.00  0.00    +0.189 C 
ATOM     14  C   UNL     1       1.260   3.699   0.000  0.00  0.00    -0.010 C 
ATOM     15  C   UNL     1       0.928   5.162   0.000  0.00  0.00    +0.029 C 
ATOM     16  O   UNL     1       4.682   4.990   0.000  0.00  0.00    -0.211 OA
ATOM     17  O   UNL     1       6.718   3.296   0.000  0.00  0.00    -0.293 OA
ATOM     18  C   UNL     1       6.629   2.123   0.000  0.00  0.00    +0.010 C 
ATOM     19  C   UNL     1       7.006   0.850   0.000  0.00  0.00    +0.161 C 
ATOM     20  O   UNL     1       7.965   2.004   0.000  0.00  0.00    -0.223 OA
ATOM     21  C   UNL     1       7.525  -0.557   0.000  0.00  0.00    +0.067 C 
ATOM     22  C   UNL     1       3.075  -0.186   0.000  0.00  0.00    +0.201 C 
ATOM     23  C   UNL     1       6.566  -1.710   0.000  0.00  0.00    +0.157 C 
ATOM     24  O   UNL     1       6.312  -3.188   0.000  0.00  0.00    -0.349 OA
ATOM     25  C   UNL     1       4.834  -2.934   0.000  0.00  0.00    +0.185 C 
ENDROOT
BRANCH  13  26
ATOM     26  O   UNL     1      -1.274   3.126   0.000  0.00  0.00    -0.446 OA
BRANCH  26  27
ATOM     27  C   UNL     1      -2.376   2.107   0.000  0.00  0.00    +0.350 C 
ATOM     28  O   UNL     1      -2.045   0.644   0.000  0.00  0.00    -0.247 OA
BRANCH  27  29
ATOM     29  C   UNL     1      -3.808   2.552   0.000  0.00  0.00    +0.274 C 
ATOM     30  O   UNL     1      -4.139   4.015   0.000  0.00  0.00    -0.209 OA
BRANCH  29  31
ATOM     31  C   UNL     1      -4.910   1.534   0.000  0.00  0.00    +0.162 C 
BRANCH  31  32
ATOM     32  C   UNL     1      -6.342   1.979   0.000  0.00  0.00    +0.001 A 
ATOM     33  C   UNL     1      -7.444   0.961   0.000  0.00  0.00    -0.003 A 
ATOM     34  C   UNL     1      -8.876   1.405   0.000  0.00  0.00    -0.000 A 
ATOM     35  C   UNL     1      -9.207   2.868   0.000  0.00  0.00    -0.000 A 
ATOM     36  C   UNL     1      -8.106   3.887   0.000  0.00  0.00    -0.000 A 
ATOM     37  C   UNL     1      -6.673   3.442   0.000  0.00  0.00    -0.003 A 
ENDBRANCH  31  32
BRANCH  31  38
ATOM     38  N   UNL     1      -4.579   0.071   0.000  0.00  0.00    -0.163 NA
ATOM     39  C   UNL     1      -5.680  -0.947   0.000  0.00  0.00    +0.421 C 
ATOM     40  O   UNL     1      -7.113  -0.502   0.000  0.00  0.00    -0.225 OA
BRANCH  39  41
ATOM     41  O   UNL     1      -5.349  -2.410   0.000  0.00  0.00    -0.441 OA
BRANCH  41  42
ATOM     42  C   UNL     1      -6.451  -3.429   0.000  0.00  0.00    +0.138 C 
ATOM     43  C   UNL     1      -7.552  -4.447   0.000  0.00  0.00    +0.044 C 
ATOM     44  C   UNL     1      -7.469  -2.327   0.000  0.00  0.00    +0.044 C 
ATOM     45  C   UNL     1      -5.433  -4.530   0.000  0.00  0.00    +0.044 C 
ENDBRANCH  41  42
ENDBRANCH  39  41
ENDBRANCH  31  38
ENDBRANCH  29  31
ENDBRANCH  27  29
ENDBRANCH  26  27
ENDBRANCH  13  26
BRANCH  22  46
ATOM     46  O   UNL     1       2.630  -1.619   0.000  0.00  0.00    -0.446 OA
BRANCH  46  47
ATOM     47  C   UNL     1       1.167  -1.950   0.000  0.00  0.00    +0.341 C 
ATOM     48  O   UNL     1       0.149  -0.848   0.000  0.00  0.00    -0.245 OA
BRANCH  47  49
ATOM     49  C   UNL     1       0.722  -3.382   0.000  0.00  0.00    +0.076 A 
ATOM     50  C   UNL     1       1.741  -4.484   0.000  0.00  0.00    +0.006 A 
ATOM     51  C   UNL     1       1.296  -5.916   0.000  0.00  0.00    +0.000 A 
ATOM     52  C   UNL     1      -0.167  -6.247   0.000  0.00  0.00    +0.000 A 
ATOM     53  C   UNL     1      -1.185  -5.146   0.000  0.00  0.00    +0.000 A 
ATOM     54  C   UNL     1      -0.741  -3.713   0.000  0.00  0.00    +0.006 A 
ENDBRANCH  47  49
ENDBRANCH  46  47
ENDBRANCH  22  46
BRANCH   1  55
ATOM     55  O   UNL     1       3.594  -1.593   0.000  0.00  0.00    -0.451 OA
BRANCH  55  57
ATOM     56  C   UNL     1       1.472  -3.093   0.000  0.00  0.00    +0.121 C 
ATOM     57  C   UNL     1       2.966  -2.956   0.000  0.00  0.00    +0.317 C 
ATOM     58  O   UNL     1       3.832  -4.181   0.000  0.00  0.00    -0.250 OA
ENDBRANCH  55  57
ENDBRANCH   1  55
TORSDOF 13
