REMARK  Name = 
REMARK  6 active torsions:
REMARK  status: ('A' for Active; 'I' for Inactive)
REMARK    1  A    between atoms: N_4  and  C_5
REMARK    2  A    between atoms: C_6  and  C_7
REMARK    3  A    between atoms: C_7  and  C_9
REMARK    4  A    between atoms: C_9  and  C_11
REMARK    5  A    between atoms: C_14  and  C_15
REMARK    6  A    between atoms: C_19  and  N_20
REMARK                            x       y       z     vdW  Elec       q    Type
REMARK                         _______ _______ _______ _____ _____    ______ ____
ROOT
ATOM      1  C   UNL     1      -0.040   0.692   0.374  0.00  0.00    +0.182 C 
ATOM      2  C   UNL     1       1.068   1.064  -0.899  0.00  0.00    +0.230 C 
ATOM      3  C   UNL     1       1.670  -0.437  -1.065  0.00  0.00    +0.062 C 
ATOM      4  C   UNL     1       1.765  -1.167   0.009  0.00  0.00    +0.217 C 
ATOM      5  O   UNL     1       0.487  -1.553   0.438  0.00  0.00    -0.468 OA
ATOM      6  C   UNL     1      -0.601  -0.773  -0.320  0.00  0.00    +0.222 C 
ENDROOT
BRANCH   1   9
ATOM      7  C   UNL     1      -2.393   2.312  -2.089  0.00  0.00    +0.096 C 
ATOM      8  C   UNL     1      -1.255   2.123  -1.410  0.00  0.00    +0.242 C 
ATOM      9  N   UNL     1      -1.248   1.486  -0.202  0.00  0.00    -0.199 NA
ATOM     10  O   UNL     1      -0.287   1.992  -2.168  0.00  0.00    -0.273 OA
ENDBRANCH   1   9
BRANCH   2  11
ATOM     11  N   UNL     1       2.211   1.458   0.136  0.00  0.00    -0.083 NA
ATOM     12  C   UNL     1       1.931   2.558   0.963  0.00  0.00    +0.535 C 
ATOM     13  N   UNL     1       2.777   2.764   2.104  0.00  0.00    +0.135 NA
ATOM     14  N   UNL     1       1.657   3.635   0.286  0.00  0.00    +0.135 NA
ENDBRANCH   2  11
BRANCH   4  15
ATOM     15  C   UNL     1       2.662  -2.341  -0.099  0.00  0.00    +0.421 C 
ATOM     16  O   UNL     1       3.748  -2.408   0.778  0.00  0.00    -0.237 OA
ATOM     17  O   UNL     1       2.791  -2.951  -1.202  0.00  0.00    -0.237 OA
ENDBRANCH   4  15
BRANCH   6  18
ATOM     18  C   UNL     1      -1.796  -0.843   0.928  0.00  0.00    +0.226 C 
ATOM     19  O   UNL     1      -1.244  -2.048   1.653  0.00  0.00    -0.216 OA
BRANCH  18  20
ATOM     20  C   UNL     1      -2.830  -1.898  -0.002  0.00  0.00    +0.219 C 
ATOM     21  O   UNL     1      -2.997  -0.865  -1.115  0.00  0.00    -0.217 OA
BRANCH  20  22
ATOM     22  C   UNL     1      -4.194  -1.341   0.775  0.00  0.00    +0.218 C 
ATOM     23  O   UNL     1      -3.884  -1.460   2.127  0.00  0.00    -0.217 OA
ENDBRANCH  20  22
ENDBRANCH  18  20
ENDBRANCH   6  18
TORSDOF 6
