REMARK  Name = 
REMARK  4 active torsions:
REMARK  status: ('A' for Active; 'I' for Inactive)
REMARK    1  A    between atoms: N_2  and  C_4
REMARK    2  A    between atoms: C_7  and  C_8
REMARK    3  A    between atoms: C_8  and  C_9
REMARK    4  A    between atoms: C_12  and  N_13
REMARK                            x       y       z     vdW  Elec       q    Type
REMARK                         _______ _______ _______ _____ _____    ______ ____
ROOT
ATOM      1  C   UNL     1      -0.056   0.078   0.104  0.00  0.00    +0.000 C 
ATOM      2  C   UNL     1      -0.551   1.296   0.115  0.00  0.00    +0.000 C 
ATOM      3  C   UNL     1      -1.935   1.561  -0.301  0.00  0.00    +0.006 C 
ATOM      4  C   UNL     1      -2.334   2.773  -0.667  0.00  0.00    +0.069 C 
ATOM      5  C   UNL     1      -1.560   3.932  -0.240  0.00  0.00    +0.222 C 
ATOM      6  N   UNL     1      -2.141   5.018   0.178  0.00  0.00    -0.177 N 
ATOM      7  C   UNL     1      -2.457   5.040   1.605  0.00  0.00    +0.403 C 
ATOM      8  C   UNL     1      -2.850   5.907  -0.726  0.00  0.00    +0.403 C 
ATOM      9  C   UNL     1      -0.131   3.706  -0.026  0.00  0.00    +0.069 C 
ATOM     10  C   UNL     1       0.302   2.488   0.215  0.00  0.00    +0.006 C 
ENDROOT
BRANCH   1  14
ATOM     11  C   UNL     1       3.922  -1.009   0.494  0.00  0.00    +0.048 A 
ATOM     12  C   UNL     1       3.156  -0.931   1.649  0.00  0.00    +0.015 A 
ATOM     13  C   UNL     1       1.824  -0.539   1.617  0.00  0.00    +0.001 A 
ATOM     14  C   UNL     1       1.377  -0.056   0.397  0.00  0.00    +0.000 A 
ATOM     15  C   UNL     1       2.252   0.259  -0.618  0.00  0.00    +0.001 A 
ATOM     16  C   UNL     1       3.549  -0.188  -0.564  0.00  0.00    +0.015 A 
BRANCH  11  18
ATOM     17  C   UNL     1       5.946  -0.263   1.680  0.00  0.00    +0.112 C 
ATOM     18  N   UNL     1       5.335  -1.136   0.695  0.00  0.00    -0.304 N 
ATOM     19  C   UNL     1       6.099  -1.553  -0.477  0.00  0.00    +0.112 C 
ENDBRANCH  11  18
ENDBRANCH   1  14
BRANCH   1  20
ATOM     20  C   UNL     1      -0.771  -1.057  -0.439  0.00  0.00    +0.000 A 
ATOM     21  C   UNL     1      -0.177  -2.313  -0.413  0.00  0.00    +0.001 A 
ATOM     22  C   UNL     1      -0.977  -3.417  -0.684  0.00  0.00    +0.015 A 
ATOM     23  C   UNL     1      -2.352  -3.234  -0.770  0.00  0.00    +0.048 A 
ATOM     24  C   UNL     1      -2.767  -1.992  -1.223  0.00  0.00    +0.015 A 
ATOM     25  C   UNL     1      -1.854  -0.948  -1.302  0.00  0.00    +0.001 A 
BRANCH  23  26
ATOM     26  N   UNL     1      -3.269  -4.277  -0.430  0.00  0.00    -0.304 N 
ATOM     27  C   UNL     1      -2.895  -5.209   0.631  0.00  0.00    +0.112 C 
ATOM     28  C   UNL     1      -4.687  -3.934  -0.499  0.00  0.00    +0.112 C 
ENDBRANCH  23  26
ENDBRANCH   1  20
TORSDOF 4
