REMARK  Name = 
REMARK  3 active torsions:
REMARK  status: ('A' for Active; 'I' for Inactive)
REMARK    1  A    between atoms: N_2  and  C_3
REMARK    2  A    between atoms: C_3  and  C_5
REMARK    3  A    between atoms: C_5  and  C_6
REMARK                            x       y       z     vdW  Elec       q    Type
REMARK                         _______ _______ _______ _____ _____    ______ ____
ROOT
ATOM      1  C   UNL     1      -0.405  -0.340   0.035  0.00  0.00    -0.021 A 
ATOM      2  C   UNL     1      -1.117   0.717   0.530  0.00  0.00    -0.004 A 
ATOM      3  C   UNL     1      -2.248   1.083  -0.179  0.00  0.00    -0.000 A 
ATOM      4  C   UNL     1      -2.963   0.097  -0.828  0.00  0.00    -0.000 A 
ATOM      5  C   UNL     1      -2.438  -1.164  -0.965  0.00  0.00    -0.000 A 
ATOM      6  C   UNL     1      -1.096  -1.317  -0.647  0.00  0.00    -0.004 A 
ENDROOT
BRANCH   1   7
ATOM      7  C   UNL     1       0.980  -0.683   0.409  0.00  0.00    +0.044 C 
BRANCH   7   8
ATOM      8  C   UNL     1       1.708   0.791   0.701  0.00  0.00    +0.077 C 
ATOM      9  C   UNL     1       1.174   1.411  -0.756  0.00  0.00    +0.019 C 
BRANCH   8  11
ATOM     10  C   UNL     1       3.332  -0.895   0.563  0.00  0.00    +0.107 C 
ATOM     11  N   UNL     1       3.073   0.300   0.024  0.00  0.00    -0.218 NA
ENDBRANCH   8  11
ENDBRANCH   7   8
ENDBRANCH   1   7
TORSDOF 3
