REMARK  Name = 
REMARK  5 active torsions:
REMARK  status: ('A' for Active; 'I' for Inactive)
REMARK    1  A    between atoms: C_2  and  O_3
REMARK    2  A    between atoms: C_2  and  C_16
REMARK    3  A    between atoms: O_3  and  C_4
REMARK    4  A    between atoms: C_16  and  C_18
REMARK    5  A    between atoms: C_16  and  C_24
REMARK                            x       y       z     vdW  Elec       q    Type
REMARK                         _______ _______ _______ _____ _____    ______ ____
ROOT
ATOM      1  O   UNL     1      -0.285  -0.237  -0.709  0.00  0.00    -0.247 OA
ATOM      2  C   UNL     1      -0.466  -0.200  -0.413  0.00  0.00    +0.353 C 
ENDROOT
BRANCH   2   3
ATOM      3  C   UNL     1      -1.843   0.232  -0.622  0.00  0.00    +0.252 C 
ATOM      4  O   UNL     1      -1.860   0.555  -1.996  0.00  0.00    -0.205 OA
BRANCH   3   5
ATOM      5  C   UNL     1      -2.249   1.433   0.116  0.00  0.00    +0.019 A 
ATOM      6  C   UNL     1      -3.439   1.402   0.832  0.00  0.00    -0.001 A 
ATOM      7  C   UNL     1      -4.254   2.522   0.958  0.00  0.00    -0.000 A 
ATOM      8  C   UNL     1      -3.911   3.679   0.269  0.00  0.00    -0.000 A 
ATOM      9  C   UNL     1      -2.561   3.829  -0.020  0.00  0.00    -0.000 A 
ATOM     10  C   UNL     1      -1.876   2.674  -0.383  0.00  0.00    -0.001 A 
ENDBRANCH   3   5
BRANCH   3  11
ATOM     11  C   UNL     1      -2.756  -0.896  -0.378  0.00  0.00    +0.019 A 
ATOM     12  C   UNL     1      -3.895  -1.090  -1.115  0.00  0.00    -0.001 A 
ATOM     13  C   UNL     1      -4.540  -2.308  -0.960  0.00  0.00    -0.000 A 
ATOM     14  C   UNL     1      -4.180  -3.139   0.079  0.00  0.00    -0.000 A 
ATOM     15  C   UNL     1      -3.265  -2.746   1.017  0.00  0.00    -0.000 A 
ATOM     16  C   UNL     1      -2.566  -1.593   0.797  0.00  0.00    -0.001 A 
ENDBRANCH   3  11
ENDBRANCH   2   3
BRANCH   2  17
ATOM     17  O   UNL     1       0.176  -0.772   0.659  0.00  0.00    -0.450 OA
BRANCH  17  18
ATOM     18  C   UNL     1       1.603  -0.797   0.531  0.00  0.00    +0.180 C 
ATOM     19  C   UNL     1       2.061   0.555   0.826  0.00  0.00    +0.099 C 
ATOM     20  C   UNL     1       3.455   0.881   0.013  0.00  0.00    +0.062 C 
ATOM     21  N   UNL     1       4.012  -0.548   0.099  0.00  0.00    +0.289 N 
ATOM     22  C   UNL     1       3.477  -1.385  -1.070  0.00  0.00    +0.062 C 
ATOM     23  C   UNL     1       3.684  -0.132  -2.118  0.00  0.00    +0.061 C 
ATOM     24  C   UNL     1       4.135  -1.115   1.289  0.00  0.00    +0.108 C 
ATOM     25  C   UNL     1       5.429  -0.576   1.891  0.00  0.00    +0.067 C 
ATOM     26  C   UNL     1       5.920   0.413   0.837  0.00  0.00    +0.067 C 
ATOM     27  C   UNL     1       5.366  -0.284  -0.402  0.00  0.00    +0.108 C 
ATOM     28  C   UNL     1       2.760   0.784  -1.470  0.00  0.00    +0.061 C 
ATOM     29  C   UNL     1       1.867  -1.141  -0.861  0.00  0.00    +0.099 C 
ENDBRANCH  17  18
ENDBRANCH   2  17
TORSDOF 5
