REMARK  Name = 
REMARK  2 active torsions:
REMARK  status: ('A' for Active; 'I' for Inactive)
REMARK    1  A    between atoms: C_2  and  C_3
REMARK    2  A    between atoms: C_2  and  C_9
REMARK                            x       y       z     vdW  Elec       q    Type
REMARK                         _______ _______ _______ _____ _____    ______ ____
ROOT
ATOM      1  O   UNL     1       0.217   2.297   0.929  0.00  0.00    -0.287 OA
ATOM      2  C   UNL     1       0.012   1.419   0.038  0.00  0.00    +0.196 C 
ENDROOT
BRANCH   2   3
ATOM      3  C   UNL     1      -1.331   0.822   0.051  0.00  0.00    +0.039 A 
ATOM      4  C   UNL     1      -2.022   0.553  -1.123  0.00  0.00    +0.003 A 
ATOM      5  C   UNL     1      -2.978  -0.453  -1.185  0.00  0.00    +0.000 A 
ATOM      6  C   UNL     1      -2.966  -1.412  -0.182  0.00  0.00    +0.000 A 
ATOM      7  C   UNL     1      -2.575  -0.993   1.084  0.00  0.00    +0.000 A 
ATOM      8  C   UNL     1      -1.600  -0.027   1.118  0.00  0.00    +0.003 A 
ENDBRANCH   2   3
BRANCH   2   9
ATOM      9  C   UNL     1       1.117   0.473  -0.164  0.00  0.00    +0.039 A 
ATOM     10  C   UNL     1       2.166   0.717  -1.004  0.00  0.00    +0.003 A 
ATOM     11  C   UNL     1       3.296  -0.063  -0.858  0.00  0.00    +0.000 A 
ATOM     12  C   UNL     1       3.347  -1.151   0.005  0.00  0.00    +0.000 A 
ATOM     13  C   UNL     1       2.243  -1.437   0.789  0.00  0.00    +0.000 A 
ATOM     14  C   UNL     1       1.072  -0.745   0.500  0.00  0.00    +0.003 A 
ENDBRANCH   2   9
TORSDOF 2
