REMARK  Name = 
REMARK  1 active torsions:
REMARK  status: ('A' for Active; 'I' for Inactive)
REMARK    1  A    between atoms: C_3  and  N_4
REMARK                            x       y       z     vdW  Elec       q    Type
REMARK                         _______ _______ _______ _____ _____    ______ ____
ROOT
ATOM      1 BR   UNL     1      -0.081   2.183  -0.654  0.00  0.00    -0.044 Br
ATOM      2  C   UNL     1       0.547   0.388  -0.413  0.00  0.00    +0.088 A 
ATOM      3  C   UNL     1       1.899   0.261  -0.115  0.00  0.00    +0.108 A 
ATOM      4  C   UNL     1       2.398  -0.875   0.511  0.00  0.00    +0.100 A 
ATOM      5  N   UNL     1       3.690  -0.953   0.901  0.00  0.00    -0.241 NA
ATOM      6  C   UNL     1       4.407   0.184   0.750  0.00  0.00    +0.119 A 
ATOM      7  C   UNL     1       4.063   1.143  -0.196  0.00  0.00    +0.119 A 
ATOM      8  C   UNL     1       1.525  -1.884   0.811  0.00  0.00    +0.024 A 
ATOM      9  C   UNL     1       0.186  -1.749   0.512  0.00  0.00    +0.039 A 
ATOM     10  N   UNL     1       2.813   1.056  -0.713  0.00  0.00    -0.240 NA
ATOM     11  C   UNL     1      -0.361  -0.574   0.011  0.00  0.00    +0.166 A 
ENDROOT
BRANCH  11  12
ATOM     12  N   UNL     1      -1.640  -0.199   0.531  0.00  0.00    -0.070 NA
ATOM     13  C   UNL     1      -2.685  -0.039  -0.191  0.00  0.00    +0.439 C 
ATOM     14  N   UNL     1      -3.734  -0.992  -0.400  0.00  0.00    -0.060 NA
ATOM     15  C   UNL     1      -5.021  -0.321  -0.425  0.00  0.00    +0.251 C 
ATOM     16  C   UNL     1      -4.723   1.153  -0.365  0.00  0.00    +0.251 C 
ATOM     17  N   UNL     1      -3.283   1.220  -0.436  0.00  0.00    -0.060 NA
ENDBRANCH  11  12
TORSDOF 1
