REMARK  Name = 
REMARK  11 active torsions:
REMARK  status: ('A' for Active; 'I' for Inactive)
REMARK    1  A    between atoms: C_2  and  C_3
REMARK    2  A    between atoms: C_3  and  C_4
REMARK    3  A    between atoms: C_4  and  C_5
REMARK    4  A    between atoms: C_5  and  C_6
REMARK    5  A    between atoms: C_6  and  C_7
REMARK    6  A    between atoms: C_7  and  C_8
REMARK    7  A    between atoms: N_10  and  C_11
REMARK    8  A    between atoms: C_11  and  C_12
REMARK    9  A    between atoms: C_11  and  C_18
REMARK   10  A    between atoms: C_12  and  N_13
REMARK   11  A    between atoms: C_18  and  C_20
REMARK                            x       y       z     vdW  Elec       q    Type
REMARK                         _______ _______ _______ _____ _____    ______ ____
ROOT
ATOM      1  C   UNL     1      -0.183  -0.789   0.142  0.00  0.00    +0.146 C 
ENDROOT
BRANCH   1   3
ATOM      2  C   UNL     1       2.112  -0.929   1.203  0.00  0.00    +0.241 C 
ATOM      3  N   UNL     1       1.231  -0.154   0.419  0.00  0.00    -0.203 NA
ATOM      4  O   UNL     1       1.593  -1.571   2.143  0.00  0.00    -0.273 OA
BRANCH   2   5
ATOM      5  C   UNL     1       3.515  -0.448   1.359  0.00  0.00    +0.087 C 
BRANCH   5   6
ATOM      6  C   UNL     1       3.832   0.625   0.325  0.00  0.00    +0.010 C 
BRANCH   6   7
ATOM      7  C   UNL     1       4.826   1.566   0.993  0.00  0.00    +0.001 C 
BRANCH   7   8
ATOM      8  C   UNL     1       5.229   2.611  -0.043  0.00  0.00    +0.000 C 
BRANCH   8   9
ATOM      9  C   UNL     1       6.744   2.522  -0.157  0.00  0.00    +0.000 C 
BRANCH   9  11
ATOM     10  C   UNL     1       7.157   0.526  -0.152  0.00  0.00    +0.000 C 
ATOM     11  C   UNL     1       7.138   1.073   0.092  0.00  0.00    +0.000 C 
ENDBRANCH   9  11
ENDBRANCH   8   9
ENDBRANCH   7   8
ENDBRANCH   6   7
ENDBRANCH   5   6
ENDBRANCH   2   5
ENDBRANCH   1   3
BRANCH   1  12
ATOM     12  C   UNL     1      -0.446   0.274  -1.223  0.00  0.00    +0.195 C 
ATOM     13  O   UNL     1      -0.272   1.538  -0.365  0.00  0.00    -0.216 OA
BRANCH  12  14
ATOM     14  C   UNL     1      -2.069   0.243  -1.033  0.00  0.00    +0.013 A 
ATOM     15  C   UNL     1      -2.573   0.522   0.183  0.00  0.00    +0.038 A 
ATOM     16  C   UNL     1      -3.901   0.950   0.268  0.00  0.00    +0.172 A 
ATOM     17  O   UNL     1      -4.419   1.396   1.488  0.00  0.00    -0.468 OA
ATOM     18  C   UNL     1      -5.016   2.644   1.698  0.00  0.00    +0.253 C 
ATOM     19  C   UNL     1      -5.668   3.240   0.493  0.00  0.00    +0.253 C 
ATOM     20  O   UNL     1      -5.157   2.792  -0.730  0.00  0.00    -0.468 OA
ATOM     21  C   UNL     1      -4.384   1.636  -0.841  0.00  0.00    +0.172 A 
ATOM     22  C   UNL     1      -3.873   1.342  -2.098  0.00  0.00    +0.040 A 
ATOM     23  C   UNL     1      -2.712   0.600  -2.212  0.00  0.00    +0.002 A 
ENDBRANCH  12  14
ENDBRANCH   1  12
BRANCH   1  24
ATOM     24  C   UNL     1       0.465  -1.930  -0.844  0.00  0.00    +0.097 C 
BRANCH  24  25
ATOM     25  N   UNL     1      -0.178  -3.149  -0.635  0.00  0.00    -0.271 NA
ATOM     26  C   UNL     1       0.579  -4.231  -0.102  0.00  0.00    +0.072 C 
ATOM     27  C   UNL     1      -0.439  -5.286   0.286  0.00  0.00    +0.019 C 
ATOM     28  C   UNL     1      -1.621  -4.426   0.664  0.00  0.00    +0.019 C 
ATOM     29  C   UNL     1      -1.508  -3.189  -0.196  0.00  0.00    +0.072 C 
ENDBRANCH  24  25
ENDBRANCH   1  24
TORSDOF 11
