REMARK  Name = 
REMARK  5 active torsions:
REMARK  status: ('A' for Active; 'I' for Inactive)
REMARK    1  A    between atoms: C_2  and  C_3
REMARK    2  A    between atoms: C_3  and  C_5
REMARK    3  A    between atoms: C_5  and  C_7
REMARK    4  A    between atoms: C_7  and  C_9
REMARK    5  A    between atoms: C_9  and  C_11
REMARK                            x       y       z     vdW  Elec       q    Type
REMARK                         _______ _______ _______ _____ _____    ______ ____
ROOT
ATOM      1  C   UNL     1       0.457   0.247  -0.757  0.00  0.00    +0.217 C 
ATOM      2  O   UNL     1       0.934  -1.121  -1.158  0.00  0.00    -0.217 OA
ENDROOT
BRANCH   1   3
ATOM      3  C   UNL     1       1.642   0.513   0.474  0.00  0.00    +0.217 C 
ATOM      4  O   UNL     1       2.029   1.856  -0.127  0.00  0.00    -0.217 OA
BRANCH   3   6
ATOM      5  O   UNL     1       3.434  -0.018  -0.168  0.00  0.00    -0.217 OA
ATOM      6  C   UNL     1       2.881  -0.243  -0.315  0.00  0.00    +0.217 C 
ENDBRANCH   3   6
ENDBRANCH   1   3
BRANCH   1   7
ATOM      7  C   UNL     1      -0.681  -0.251   0.438  0.00  0.00    +0.217 C 
ATOM      8  O   UNL     1      -0.453  -1.733   0.332  0.00  0.00    -0.217 OA
BRANCH   7   9
ATOM      9  C   UNL     1      -1.962  -0.156  -0.721  0.00  0.00    +0.217 C 
ATOM     10  O   UNL     1      -2.556  -1.523  -0.416  0.00  0.00    -0.217 OA
BRANCH   9  11
ATOM     11  C   UNL     1      -2.965   0.539   0.390  0.00  0.00    +0.217 C 
ATOM     12  O   UNL     1      -2.759   1.890   0.327  0.00  0.00    -0.217 OA
ENDBRANCH   9  11
ENDBRANCH   7   9
ENDBRANCH   1   7
TORSDOF 5
