REMARK  Name = 
REMARK  2 active torsions:
REMARK  status: ('A' for Active; 'I' for Inactive)
REMARK    1  A    between atoms: C_2  and  C_3
REMARK    2  A    between atoms: C_21  and  C_22
REMARK                            x       y       z     vdW  Elec       q    Type
REMARK                         _______ _______ _______ _____ _____    ______ ____
ROOT
ATOM      1  C   UNL     1      -3.162   0.022  -0.331  0.00  0.00    +0.180 C 
ATOM      2  C   UNL     1      -1.630   0.057  -0.363  0.00  0.00    +0.037 C 
ATOM      3  C   UNL     1      -1.547  -1.493   0.085  0.00  0.00    +0.003 C 
ATOM      4  C   UNL     1       0.099  -1.653   0.441  0.00  0.00    +0.001 C 
ATOM      5  C   UNL     1       0.659  -0.352  -0.458  0.00  0.00    +0.004 C 
ATOM      6  C   UNL     1       0.046  -0.925  -1.830  0.00  0.00    +0.000 C 
ATOM      7  C   UNL     1       2.194  -1.037  -0.555  0.00  0.00    +0.019 C 
ATOM      8  C   UNL     1       2.525  -0.436   0.885  0.00  0.00    -0.042 C 
ATOM      9  C   UNL     1       3.658   0.145   1.091  0.00  0.00    +0.029 C 
ATOM     10  C   UNL     1       4.507   0.776   0.074  0.00  0.00    +0.173 C 
ATOM     11  C   UNL     1       4.243   0.218  -1.295  0.00  0.00    +0.069 C 
ATOM     12  O   UNL     1       4.750   2.022   0.069  0.00  0.00    -0.291 OA
ATOM     13  C   UNL     1       1.710  -0.909   2.020  0.00  0.00    +0.022 C 
ATOM     14  C   UNL     1       2.730   0.258  -1.380  0.00  0.00    +0.012 C 
ATOM     15  C   UNL     1       0.211  -0.801   1.801  0.00  0.00    +0.004 C 
ATOM     16  C   UNL     1      -2.105  -1.094   1.557  0.00  0.00    +0.004 C 
ATOM     17  C   UNL     1      -1.169   0.014  -1.783  0.00  0.00    +0.003 C 
ATOM     18  C   UNL     1      -3.365  -0.355   1.099  0.00  0.00    +0.043 C 
ATOM     19  O   UNL     1      -3.528  -0.989  -1.191  0.00  0.00    -0.212 OA
ENDROOT
BRANCH   1  21
ATOM     20  C   UNL     1      -3.987   2.238  -1.134  0.00  0.00    -0.012 C 
ATOM     21  C   UNL     1      -3.667   1.338  -0.697  0.00  0.00    -0.049 C 
ENDBRANCH   1  21
BRANCH   2  22
ATOM     22  C   UNL     1      -1.206   1.001   0.563  0.00  0.00    +0.003 C 
ATOM     23  C   UNL     1      -1.966   1.955   1.332  0.00  0.00    +0.000 C 
ENDBRANCH   2  22
TORSDOF 2
