REMARK  Name = 
REMARK  6 active torsions:
REMARK  status: ('A' for Active; 'I' for Inactive)
REMARK    1  A    between atoms: N_2  and  C_3
REMARK    2  A    between atoms: C_3  and  C_4
REMARK    3  A    between atoms: C_4  and  C_5
REMARK    4  A    between atoms: C_5  and  O_6
REMARK    5  A    between atoms: C_5  and  C_14
REMARK    6  A    between atoms: O_6  and  C_7
REMARK                            x       y       z     vdW  Elec       q    Type
REMARK                         _______ _______ _______ _____ _____    ______ ____
ROOT
ATOM      1  C   UNL     1      -0.530   0.439  -0.426  0.00  0.00    +0.190 C 
ENDROOT
BRANCH   1   2
ATOM      2  C   UNL     1      -1.354  -0.973  -0.340  0.00  0.00    +0.017 A 
ATOM      3  C   UNL     1      -1.361  -1.592   0.876  0.00  0.00    -0.001 A 
ATOM      4  C   UNL     1      -2.071  -2.787   0.919  0.00  0.00    -0.000 A 
ATOM      5  C   UNL     1      -3.058  -3.030  -0.025  0.00  0.00    -0.000 A 
ATOM      6  C   UNL     1      -3.473  -1.914  -0.744  0.00  0.00    -0.000 A 
ATOM      7  C   UNL     1      -2.635  -0.810  -0.871  0.00  0.00    -0.001 A 
ENDBRANCH   1   2
BRANCH   1   8
ATOM      8  C   UNL     1      -1.387   1.095   0.852  0.00  0.00    +0.067 C 
BRANCH   8   9
ATOM      9  C   UNL     1      -2.260   2.067   0.065  0.00  0.00    +0.093 C 
BRANCH   9  11
ATOM     10  C   UNL     1      -2.393   4.113   0.102  0.00  0.00    +0.107 C 
ATOM     11  N   UNL     1      -1.918   3.445   0.312  0.00  0.00    -0.216 NA
ENDBRANCH   9  11
ENDBRANCH   8   9
ENDBRANCH   1   8
BRANCH   1  12
ATOM     12  O   UNL     1       0.619  -0.054   0.513  0.00  0.00    -0.475 OA
BRANCH  12  13
ATOM     13  C   UNL     1       1.855   0.007  -0.103  0.00  0.00    +0.135 A 
ATOM     14  C   UNL     1       2.838  -0.853   0.367  0.00  0.00    +0.012 A 
ATOM     15  C   UNL     1       2.483  -2.230   0.811  0.00  0.00    +0.034 C 
ATOM     16  C   UNL     1       4.183  -0.503   0.324  0.00  0.00    -0.001 A 
ATOM     17  C   UNL     1       4.546   0.769  -0.056  0.00  0.00    -0.000 A 
ATOM     18  C   UNL     1       3.611   1.592  -0.663  0.00  0.00    +0.003 A 
ATOM     19  C   UNL     1       2.302   1.220  -0.583  0.00  0.00    +0.037 A 
ENDBRANCH  12  13
ENDBRANCH   1  12
TORSDOF 6
