REMARK  Name = 
REMARK  15 active torsions:
REMARK  status: ('A' for Active; 'I' for Inactive)
REMARK    1  A    between atoms: C_2  and  C_3
REMARK    2  A    between atoms: C_3  and  O_5
REMARK    3  A    between atoms: O_5  and  C_6
REMARK    4  A    between atoms: C_6  and  O_7
REMARK    5  A    between atoms: C_6  and  C_37
REMARK    6  A    between atoms: O_7  and  P_8
REMARK    7  A    between atoms: P_8  and  C_10
REMARK    8  A    between atoms: P_8  and  C_20
REMARK    9  A    between atoms: C_10  and  C_11
REMARK   10  A    between atoms: C_11  and  C_12
REMARK   11  A    between atoms: C_12  and  C_13
REMARK   12  A    between atoms: C_13  and  C_14
REMARK   13  A    between atoms: C_20  and  C_21
REMARK   14  A    between atoms: C_25  and  C_26
REMARK   15  A    between atoms: C_33  and  C_34
REMARK                            x       y       z     vdW  Elec       q    Type
REMARK                         _______ _______ _______ _____ _____    ______ ____
ROOT
ATOM      1  P   UNL     1      -1.049  -0.450  -0.938  0.00  0.00    +0.234 P 
ATOM      2  O   UNL     1      -1.905  -1.007   0.164  0.00  0.00    -0.289 OA
ENDROOT
BRANCH   1   3
ATOM      3  C   UNL     1       0.655  -0.453  -0.326  0.00  0.00    +0.172 C 
BRANCH   3   4
ATOM      4  C   UNL     1       1.286   0.878  -0.383  0.00  0.00    +0.236 C 
ATOM      5  N   UNL     1       1.871   1.504   0.743  0.00  0.00    -0.271 N 
ATOM      6  C   UNL     1       3.356   2.105   0.643  0.00  0.00    +0.179 C 
ATOM      7  C   UNL     1       3.899   0.719  -0.098  0.00  0.00    +0.033 C 
ATOM      8  C   UNL     1       3.232  -0.388   0.927  0.00  0.00    +0.022 C 
ATOM      9  C   UNL     1       2.411   0.710   1.850  0.00  0.00    +0.094 C 
ATOM     10  O   UNL     1       0.871   1.663  -1.289  0.00  0.00    -0.274 OA
BRANCH   8  11
ATOM     11  C   UNL     1       4.580  -0.424   1.892  0.00  0.00    +0.002 C 
ATOM     12  C   UNL     1       5.640  -0.817   0.930  0.00  0.00    +0.000 C 
ATOM     13  C   UNL     1       6.941  -0.110   1.041  0.00  0.00    +0.000 C 
ATOM     14  C   UNL     1       7.089   0.355   2.484  0.00  0.00    +0.000 C 
ATOM     15  C   UNL     1       6.063   1.464   2.669  0.00  0.00    +0.000 C 
ATOM     16  C   UNL     1       4.716   0.839   2.592  0.00  0.00    +0.000 C 
ENDBRANCH   8  11
BRANCH   6  17
ATOM     17  C   UNL     1       3.010   2.918  -0.743  0.00  0.00    +0.382 C 
ATOM     18  O   UNL     1       3.604   2.499  -1.885  0.00  0.00    -0.244 OA
ATOM     19  O   UNL     1       3.200   4.145  -0.458  0.00  0.00    -0.244 OA
ENDBRANCH   6  17
ENDBRANCH   3   4
ENDBRANCH   1   3
BRANCH   1  20
ATOM     20  O   UNL     1      -1.092  -1.436  -2.330  0.00  0.00    -0.276 OA
BRANCH  20  21
ATOM     21  C   UNL     1      -2.296  -2.395  -2.050  0.00  0.00    +0.295 C 
BRANCH  21  22
ATOM     22  C   UNL     1      -2.424  -2.788  -3.698  0.00  0.00    +0.071 C 
ATOM     23  C   UNL     1      -1.157  -3.401  -4.082  0.00  0.00    +0.006 C 
ATOM     24  C   UNL     1      -3.658  -3.616  -3.777  0.00  0.00    +0.006 C 
ENDBRANCH  21  22
BRANCH  21  25
ATOM     25  O   UNL     1      -1.314  -3.606  -1.735  0.00  0.00    -0.424 OA
BRANCH  25  26
ATOM     26  C   UNL     1      -1.843  -4.482  -0.810  0.00  0.00    +0.319 C 
ATOM     27  O   UNL     1      -2.883  -4.304  -0.155  0.00  0.00    -0.250 OA
BRANCH  26  29
ATOM     28  C   UNL     1      -0.248  -5.883  -1.164  0.00  0.00    +0.012 C 
ATOM     29  C   UNL     1      -1.067  -5.732  -0.543  0.00  0.00    +0.110 C 
ENDBRANCH  26  29
ENDBRANCH  25  26
ENDBRANCH  21  25
ENDBRANCH  20  21
ENDBRANCH   1  20
BRANCH   1  30
ATOM     30  C   UNL     1      -1.646   1.200  -1.331  0.00  0.00    +0.088 C 
BRANCH  30  31
ATOM     31  C   UNL     1      -2.208   1.937  -0.153  0.00  0.00    +0.011 C 
BRANCH  31  32
ATOM     32  C   UNL     1      -1.898   1.325   1.170  0.00  0.00    +0.005 C 
BRANCH  32  33
ATOM     33  C   UNL     1      -2.942   1.539   2.223  0.00  0.00    +0.026 C 
BRANCH  33  34
ATOM     34  C   UNL     1      -4.156   2.194   1.691  0.00  0.00    -0.022 A 
ATOM     35  C   UNL     1      -4.847   1.705   0.593  0.00  0.00    -0.004 A 
ATOM     36  C   UNL     1      -6.213   1.907   0.510  0.00  0.00    -0.000 A 
ATOM     37  C   UNL     1      -6.786   2.954   1.178  0.00  0.00    -0.000 A 
ATOM     38  C   UNL     1      -6.064   3.502   2.231  0.00  0.00    -0.000 A 
ATOM     39  C   UNL     1      -4.726   3.227   2.419  0.00  0.00    -0.004 A 
ENDBRANCH  33  34
ENDBRANCH  32  33
ENDBRANCH  31  32
ENDBRANCH  30  31
ENDBRANCH   1  30
TORSDOF 15
