REMARK  Name = 
REMARK  6 active torsions:
REMARK  status: ('A' for Active; 'I' for Inactive)
REMARK    1  A    between atoms: C_2  and  C_3
REMARK    2  A    between atoms: C_2  and  C_19
REMARK    3  A    between atoms: C_3  and  N_4
REMARK    4  A    between atoms: N_4  and  C_5
REMARK    5  A    between atoms: C_5  and  C_6
REMARK    6  A    between atoms: C_6  and  C_8
REMARK                            x       y       z     vdW  Elec       q    Type
REMARK                         _______ _______ _______ _____ _____    ______ ____
ROOT
ATOM      1  N   UNL     1      -0.227  -1.618   0.090  0.00  0.00    -0.212 NA
ENDROOT
BRANCH   1   2
ATOM      2  C   UNL     1      -1.084  -2.166  -0.890  0.00  0.00    +0.125 C 
BRANCH   2   4
ATOM      3  O   UNL     1      -1.556   0.001  -1.444  0.00  0.00    -0.218 OA
ATOM      4  C   UNL     1      -2.400  -1.183  -1.013  0.00  0.00    +0.209 C 
BRANCH   4   5
ATOM      5  C   UNL     1      -2.342  -0.706   0.660  0.00  0.00    +0.198 C 
ATOM      6  O   UNL     1      -3.050   0.619   0.371  0.00  0.00    -0.477 OA
ATOM      7  C   UNL     1      -4.373   0.780   0.468  0.00  0.00    +0.135 A 
ATOM      8  C   UNL     1      -5.099  -0.169  -0.249  0.00  0.00    +0.014 A 
ATOM      9  C   UNL     1      -6.412   0.072  -0.494  0.00  0.00    +0.028 A 
ATOM     10  C   UNL     1      -6.973   1.318  -0.236  0.00  0.00    +0.140 A 
ATOM     11  C   UNL     1      -6.295   2.136   0.660  0.00  0.00    +0.033 A 
ATOM     12  F   UNL     1      -7.985   1.823  -0.997  0.00  0.00    -0.204 F 
ATOM     13  C   UNL     1      -4.600  -1.573  -0.093  0.00  0.00    +0.033 C 
ATOM     14  C   UNL     1      -4.911   2.035   0.743  0.00  0.00    +0.039 A 
ATOM     15  C   UNL     1      -3.686  -1.565   1.067  0.00  0.00    +0.051 C 
ENDBRANCH   4   5
ENDBRANCH   2   4
ENDBRANCH   1   2
BRANCH   1  16
ATOM     16  C   UNL     1       1.141  -1.934  -0.138  0.00  0.00    +0.125 C 
BRANCH  16  17
ATOM     17  C   UNL     1       1.520  -0.683  -1.149  0.00  0.00    +0.209 C 
ATOM     18  O   UNL     1       1.275  -1.558  -2.368  0.00  0.00    -0.218 OA
BRANCH  17  19
ATOM     19  C   UNL     1       3.214  -1.049  -1.169  0.00  0.00    +0.198 C 
ATOM     20  O   UNL     1       3.591   0.441  -1.079  0.00  0.00    -0.477 OA
ATOM     21  C   UNL     1       4.883   0.625  -0.561  0.00  0.00    +0.135 A 
ATOM     22  C   UNL     1       5.492  -0.347   0.229  0.00  0.00    +0.014 A 
ATOM     23  C   UNL     1       6.267   0.093   1.297  0.00  0.00    +0.028 A 
ATOM     24  C   UNL     1       6.639   1.425   1.433  0.00  0.00    +0.140 A 
ATOM     25  C   UNL     1       6.472   2.194   0.295  0.00  0.00    +0.033 A 
ATOM     26  F   UNL     1       6.861   1.989   2.656  0.00  0.00    -0.204 F 
ATOM     27  C   UNL     1       4.800  -1.652   0.501  0.00  0.00    +0.033 C 
ATOM     28  C   UNL     1       5.506   1.867  -0.645  0.00  0.00    +0.039 A 
ATOM     29  C   UNL     1       3.334  -1.216   0.466  0.00  0.00    +0.051 C 
ENDBRANCH  17  19
ENDBRANCH  16  17
ENDBRANCH   1  16
TORSDOF 6
