REMARK  Name = 
REMARK  10 active torsions:
REMARK  status: ('A' for Active; 'I' for Inactive)
REMARK    1  A    between atoms: C_2  and  N_3
REMARK    2  A    between atoms: N_3  and  C_4
REMARK    3  A    between atoms: N_3  and  C_6
REMARK    4  A    between atoms: C_6  and  C_7
REMARK    5  A    between atoms: C_8  and  C_9
REMARK    6  A    between atoms: C_9  and  O_10
REMARK    7  A    between atoms: O_10  and  C_11
REMARK    8  A    between atoms: C_11  and  C_13
REMARK    9  A    between atoms: C_13  and  C_15
REMARK   10  A    between atoms: C_13  and  C_21
REMARK                            x       y       z     vdW  Elec       q    Type
REMARK                         _______ _______ _______ _____ _____    ______ ____
ROOT
ATOM      1  C   UNL     1      -2.019   0.053  -0.514  0.00  0.00    +0.233 C 
ATOM      2  O   UNL     1      -2.366  -0.026  -1.865  0.00  0.00    -0.210 OA
ENDROOT
BRANCH   1   3
ATOM      3  C   UNL     1      -2.312   1.432  -0.072  0.00  0.00    +0.015 A 
ATOM      4  C   UNL     1      -1.587   2.441  -0.693  0.00  0.00    -0.001 A 
ATOM      5  C   UNL     1      -1.789   3.777  -0.420  0.00  0.00    -0.000 A 
ATOM      6  C   UNL     1      -2.786   4.067   0.502  0.00  0.00    -0.000 A 
ATOM      7  C   UNL     1      -3.435   3.057   1.200  0.00  0.00    -0.000 A 
ATOM      8  C   UNL     1      -3.048   1.746   1.044  0.00  0.00    -0.001 A 
ENDBRANCH   1   3
BRANCH   1   9
ATOM      9  C   UNL     1      -2.827  -0.985   0.213  0.00  0.00    +0.043 C 
ATOM     10  C   UNL     1      -4.286  -0.635   0.309  0.00  0.00    +0.003 C 
ATOM     11  C   UNL     1      -5.146  -1.460  -0.615  0.00  0.00    +0.000 C 
ATOM     12  C   UNL     1      -4.955  -2.942  -0.409  0.00  0.00    +0.000 C 
ATOM     13  C   UNL     1      -3.585  -3.293   0.101  0.00  0.00    +0.000 C 
ATOM     14  C   UNL     1      -2.607  -2.304  -0.518  0.00  0.00    +0.003 C 
ENDBRANCH   1   9
BRANCH   1  15
ATOM     15  C   UNL     1      -0.582  -0.272  -0.290  0.00  0.00    +0.350 C 
ATOM     16  O   UNL     1      -0.233  -0.946   0.726  0.00  0.00    -0.247 OA
BRANCH  15  17
ATOM     17  O   UNL     1       0.452   0.395  -0.945  0.00  0.00    -0.432 OA
BRANCH  17  18
ATOM     18  C   UNL     1       1.570  -0.401  -1.330  0.00  0.00    +0.284 C 
BRANCH  18  20
ATOM     19  C   UNL     1       3.513  -0.498   0.440  0.00  0.00    -0.069 C 
ATOM     20  C   UNL     1       2.453  -0.429  -0.150  0.00  0.00    -0.042 C 
BRANCH  19  21
ATOM     21  C   UNL     1       4.867  -0.748   0.968  0.00  0.00    +0.150 C 
BRANCH  21  22
ATOM     22  N   UNL     1       5.816  -0.485  -0.107  0.00  0.00    -0.262 NA
BRANCH  22  23
ATOM     23  C   UNL     1       6.478   0.781   0.042  0.00  0.00    +0.073 C 
ATOM     24  C   UNL     1       5.488   1.727   0.712  0.00  0.00    +0.019 C 
ENDBRANCH  22  23
BRANCH  22  26
ATOM     25  C   UNL     1       6.217  -2.463  -0.664  0.00  0.00    +0.019 C 
ATOM     26  C   UNL     1       6.711  -1.590  -0.335  0.00  0.00    +0.073 C 
ENDBRANCH  22  26
ENDBRANCH  21  22
ENDBRANCH  19  21
ENDBRANCH  18  20
ENDBRANCH  17  18
ENDBRANCH  15  17
ENDBRANCH   1  15
TORSDOF 10
