REMARK  Name = 
REMARK  6 active torsions:
REMARK  status: ('A' for Active; 'I' for Inactive)
REMARK    1  A    between atoms: C_2  and  N_3
REMARK    2  A    between atoms: N_3  and  C_4
REMARK    3  A    between atoms: C_6  and  C_8
REMARK    4  A    between atoms: C_8  and  C_9
REMARK    5  A    between atoms: C_11  and  C_12
REMARK    6  A    between atoms: C_18  and  N_19
REMARK                            x       y       z     vdW  Elec       q    Type
REMARK                         _______ _______ _______ _____ _____    ______ ____
ROOT
ATOM      1  C   UNL     1       1.606   0.044  -0.406  0.00  0.00    +0.122 C 
ATOM      2  C   UNL     1       0.710   0.825   0.199  0.00  0.00    +0.015 C 
ENDROOT
BRANCH   2   3
ATOM      3  C   UNL     1      -0.717   0.688   0.031  0.00  0.00    +0.010 A 
ATOM      4  C   UNL     1      -1.322  -0.418   0.613  0.00  0.00    +0.079 A 
ATOM      5  C   UNL     1      -2.675  -0.577   0.504  0.00  0.00    +0.332 A 
ATOM      6  C   UNL     1      -3.506   0.515   0.326  0.00  0.00    +0.303 A 
ATOM      7  O   UNL     1      -4.773   0.514   0.916  0.00  0.00    -0.277 OA
ATOM      8  C   UNL     1      -2.913   1.692  -0.116  0.00  0.00    +0.241 A 
ATOM      9  O   UNL     1      -3.716   2.805  -0.297  0.00  0.00    -0.283 OA
ATOM     10  C   UNL     1      -1.546   1.721  -0.363  0.00  0.00    +0.046 A 
BRANCH   5  11
ATOM     11  N   UNL     1      -3.274  -1.877   0.544  0.00  0.00    +0.084 N 
ATOM     12  O   UNL     1      -4.591  -2.052   0.166  0.00  0.00    -0.576 OA
ATOM     13  O   UNL     1      -2.541  -2.882   0.363  0.00  0.00    +0.042 OA
ENDBRANCH   5  11
ENDBRANCH   2   3
BRANCH   1  15
ATOM     14  N   UNL     1       4.071   0.537  -0.042  0.00  0.00    -0.276 N 
ATOM     15  C   UNL     1       2.861  -0.130   0.335  0.00  0.00    +0.259 C 
ATOM     16  O   UNL     1       2.871  -1.078   1.169  0.00  0.00    -0.269 OA
BRANCH  14  18
ATOM     17  C   UNL     1       3.266   2.824  -0.426  0.00  0.00    +0.023 C 
ATOM     18  C   UNL     1       4.265   1.950   0.278  0.00  0.00    +0.094 C 
ENDBRANCH  14  18
BRANCH  14  19
ATOM     19  C   UNL     1       5.281  -0.277   0.048  0.00  0.00    +0.094 C 
ATOM     20  C   UNL     1       5.007  -1.739  -0.138  0.00  0.00    +0.023 C 
ENDBRANCH  14  19
ENDBRANCH   1  15
BRANCH   1  21
ATOM     21  C   UNL     1       1.069  -1.064  -1.165  0.00  0.00    +0.105 C 
ATOM     22  N   UNL     1       0.565  -2.022  -1.605  0.00  0.00    -0.191 NA
ENDBRANCH   1  21
TORSDOF 6
