REMARK  Name = 
REMARK  10 active torsions:
REMARK  status: ('A' for Active; 'I' for Inactive)
REMARK    1  A    between atoms: O_2  and  C_3
REMARK    2  A    between atoms: C_3  and  C_5
REMARK    3  A    between atoms: C_5  and  C_6
REMARK    4  A    between atoms: C_6  and  C_7
REMARK    5  A    between atoms: C_10  and  O_11
REMARK    6  A    between atoms: O_11  and  C_12
REMARK    7  A    between atoms: C_12  and  C_13
REMARK    8  A    between atoms: C_13  and  C_15
REMARK    9  A    between atoms: C_15  and  N_16
REMARK   10  A    between atoms: N_16  and  C_17
REMARK                            x       y       z     vdW  Elec       q    Type
REMARK                         _______ _______ _______ _____ _____    ______ ____
ROOT
ATOM      1  C   UNL     1      -2.562  -1.004  -0.426  0.00  0.00    -0.021 A 
ATOM      2  C   UNL     1      -2.074  -1.263   0.849  0.00  0.00    -0.001 A 
ATOM      3  C   UNL     1      -0.703  -1.320   1.088  0.00  0.00    +0.037 A 
ATOM      4  C   UNL     1       0.216  -0.921   0.121  0.00  0.00    +0.139 A 
ATOM      5  C   UNL     1      -0.258  -1.125  -1.174  0.00  0.00    +0.037 A 
ATOM      6  C   UNL     1      -1.625  -1.169  -1.440  0.00  0.00    -0.001 A 
ENDROOT
BRANCH   1   7
ATOM      7  C   UNL     1      -3.662  -0.016  -0.665  0.00  0.00    +0.038 C 
BRANCH   7   8
ATOM      8  C   UNL     1      -4.096   0.651   0.633  0.00  0.00    +0.114 C 
BRANCH   8   9
ATOM      9  C   UNL     1      -5.590   0.557   0.643  0.00  0.00    +0.317 C 
ATOM     10  O   UNL     1      -6.054  -0.524   1.117  0.00  0.00    -0.250 OA
BRANCH   9  12
ATOM     11  C   UNL     1      -7.439   0.698  -0.763  0.00  0.00    +0.256 C 
ATOM     12  O   UNL     1      -6.347   1.124  -0.387  0.00  0.00    -0.444 OA
ENDBRANCH   9  12
ENDBRANCH   8   9
ENDBRANCH   7   8
ENDBRANCH   1   7
BRANCH   4  13
ATOM     13  O   UNL     1       1.191   0.028   0.345  0.00  0.00    -0.473 OA
BRANCH  13  14
ATOM     14  C   UNL     1       2.245   0.029   1.206  0.00  0.00    +0.240 C 
BRANCH  14  15
ATOM     15  C   UNL     1       3.496  -0.807   0.533  0.00  0.00    +0.213 C 
ATOM     16  O   UNL     1       3.116  -0.432  -0.893  0.00  0.00    -0.218 OA
BRANCH  15  17
ATOM     17  C   UNL     1       4.521   0.481   0.708  0.00  0.00    +0.125 C 
BRANCH  17  18
ATOM     18  N   UNL     1       5.140   0.664  -0.542  0.00  0.00    -0.217 NA
BRANCH  18  19
ATOM     19  C   UNL     1       6.405   1.185  -0.684  0.00  0.00    +0.073 C 
ATOM     20  C   UNL     1       7.539   0.558   0.025  0.00  0.00    +0.019 C 
ATOM     21  C   UNL     1       6.539   2.606  -1.074  0.00  0.00    +0.019 C 
ENDBRANCH  18  19
ENDBRANCH  17  18
ENDBRANCH  15  17
ENDBRANCH  14  15
ENDBRANCH  13  14
ENDBRANCH   4  13
TORSDOF 10
