REMARK  Name = 
REMARK  5 active torsions:
REMARK  status: ('A' for Active; 'I' for Inactive)
REMARK    1  A    between atoms: O_2  and  C_3
REMARK    2  A    between atoms: C_5  and  C_6
REMARK    3  A    between atoms: C_13  and  O_14
REMARK    4  A    between atoms: O_14  and  C_15
REMARK    5  A    between atoms: C_38  and  O_39
REMARK                            x       y       z     vdW  Elec       q    Type
REMARK                         _______ _______ _______ _____ _____    ______ ____
ROOT
ATOM      1  C   UNL     1      -1.059   0.173   0.242  0.00  0.00    +0.055 C 
ATOM      2  C   UNL     1      -0.200  -0.205   1.663  0.00  0.00    +0.113 C 
ATOM      3  C   UNL     1       0.404  -1.699   1.106  0.00  0.00    +0.086 C 
ATOM      4  C   UNL     1       1.277  -1.540   2.444  0.00  0.00    +0.212 C 
ATOM      5  O   UNL     1       0.005  -1.768   3.142  0.00  0.00    -0.448 OA
ATOM      6  C   UNL     1       1.339  -1.080  -0.146  0.00  0.00    +0.144 C 
ATOM      7  C   UNL     1       0.034  -1.384  -1.075  0.00  0.00    +0.004 A 
ATOM      8  C   UNL     1       0.086  -2.661  -1.655  0.00  0.00    +0.038 A 
ATOM      9  C   UNL     1      -1.070  -3.148  -2.264  0.00  0.00    +0.176 A 
ATOM     10  O   UNL     1      -1.344  -4.295  -2.990  0.00  0.00    -0.435 OA
ATOM     11  C   UNL     1      -2.723  -4.612  -2.815  0.00  0.00    +0.429 C 
ATOM     12  O   UNL     1      -3.264  -3.363  -2.534  0.00  0.00    -0.435 OA
ATOM     13  C   UNL     1      -2.267  -2.461  -2.154  0.00  0.00    +0.176 A 
ATOM     14  C   UNL     1      -2.223  -1.384  -1.282  0.00  0.00    +0.036 A 
ATOM     15  C   UNL     1      -1.115  -1.215   2.447  0.00  0.00    +0.317 C 
ATOM     16  O   UNL     1      -1.844  -2.108   1.936  0.00  0.00    -0.250 OA
ATOM     17  C   UNL     1      -1.194  -1.306  -0.349  0.00  0.00    -0.016 A 
ENDROOT
BRANCH   1  23
ATOM     18  C   UNL     1      -3.563   2.538   0.997  0.00  0.00    +0.180 A 
ATOM     19  C   UNL     1      -4.573   2.034   0.173  0.00  0.00    +0.263 A 
ATOM     20  O   UNL     1      -4.913   2.735  -0.992  0.00  0.00    -0.280 OA
ATOM     21  C   UNL     1      -4.675   0.645   0.230  0.00  0.00    +0.180 A 
ATOM     22  C   UNL     1      -3.586  -0.141   0.572  0.00  0.00    +0.036 A 
ATOM     23  C   UNL     1      -2.448   0.355   1.015  0.00  0.00    -0.012 A 
ATOM     24  C   UNL     1      -2.442   1.744   1.262  0.00  0.00    +0.036 A 
BRANCH  18  26
ATOM     25  C   UNL     1      -3.460   4.708   1.059  0.00  0.00    +0.253 C 
ATOM     26  O   UNL     1      -3.590   3.904   1.180  0.00  0.00    -0.468 OA
ENDBRANCH  18  26
BRANCH  21  27
ATOM     27  O   UNL     1      -5.525   0.002  -0.676  0.00  0.00    -0.468 OA
ATOM     28  C   UNL     1      -6.878  -0.223  -0.456  0.00  0.00    +0.253 C 
ENDBRANCH  21  27
ENDBRANCH   1  23
BRANCH   6  29
ATOM     29  O   UNL     1       1.026   0.390   0.062  0.00  0.00    -0.326 OA
BRANCH  29  30
ATOM     30  C   UNL     1       2.127   1.039  -0.742  0.00  0.00    +0.270 C 
ATOM     31  C   UNL     1       2.659   1.944   0.626  0.00  0.00    +0.240 C 
ATOM     32  O   UNL     1       1.824   3.123   0.243  0.00  0.00    -0.215 OA
ATOM     33  C   UNL     1       4.002   2.586  -0.194  0.00  0.00    +0.217 C 
ATOM     34  O   UNL     1       4.537   3.199   1.062  0.00  0.00    -0.218 OA
ATOM     35  C   UNL     1       4.900   1.170   0.072  0.00  0.00    +0.180 C 
ATOM     36  C   UNL     1       4.191   0.490  -1.327  0.00  0.00    +0.177 C 
ATOM     37  C   UNL     1       5.104  -0.862  -1.195  0.00  0.00    +0.177 C 
ATOM     38  O   UNL     1       6.277  -0.335  -1.681  0.00  0.00    -0.328 OA
ATOM     39  C   UNL     1       6.903   0.408  -0.497  0.00  0.00    +0.235 C 
ATOM     40  C   UNL     1       8.093   1.029  -1.478  0.00  0.00    +0.067 C 
ATOM     41  O   UNL     1       6.048   1.654  -0.746  0.00  0.00    -0.328 OA
ATOM     42  O   UNL     1       3.121  -0.079  -0.445  0.00  0.00    -0.326 OA
ENDBRANCH  29  30
ENDBRANCH   6  29
TORSDOF 5
