REMARK  Name = 
REMARK  7 active torsions:
REMARK  status: ('A' for Active; 'I' for Inactive)
REMARK    1  A    between atoms: N_2  and  C_3
REMARK    2  A    between atoms: C_3  and  C_5
REMARK    3  A    between atoms: C_10  and  O_11
REMARK    4  A    between atoms: O_11  and  C_12
REMARK    5  A    between atoms: C_18  and  O_19
REMARK    6  A    between atoms: O_19  and  C_20
REMARK    7  A    between atoms: C_26  and  N_27
REMARK                            x       y       z     vdW  Elec       q    Type
REMARK                         _______ _______ _______ _____ _____    ______ ____
ROOT
ATOM      1  C   UNL     1      -1.400  -0.443   0.607  0.00  0.00    +0.168 C 
ATOM      2  C   UNL     1       0.098  -1.260   0.448  0.00  0.00    +0.209 C 
ATOM      3  O   UNL     1       0.572  -0.883  -0.906  0.00  0.00    -0.218 OA
ATOM      4  C   UNL     1       1.045  -0.074   1.262  0.00  0.00    +0.168 C 
ATOM      5  C   UNL     1      -0.104   1.185   1.109  0.00  0.00    +0.123 C 
ATOM      6  N   UNL     1       0.895   2.352   1.347  0.00  0.00    -0.130 NA
ATOM      7  C   UNL     1      -0.070   1.282  -0.528  0.00  0.00    +0.043 C 
ATOM      8  C   UNL     1      -1.485   0.507  -0.813  0.00  0.00    +0.123 C 
ATOM      9  N   UNL     1      -1.057  -0.564  -1.866  0.00  0.00    -0.130 NA
ENDROOT
BRANCH   1  10
ATOM     10  O   UNL     1      -2.170  -1.619   0.122  0.00  0.00    -0.328 OA
BRANCH  10  13
ATOM     11  C   UNL     1      -4.589   0.565  -1.148  0.00  0.00    +0.134 C 
ATOM     12  O   UNL     1      -3.800  -0.007   0.025  0.00  0.00    -0.331 OA
ATOM     13  C   UNL     1      -3.181  -1.069  -0.877  0.00  0.00    +0.253 C 
ATOM     14  C   UNL     1      -4.375  -2.301  -0.604  0.00  0.00    +0.148 C 
ATOM     15  N   UNL     1      -3.876  -2.796   0.786  0.00  0.00    -0.128 NA
ATOM     16  C   UNL     1      -5.514  -1.396   0.119  0.00  0.00    +0.027 C 
ATOM     17  C   UNL     1      -5.914  -0.310  -0.755  0.00  0.00    +0.033 C 
BRANCH  11  18
ATOM     18  C   UNL     1      -5.039   2.017  -0.336  0.00  0.00    +0.100 C 
ATOM     19  C   UNL     1      -6.599   1.968  -0.802  0.00  0.00    +0.021 C 
BRANCH  18  21
ATOM     20  C   UNL     1      -4.876   1.212   1.283  0.00  0.00    +0.107 C 
ATOM     21  N   UNL     1      -5.343   1.346   1.042  0.00  0.00    -0.215 NA
ENDBRANCH  18  21
ENDBRANCH  11  18
ENDBRANCH  10  13
ENDBRANCH   1  10
BRANCH   4  22
ATOM     22  O   UNL     1       1.925   0.313   0.102  0.00  0.00    -0.327 OA
BRANCH  22  23
ATOM     23  C   UNL     1       2.936  -0.767   0.497  0.00  0.00    +0.268 C 
ATOM     24  C   UNL     1       4.028  -0.459  -0.818  0.00  0.00    +0.226 C 
ATOM     25  O   UNL     1       4.245  -1.903  -1.135  0.00  0.00    -0.216 OA
ATOM     26  C   UNL     1       5.371  -0.475   0.245  0.00  0.00    +0.138 C 
ATOM     27  C   UNL     1       5.390   1.151   0.191  0.00  0.00    +0.171 C 
ATOM     28  O   UNL     1       5.520   1.567  -1.081  0.00  0.00    -0.222 OA
ATOM     29  C   UNL     1       6.240   1.690   1.247  0.00  0.00    +0.037 C 
ATOM     30  C   UNL     1       3.952   1.317   0.609  0.00  0.00    +0.176 C 
ATOM     31  O   UNL     1       3.582   0.253   1.441  0.00  0.00    -0.326 OA
BRANCH  26  32
ATOM     32  N   UNL     1       6.433  -0.664  -0.885  0.00  0.00    -0.213 NA
ATOM     33  C   UNL     1       7.162  -1.732  -0.191  0.00  0.00    +0.108 C 
ENDBRANCH  26  32
ENDBRANCH  22  23
ENDBRANCH   4  22
TORSDOF 7
