REMARK  Name = 
REMARK  10 active torsions:
REMARK  status: ('A' for Active; 'I' for Inactive)
REMARK    1  A    between atoms: S_2  and  O_5
REMARK    2  A    between atoms: O_5  and  C_6
REMARK    3  A    between atoms: C_11  and  O_12
REMARK    4  A    between atoms: O_12  and  C_13
REMARK    5  A    between atoms: C_18  and  O_19
REMARK    6  A    between atoms: O_19  and  S_20
REMARK    7  A    between atoms: C_24  and  O_25
REMARK    8  A    between atoms: O_25  and  S_26
REMARK    9  A    between atoms: C_30  and  O_31
REMARK   10  A    between atoms: O_31  and  S_32
REMARK                            x       y       z     vdW  Elec       q    Type
REMARK                         _______ _______ _______ _____ _____    ______ ____
ROOT
ATOM      1  O   UNL     1       0.048   0.771   0.276  0.00  0.00    -0.326 OA
ENDROOT
BRANCH   1   2
ATOM      2  C   UNL     1       1.146   0.392   1.290  0.00  0.00    +0.269 C 
ATOM      3  C   UNL     1       2.113  -0.387   0.064  0.00  0.00    +0.231 C 
ATOM      4  C   UNL     1       3.457   0.663   0.181  0.00  0.00    +0.210 C 
ATOM      5  C   UNL     1       2.805   1.715  -1.029  0.00  0.00    +0.213 C 
ATOM      6  O   UNL     1       3.744   2.840  -0.625  0.00  0.00    -0.218 OA
ATOM      7  C   UNL     1       1.631   2.280  -0.022  0.00  0.00    +0.180 C 
ATOM      8  O   UNL     1       1.830   1.765   1.186  0.00  0.00    -0.326 OA
BRANCH   3   9
ATOM      9  O   UNL     1       2.738  -1.287   1.088  0.00  0.00    -0.236 OA
BRANCH   9  10
ATOM     10  S   UNL     1       2.798  -2.838   0.570  0.00  0.00    +0.000 S 
ATOM     11  O   UNL     1       4.306  -3.537   0.872  0.00  0.00    -0.268 OA
ATOM     12  O   UNL     1       2.502  -3.065  -0.863  0.00  0.00    -0.345 OA
ATOM     13  O   UNL     1       1.816  -3.611   1.426  0.00  0.00    -0.345 OA
ENDBRANCH   9  10
ENDBRANCH   3   9
BRANCH   4  14
ATOM     14  O   UNL     1       4.160  -0.147  -0.865  0.00  0.00    -0.238 OA
BRANCH  14  15
ATOM     15  S   UNL     1       5.769  -0.242  -0.527  0.00  0.00    -0.000 S 
ATOM     16  O   UNL     1       6.409  -1.096  -1.845  0.00  0.00    -0.268 OA
ATOM     17  O   UNL     1       6.101  -1.099   0.663  0.00  0.00    -0.345 OA
ATOM     18  O   UNL     1       6.479   1.068  -0.490  0.00  0.00    -0.345 OA
ENDBRANCH  14  15
ENDBRANCH   4  14
ENDBRANCH   1   2
BRANCH   1  21
ATOM     19  C   UNL     1      -3.508  -0.295   0.119  0.00  0.00    +0.234 C 
ATOM     20  C   UNL     1      -2.137   0.593  -0.381  0.00  0.00    +0.207 C 
ATOM     21  C   UNL     1      -1.106  -0.024   0.862  0.00  0.00    +0.179 C 
ATOM     22  C   UNL     1      -0.675  -1.350  -0.022  0.00  0.00    +0.177 C 
ATOM     23  O   UNL     1      -1.610  -1.391  -0.964  0.00  0.00    -0.324 OA
ATOM     24  C   UNL     1      -2.939  -1.871  -0.364  0.00  0.00    +0.301 C 
ATOM     25  O   UNL     1      -2.385  -2.151   1.053  0.00  0.00    -0.187 OA
BRANCH  19  26
ATOM     26  O   UNL     1      -4.132  -0.117  -1.234  0.00  0.00    -0.236 OA
BRANCH  26  28
ATOM     27  O   UNL     1      -5.712  -0.375  -1.466  0.00  0.00    -0.345 OA
ATOM     28  S   UNL     1      -5.710  -0.316  -1.226  0.00  0.00    +0.000 S 
ATOM     29  O   UNL     1      -6.398  -1.767  -1.144  0.00  0.00    -0.268 OA
ATOM     30  O   UNL     1      -6.418   0.737  -1.989  0.00  0.00    -0.345 OA
ENDBRANCH  26  28
ENDBRANCH  19  26
BRANCH  20  31
ATOM     31  O   UNL     1      -2.534   1.738   0.506  0.00  0.00    -0.238 OA
BRANCH  31  32
ATOM     32  S   UNL     1      -3.436   2.813  -0.366  0.00  0.00    -0.000 S 
ATOM     33  O   UNL     1      -3.429   2.538  -2.008  0.00  0.00    -0.268 OA
ATOM     34  O   UNL     1      -4.832   2.856   0.212  0.00  0.00    -0.345 OA
ATOM     35  O   UNL     1      -2.886   4.195  -0.075  0.00  0.00    -0.345 OA
ENDBRANCH  31  32
ENDBRANCH  20  31
ENDBRANCH   1  21
TORSDOF 10
