REMARK  Name = 
REMARK  26 active torsions:
REMARK  status: ('A' for Active; 'I' for Inactive)
REMARK    1  A    between atoms: O_2  and  C_3
REMARK    2  A    between atoms: C_6  and  C_7
REMARK    3  A    between atoms: C_7  and  C_8
REMARK    4  A    between atoms: C_11  and  O_12
REMARK    5  A    between atoms: C_14  and  O_15
REMARK    6  A    between atoms: N_21  and  C_23
REMARK    7  A    between atoms: C_23  and  C_24
REMARK    8  A    between atoms: C_24  and  C_25
REMARK    9  A    between atoms: C_25  and  O_27
REMARK   10  A    between atoms: O_27  and  C_28
REMARK   11  A    between atoms: C_28  and  C_29
REMARK   12  A    between atoms: C_29  and  C_30
REMARK   13  A    between atoms: C_30  and  C_31
REMARK   14  A    between atoms: C_31  and  C_32
REMARK   15  A    between atoms: C_32  and  O_33
REMARK   16  A    between atoms: O_33  and  C_34
REMARK   17  A    between atoms: C_34  and  C_36
REMARK   18  A    between atoms: C_36  and  C_37
REMARK   19  A    between atoms: C_37  and  N_38
REMARK   20  A    between atoms: C_44  and  O_45
REMARK   21  A    between atoms: C_47  and  O_48
REMARK   22  A    between atoms: C_52  and  C_53
REMARK   23  A    between atoms: C_53  and  C_54
REMARK   24  A    between atoms: C_57  and  O_58
REMARK   25  A    between atoms: C_60  and  O_61
REMARK   26  A    between atoms: C_65  and  O_66
REMARK                            x       y       z     vdW  Elec       q    Type
REMARK                         _______ _______ _______ _____ _____    ______ ____
ROOT
ATOM      1  C   UNL     1       0.024   1.319   1.498  0.00  0.00    +0.008 C 
ENDROOT
BRANCH   1   2
ATOM      2  C   UNL     1      -0.505   1.355   0.092  0.00  0.00    +0.048 C 
BRANCH   2   3
ATOM      3  C   UNL     1      -1.648   0.385  -0.033  0.00  0.00    +0.208 C 
BRANCH   3   4
ATOM      4  O   UNL     1      -2.667   0.746   0.896  0.00  0.00    -0.448 OA
BRANCH   4   5
ATOM      5  C   UNL     1      -3.056   2.063   1.093  0.00  0.00    +0.323 C 
ATOM      6  O   UNL     1      -2.538   2.923   0.324  0.00  0.00    -0.250 OA
BRANCH   5   7
ATOM      7  C   UNL     1      -4.395   2.420   1.653  0.00  0.00    +0.170 C 
BRANCH   7   8
ATOM      8  C   UNL     1      -5.369   1.415   1.145  0.00  0.00    +0.121 C 
BRANCH   8   9
ATOM      9  N   UNL     1      -6.581   2.111   0.860  0.00  0.00    +0.301 N 
ATOM     10  C   UNL     1      -7.657   0.972   0.523  0.00  0.00    +0.086 C 
ATOM     11  C   UNL     1      -6.604   0.176  -0.461  0.00  0.00    +0.027 A 
ATOM     12  C   UNL     1      -6.609   0.879  -1.663  0.00  0.00    -0.012 A 
ATOM     13  C   UNL     1      -6.558   0.232  -2.892  0.00  0.00    +0.036 A 
ATOM     14  C   UNL     1      -6.764  -1.142  -2.930  0.00  0.00    +0.172 A 
ATOM     15  C   UNL     1      -6.778  -1.836  -1.726  0.00  0.00    +0.172 A 
ATOM     16  C   UNL     1      -7.055   2.306  -1.552  0.00  0.00    +0.087 C 
ATOM     17  C   UNL     1      -6.852  -1.183  -0.504  0.00  0.00    +0.041 A 
ATOM     18  C   UNL     1      -6.546   2.950  -0.301  0.00  0.00    +0.114 C 
ATOM     19  C   UNL     1      -7.164   2.766   2.006  0.00  0.00    +0.171 C 
BRANCH  14  20
ATOM     20  O   UNL     1      -7.298  -1.773  -4.034  0.00  0.00    -0.468 OA
ATOM     21  C   UNL     1      -8.648  -2.161  -4.103  0.00  0.00    +0.253 C 
ENDBRANCH  14  20
BRANCH  15  22
ATOM     22  O   UNL     1      -6.458  -3.195  -1.748  0.00  0.00    -0.468 OA
ATOM     23  C   UNL     1      -5.942  -3.869  -0.604  0.00  0.00    +0.253 C 
ENDBRANCH  15  22
BRANCH  10  24
ATOM     24  C   UNL     1      -7.202   0.054   1.851  0.00  0.00    +0.086 C 
BRANCH  24  25
ATOM     25  C   UNL     1      -8.449  -0.654   2.239  0.00  0.00    -0.013 A 
ATOM     26  C   UNL     1      -9.666  -0.001   2.406  0.00  0.00    +0.036 A 
ATOM     27  C   UNL     1     -10.869  -0.643   2.122  0.00  0.00    +0.172 A 
ATOM     28  C   UNL     1     -10.857  -1.855   1.440  0.00  0.00    +0.172 A 
ATOM     29  C   UNL     1      -9.726  -2.629   1.681  0.00  0.00    +0.040 A 
ATOM     30  C   UNL     1      -8.570  -2.040   2.185  0.00  0.00    -0.001 A 
BRANCH  28  31
ATOM     31  O   UNL     1     -11.675  -2.085   0.328  0.00  0.00    -0.468 OA
ATOM     32  C   UNL     1     -11.272  -1.617  -0.958  0.00  0.00    +0.253 C 
ENDBRANCH  28  31
BRANCH  27  33
ATOM     33  O   UNL     1     -11.957   0.207   1.901  0.00  0.00    -0.468 OA
ATOM     34  C   UNL     1     -13.245  -0.316   2.153  0.00  0.00    +0.253 C 
ENDBRANCH  27  33
ENDBRANCH  24  25
ENDBRANCH  10  24
ENDBRANCH   8   9
ENDBRANCH   7   8
ENDBRANCH   5   7
ENDBRANCH   4   5
ENDBRANCH   3   4
ENDBRANCH   2   3
ENDBRANCH   1   2
BRANCH   1  35
ATOM     35  C   UNL     1       0.794   2.585   1.811  0.00  0.00    +0.048 C 
BRANCH  35  36
ATOM     36  C   UNL     1       1.605   2.961   0.601  0.00  0.00    +0.208 C 
BRANCH  36  37
ATOM     37  O   UNL     1       2.831   2.245   0.655  0.00  0.00    -0.448 OA
BRANCH  37  38
ATOM     38  C   UNL     1       2.996   1.232  -0.280  0.00  0.00    +0.323 C 
ATOM     39  O   UNL     1       2.792   1.531  -1.480  0.00  0.00    -0.250 OA
BRANCH  38  40
ATOM     40  C   UNL     1       3.925   0.087  -0.024  0.00  0.00    +0.170 C 
BRANCH  40  41
ATOM     41  C   UNL     1       5.316   0.626  -0.231  0.00  0.00    +0.121 C 
BRANCH  41  43
ATOM     42  C   UNL     1       7.495  -0.173  -0.912  0.00  0.00    +0.086 C 
ATOM     43  N   UNL     1       5.959   0.019  -1.336  0.00  0.00    +0.301 N 
ATOM     44  C   UNL     1       5.577  -1.359  -1.563  0.00  0.00    +0.171 C 
ATOM     45  C   UNL     1       5.998   0.779  -2.546  0.00  0.00    +0.114 C 
ATOM     46  C   UNL     1       6.316   2.213  -2.244  0.00  0.00    +0.087 C 
ATOM     47  C   UNL     1       7.262   2.331  -1.124  0.00  0.00    -0.012 A 
ATOM     48  C   UNL     1       7.613   3.620  -0.739  0.00  0.00    +0.036 A 
ATOM     49  C   UNL     1       8.617   3.807   0.204  0.00  0.00    +0.172 A 
ATOM     50  C   UNL     1       9.376   2.724   0.631  0.00  0.00    +0.172 A 
ATOM     51  C   UNL     1       8.786   1.480   0.440  0.00  0.00    +0.041 A 
ATOM     52  C   UNL     1       7.584   1.330  -0.247  0.00  0.00    +0.027 A 
BRANCH  50  53
ATOM     53  O   UNL     1      10.746   2.869   0.859  0.00  0.00    -0.468 OA
ATOM     54  C   UNL     1      11.585   2.664  -0.274  0.00  0.00    +0.253 C 
ENDBRANCH  50  53
BRANCH  49  55
ATOM     55  O   UNL     1       9.062   5.096   0.454  0.00  0.00    -0.468 OA
ATOM     56  C   UNL     1       9.690   5.484   1.661  0.00  0.00    +0.253 C 
ENDBRANCH  49  55
BRANCH  42  57
ATOM     57  C   UNL     1       7.054  -0.847   0.558  0.00  0.00    +0.086 C 
BRANCH  57  61
ATOM     58  C   UNL     1       9.686  -4.061   0.261  0.00  0.00    +0.172 A 
ATOM     59  C   UNL     1       8.327  -4.331   0.217  0.00  0.00    +0.172 A 
ATOM     60  C   UNL     1       7.385  -3.348   0.495  0.00  0.00    +0.036 A 
ATOM     61  C   UNL     1       7.889  -2.062   0.652  0.00  0.00    -0.013 A 
ATOM     62  C   UNL     1       9.105  -1.991   1.320  0.00  0.00    -0.001 A 
ATOM     63  C   UNL     1      10.050  -2.969   1.030  0.00  0.00    +0.040 A 
BRANCH  58  65
ATOM     64  C   UNL     1      10.364  -6.197  -0.723  0.00  0.00    +0.253 C 
ATOM     65  O   UNL     1      10.647  -4.925  -0.234  0.00  0.00    -0.468 OA
ENDBRANCH  58  65
BRANCH  59  66
ATOM     66  O   UNL     1       7.958  -5.506  -0.433  0.00  0.00    -0.468 OA
ATOM     67  C   UNL     1       6.763  -6.192  -0.107  0.00  0.00    +0.253 C 
ENDBRANCH  59  66
ENDBRANCH  57  61
ENDBRANCH  42  57
ENDBRANCH  41  43
ENDBRANCH  40  41
ENDBRANCH  38  40
ENDBRANCH  37  38
ENDBRANCH  36  37
ENDBRANCH  35  36
ENDBRANCH   1  35
TORSDOF 26
