REMARK  Name = 
REMARK  11 active torsions:
REMARK  status: ('A' for Active; 'I' for Inactive)
REMARK    1  A    between atoms: O_2  and  C_3
REMARK    2  A    between atoms: C_6  and  C_7
REMARK    3  A    between atoms: C_7  and  N_8
REMARK    4  A    between atoms: N_8  and  C_25
REMARK    5  A    between atoms: C_9  and  C_11
REMARK    6  A    between atoms: C_11  and  C_13
REMARK    7  A    between atoms: C_13  and  C_14
REMARK    8  A    between atoms: C_18  and  C_19
REMARK    9  A    between atoms: C_25  and  C_27
REMARK   10  A    between atoms: C_29  and  C_30
REMARK   11  A    between atoms: C_39  and  C_40
REMARK                            x       y       z     vdW  Elec       q    Type
REMARK                         _______ _______ _______ _____ _____    ______ ____
ROOT
ATOM      1  N   UNL     1      -0.371  -0.017   0.275  0.00  0.00    -0.269 N 
ATOM      2  C   UNL     1       0.913  -0.341  -0.162  0.00  0.00    +0.244 C 
ATOM      3  O   UNL     1       1.310   0.190  -1.248  0.00  0.00    -0.273 OA
ENDROOT
BRANCH   2   4
ATOM      4  C   UNL     1       2.156  -0.071   0.877  0.00  0.00    +0.172 C 
ATOM      5  N   UNL     1       1.296  -0.456   2.177  0.00  0.00    -0.123 NA
BRANCH   4   6
ATOM      6  C   UNL     1       2.669  -1.657   0.707  0.00  0.00    +0.054 C 
BRANCH   6   7
ATOM      7  C   UNL     1       4.045  -1.511   0.203  0.00  0.00    -0.028 A 
ATOM      8  C   UNL     1       4.603  -2.505  -0.573  0.00  0.00    -0.026 A 
ATOM      9  C   UNL     1       3.763  -3.595  -1.159  0.00  0.00    +0.031 C 
ATOM     10  C   UNL     1       5.831  -2.224  -1.152  0.00  0.00    +0.000 A 
ATOM     11  C   UNL     1       6.521  -1.101  -0.741  0.00  0.00    +0.056 A 
ATOM     12  C   UNL     1       6.167  -0.443   0.409  0.00  0.00    +0.000 A 
ATOM     13  C   UNL     1       4.895  -0.685   0.908  0.00  0.00    -0.026 A 
ATOM     14  C   UNL     1       4.426   0.213   1.987  0.00  0.00    +0.031 C 
BRANCH  11  15
ATOM     15  C   UNL     1       7.809  -0.708  -1.325  0.00  0.00    +0.284 C 
ATOM     16  O   UNL     1       7.890   0.517  -1.643  0.00  0.00    -0.267 OA
ATOM     17  N   UNL     1       8.973  -1.232  -0.674  0.00  0.00    -0.084 NA
ENDBRANCH  11  15
ENDBRANCH   6   7
ENDBRANCH   4   6
ENDBRANCH   2   4
BRANCH   1  18
ATOM     18  C   UNL     1      -1.001  -1.204   1.151  0.00  0.00    +0.134 C 
ATOM     19  C   UNL     1      -2.113  -0.169   1.859  0.00  0.00    +0.030 C 
BRANCH  18  20
ATOM     20  C   UNL     1      -2.077  -1.642  -0.012  0.00  0.00    +0.157 A 
ATOM     21  N   UNL     1      -1.612  -1.927  -1.245  0.00  0.00    -0.226 NA
ATOM     22  C   UNL     1      -2.628  -2.625  -1.814  0.00  0.00    +0.119 A 
ATOM     23  C   UNL     1      -3.378  -3.194  -0.789  0.00  0.00    +0.102 A 
ATOM     24  N   UNL     1      -2.688  -2.813   0.319  0.00  0.00    -0.227 NA
BRANCH  23  25
ATOM     25  C   UNL     1      -4.786  -3.625  -0.834  0.00  0.00    +0.019 A 
ATOM     26  C   UNL     1      -5.771  -2.850  -1.437  0.00  0.00    +0.002 A 
ATOM     27  C   UNL     1      -6.946  -2.506  -0.779  0.00  0.00    +0.000 A 
ATOM     28  C   UNL     1      -7.338  -3.257   0.323  0.00  0.00    +0.000 A 
ATOM     29  C   UNL     1      -6.566  -4.348   0.640  0.00  0.00    +0.000 A 
ATOM     30  C   UNL     1      -5.247  -4.426   0.205  0.00  0.00    +0.002 A 
ENDBRANCH  23  25
ENDBRANCH  18  20
ENDBRANCH   1  18
BRANCH   1  31
ATOM     31  C   UNL     1      -1.288   0.780  -0.469  0.00  0.00    +0.121 C 
BRANCH  31  35
ATOM     32  C   UNL     1      -1.161   4.721   0.858  0.00  0.00    +0.145 A 
ATOM     33  C   UNL     1      -2.034   4.405  -0.154  0.00  0.00    +0.113 A 
ATOM     34  C   UNL     1      -1.996   3.131  -0.710  0.00  0.00    +0.007 A 
ATOM     35  C   UNL     1      -1.009   2.220  -0.353  0.00  0.00    -0.002 A 
ATOM     36  C   UNL     1      -0.025   2.684   0.496  0.00  0.00    +0.001 A 
ATOM     37  C   UNL     1      -0.203   3.832   1.250  0.00  0.00    +0.037 A 
BRANCH  33  38
ATOM     38  C   UNL     1      -3.315   5.123  -0.229  0.00  0.00    +0.391 C 
ATOM     39  O   UNL     1      -4.499   4.404  -0.052  0.00  0.00    -0.240 OA
ATOM     40  O   UNL     1      -3.367   6.300  -0.638  0.00  0.00    -0.240 OA
ENDBRANCH  33  38
BRANCH  32  42
ATOM     41  C   UNL     1      -0.830   6.540   1.099  0.00  0.00    +0.252 C 
ATOM     42  O   UNL     1      -1.016   6.074   1.160  0.00  0.00    -0.471 OA
ENDBRANCH  32  42
ENDBRANCH  31  35
ENDBRANCH   1  31
TORSDOF 11
