REMARK  Name = 
REMARK  4 active torsions:
REMARK  status: ('A' for Active; 'I' for Inactive)
REMARK    1  A    between atoms: C_2  and  CA_3
REMARK    2  A    between atoms: CA_3  and  C_4
REMARK    3  A    between atoms: CA_3  and  N_6
REMARK    4  A    between atoms: C_7  and  C_9
REMARK                            x       y       z     vdW  Elec       q    Type
REMARK                         _______ _______ _______ _____ _____    ______ ____
ROOT
ATOM      1  C   UNL     1       1.342  -1.346  -0.413  0.00  0.00    +0.116 C 
ATOM      2  C   UNL     1       0.366  -1.443   0.881  0.00  0.00    +0.086 C 
ATOM      3  N   UNL     1      -0.269  -0.377   1.312  0.00  0.00    -0.268 NA
ATOM      4  C   UNL     1      -0.232   0.108   2.640  0.00  0.00    +0.090 C 
ATOM      5  C   UNL     1      -0.108   0.906   0.422  0.00  0.00    +0.084 C 
ATOM      6  C   UNL     1      -0.663   0.112  -0.864  0.00  0.00    -0.011 C 
ATOM      7  C   UNL     1      -2.031   0.097  -1.208  0.00  0.00    -0.002 A 
ATOM      8  C   UNL     1      -2.962   0.108  -0.210  0.00  0.00    +0.015 A 
ATOM      9  C   UNL     1      -4.218  -0.386  -0.223  0.00  0.00    +0.081 A 
ATOM     10  N   UNL     1      -4.642  -0.198   1.025  0.00  0.00    -0.244 NA
ATOM     11  C   UNL     1      -3.707   0.456   1.766  0.00  0.00    +0.095 A 
ATOM     12  C   UNL     1      -4.551  -1.102  -1.366  0.00  0.00    +0.019 A 
ATOM     13  C   UNL     1      -3.760  -0.907  -2.498  0.00  0.00    +0.002 A 
ATOM     14  C   UNL     1      -2.524   0.491   1.033  0.00  0.00    +0.000 A 
ATOM     15  C   UNL     1      -2.429  -0.500  -2.393  0.00  0.00    -0.000 A 
ATOM     16  C   UNL     1      -1.521   1.575   0.931  0.00  0.00    +0.048 C 
ATOM     17  C   UNL     1       0.257  -0.628  -1.354  0.00  0.00    -0.019 C 
ENDROOT
BRANCH   1  19
ATOM     18  N   UNL     1       3.253  -0.416   0.710  0.00  0.00    -0.204 NA
ATOM     19  C   UNL     1       2.074   0.031   0.029  0.00  0.00    +0.246 C 
ATOM     20  O   UNL     1       2.456   0.582  -1.059  0.00  0.00    -0.273 OA
BRANCH  18  21
ATOM     21  CA  UNL     1       4.417   0.596   0.975  0.00  0.00    +0.128 C 
BRANCH  21  23
ATOM     22  C   UNL     1       5.241  -1.368   0.410  0.00  0.00    +0.002 C 
ATOM     23  C   UNL     1       5.530  -0.452   0.370  0.00  0.00    +0.024 C 
ENDBRANCH  21  23
BRANCH  21  24
ATOM     24  C   UNL     1       4.301   1.358  -0.474  0.00  0.00    +0.204 C 
ATOM     25  O   UNL     1       4.382   2.704  -0.181  0.00  0.00    -0.219 OA
ENDBRANCH  21  24
ENDBRANCH  18  21
ENDBRANCH   1  19
TORSDOF 4
