REMARK  Name = 
REMARK  3 active torsions:
REMARK  status: ('A' for Active; 'I' for Inactive)
REMARK    1  A    between atoms: N_2  and  C_3
REMARK    2  A    between atoms: C_3  and  C_5
REMARK    3  A    between atoms: C_5  and  C_7
REMARK                            x       y       z     vdW  Elec       q    Type
REMARK                         _______ _______ _______ _____ _____    ______ ____
ROOT
ATOM      1  C   UNL     1       0.873  -0.718  -0.510  0.00  0.00    +0.190 C 
ATOM      2  O   UNL     1       1.238  -1.684   0.634  0.00  0.00    -0.217 OA
ENDROOT
BRANCH   1   3
ATOM      3  C   UNL     1      -0.657  -0.570   0.068  0.00  0.00    +0.009 A 
ATOM      4  C   UNL     1      -1.070   0.683   0.394  0.00  0.00    -0.002 A 
ATOM      5  C   UNL     1      -2.439   0.835   0.574  0.00  0.00    -0.000 A 
ATOM      6  C   UNL     1      -3.228   0.362  -0.470  0.00  0.00    -0.000 A 
ATOM      7  C   UNL     1      -2.749  -0.747  -1.129  0.00  0.00    -0.000 A 
ATOM      8  C   UNL     1      -1.459  -1.205  -0.882  0.00  0.00    -0.002 A 
ENDBRANCH   1   3
BRANCH   1   9
ATOM      9  C   UNL     1       1.484   0.651   0.406  0.00  0.00    +0.107 C 
ATOM     10  C   UNL     1       1.604   1.546  -0.972  0.00  0.00    +0.022 C 
BRANCH   9  12
ATOM     11  C   UNL     1       3.437   0.716   0.521  0.00  0.00    +0.108 C 
ATOM     12  N   UNL     1       2.966   0.132   0.267  0.00  0.00    -0.215 NA
ENDBRANCH   9  12
ENDBRANCH   1   9
TORSDOF 3
