REMARK  Name = 
REMARK  3 active torsions:
REMARK  status: ('A' for Active; 'I' for Inactive)
REMARK    1  A    between atoms: C_2  and  C_4
REMARK    2  A    between atoms: C_4  and  C_5
REMARK    3  A    between atoms: C_5  and  C_6
REMARK                            x       y       z     vdW  Elec       q    Type
REMARK                         _______ _______ _______ _____ _____    ______ ____
ROOT
ATOM      1  C   UNL     1      -0.503   1.279  -0.405  0.00  0.00    +0.117 C 
ENDROOT
BRANCH   1   3
ATOM      2  O   UNL     1      -1.728  -0.179   1.078  0.00  0.00    -0.246 OA
ATOM      3  C   UNL     1      -1.260   0.037  -0.074  0.00  0.00    +0.365 C 
ATOM      4  O   UNL     1      -1.272  -1.062  -0.932  0.00  0.00    -0.246 OA
ENDBRANCH   1   3
BRANCH   1   5
ATOM      5  C   UNL     1       0.970   1.053  -0.101  0.00  0.00    +0.047 C 
BRANCH   5   6
ATOM      6  C   UNL     1       1.251  -0.356   0.348  0.00  0.00    +0.183 C 
ATOM      7  O   UNL     1       2.543  -0.772   0.086  0.00  0.00    -0.220 OA
ENDBRANCH   5   6
ENDBRANCH   1   5
TORSDOF 3
