REMARK  Name = 
REMARK  9 active torsions:
REMARK  status: ('A' for Active; 'I' for Inactive)
REMARK    1  A    between atoms: C_12  and  C_13
REMARK    2  A    between atoms: C_13  and  N_14
REMARK    3  A    between atoms: N_14  and  C_15
REMARK    4  A    between atoms: C_18  and  C_19
REMARK    5  A    between atoms: N_21  and  CA_22
REMARK    6  A    between atoms: CA_22  and  CB_23
REMARK    7  A    between atoms: CA_22  and  C_28
REMARK    8  A    between atoms: CB_23  and  CG_24
REMARK    9  A    between atoms: CG_24  and  CD_25
REMARK                            x       y       z     vdW  Elec       q    Type
REMARK                         _______ _______ _______ _____ _____    ______ ____
ROOT
ATOM      1  C   UNK A   0      -0.435   0.557  -0.045  0.00  0.00    +0.065 A 
ATOM      2  C   UNK A   0      -0.138  -0.572   0.691  0.00  0.00    +0.016 A 
ATOM      3  C   UNK A   0       0.979  -1.339   0.411  0.00  0.00    +0.006 A 
ATOM      4  C   UNK A   0       1.906  -0.829  -0.489  0.00  0.00    +0.055 A 
ATOM      5  C   UNK A   0       1.514   0.207  -1.324  0.00  0.00    +0.006 A 
ATOM      6  C   UNK A   0       0.229   0.729  -1.253  0.00  0.00    +0.016 A 
ENDROOT
BRANCH   4   7
ATOM      7  C   UNK A   0       3.342  -1.079  -0.335  0.00  0.00    +0.265 C 
ATOM      8  N   GLU A   1       4.333  -0.161  -0.812  0.00  0.00    -0.192 NA
ATOM      9  O   UNK A   0       3.654  -2.116   0.316  0.00  0.00    -0.268 OA
BRANCH   8  10
ATOM     10  CA  GLU A   1       5.561  -0.173   0.208  0.00  0.00    +0.199 C 
BRANCH  10  11
ATOM     11  C   GLU A   1       5.119   1.247   0.880  0.00  0.00    +0.384 C 
ATOM     12  OXT GLU A   1       4.760   2.248   0.027  0.00  0.00    -0.244 OA
ATOM     13  O   GLU A   1       4.460   1.032   1.943  0.00  0.00    -0.244 OA
ENDBRANCH  10  11
BRANCH  10  14
ATOM     14  CB  GLU A   1       6.563   0.571  -0.887  0.00  0.00    +0.045 C 
BRANCH  14  15
ATOM     15  CG  GLU A   1       7.942   0.309  -0.500  0.00  0.00    +0.116 C 
BRANCH  15  16
ATOM     16  CD  GLU A   1       8.257  -0.382   0.721  0.00  0.00    +0.365 C 
ATOM     17  OE2 GLU A   1       9.623  -0.524   1.007  0.00  0.00    -0.246 OA
ATOM     18  OE1 GLU A   1       7.530  -0.570   1.729  0.00  0.00    -0.246 OA
ENDBRANCH  15  16
ENDBRANCH  14  15
ENDBRANCH  10  14
ENDBRANCH   8  10
ENDBRANCH   4   7
BRANCH   1  19
ATOM     19  N   UNK A   0      -1.416   1.479   0.372  0.00  0.00    -0.236 NA
BRANCH  19  20
ATOM     20  C   UNK A   0      -2.742   1.545  -0.179  0.00  0.00    +0.134 C 
BRANCH  20  28
ATOM     21  N   UNK A   0      -8.545   0.746   1.525  0.00  0.00    -0.086 NA
ATOM     22  C   UNK A   0      -7.249   0.505   1.030  0.00  0.00    +0.260 A 
ATOM     23  N   UNK A   0      -6.523  -0.565   1.440  0.00  0.00    -0.171 NA
ATOM     24  C   UNK A   0      -5.527  -1.042   0.653  0.00  0.00    +0.298 A 
ATOM     25  O   UNK A   0      -5.093  -2.228   0.760  0.00  0.00    -0.264 OA
ATOM     26  C   UNK A   0      -4.779  -0.103  -0.049  0.00  0.00    +0.146 A 
ATOM     27  N   UNK A   0      -3.667  -0.562  -0.733  0.00  0.00    -0.243 N 
ATOM     28  C   UNK A   0      -2.726   0.485  -1.460  0.00  0.00    +0.124 C 
ATOM     29  C   UNK A   0      -3.990   1.206  -2.253  0.00  0.00    +0.136 C 
ATOM     30  N   UNK A   0      -4.808   1.869  -1.325  0.00  0.00    -0.217 NA
ATOM     31  C   UNK A   0      -3.581  -1.885  -1.223  0.00  0.00    +0.307 C 
ATOM     32  O   UNK A   0      -2.638  -2.671  -0.942  0.00  0.00    -0.265 OA
ATOM     33  C   UNK A   0      -5.341   1.159  -0.201  0.00  0.00    +0.169 A 
ATOM     34  N   UNK A   0      -6.573   1.424   0.298  0.00  0.00    -0.193 NA
ENDBRANCH  20  28
ENDBRANCH  19  20
ENDBRANCH   1  19
TORSDOF 9
