REMARK  Name = 
REMARK  2 active torsions:
REMARK  status: ('A' for Active; 'I' for Inactive)
REMARK    1  A    between atoms: C_2  and  C_4
REMARK    2  A    between atoms: C_4  and  C_6
REMARK                            x       y       z     vdW  Elec       q    Type
REMARK                         _______ _______ _______ _____ _____    ______ ____
ROOT
ATOM      1  C   UNL     1       0.286   0.153   0.471  0.00  0.00    +0.013 A 
ATOM      2  C   UNL     1      -0.499  -0.847  -0.105  0.00  0.00    +0.044 A 
ATOM      3  C   UNL     1      -1.877  -0.886   0.079  0.00  0.00    +0.234 A 
ATOM      4  O   UNL     1      -2.579  -2.047  -0.154  0.00  0.00    -0.283 OA
ATOM      5  C   UNL     1      -2.466   0.366   0.100  0.00  0.00    +0.234 A 
ATOM      6  O   UNL     1      -3.855   0.466   0.033  0.00  0.00    -0.283 OA
ATOM      7  C   UNL     1      -1.819   1.295   0.909  0.00  0.00    +0.045 A 
ATOM      8  C   UNL     1      -0.433   1.257   0.825  0.00  0.00    +0.002 A 
ENDROOT
BRANCH   1   9
ATOM      9  C   UNL     1       1.662   0.392  -0.359  0.00  0.00    +0.192 C 
ATOM     10  O   UNL     1       2.008   1.673   0.393  0.00  0.00    -0.217 OA
BRANCH   9  12
ATOM     11  C   UNL     1       3.920   0.306   0.683  0.00  0.00    +0.024 C 
ATOM     12  C   UNL     1       2.558  -0.600   0.747  0.00  0.00    +0.126 C 
ATOM     13  N   UNL     1       3.092  -1.527  -0.400  0.00  0.00    -0.130 NA
ENDBRANCH   9  12
ENDBRANCH   1   9
TORSDOF 2
