REMARK  Name = 
REMARK  4 active torsions:
REMARK  status: ('A' for Active; 'I' for Inactive)
REMARK    1  A    between atoms: C_2  and  C_3
REMARK    2  A    between atoms: C_2  and  C_8
REMARK    3  A    between atoms: C_3  and  C_4
REMARK    4  A    between atoms: C_4  and  C_5
REMARK                            x       y       z     vdW  Elec       q    Type
REMARK                         _______ _______ _______ _____ _____    ______ ____
ROOT
ATOM      1  C   UNL     1       2.650   0.351  -0.773  0.00  0.00    +0.002 C 
ATOM      2  C   UNL     1       1.167   0.721  -0.292  0.00  0.00    +0.028 C 
ATOM      3  C   UNL     1       0.430  -0.491  -1.039  0.00  0.00    +0.005 C 
ATOM      4  C   UNL     1      -0.925  -0.264  -0.096  0.00  0.00    +0.031 C 
ATOM      5  C   UNL     1      -1.500   0.738  -1.307  0.00  0.00    +0.005 C 
ATOM      6  C   UNL     1      -0.817   2.021  -0.593  0.00  0.00    +0.033 C 
ATOM      7  C   UNL     1      -2.954   0.989  -0.676  0.00  0.00    +0.000 C 
ATOM      8  C   UNL     1      -3.013  -0.005   0.621  0.00  0.00    +0.005 C 
ATOM      9  C   UNL     1      -4.521   0.402   0.934  0.00  0.00    +0.033 C 
ATOM     10  C   UNL     1      -5.707  -0.312   0.106  0.00  0.00    +0.152 C 
ATOM     11  C   UNL     1      -5.030  -0.324  -1.399  0.00  0.00    +0.033 C 
ATOM     12  O   UNL     1      -5.278  -1.729   0.484  0.00  0.00    -0.223 OA
ATOM     13  C   UNL     1      -3.143  -1.329  -0.325  0.00  0.00    +0.033 C 
ATOM     14  C   UNL     1      -3.183   2.357  -0.233  0.00  0.00    +0.000 C 
ATOM     15  C   UNL     1      -4.033   0.643  -1.582  0.00  0.00    +0.003 C 
ATOM     16  C   UNL     1      -1.584  -1.734  -0.588  0.00  0.00    +0.152 C 
ATOM     17  O   UNL     1      -1.650  -1.414  -2.069  0.00  0.00    -0.223 OA
ATOM     18  C   UNL     1       1.186  -1.468   0.019  0.00  0.00    +0.000 C 
ATOM     19  C   UNL     1       0.941   0.824   1.066  0.00  0.00    +0.003 C 
ATOM     20  C   UNL     1       0.739   2.056  -1.128  0.00  0.00    +0.152 C 
ATOM     21  O   UNL     1       0.466   1.369  -2.458  0.00  0.00    -0.223 OA
ATOM     22  C   UNL     1       2.442  -1.262  -0.743  0.00  0.00    +0.000 C 
ENDROOT
BRANCH   1  24
ATOM     23  C   UNL     1       3.377   1.894   0.857  0.00  0.00    +0.000 C 
ATOM     24  C   UNL     1       3.326   0.286   0.791  0.00  0.00    +0.001 C 
BRANCH  24  25
ATOM     25  C   UNL     1       4.834   0.169   0.213  0.00  0.00    +0.012 C 
BRANCH  25  26
ATOM     26  C   UNL     1       5.654  -0.644   1.162  0.00  0.00    +0.114 C 
BRANCH  26  27
ATOM     27  C   UNL     1       5.637  -0.278   2.555  0.00  0.00    +0.365 C 
ATOM     28  O   UNL     1       5.021   0.922   2.931  0.00  0.00    -0.246 OA
ATOM     29  O   UNL     1       5.468  -1.041   3.561  0.00  0.00    -0.246 OA
ENDBRANCH  26  27
ENDBRANCH  25  26
ENDBRANCH  24  25
ENDBRANCH   1  24
TORSDOF 4
