REMARK  Name = 
REMARK  9 active torsions:
REMARK  status: ('A' for Active; 'I' for Inactive)
REMARK    1  A    between atoms: O_2  and  C_3
REMARK    2  A    between atoms: C_3  and  C_4
REMARK    3  A    between atoms: C_4  and  C_5
REMARK    4  A    between atoms: C_8  and  O_9
REMARK    5  A    between atoms: O_9  and  C_10
REMARK    6  A    between atoms: C_10  and  C_11
REMARK    7  A    between atoms: C_11  and  C_13
REMARK    8  A    between atoms: C_13  and  N_14
REMARK    9  A    between atoms: N_14  and  C_15
REMARK                            x       y       z     vdW  Elec       q    Type
REMARK                         _______ _______ _______ _____ _____    ______ ____
ROOT
ATOM      1  C   UNL     1      -3.140  -0.345   0.265  0.00  0.00    -0.019 A 
ATOM      2  C   UNL     1      -2.714  -1.644   0.437  0.00  0.00    -0.001 A 
ATOM      3  C   UNL     1      -1.361  -1.957   0.414  0.00  0.00    +0.037 A 
ATOM      4  C   UNL     1      -0.434  -1.008   0.088  0.00  0.00    +0.139 A 
ATOM      5  C   UNL     1      -0.803   0.314   0.259  0.00  0.00    +0.037 A 
ATOM      6  C   UNL     1      -2.153   0.623   0.369  0.00  0.00    -0.001 A 
ENDROOT
BRANCH   4   7
ATOM      7  O   UNL     1       0.680  -1.317  -0.695  0.00  0.00    -0.473 OA
BRANCH   7   8
ATOM      8  C   UNL     1       1.806  -0.474  -0.462  0.00  0.00    +0.240 C 
BRANCH   8   9
ATOM      9  C   UNL     1       3.099  -1.542  -0.594  0.00  0.00    +0.213 C 
ATOM     10  O   UNL     1       2.469  -2.515   0.429  0.00  0.00    -0.218 OA
BRANCH   9  11
ATOM     11  C   UNL     1       3.947  -0.763   0.631  0.00  0.00    +0.125 C 
BRANCH  11  12
ATOM     12  N   UNL     1       3.832   0.621   0.307  0.00  0.00    -0.217 NA
BRANCH  12  13
ATOM     13  C   UNL     1       4.958   1.444   0.584  0.00  0.00    +0.073 C 
ATOM     14  C   UNL     1       6.210   0.813   0.042  0.00  0.00    +0.019 C 
ATOM     15  C   UNL     1       4.710   2.784  -0.071  0.00  0.00    +0.019 C 
ENDBRANCH  12  13
ENDBRANCH  11  12
ENDBRANCH   9  11
ENDBRANCH   8   9
ENDBRANCH   7   8
ENDBRANCH   4   7
BRANCH   1  16
ATOM     16  C   UNL     1      -4.423  -0.093  -0.465  0.00  0.00    +0.058 C 
BRANCH  16  17
ATOM     17  C   UNL     1      -4.882   1.315  -0.206  0.00  0.00    +0.147 C 
BRANCH  17  19
ATOM     18  C   UNL     1      -6.050   2.421   1.285  0.00  0.00    +0.174 C 
ATOM     19  O   UNL     1      -5.752   1.323   0.875  0.00  0.00    -0.351 OA
ENDBRANCH  17  19
ENDBRANCH  16  17
ENDBRANCH   1  16
TORSDOF 9
