REMARK  Name = 
REMARK  5 active torsions:
REMARK  status: ('A' for Active; 'I' for Inactive)
REMARK    1  A    between atoms: C_2  and  C_3
REMARK    2  A    between atoms: C_3  and  C_4
REMARK    3  A    between atoms: C_4  and  N_5
REMARK    4  A    between atoms: N_8  and  S_9
REMARK    5  A    between atoms: S_9  and  C_12
REMARK                            x       y       z     vdW  Elec       q    Type
REMARK                         _______ _______ _______ _____ _____    ______ ____
ROOT
ATOM      1  S   UNL     1      -0.502  -1.335   0.678  0.00  0.00    +0.104 S 
ATOM      2  O   UNL     1      -0.506  -2.555  -0.208  0.00  0.00    -0.146 OA
ATOM      3  O   UNL     1      -0.530  -1.750   2.113  0.00  0.00    -0.146 OA
ENDROOT
BRANCH   1   4
ATOM      4  C   UNL     1      -1.950  -0.437   0.301  0.00  0.00    +0.129 A 
ATOM      5  C   UNL     1      -3.071  -1.101  -0.183  0.00  0.00    +0.020 A 
ATOM      6  C   UNL     1      -4.269  -0.415  -0.085  0.00  0.00    -0.003 A 
ATOM      7  C   UNL     1      -4.330   0.903   0.321  0.00  0.00    -0.022 A 
ATOM      8  C   UNL     1      -5.538   1.711  -0.031  0.00  0.00    +0.031 C 
ATOM      9  C   UNL     1      -3.193   1.568   0.720  0.00  0.00    -0.003 A 
ATOM     10  C   UNL     1      -1.982   0.916   0.522  0.00  0.00    +0.020 A 
ENDBRANCH   1   4
BRANCH   1  13
ATOM     11  N   UNL     1       3.087  -0.196  -0.381  0.00  0.00    -0.184 NA
ATOM     12  C   UNL     1       1.918  -0.963  -0.170  0.00  0.00    +0.371 C 
ATOM     13  N   UNL     1       0.923  -0.381   0.410  0.00  0.00    -0.071 NA
ATOM     14  O   UNL     1       1.722  -2.126  -0.913  0.00  0.00    -0.244 OA
BRANCH  11  15
ATOM     15  C   UNL     1       3.073   1.262  -0.459  0.00  0.00    +0.117 C 
BRANCH  15  16
ATOM     16  C   UNL     1       4.525   1.697  -0.561  0.00  0.00    +0.023 C 
BRANCH  16  18
ATOM     17  C   UNL     1       5.361   2.142   1.680  0.00  0.00    +0.000 C 
ATOM     18  C   UNL     1       5.263   1.060   0.610  0.00  0.00    +0.002 C 
ENDBRANCH  16  18
ENDBRANCH  15  16
ENDBRANCH  11  15
ENDBRANCH   1  13
TORSDOF 5
