REMARK  Name = 
REMARK  5 active torsions:
REMARK  status: ('A' for Active; 'I' for Inactive)
REMARK    1  A    between atoms: C_6  and  C_7
REMARK    2  A    between atoms: C_7  and  N_8
REMARK    3  A    between atoms: N_11  and  C_12
REMARK    4  A    between atoms: C_12  and  C_13
REMARK    5  A    between atoms: C_12  and  C_19
REMARK                            x       y       z     vdW  Elec       q    Type
REMARK                         _______ _______ _______ _____ _____    ______ ____
ROOT
ATOM      1  N   UNL     1       1.956   1.382  -0.250  0.00  0.00    -0.267 NA
ATOM      2  C   UNL     1       0.838   1.989  -0.943  0.00  0.00    +0.090 C 
ATOM      3  C   UNL     1      -0.138   0.946  -1.476  0.00  0.00    +0.090 C 
ATOM      4  N   UNL     1      -0.649   0.322  -0.286  0.00  0.00    -0.264 NA
ATOM      5  C   UNL     1       0.469  -0.431   0.283  0.00  0.00    +0.090 C 
ATOM      6  C   UNL     1       1.462   0.555   0.836  0.00  0.00    +0.090 C 
ENDROOT
BRANCH   1   7
ATOM      7  C   UNL     1       2.657   0.497  -1.143  0.00  0.00    +0.099 C 
BRANCH   7  11
ATOM      8  C   UNL     1       6.721   0.099   1.684  0.00  0.00    +0.031 C 
ATOM      9  C   UNL     1       6.084   0.203   0.422  0.00  0.00    -0.022 A 
ATOM     10  C   UNL     1       4.699   0.283   0.328  0.00  0.00    -0.007 A 
ATOM     11  C   UNL     1       4.130   0.558  -0.885  0.00  0.00    -0.006 A 
ATOM     12  C   UNL     1       4.895   0.517  -2.045  0.00  0.00    -0.003 A 
ATOM     13  C   UNL     1       6.236   0.292  -1.926  0.00  0.00    -0.001 A 
ATOM     14  C   UNL     1       6.851   0.064  -0.716  0.00  0.00    -0.004 A 
ENDBRANCH   7  11
ENDBRANCH   1   7
BRANCH   4  15
ATOM     15  C   UNL     1      -1.532  -0.896  -0.769  0.00  0.00    +0.103 C 
BRANCH  15  16
ATOM     16  C   UNL     1      -2.283  -1.071   0.650  0.00  0.00    -0.004 A 
ATOM     17  C   UNL     1      -2.011  -2.259   1.306  0.00  0.00    -0.002 A 
ATOM     18  C   UNL     1      -2.686  -2.439   2.510  0.00  0.00    +0.011 A 
ATOM     19  C   UNL     1      -3.412  -1.403   3.081  0.00  0.00    +0.058 A 
ATOM     20 CL   UNL     1      -4.809  -1.671   4.114  0.00  0.00    -0.082 Cl
ATOM     21  C   UNL     1      -3.054  -0.134   2.682  0.00  0.00    +0.011 A 
ATOM     22  C   UNL     1      -2.536   0.002   1.414  0.00  0.00    -0.002 A 
ENDBRANCH  15  16
BRANCH  15  23
ATOM     23  C   UNL     1      -2.700   0.029  -1.387  0.00  0.00    -0.004 A 
ATOM     24  C   UNL     1      -3.737  -0.814  -1.760  0.00  0.00    -0.003 A 
ATOM     25  C   UNL     1      -4.968  -0.292  -2.130  0.00  0.00    -0.000 A 
ATOM     26  C   UNL     1      -5.229   0.985  -1.653  0.00  0.00    -0.000 A 
ATOM     27  C   UNL     1      -4.269   1.756  -1.022  0.00  0.00    -0.000 A 
ATOM     28  C   UNL     1      -2.983   1.235  -0.918  0.00  0.00    -0.003 A 
ENDBRANCH  15  23
ENDBRANCH   4  15
TORSDOF 5
