REMARK  Name = 
REMARK  3 active torsions:
REMARK  status: ('A' for Active; 'I' for Inactive)
REMARK    1  A    between atoms: C_8  and  O_9
REMARK    2  A    between atoms: O_9  and  C_10
REMARK    3  A    between atoms: C_10  and  C_11
REMARK                            x       y       z     vdW  Elec       q    Type
REMARK                         _______ _______ _______ _____ _____    ______ ____
ROOT
ATOM      1  C   UNL     1       0.596   2.480   0.176  0.00  0.00    +0.034 C 
ATOM      2  C   UNL     1       1.304   1.207   0.186  0.00  0.00    +0.012 A 
ATOM      3  C   UNL     1       0.573   0.086   0.537  0.00  0.00    +0.131 A 
ATOM      4  C   UNL     1       1.169  -1.164   0.435  0.00  0.00    +0.012 A 
ATOM      5  C   UNL     1       0.415  -2.343   0.959  0.00  0.00    +0.034 C 
ATOM      6  C   UNL     1       2.432  -1.290  -0.130  0.00  0.00    -0.001 A 
ATOM      7  C   UNL     1       3.093  -0.193  -0.671  0.00  0.00    -0.000 A 
ATOM      8  C   UNL     1       2.595   1.048  -0.296  0.00  0.00    -0.001 A 
ENDROOT
BRANCH   3   9
ATOM      9  O   UNL     1      -0.792   0.134   0.418  0.00  0.00    -0.475 OA
BRANCH   9  10
ATOM     10  C   UNL     1      -1.524   0.171  -0.774  0.00  0.00    +0.224 C 
BRANCH  10  11
ATOM     11  C   UNL     1      -2.906  -0.657  -0.467  0.00  0.00    +0.135 C 
ATOM     12  N   UNL     1      -3.771   0.357  -1.300  0.00  0.00    -0.129 NA
ATOM     13  C   UNL     1      -3.184   0.163   0.926  0.00  0.00    +0.024 C 
ENDBRANCH  10  11
ENDBRANCH   9  10
ENDBRANCH   3   9
TORSDOF 3
