REMARK  Name = 
REMARK  4 active torsions:
REMARK  status: ('A' for Active; 'I' for Inactive)
REMARK    1  A    between atoms: C_2  and  C_3
REMARK    2  A    between atoms: C_3  and  N_4
REMARK    3  A    between atoms: N_7  and  S_8
REMARK    4  A    between atoms: S_8  and  C_11
REMARK                            x       y       z     vdW  Elec       q    Type
REMARK                         _______ _______ _______ _____ _____    ______ ____
ROOT
ATOM      1  S   UNL     1      -0.219  -1.339  -0.272  0.00  0.00    +0.104 S 
ATOM      2  O   UNL     1      -0.247  -2.643   0.483  0.00  0.00    -0.146 OA
ATOM      3  O   UNL     1      -0.248  -1.722  -1.735  0.00  0.00    -0.146 OA
ENDROOT
BRANCH   1   4
ATOM      4  C   UNL     1      -1.695  -0.463   0.054  0.00  0.00    +0.129 A 
ATOM      5  C   UNL     1      -2.860  -0.789  -0.619  0.00  0.00    +0.021 A 
ATOM      6  C   UNL     1      -3.958   0.046  -0.647  0.00  0.00    +0.013 A 
ATOM      7  C   UNL     1      -3.977   1.061   0.292  0.00  0.00    +0.058 A 
ATOM      8 CL   UNL     1      -5.090   2.383   0.089  0.00  0.00    -0.082 Cl
ATOM      9  C   UNL     1      -2.943   1.223   1.178  0.00  0.00    +0.013 A 
ATOM     10  C   UNL     1      -1.791   0.470   1.067  0.00  0.00    +0.021 A 
ENDBRANCH   1   4
BRANCH   1  13
ATOM     11  N   UNL     1       3.244   0.369  -0.676  0.00  0.00    -0.184 NA
ATOM     12  C   UNL     1       2.325  -0.678  -0.379  0.00  0.00    +0.371 C 
ATOM     13  N   UNL     1       1.180  -0.416   0.119  0.00  0.00    -0.071 NA
ATOM     14  O   UNL     1       2.538  -1.998  -0.787  0.00  0.00    -0.244 OA
BRANCH  11  15
ATOM     15  C   UNL     1       3.331   1.454   0.293  0.00  0.00    +0.117 C 
BRANCH  15  17
ATOM     16  C   UNL     1       5.621   1.141  -0.697  0.00  0.00    +0.002 C 
ATOM     17  C   UNL     1       4.788   1.902   0.307  0.00  0.00    +0.023 C 
ENDBRANCH  15  17
ENDBRANCH  11  15
ENDBRANCH   1  13
TORSDOF 4
