REMARK  Name = 
REMARK  3 active torsions:
REMARK  status: ('A' for Active; 'I' for Inactive)
REMARK    1  A    between atoms: N_10  and  N_11
REMARK    2  A    between atoms: C_12  and  C_14
REMARK    3  A    between atoms: C_19  and  S_20
REMARK                            x       y       z     vdW  Elec       q    Type
REMARK                         _______ _______ _______ _____ _____    ______ ____
ROOT
ATOM      1  N   UNL     1       1.058  -0.369  -0.037  0.00  0.00    -0.106 NA
ATOM      2  C   UNL     1       0.050   0.262   0.756  0.00  0.00    +0.283 C 
ATOM      3  O   UNL     1       0.448   0.826   1.800  0.00  0.00    -0.267 OA
ENDROOT
BRANCH   1   6
ATOM      4  C   UNL     1       1.951   2.183  -1.122  0.00  0.00    +0.024 C 
ATOM      5  C   UNL     1       2.813   0.804  -1.501  0.00  0.00    +0.099 C 
ATOM      6  N   UNL     1       2.369   0.102  -0.133  0.00  0.00    -0.219 N 
ATOM      7  C   UNL     1       3.554  -0.644   0.174  0.00  0.00    +0.063 A 
ATOM      8  C   UNL     1       4.627   0.181  -0.070  0.00  0.00    -0.006 A 
ATOM      9  C   UNL     1       5.912  -0.198   0.297  0.00  0.00    -0.003 A 
ATOM     10  C   UNL     1       6.146  -1.547   0.524  0.00  0.00    -0.000 A 
ATOM     11  C   UNL     1       5.101  -2.454   0.649  0.00  0.00    +0.001 A 
ATOM     12  C   UNL     1       3.810  -1.940   0.606  0.00  0.00    +0.016 A 
ATOM     13  C   UNL     1       4.188   1.413  -0.773  0.00  0.00    +0.049 C 
ENDBRANCH   1   6
BRANCH   2  14
ATOM     14  C   UNL     1      -1.276   0.593   0.254  0.00  0.00    +0.058 A 
ATOM     15  C   UNL     1      -2.270  -0.370   0.159  0.00  0.00    +0.025 A 
ATOM     16  C   UNL     1      -3.597  -0.032   0.208  0.00  0.00    +0.136 A 
ATOM     17  C   UNL     1      -3.977   1.290   0.406  0.00  0.00    +0.076 A 
ATOM     18 CL   UNL     1      -5.502   1.661   1.173  0.00  0.00    -0.081 Cl
ATOM     19  C   UNL     1      -3.038   2.255   0.085  0.00  0.00    +0.013 A 
ATOM     20  C   UNL     1      -1.713   1.909   0.154  0.00  0.00    +0.006 A 
BRANCH  16  21
ATOM     21  S   UNL     1      -4.840  -1.240   0.040  0.00  0.00    +0.094 S 
ATOM     22  O   UNL     1      -4.521  -2.229  -1.032  0.00  0.00    -0.150 OA
ATOM     23  O   UNL     1      -4.931  -1.980   1.355  0.00  0.00    -0.150 OA
ATOM     24  N   UNL     1      -6.361  -0.476  -0.309  0.00  0.00    +0.039 NA
ENDBRANCH  16  21
ENDBRANCH   2  14
TORSDOF 3
