REMARK  Name = 
REMARK  1 active torsions:
REMARK  status: ('A' for Active; 'I' for Inactive)
REMARK    1  A    between atoms: N_7  and  C_8
REMARK                            x       y       z     vdW  Elec       q    Type
REMARK                         _______ _______ _______ _____ _____    ______ ____
ROOT
ATOM      1  C   UNL     1       2.678   2.475   0.006  0.00  0.00    +0.033 C 
ATOM      2  C   UNL     1       2.230   1.063  -0.164  0.00  0.00    -0.004 A 
ATOM      3  C   UNL     1       1.126   0.700  -0.898  0.00  0.00    +0.079 A 
ATOM      4  N   UNL     1       0.402  -0.407  -0.612  0.00  0.00    -0.273 N 
ATOM      5  C   UNL     1       1.094  -1.435  -0.072  0.00  0.00    +0.265 A 
ATOM      6  O   UNL     1       0.460  -2.441   0.368  0.00  0.00    -0.267 OA
ATOM      7  C   UNL     1       2.365  -1.200   0.440  0.00  0.00    +0.061 A 
ATOM      8  C   UNL     1       2.856   0.091   0.604  0.00  0.00    +0.002 A 
ENDROOT
BRANCH   4   9
ATOM      9  C   UNL     1      -1.030  -0.383  -0.517  0.00  0.00    +0.067 A 
ATOM     10  C   UNL     1      -1.675  -0.937   0.584  0.00  0.00    +0.018 A 
ATOM     11  C   UNL     1      -2.688  -0.260   1.254  0.00  0.00    +0.001 A 
ATOM     12  C   UNL     1      -3.182   0.934   0.741  0.00  0.00    +0.000 A 
ATOM     13  C   UNL     1      -2.911   1.150  -0.605  0.00  0.00    +0.001 A 
ATOM     14  C   UNL     1      -1.723   0.652  -1.128  0.00  0.00    +0.018 A 
ENDBRANCH   4   9
TORSDOF 1
