REMARK  Name = 
REMARK  9 active torsions:
REMARK  status: ('A' for Active; 'I' for Inactive)
REMARK    1  A    between atoms: C_2  and  O_3
REMARK    2  A    between atoms: O_3  and  C_4
REMARK    3  A    between atoms: C_4  and  O_6
REMARK    4  A    between atoms: O_6  and  C_7
REMARK    5  A    between atoms: C_7  and  C_8
REMARK    6  A    between atoms: C_8  and  C_10
REMARK    7  A    between atoms: C_10  and  O_11
REMARK    8  A    between atoms: O_11  and  C_12
REMARK    9  A    between atoms: C_12  and  C_14
REMARK                            x       y       z     vdW  Elec       q    Type
REMARK                         _______ _______ _______ _____ _____    ______ ____
ROOT
ATOM      1  C   UNL     1      -1.601   0.041  -0.305  0.00  0.00    +0.193 C 
ATOM      2  C   UNL     1      -0.147   0.410  -0.171  0.00  0.00    +0.043 C 
ATOM      3  C   UNL     1       0.414  -1.001  -0.713  0.00  0.00    +0.004 C 
ATOM      4  C   UNL     1       1.886  -0.277  -1.075  0.00  0.00    +0.003 C 
ATOM      5  C   UNL     1       2.481  -0.551   0.462  0.00  0.00    +0.038 C 
ATOM      6  C   UNL     1       1.940   0.877   1.230  0.00  0.00    +0.153 C 
ATOM      7  O   UNL     1       1.995   1.784   0.021  0.00  0.00    -0.223 OA
ATOM      8  C   UNL     1       3.901   0.068   0.099  0.00  0.00    +0.036 C 
ATOM      9  C   UNL     1       4.611  -1.211  -0.266  0.00  0.00    -0.038 C 
ATOM     10  C   UNL     1       5.904  -0.961  -0.503  0.00  0.00    +0.034 C 
ATOM     11  C   UNL     1       6.550   0.278  -0.041  0.00  0.00    +0.195 C 
ATOM     12  C   UNL     1       5.783   1.094   0.915  0.00  0.00    +0.038 C 
ATOM     13  O   UNL     1       7.726   0.589  -0.401  0.00  0.00    -0.287 OA
ATOM     14  C   UNL     1       3.765  -2.048  -1.101  0.00  0.00    +0.022 C 
ATOM     15  C   UNL     1       3.970   0.805  -1.165  0.00  0.00    +0.009 C 
ATOM     16  C   UNL     1       4.522   0.745   1.209  0.00  0.00    -0.020 C 
ATOM     17  C   UNL     1       2.509  -1.643  -1.625  0.00  0.00    +0.004 C 
ATOM     18  C   UNL     1      -0.216  -0.702  -2.174  0.00  0.00    +0.004 C 
ATOM     19  C   UNL     1      -0.006   1.452  -1.222  0.00  0.00    +0.004 C 
ATOM     20  C   UNL     1       0.347   0.531   1.119  0.00  0.00    +0.037 C 
ATOM     21  C   UNL     1      -1.578  -0.179  -1.842  0.00  0.00    +0.048 C 
ENDROOT
BRANCH   1  22
ATOM     22  C   UNL     1      -2.014  -1.239   0.210  0.00  0.00    +0.230 C 
ATOM     23  O   UNL     1      -1.671  -2.265  -0.396  0.00  0.00    -0.288 OA
BRANCH  22  24
ATOM     24  C   UNL     1      -2.782  -1.609   1.385  0.00  0.00    +0.276 C 
BRANCH  24  25
ATOM     25  O   UNL     1      -4.090  -1.926   1.328  0.00  0.00    -0.440 OA
BRANCH  25  26
ATOM     26  C   UNL     1      -4.828  -2.153   0.193  0.00  0.00    +0.317 C 
ATOM     27  O   UNL     1      -4.346  -3.078  -0.485  0.00  0.00    -0.250 OA
BRANCH  26  28
ATOM     28  C   UNL     1      -6.191  -1.637  -0.055  0.00  0.00    +0.110 C 
ATOM     29  C   UNL     1      -7.261  -2.428   0.639  0.00  0.00    +0.012 C 
ENDBRANCH  26  28
ENDBRANCH  25  26
ENDBRANCH  24  25
ENDBRANCH  22  24
ENDBRANCH   1  22
BRANCH   1  30
ATOM     30  O   UNL     1      -2.281   1.169  -0.271  0.00  0.00    -0.418 OA
BRANCH  30  31
ATOM     31  C   UNL     1      -2.889   2.007   0.565  0.00  0.00    +0.512 C 
ATOM     32  O   UNL     1      -3.634   1.311   1.277  0.00  0.00    -0.203 OA
BRANCH  31  33
ATOM     33  O   UNL     1      -3.300   3.289   0.257  0.00  0.00    -0.418 OA
BRANCH  33  35
ATOM     34  C   UNL     1      -4.880   4.675  -0.174  0.00  0.00    +0.051 C 
ATOM     35  C   UNL     1      -4.590   3.784   0.526  0.00  0.00    +0.212 C 
ENDBRANCH  33  35
ENDBRANCH  31  33
ENDBRANCH  30  31
ENDBRANCH   1  30
TORSDOF 9
