REMARK  Name = 
REMARK  2 active torsions:
REMARK  status: ('A' for Active; 'I' for Inactive)
REMARK    1  A    between atoms: N_2  and  C_3
REMARK    2  A    between atoms: C_3  and  C_4
REMARK                            x       y       z     vdW  Elec       q    Type
REMARK                         _______ _______ _______ _____ _____    ______ ____
ROOT
ATOM      1  C   UNL     1       0.658  -0.211  -0.117  0.00  0.00    +0.130 C 
ATOM      2  C   UNL     1       1.060  -0.377   1.302  0.00  0.00    +0.168 C 
ATOM      3  O   UNL     1       0.334   0.037   2.204  0.00  0.00    -0.294 OA
ATOM      4  C   UNL     1       2.529  -0.330   1.588  0.00  0.00    +0.066 C 
ATOM      5  C   UNL     1       3.231  -0.188   0.267  0.00  0.00    +0.008 C 
ATOM      6  C   UNL     1       2.758   0.993  -0.535  0.00  0.00    +0.003 C 
ATOM      7  C   UNL     1       1.260   1.063  -0.640  0.00  0.00    +0.027 C 
ENDROOT
BRANCH   1   8
ATOM      8  C   UNL     1      -0.825  -0.136  -0.151  0.00  0.00    +0.009 A 
ATOM      9  C   UNL     1      -1.429   1.084  -0.377  0.00  0.00    +0.055 A 
ATOM     10 CL   UNL     1      -0.448   2.360  -1.040  0.00  0.00    -0.083 Cl
ATOM     11  C   UNL     1      -2.808   1.061  -0.539  0.00  0.00    +0.011 A 
ATOM     12  C   UNL     1      -3.549  -0.042  -0.179  0.00  0.00    +0.001 A 
ATOM     13  C   UNL     1      -2.894  -1.202   0.175  0.00  0.00    -0.000 A 
ATOM     14  C   UNL     1      -1.538  -1.179   0.421  0.00  0.00    -0.002 A 
ENDBRANCH   1   8
BRANCH   1  16
ATOM     15  C   UNL     1       0.638  -1.562  -1.448  0.00  0.00    +0.108 C 
ATOM     16  N   UNL     1       1.025  -1.371  -0.929  0.00  0.00    -0.208 NA
ENDBRANCH   1  16
TORSDOF 2
