REMARK  Name = 
REMARK  5 active torsions:
REMARK  status: ('A' for Active; 'I' for Inactive)
REMARK    1  A    between atoms: N_8  and  C_9
REMARK    2  A    between atoms: C_9  and  C_10
REMARK    3  A    between atoms: C_10  and  C_11
REMARK    4  A    between atoms: C_11  and  C_12
REMARK    5  A    between atoms: C_11  and  C_14
REMARK                            x       y       z     vdW  Elec       q    Type
REMARK                         _______ _______ _______ _____ _____    ______ ____
ROOT
ATOM      1  N   UNL     1      -4.382  -1.840   1.207  0.00  0.00    -0.086 NA
ATOM      2  C   UNL     1      -3.370  -0.881   0.885  0.00  0.00    +0.261 A 
ATOM      3  N   UNL     1      -3.675   0.380   0.495  0.00  0.00    -0.171 NA
ATOM      4  C   UNL     1      -2.874   1.047  -0.371  0.00  0.00    +0.302 A 
ATOM      5  O   UNL     1      -3.012   2.296  -0.535  0.00  0.00    -0.263 OA
ATOM      6  C   UNL     1      -1.591   0.537  -0.509  0.00  0.00    +0.175 A 
ATOM      7  N   UNL     1      -0.575   0.820  -1.348  0.00  0.00    -0.217 NA
ATOM      8  C   UNL     1       0.521   0.149  -0.923  0.00  0.00    +0.180 A 
ATOM      9  N   UNL     1       0.222  -0.589   0.165  0.00  0.00    -0.294 N 
ATOM     10  C   UNL     1      -1.131  -0.532   0.246  0.00  0.00    +0.171 A 
ATOM     11  N   UNL     1      -2.053  -1.190   0.971  0.00  0.00    -0.192 NA
ENDROOT
BRANCH   9  12
ATOM     12  C   UNL     1       1.090  -0.977   1.272  0.00  0.00    +0.109 C 
BRANCH  12  13
ATOM     13  C   UNL     1       2.216   0.022   1.478  0.00  0.00    +0.030 C 
BRANCH  13  14
ATOM     14  C   UNL     1       3.160  -0.047   0.312  0.00  0.00    +0.068 C 
BRANCH  14  15
ATOM     15  C   UNL     1       4.275  -1.048   0.528  0.00  0.00    +0.185 C 
ATOM     16  O   UNL     1       4.355  -1.792  -0.660  0.00  0.00    -0.220 OA
ENDBRANCH  14  15
BRANCH  14  17
ATOM     17  C   UNL     1       3.648   1.288  -0.161  0.00  0.00    +0.185 C 
ATOM     18  O   UNL     1       3.176   2.357   0.582  0.00  0.00    -0.220 OA
ENDBRANCH  14  17
ENDBRANCH  13  14
ENDBRANCH  12  13
ENDBRANCH   9  12
TORSDOF 5
