REMARK  Name = 
REMARK  12 active torsions:
REMARK  status: ('A' for Active; 'I' for Inactive)
REMARK    1  A    between atoms: C_2  and  C_4
REMARK    2  A    between atoms: C_4  and  N_5
REMARK    3  A    between atoms: N_5  and  C_6
REMARK    4  A    between atoms: N_5  and  S_29
REMARK    5  A    between atoms: C_6  and  C_7
REMARK    6  A    between atoms: C_7  and  C_9
REMARK    7  A    between atoms: C_9  and  C_10
REMARK    8  A    between atoms: C_9  and  N_17
REMARK    9  A    between atoms: C_10  and  C_11
REMARK   10  A    between atoms: C_18  and  O_20
REMARK   11  A    between atoms: O_20  and  C_21
REMARK   12  A    between atoms: S_29  and  C_32
REMARK                            x       y       z     vdW  Elec       q    Type
REMARK                         _______ _______ _______ _____ _____    ______ ____
ROOT
ATOM      1  C   UNL     1       0.486  -1.056  -0.785  0.00  0.00    +0.135 C 
ENDROOT
BRANCH   1   2
ATOM      2  N   UNL     1       1.983  -0.943  -0.388  0.00  0.00    -0.167 NA
ATOM      3  C   UNL     1       2.327   0.392  -0.291  0.00  0.00    +0.421 C 
ATOM      4  O   UNL     1       2.316   0.520   0.961  0.00  0.00    -0.225 OA
BRANCH   3   5
ATOM      5  O   UNL     1       3.208   1.294  -0.696  0.00  0.00    -0.435 OA
BRANCH   5   6
ATOM      6  C   UNL     1       4.708   1.025  -0.586  0.00  0.00    +0.205 C 
ATOM      7  C   UNL     1       4.854   1.257   1.085  0.00  0.00    +0.102 C 
ATOM      8  C   UNL     1       6.444   1.763   0.714  0.00  0.00    +0.239 C 
ATOM      9  O   UNL     1       6.491   2.527   2.030  0.00  0.00    -0.330 OA
ATOM     10  C   UNL     1       5.414   3.331   2.002  0.00  0.00    +0.145 C 
ATOM     11  O   UNL     1       5.967   2.979  -0.061  0.00  0.00    -0.327 OA
ATOM     12  C   UNL     1       4.288   2.744   1.228  0.00  0.00    +0.041 C 
ATOM     13  C   UNL     1       5.099   2.566  -0.948  0.00  0.00    +0.188 C 
ENDBRANCH   5   6
ENDBRANCH   3   5
ENDBRANCH   1   2
BRANCH   1  14
ATOM     14  C   UNL     1      -0.184  -0.405   0.663  0.00  0.00    +0.190 C 
ATOM     15  O   UNL     1       0.451  -1.387   1.615  0.00  0.00    -0.220 OA
BRANCH  14  16
ATOM     16  C   UNL     1      -1.525  -1.331   0.504  0.00  0.00    +0.130 C 
BRANCH  16  17
ATOM     17  N   UNL     1      -2.604  -0.529   0.147  0.00  0.00    -0.153 NA
BRANCH  17  18
ATOM     18  S   UNL     1      -3.510   0.203   1.362  0.00  0.00    +0.063 S 
ATOM     19  O   UNL     1      -2.786   1.471   1.762  0.00  0.00    -0.153 OA
ATOM     20  O   UNL     1      -3.532  -0.767   2.525  0.00  0.00    -0.153 OA
BRANCH  18  21
ATOM     21  C   UNL     1      -5.143   0.548   0.886  0.00  0.00    +0.122 A 
ATOM     22  C   UNL     1      -6.252  -0.139   1.307  0.00  0.00    +0.021 A 
ATOM     23  C   UNL     1      -7.476   0.509   1.181  0.00  0.00    +0.019 A 
ATOM     24  C   UNL     1      -7.574   1.749   0.561  0.00  0.00    +0.089 A 
ATOM     25  N   UNL     1      -8.623   2.668   0.838  0.00  0.00    -0.128 NA
ATOM     26  C   UNL     1      -6.558   2.065  -0.324  0.00  0.00    +0.019 A 
ATOM     27  C   UNL     1      -5.346   1.444  -0.157  0.00  0.00    +0.021 A 
ENDBRANCH  18  21
ENDBRANCH  17  18
BRANCH  17  28
ATOM     28  C   UNL     1      -2.786  -0.113  -1.177  0.00  0.00    +0.096 C 
BRANCH  28  30
ATOM     29  C   UNL     1      -1.836   1.657  -0.998  0.00  0.00    +0.001 C 
ATOM     30  C   UNL     1      -2.074   1.186  -1.506  0.00  0.00    +0.018 C 
ATOM     31  C   UNL     1      -2.088   1.442  -2.998  0.00  0.00    +0.001 C 
ENDBRANCH  28  30
ENDBRANCH  17  28
ENDBRANCH  16  17
ENDBRANCH  14  16
ENDBRANCH   1  14
BRANCH   1  32
ATOM     32  C   UNL     1       0.353  -2.631  -0.378  0.00  0.00    +0.051 C 
BRANCH  32  33
ATOM     33  C   UNL     1       1.624  -3.304  -0.551  0.00  0.00    -0.020 A 
ATOM     34  C   UNL     1       2.485  -3.391   0.538  0.00  0.00    -0.004 A 
ATOM     35  C   UNL     1       3.445  -4.355   0.659  0.00  0.00    -0.000 A 
ATOM     36  C   UNL     1       3.651  -5.228  -0.380  0.00  0.00    -0.000 A 
ATOM     37  C   UNL     1       2.595  -5.399  -1.263  0.00  0.00    -0.000 A 
ATOM     38  C   UNL     1       1.709  -4.362  -1.435  0.00  0.00    -0.004 A 
ENDBRANCH  32  33
ENDBRANCH   1  32
TORSDOF 12
