REMARK  Name = 
REMARK  3 active torsions:
REMARK  status: ('A' for Active; 'I' for Inactive)
REMARK    1  A    between atoms: C_2  and  O_4
REMARK    2  A    between atoms: O_4  and  C_5
REMARK    3  A    between atoms: C_5  and  C_7
REMARK                            x       y       z     vdW  Elec       q    Type
REMARK                         _______ _______ _______ _____ _____    ______ ____
ROOT
ATOM      1  C   UNL     1      -0.017  -0.167   0.793  0.00  0.00    +0.378 C 
ATOM      2  F   UNL     1       0.162  -1.613   0.350  0.00  0.00    -0.194 F 
ENDROOT
BRANCH   1   3
ATOM      3  C   UNL     1      -1.568  -0.104   0.211  0.00  0.00    +0.456 C 
ATOM      4  F   UNL     1      -1.601   0.228  -1.066  0.00  0.00    -0.165 F 
ATOM      5  F   UNL     1      -2.169  -1.281   0.550  0.00  0.00    -0.165 F 
ATOM      6  F   UNL     1      -2.135   0.849   1.054  0.00  0.00    -0.165 F 
ENDBRANCH   1   3
BRANCH   1   7
ATOM      7  O   UNL     1       0.619   0.326  -0.514  0.00  0.00    -0.264 OA
BRANCH   7   9
ATOM      8  F   UNL     1       2.752  -0.164  -0.576  0.00  0.00    -0.166 F 
ATOM      9  C   UNL     1       1.886   0.726  -0.208  0.00  0.00    +0.452 C 
ATOM     10  F   UNL     1       2.072   1.200   1.056  0.00  0.00    -0.166 F 
ENDBRANCH   7   9
ENDBRANCH   1   7
TORSDOF 3
