REMARK  Name = 
REMARK  2 active torsions:
REMARK  status: ('A' for Active; 'I' for Inactive)
REMARK    1  A    between atoms: C_4  and  C_5
REMARK    2  A    between atoms: N_7  and  C_8
REMARK                            x       y       z     vdW  Elec       q    Type
REMARK                         _______ _______ _______ _____ _____    ______ ____
ROOT
ATOM      1  C   UNL     1      -0.624   0.571   0.371  0.00  0.00    +0.284 C 
ATOM      2  N   UNL     1       0.467   0.753  -0.551  0.00  0.00    -0.202 NA
ATOM      3  O   UNL     1      -0.512  -0.046   1.474  0.00  0.00    -0.267 OA
ENDROOT
BRANCH   1  11
ATOM      4  C   UNL     1      -5.134   2.328  -0.724  0.00  0.00    +0.154 C 
ATOM      5  N   UNL     1      -4.052   1.500  -0.263  0.00  0.00    -0.249 N 
ATOM      6  C   UNL     1      -4.213   0.174  -0.090  0.00  0.00    +0.080 A 
ATOM      7  C   UNL     1      -2.917  -0.337  -0.107  0.00  0.00    +0.041 A 
ATOM      8  C   UNL     1      -2.739  -1.700   0.098  0.00  0.00    +0.003 A 
ATOM      9  C   UNL     1      -3.763  -2.515   0.553  0.00  0.00    +0.000 A 
ATOM     10  C   UNL     1      -5.038  -1.964   0.544  0.00  0.00    +0.002 A 
ATOM     11  C   UNL     1      -2.005   0.711  -0.111  0.00  0.00    +0.157 A 
ATOM     12  C   UNL     1      -5.267  -0.687   0.061  0.00  0.00    +0.019 A 
ATOM     13  N   UNL     1      -2.777   1.819  -0.075  0.00  0.00    -0.165 NA
ENDBRANCH   1  11
BRANCH   2  14
ATOM     14  C   UNL     1       1.757   0.183   0.141  0.00  0.00    +0.098 C 
ATOM     15  C   UNL     1       2.689   1.472  -0.246  0.00  0.00    +0.038 C 
ATOM     16  C   UNL     1       4.053   1.050   0.604  0.00  0.00    +0.059 C 
ATOM     17  N   UNL     1       3.840  -0.457   0.688  0.00  0.00    -0.274 NA
ATOM     18  C   UNL     1       3.577  -1.386  -0.508  0.00  0.00    +0.059 C 
ATOM     19  C   UNL     1       4.723  -0.841  -1.573  0.00  0.00    +0.016 C 
ATOM     20  C   UNL     1       5.784  -0.179  -0.787  0.00  0.00    +0.003 C 
ATOM     21  C   UNL     1       4.767  -1.030   1.566  0.00  0.00    +0.090 C 
ATOM     22  C   UNL     1       5.063   1.127  -0.701  0.00  0.00    +0.016 C 
ATOM     23  C   UNL     1       2.323  -0.545  -1.212  0.00  0.00    +0.038 C 
ENDBRANCH   2  14
TORSDOF 2
