REMARK  Name = 
REMARK  13 active torsions:
REMARK  status: ('A' for Active; 'I' for Inactive)
REMARK    1  A    between atoms: C_2  and  C_3
REMARK    2  A    between atoms: C_4  and  C_5
REMARK    3  A    between atoms: C_5  and  C_6
REMARK    4  A    between atoms: C_7  and  C_8
REMARK    5  A    between atoms: C_8  and  C_9
REMARK    6  A    between atoms: C_10  and  C_11
REMARK    7  A    between atoms: C_11  and  C_12
REMARK    8  A    between atoms: C_13  and  C_14
REMARK    9  A    between atoms: C_14  and  C_15
REMARK   10  A    between atoms: C_16  and  C_17
REMARK   11  A    between atoms: C_17  and  C_18
REMARK   12  A    between atoms: C_18  and  C_19
REMARK   13  A    between atoms: C_19  and  C_20
REMARK                            x       y       z     vdW  Elec       q    Type
REMARK                         _______ _______ _______ _____ _____    ______ ____
ROOT
ATOM      1  C   UNL     1      -0.201  -1.569  -0.431  0.00  0.00    +0.051 C 
ENDROOT
BRANCH   1   2
ATOM      2  C   UNL     1       0.641  -1.221   0.731  0.00  0.00    -0.026 C 
ATOM      3  C   UNL     1       0.918   0.064   0.924  0.00  0.00    -0.026 C 
BRANCH   3   4
ATOM      4  C   UNL     1       0.795   1.113  -0.103  0.00  0.00    +0.051 C 
BRANCH   4   5
ATOM      5  C   UNL     1       1.673   0.923  -1.268  0.00  0.00    -0.026 C 
ATOM      6  C   UNL     1       2.989   0.924  -1.253  0.00  0.00    -0.030 C 
BRANCH   6   7
ATOM      7  C   UNL     1       3.651   1.495  -0.043  0.00  0.00    +0.026 C 
BRANCH   7   8
ATOM      8  C   UNL     1       4.209   0.401   0.836  0.00  0.00    +0.016 C 
BRANCH   8   9
ATOM      9  C   UNL     1       5.303  -0.380   0.162  0.00  0.00    +0.114 C 
BRANCH   9  10
ATOM     10  C   UNL     1       6.635   0.159   0.564  0.00  0.00    +0.365 C 
ATOM     11  O   UNL     1       6.818   0.494   1.906  0.00  0.00    -0.246 OA
ATOM     12  O   UNL     1       7.347   0.675  -0.344  0.00  0.00    -0.246 OA
ENDBRANCH   9  10
ENDBRANCH   8   9
ENDBRANCH   7   8
ENDBRANCH   6   7
ENDBRANCH   4   5
ENDBRANCH   3   4
ENDBRANCH   1   2
BRANCH   1  14
ATOM     13  C   UNL     1      -2.198  -0.846  -1.524  0.00  0.00    -0.026 C 
ATOM     14  C   UNL     1      -1.232  -0.504  -0.661  0.00  0.00    -0.026 C 
BRANCH  13  15
ATOM     15  C   UNL     1      -2.828  -2.181  -1.253  0.00  0.00    +0.051 C 
BRANCH  15  17
ATOM     16  C   UNL     1      -3.962  -1.136   0.584  0.00  0.00    -0.026 C 
ATOM     17  C   UNL     1      -3.193  -2.165   0.202  0.00  0.00    -0.026 C 
BRANCH  16  18
ATOM     18  C   UNL     1      -5.039  -0.758  -0.387  0.00  0.00    +0.051 C 
BRANCH  18  20
ATOM     19  C   UNL     1      -6.014   0.512   1.400  0.00  0.00    -0.030 C 
ATOM     20  C   UNL     1      -6.245  -0.225   0.309  0.00  0.00    -0.026 C 
BRANCH  19  22
ATOM     21  C   UNL     1      -5.245   2.814   1.056  0.00  0.00    +0.005 C 
ATOM     22  C   UNL     1      -4.821   1.413   1.398  0.00  0.00    +0.026 C 
ENDBRANCH  19  22
ENDBRANCH  18  20
ENDBRANCH  16  18
ENDBRANCH  15  17
ENDBRANCH  13  15
ENDBRANCH   1  14
TORSDOF 13
