REMARK  Name = 
REMARK  5 active torsions:
REMARK  status: ('A' for Active; 'I' for Inactive)
REMARK    1  A    between atoms: N_2  and  C_3
REMARK    2  A    between atoms: N_2  and  C_14
REMARK    3  A    between atoms: C_3  and  C_4
REMARK    4  A    between atoms: C_7  and  C_8
REMARK    5  A    between atoms: C_14  and  C_15
REMARK                            x       y       z     vdW  Elec       q    Type
REMARK                         _______ _______ _______ _____ _____    ______ ____
ROOT
ATOM      1  C   UNL     1      -1.559  -1.635  -1.139  0.00  0.00    +0.090 C 
ATOM      2  N   UNL     1      -0.517  -1.254  -0.206  0.00  0.00    -0.264 NA
ENDROOT
BRANCH   2   3
ATOM      3  C   UNL     1      -1.052  -0.590   0.963  0.00  0.00    +0.099 C 
BRANCH   3   4
ATOM      4  C   UNL     1      -2.542  -0.706   1.040  0.00  0.00    -0.006 A 
ATOM      5  C   UNL     1      -3.266   0.240   0.335  0.00  0.00    -0.003 A 
ATOM      6  C   UNL     1      -4.597   0.046  -0.002  0.00  0.00    -0.000 A 
ATOM      7  C   UNL     1      -5.455   1.128  -0.079  0.00  0.00    -0.000 A 
ATOM      8  C   UNL     1      -4.929   2.389  -0.318  0.00  0.00    -0.000 A 
ATOM      9  C   UNL     1      -3.572   2.554  -0.191  0.00  0.00    -0.000 A 
ATOM     10  C   UNL     1      -5.158  -1.151   0.409  0.00  0.00    -0.000 A 
ATOM     11  C   UNL     1      -4.354  -2.225   0.742  0.00  0.00    -0.000 A 
ATOM     12  C   UNL     1      -2.738   1.478   0.040  0.00  0.00    -0.000 A 
ATOM     13  C   UNL     1      -3.143  -1.908   1.337  0.00  0.00    -0.003 A 
ENDBRANCH   3   4
ENDBRANCH   2   3
BRANCH   2  14
ATOM     14  C   UNL     1       0.417  -0.430  -0.927  0.00  0.00    +0.099 C 
BRANCH  14  15
ATOM     15  C   UNL     1       1.839  -0.790  -0.642  0.00  0.00    -0.006 A 
ATOM     16  C   UNL     1       2.802  -0.827  -1.644  0.00  0.00    -0.003 A 
ATOM     17  C   UNL     1       4.069  -0.308  -1.406  0.00  0.00    -0.005 A 
ATOM     18  C   UNL     1       4.448   0.097  -0.131  0.00  0.00    -0.023 A 
ATOM     19  C   UNL     1       3.628  -0.362   0.892  0.00  0.00    -0.005 A 
ATOM     20  C   UNL     1       2.343  -0.828   0.653  0.00  0.00    -0.003 A 
BRANCH  18  21
ATOM     21  C   UNL     1       5.559   1.047   0.085  0.00  0.00    +0.019 C 
ATOM     22  C   UNL     1       5.592   1.988  -1.113  0.00  0.00    +0.004 C 
ATOM     23  C   UNL     1       6.843   0.240   0.130  0.00  0.00    +0.004 C 
ATOM     24  C   UNL     1       5.341   1.808   1.370  0.00  0.00    +0.004 C 
ENDBRANCH  18  21
ENDBRANCH  14  15
ENDBRANCH   2  14
TORSDOF 5
