REMARK  Name = 
REMARK  6 active torsions:
REMARK  status: ('A' for Active; 'I' for Inactive)
REMARK    1  A    between atoms: C_2  and  C_3
REMARK    2  A    between atoms: C_11  and  O_12
REMARK    3  A    between atoms: C_31  and  C_32
REMARK    4  A    between atoms: C_34  and  C_35
REMARK    5  A    between atoms: C_40  and  O_41
REMARK    6  A    between atoms: C_54  and  O_55
REMARK                            x       y       z     vdW  Elec       q    Type
REMARK                         _______ _______ _______ _____ _____    ______ ____
ROOT
ATOM      1  C   UNL     1      -1.137   5.521  -0.141  0.00  0.00    +0.079 C 
ATOM      2  C   UNL     1      -0.393   4.159  -0.573  0.00  0.00    +0.157 C 
ATOM      3  O   UNL     1      -0.286   4.350  -1.785  0.00  0.00    -0.296 OA
ATOM      4  C   UNL     1       0.315   3.353   0.337  0.00  0.00    +0.098 C 
ATOM      5  C   UNL     1       1.609   2.617  -0.326  0.00  0.00    +0.163 C 
ATOM      6  O   UNL     1       0.966   2.432  -1.678  0.00  0.00    -0.223 OA
ATOM      7  C   UNL     1       1.212   1.041   0.221  0.00  0.00    +0.075 C 
ATOM      8  C   UNL     1      -0.297   1.115  -0.322  0.00  0.00    +0.007 C 
ATOM      9  C   UNL     1       1.841   0.267  -1.150  0.00  0.00    +0.189 C 
ATOM     10  O   UNL     1       1.032  -1.014  -1.157  0.00  0.00    -0.447 OA
ATOM     11  C   UNL     1       1.454  -2.128  -0.472  0.00  0.00    +0.335 C 
ATOM     12  O   UNL     1       1.648  -3.221  -1.101  0.00  0.00    -0.248 OA
ATOM     13  C   UNL     1       0.032  -1.925   0.263  0.00  0.00    +0.175 C 
ATOM     14  N   UNL     1      -0.127  -3.462   0.498  0.00  0.00    -0.265 N 
ATOM     15  C   UNL     1      -0.136  -4.099   1.713  0.00  0.00    +0.094 C 
ATOM     16  C   UNL     1       0.892  -3.794   2.735  0.00  0.00    +0.022 C 
ATOM     17  C   UNL     1       1.708  -2.711   2.028  0.00  0.00    +0.004 C 
ATOM     18  C   UNL     1      -0.726  -4.094  -0.640  0.00  0.00    +0.289 C 
ATOM     19  O   UNL     1      -0.331  -5.271  -0.892  0.00  0.00    -0.267 OA
ATOM     20  C   UNL     1      -1.344  -3.142  -1.572  0.00  0.00    +0.279 C 
ATOM     21  O   UNL     1      -1.216  -3.465  -2.804  0.00  0.00    -0.281 OA
ATOM     22  C   UNL     1      -2.364  -2.330  -1.091  0.00  0.00    +0.279 C 
ATOM     23  C   UNL     1      -3.435  -3.561  -0.798  0.00  0.00    +0.065 C 
ATOM     24  C   UNL     1      -4.855  -2.793  -0.963  0.00  0.00    +0.038 C 
ATOM     25  C   UNL     1      -4.727  -1.933   0.421  0.00  0.00    +0.145 C 
ATOM     26  C   UNL     1      -3.878  -0.803  -0.535  0.00  0.00    +0.172 C 
ATOM     27  C   UNL     1      -3.930   0.399   0.686  0.00  0.00    +0.145 C 
ATOM     28  C   UNL     1      -2.567   1.042   0.085  0.00  0.00    +0.032 C 
ATOM     29  C   UNL     1      -3.069   2.213  -0.924  0.00  0.00    +0.007 C 
ATOM     30  C   UNL     1      -4.439   1.518  -1.468  0.00  0.00    +0.000 C 
ATOM     31  C   UNL     1      -3.881   3.044   0.225  0.00  0.00    +0.022 C 
ATOM     32  C   UNL     1      -3.436   4.417  -0.244  0.00  0.00    -0.048 C 
ATOM     33  C   UNL     1      -4.631   5.216  -0.706  0.00  0.00    +0.026 C 
ATOM     34  C   UNL     1      -3.535  -4.071  -2.349  0.00  0.00    +0.006 C 
ATOM     35  O   UNL     1      -2.878  -1.742  -2.284  0.00  0.00    -0.187 OA
ATOM     36  O   UNL     1      -2.576  -1.447  -0.182  0.00  0.00    -0.324 OA
ATOM     37  C   UNL     1       0.664  -1.683   1.757  0.00  0.00    +0.031 C 
ATOM     38  C   UNL     1      -2.447   4.820   0.468  0.00  0.00    -0.028 C 
ENDROOT
BRANCH   9  39
ATOM     39  C   UNL     1       3.188  -0.370  -0.570  0.00  0.00    -0.009 C 
ATOM     40  C   UNL     1       4.053  -0.192   0.270  0.00  0.00    -0.031 C 
ATOM     41  C   UNL     1       3.594  -0.941  -1.923  0.00  0.00    +0.030 C 
BRANCH  40  42
ATOM     42  C   UNL     1       5.392  -1.053  -0.128  0.00  0.00    +0.024 C 
ATOM     43  C   UNL     1       6.037   0.238  -0.829  0.00  0.00    +0.035 C 
ATOM     44  C   UNL     1       6.572   1.384   0.180  0.00  0.00    +0.131 C 
ATOM     45  C   UNL     1       7.961   0.456   0.415  0.00  0.00    +0.107 C 
ATOM     46 CL   UNL     1       8.746   1.589   1.669  0.00  0.00    -0.112 Cl
ATOM     47  C   UNL     1       7.457  -0.652   1.389  0.00  0.00    +0.019 C 
ATOM     48  C   UNL     1       6.122  -1.079   1.320  0.00  0.00    +0.006 C 
BRANCH  44  49
ATOM     49  O   UNL     1       5.853   1.042   1.465  0.00  0.00    -0.352 OA
ATOM     50  C   UNL     1       5.999   2.288   2.170  0.00  0.00    +0.174 C 
ENDBRANCH  44  49
ENDBRANCH  40  42
ENDBRANCH   9  39
BRANCH   1  52
ATOM     51  C   UNL     1      -1.416   6.131   2.139  0.00  0.00    +0.001 C 
ATOM     52  C   UNL     1      -0.464   5.649   1.352  0.00  0.00    +0.012 C 
ENDBRANCH   1  52
BRANCH  27  53
ATOM     53  O   UNL     1      -3.197  -0.389   1.748  0.00  0.00    -0.351 OA
ATOM     54  C   UNL     1      -3.675   0.241   2.908  0.00  0.00    +0.174 C 
ENDBRANCH  27  53
BRANCH  25  55
ATOM     55  O   UNL     1      -6.040  -1.237   0.170  0.00  0.00    -0.351 OA
ATOM     56  C   UNL     1      -6.915  -1.940   0.975  0.00  0.00    +0.174 C 
ENDBRANCH  25  55
TORSDOF 6
