REMARK  Name = 
REMARK  10 active torsions:
REMARK  status: ('A' for Active; 'I' for Inactive)
REMARK    1  A    between atoms: C_8  and  C_9
REMARK    2  A    between atoms: N_11  and  C_12
REMARK    3  A    between atoms: C_12  and  C_13
REMARK    4  A    between atoms: C_12  and  C_21
REMARK    5  A    between atoms: C_13  and  S_14
REMARK    6  A    between atoms: S_14  and  C_15
REMARK    7  A    between atoms: C_21  and  C_23
REMARK    8  A    between atoms: C_23  and  N_24
REMARK    9  A    between atoms: C_33  and  C_34
REMARK   10  A    between atoms: N_36  and  C_37
REMARK                            x       y       z     vdW  Elec       q    Type
REMARK                         _______ _______ _______ _____ _____    ______ ____
ROOT
ATOM      1  C   UNL     1      -1.099  -0.577   1.460  0.00  0.00    +0.138 C 
ENDROOT
BRANCH   1   3
ATOM      2  C   UNL     1      -1.782   1.886   1.329  0.00  0.00    +0.265 C 
ATOM      3  N   UNL     1      -1.803   0.694   2.026  0.00  0.00    -0.200 NA
ATOM      4  O   UNL     1      -0.601   2.213   0.996  0.00  0.00    -0.268 OA
BRANCH   2   7
ATOM      5  C   UNL     1      -2.860   2.682  -1.163  0.00  0.00    +0.035 C 
ATOM      6  C   UNL     1      -3.292   3.152  -0.028  0.00  0.00    +0.021 A 
ATOM      7  C   UNL     1      -2.781   2.917   1.239  0.00  0.00    +0.054 A 
ATOM      8  C   UNL     1      -3.240   3.497   2.380  0.00  0.00    +0.004 A 
ATOM      9  C   UNL     1      -4.214   4.458   2.232  0.00  0.00    +0.003 A 
ATOM     10  C   UNL     1      -4.505   4.978   0.979  0.00  0.00    +0.042 A 
ATOM     11  C   UNL     1      -4.174   4.222  -0.134  0.00  0.00    +0.192 A 
ATOM     12  O   UNL     1      -4.307   4.848  -1.376  0.00  0.00    -0.287 OA
ENDBRANCH   2   7
ENDBRANCH   1   3
BRANCH   1  13
ATOM     13  C   UNL     1      -0.143   0.257   0.302  0.00  0.00    +0.188 C 
ATOM     14  O   UNL     1      -0.914  -0.091  -0.944  0.00  0.00    -0.220 OA
BRANCH  13  15
ATOM     15  C   UNL     1       0.789  -1.075   0.154  0.00  0.00    +0.108 C 
BRANCH  15  16
ATOM     16  N   UNL     1       1.768  -0.684  -0.725  0.00  0.00    -0.264 NA
ATOM     17  C   UNL     1       2.814  -1.830  -0.455  0.00  0.00    +0.137 C 
ATOM     18  C   UNL     1       3.893  -1.253  -1.556  0.00  0.00    +0.025 C 
ATOM     19  C   UNL     1       2.883  -0.700  -2.702  0.00  0.00    +0.003 C 
ATOM     20  C   UNL     1       2.961   0.918  -2.180  0.00  0.00    +0.016 C 
ATOM     21  C   UNL     1       4.478   0.970  -1.633  0.00  0.00    +0.001 C 
ATOM     22  C   UNL     1       5.473   0.716  -2.686  0.00  0.00    +0.000 C 
ATOM     23  C   UNL     1       4.680   0.614  -3.964  0.00  0.00    +0.000 C 
ATOM     24  C   UNL     1       3.981  -0.650  -3.878  0.00  0.00    +0.000 C 
ATOM     25  C   UNL     1       2.385   0.554  -0.703  0.00  0.00    +0.072 C 
BRANCH  17  26
ATOM     26  C   UNL     1       3.502  -1.047   0.769  0.00  0.00    +0.256 C 
ATOM     27  N   UNL     1       4.683  -1.672   1.296  0.00  0.00    -0.208 NA
ATOM     28  O   UNL     1       2.757  -0.558   1.641  0.00  0.00    -0.272 OA
BRANCH  27  29
ATOM     29  C   UNL     1       5.545  -0.701   1.976  0.00  0.00    +0.079 C 
ATOM     30  C   UNL     1       6.724  -1.377   2.607  0.00  0.00    +0.022 C 
ATOM     31  C   UNL     1       4.697   0.019   3.008  0.00  0.00    +0.022 C 
ATOM     32  C   UNL     1       5.918   0.322   0.924  0.00  0.00    +0.022 C 
ENDBRANCH  27  29
ENDBRANCH  17  26
ENDBRANCH  15  16
ENDBRANCH  13  15
ENDBRANCH   1  13
BRANCH   1  33
ATOM     33  C   UNL     1      -2.358  -0.942   0.500  0.00  0.00    +0.086 C 
BRANCH  33  34
ATOM     34  S   UNL     1      -3.470  -1.968   1.415  0.00  0.00    -0.112 S 
BRANCH  34  35
ATOM     35  C   UNL     1      -4.159  -3.179   0.267  0.00  0.00    +0.025 A 
ATOM     36  C   UNL     1      -4.353  -4.452   0.739  0.00  0.00    +0.006 A 
ATOM     37  C   UNL     1      -4.707  -5.473  -0.108  0.00  0.00    +0.001 A 
ATOM     38  C   UNL     1      -5.092  -5.126  -1.397  0.00  0.00    +0.000 A 
ATOM     39  C   UNL     1      -5.232  -3.786  -1.732  0.00  0.00    +0.001 A 
ATOM     40  C   UNL     1      -4.846  -2.778  -0.875  0.00  0.00    +0.006 A 
ENDBRANCH  34  35
ENDBRANCH  33  34
ENDBRANCH   1  33
TORSDOF 10
