REMARK  Name = 
REMARK  5 active torsions:
REMARK  status: ('A' for Active; 'I' for Inactive)
REMARK    1  A    between atoms: O_2  and  C_3
REMARK    2  A    between atoms: C_7  and  O_8
REMARK    3  A    between atoms: C_10  and  O_11
REMARK    4  A    between atoms: C_16  and  O_17
REMARK    5  A    between atoms: C_23  and  N_24
REMARK                            x       y       z     vdW  Elec       q    Type
REMARK                         _______ _______ _______ _____ _____    ______ ____
ROOT
ATOM      1  C   UNL     1       3.298   1.248  -0.197  0.00  0.00    +0.175 A 
ATOM      2  C   UNL     1       3.122  -0.023  -0.738  0.00  0.00    +0.206 A 
ATOM      3  C   UNL     1       1.876  -0.652  -0.763  0.00  0.00    +0.175 A 
ATOM      4  C   UNL     1       0.825   0.245  -0.657  0.00  0.00    +0.033 A 
ATOM      5  C   UNL     1      -0.385  -0.506  -0.291  0.00  0.00    +0.001 A 
ATOM      6  C   UNL     1      -1.589   0.183  -0.243  0.00  0.00    +0.001 A 
ATOM      7  C   UNL     1      -1.953   1.300   0.887  0.00  0.00    +0.118 C 
ATOM      8  C   UNL     1      -0.468   2.041   0.945  0.00  0.00    +0.031 C 
ATOM      9  C   UNL     1      -0.118   2.520  -0.408  0.00  0.00    +0.029 C 
ATOM     10  C   UNL     1      -2.794  -0.491  -0.043  0.00  0.00    +0.043 A 
ATOM     11  C   UNL     1      -3.069  -1.856  -0.072  0.00  0.00    +0.229 A 
ATOM     12  O   UNL     1      -4.112  -2.230   0.510  0.00  0.00    -0.283 OA
ATOM     13  C   UNL     1      -2.169  -2.884  -0.328  0.00  0.00    +0.177 A 
ATOM     14  C   UNL     1      -1.004  -2.708  -1.066  0.00  0.00    +0.040 A 
ATOM     15  C   UNL     1      -0.252  -1.544  -1.219  0.00  0.00    +0.003 A 
ATOM     16  C   UNL     1       1.015   1.620  -0.825  0.00  0.00    -0.016 A 
ATOM     17  C   UNL     1       2.205   2.104  -0.290  0.00  0.00    +0.036 A 
ENDROOT
BRANCH   7  18
ATOM     18  N   UNL     1      -2.515   2.295  -0.230  0.00  0.00    -0.203 NA
ATOM     19  C   UNL     1      -3.121   3.461   0.283  0.00  0.00    +0.242 C 
ATOM     20  O   UNL     1      -2.540   4.066   1.203  0.00  0.00    -0.273 OA
ATOM     21  C   UNL     1      -4.414   3.949  -0.252  0.00  0.00    +0.096 C 
ENDBRANCH   7  18
BRANCH   1  23
ATOM     22  C   UNL     1       4.090   1.102   1.944  0.00  0.00    +0.253 C 
ATOM     23  O   UNL     1       4.221   1.357   0.852  0.00  0.00    -0.468 OA
ENDBRANCH   1  23
BRANCH   2  24
ATOM     24  O   UNL     1       4.269  -0.701  -1.096  0.00  0.00    -0.465 OA
ATOM     25  C   UNL     1       5.387  -0.900  -0.277  0.00  0.00    +0.253 C 
ENDBRANCH   2  24
BRANCH   3  26
ATOM     26  O   UNL     1       1.891  -1.911  -0.152  0.00  0.00    -0.468 OA
ATOM     27  C   UNL     1       2.625  -2.221   0.997  0.00  0.00    +0.253 C 
ENDBRANCH   3  26
BRANCH  13  28
ATOM     28  O   UNL     1      -2.481  -4.141   0.145  0.00  0.00    -0.468 OA
ATOM     29  C   UNL     1      -1.840  -4.722   1.278  0.00  0.00    +0.253 C 
ENDBRANCH  13  28
TORSDOF 5
