REMARK  Name = 
REMARK  0 active torsions:
REMARK  status: ('A' for Active; 'I' for Inactive)
REMARK                            x       y       z     vdW  Elec       q    Type
REMARK                         _______ _______ _______ _____ _____    ______ ____
ROOT
ATOM      1 CL   UNL     1      -2.019   0.714   1.257  0.00  0.00    -0.112 Cl
ATOM      2  C   UNL     1      -1.035   1.175  -0.259  0.00  0.00    +0.112 C 
ATOM      3  C   UNL     1      -1.072  -0.268  -1.029  0.00  0.00    +0.112 C 
ATOM      4 CL   UNL     1      -2.853  -0.735  -0.727  0.00  0.00    -0.112 Cl
ATOM      5  C   UNL     1      -0.456  -1.110   0.214  0.00  0.00    +0.112 C 
ATOM      6 CL   UNL     1      -0.841  -2.796  -0.455  0.00  0.00    -0.112 Cl
ATOM      7  C   UNL     1       1.080  -1.096  -0.342  0.00  0.00    +0.112 C 
ATOM      8 CL   UNL     1       1.803  -1.036   1.377  0.00  0.00    -0.112 Cl
ATOM      9  C   UNL     1       1.209   0.482  -0.763  0.00  0.00    +0.112 C 
ATOM     10 CL   UNL     1       2.917   0.796  -0.106  0.00  0.00    -0.112 Cl
ATOM     11  C   UNL     1       0.393   1.050   0.525  0.00  0.00    +0.112 C 
ATOM     12 CL   UNL     1       0.875   2.823   0.307  0.00  0.00    -0.112 Cl
ENDROOT
TORSDOF 0
