REMARK  Name = 
REMARK  3 active torsions:
REMARK  status: ('A' for Active; 'I' for Inactive)
REMARK    1  A    between atoms: C_2  and  C_4
REMARK    2  A    between atoms: C_8  and  C_9
REMARK    3  A    between atoms: C_9  and  C_11
REMARK                            x       y       z     vdW  Elec       q    Type
REMARK                         _______ _______ _______ _____ _____    ______ ____
ROOT
ATOM      1  C   UNL     1       3.304  -0.105  -0.710  0.00  0.00    +0.143 C 
ATOM      2  C   UNL     1       1.717   0.276  -0.743  0.00  0.00    +0.048 A 
ATOM      3  N   UNL     1       1.093  -0.682  -0.118  0.00  0.00    -0.328 N 
ATOM      4  C   UNL     1      -0.170  -0.753  -0.522  0.00  0.00    +0.099 A 
ATOM      5  C   UNL     1      -0.274   0.013  -1.655  0.00  0.00    +0.022 A 
ATOM      6  C   UNL     1       1.888  -0.901   1.090  0.00  0.00    +0.107 C 
ATOM      7  C   UNL     1       0.974   0.583  -1.879  0.00  0.00    +0.015 A 
ATOM      8  C   UNL     1       3.097  -1.376   0.348  0.00  0.00    +0.042 C 
ENDROOT
BRANCH   1  10
ATOM      9  O   UNL     1       3.166   0.952   0.986  0.00  0.00    -0.245 OA
ATOM     10  C   UNL     1       3.574   0.936   0.527  0.00  0.00    +0.370 C 
ATOM     11  O   UNL     1       4.779   1.625   0.331  0.00  0.00    -0.245 OA
ENDBRANCH   1  10
BRANCH   4  12
ATOM     12  C   UNL     1      -1.304  -1.298   0.232  0.00  0.00    +0.211 C 
ATOM     13  O   UNL     1      -1.096  -2.239   1.023  0.00  0.00    -0.285 OA
BRANCH  12  14
ATOM     14  C   UNL     1      -2.514  -0.475   0.316  0.00  0.00    +0.040 A 
ATOM     15  C   UNL     1      -3.536  -0.689  -0.598  0.00  0.00    +0.003 A 
ATOM     16  C   UNL     1      -4.426   0.325  -0.867  0.00  0.00    +0.000 A 
ATOM     17  C   UNL     1      -4.525   1.373   0.033  0.00  0.00    +0.000 A 
ATOM     18  C   UNL     1      -3.381   1.673   0.748  0.00  0.00    +0.000 A 
ATOM     19  C   UNL     1      -2.366   0.764   0.918  0.00  0.00    +0.003 A 
ENDBRANCH  12  14
ENDBRANCH   4  12
TORSDOF 3
