REMARK  Name = 
REMARK  4 active torsions:
REMARK  status: ('A' for Active; 'I' for Inactive)
REMARK    1  A    between atoms: N_4  and  N_5
REMARK    2  A    between atoms: C_6  and  C_7
REMARK    3  A    between atoms: C_10  and  C_11
REMARK    4  A    between atoms: C_14  and  N_15
REMARK                            x       y       z     vdW  Elec       q    Type
REMARK                         _______ _______ _______ _____ _____    ______ ____
ROOT
ATOM      1  C   UNL     1      -0.654   1.114  -0.210  0.00  0.00    +0.166 A 
ATOM      2  O   UNL     1      -0.088  -0.078  -0.273  0.00  0.00    -0.452 OA
ATOM      3  C   UNL     1       1.194   0.131  -0.119  0.00  0.00    +0.145 A 
ATOM      4  C   UNL     1       1.458   1.350  -0.732  0.00  0.00    +0.041 A 
ATOM      5  C   UNL     1       0.284   2.067  -0.587  0.00  0.00    +0.042 A 
ENDROOT
BRANCH   3   6
ATOM      6  C   UNL     1       2.255  -0.846   0.160  0.00  0.00    +0.035 A 
ATOM      7  C   UNL     1       2.808  -1.613  -0.860  0.00  0.00    +0.009 A 
ATOM      8  C   UNL     1       4.167  -1.903  -0.899  0.00  0.00    +0.075 A 
ATOM      9  C   UNL     1       5.027  -1.357   0.047  0.00  0.00    +0.290 A 
ATOM     10  C   UNL     1       4.413  -0.965   1.231  0.00  0.00    +0.075 A 
ATOM     11  C   UNL     1       3.037  -0.772   1.308  0.00  0.00    +0.009 A 
BRANCH   9  12
ATOM     12  N   UNL     1       6.307  -0.829  -0.325  0.00  0.00    +0.081 N 
ATOM     13  O   UNL     1       7.008  -1.513  -1.292  0.00  0.00    -0.576 OA
ATOM     14  O   UNL     1       6.583   0.389  -0.211  0.00  0.00    +0.041 OA
ENDBRANCH   9  12
ENDBRANCH   3   6
BRANCH   1  16
ATOM     15  N   UNL     1      -2.909   1.006   0.656  0.00  0.00    -0.169 NA
ATOM     16  C   UNL     1      -2.104   1.329  -0.297  0.00  0.00    +0.155 C 
BRANCH  15  22
ATOM     17  O   UNL     1      -6.650  -1.659   0.920  0.00  0.00    -0.271 OA
ATOM     18  C   UNL     1      -6.074  -0.688   0.366  0.00  0.00    +0.272 C 
ATOM     19  N   UNL     1      -6.506   0.675   0.327  0.00  0.00    -0.125 NA
ATOM     20  C   UNL     1      -5.329   1.479   0.292  0.00  0.00    +0.349 C 
ATOM     21  O   UNL     1      -5.345   2.742   0.303  0.00  0.00    -0.249 OA
ATOM     22  N   UNL     1      -4.203   0.604   0.337  0.00  0.00    -0.154 N 
ATOM     23  C   UNL     1      -4.681  -0.664  -0.177  0.00  0.00    +0.208 C 
ENDBRANCH  15  22
ENDBRANCH   1  16
TORSDOF 4
