REMARK  Name = 
REMARK  3 active torsions:
REMARK  status: ('A' for Active; 'I' for Inactive)
REMARK    1  A    between atoms: N_6  and  C_7
REMARK    2  A    between atoms: C_7  and  C_8
REMARK    3  A    between atoms: C_8  and  C_10
REMARK                            x       y       z     vdW  Elec       q    Type
REMARK                         _______ _______ _______ _____ _____    ______ ____
ROOT
ATOM      1  C   UNL     1      -3.072  -2.209  -0.040  0.00  0.00    +0.137 C 
ATOM      2  N   UNL     1      -2.423  -1.262   0.163  0.00  0.00    -0.263 N 
ATOM      3  C   UNL     1      -2.849  -0.004  -0.097  0.00  0.00    +0.335 A 
ATOM      4  O   UNL     1      -4.041   0.186  -0.406  0.00  0.00    -0.246 OA
ATOM      5  N   UNL     1      -2.150   1.100   0.232  0.00  0.00    -0.245 N 
ATOM      6  C   UNL     1      -2.633   2.420  -0.170  0.00  0.00    +0.138 C 
ATOM      7  C   UNL     1      -0.813   0.960   0.402  0.00  0.00    +0.283 A 
ATOM      8  O   UNL     1      -0.055   1.973   0.328  0.00  0.00    -0.265 OA
ATOM      9  C   UNL     1      -0.227  -0.288   0.302  0.00  0.00    +0.153 A 
ATOM     10  N   UNL     1       1.035  -0.660   0.103  0.00  0.00    -0.301 N 
ATOM     11  C   UNL     1       1.025  -2.009   0.205  0.00  0.00    +0.180 A 
ATOM     12  N   UNL     1      -0.249  -2.444   0.363  0.00  0.00    -0.206 NA
ATOM     13  C   UNL     1      -1.082  -1.379   0.315  0.00  0.00    +0.170 A 
ENDROOT
BRANCH  10  14
ATOM     14  C   UNL     1       1.939   0.028  -0.815  0.00  0.00    +0.143 C 
BRANCH  14  15
ATOM     15  C   UNL     1       3.000   0.820   0.196  0.00  0.00    +0.207 C 
ATOM     16  O   UNL     1       3.140   1.968  -0.812  0.00  0.00    -0.218 OA
BRANCH  15  17
ATOM     17  C   UNL     1       4.278  -0.048  -0.422  0.00  0.00    +0.217 C 
ATOM     18  O   UNL     1       5.178   0.849  -0.909  0.00  0.00    -0.218 OA
ENDBRANCH  15  17
ENDBRANCH  14  15
ENDBRANCH  10  14
TORSDOF 3
