REMARK  Name = 
REMARK  10 active torsions:
REMARK  status: ('A' for Active; 'I' for Inactive)
REMARK    1  A    between atoms: C_2  and  N_5
REMARK    2  A    between atoms: N_8  and  C_9
REMARK    3  A    between atoms: C_9  and  C_10
REMARK    4  A    between atoms: C_9  and  C_34
REMARK    5  A    between atoms: C_16  and  C_17
REMARK    6  A    between atoms: N_19  and  C_20
REMARK    7  A    between atoms: C_20  and  C_21
REMARK    8  A    between atoms: C_20  and  C_26
REMARK    9  A    between atoms: C_21  and  C_22
REMARK   10  A    between atoms: C_26  and  C_28
REMARK                            x       y       z     vdW  Elec       q    Type
REMARK                         _______ _______ _______ _____ _____    ______ ____
ROOT
ATOM      1  C   UNL     1       1.421   0.347  -0.654  0.00  0.00    +0.246 C 
ATOM      2  N   UNL     1       0.489   0.095   0.351  0.00  0.00    -0.272 N 
ATOM      3  C   UNL     1      -0.580  -1.037   0.439  0.00  0.00    +0.153 C 
ATOM      4  C   UNL     1      -1.419  -0.166   1.657  0.00  0.00    +0.029 C 
ATOM      5  C   UNL     1      -0.954  -1.115   2.989  0.00  0.00    +0.004 C 
ATOM      6  C   UNL     1      -1.631  -0.596   4.218  0.00  0.00    +0.000 C 
ATOM      7  C   UNL     1      -0.468  -2.403   2.762  0.00  0.00    +0.000 C 
ATOM      8  C   UNL     1      -0.027   0.238   2.538  0.00  0.00    +0.022 C 
ATOM      9  C   UNL     1       1.017  -0.567   1.565  0.00  0.00    +0.094 C 
ATOM     10  O   UNL     1       1.484  -0.026  -1.802  0.00  0.00    -0.273 OA
ENDROOT
BRANCH   3  11
ATOM     11  C   UNL     1      -1.597  -0.448  -0.658  0.00  0.00    +0.260 C 
ATOM     12  N   UNL     1      -2.804  -1.180  -0.409  0.00  0.00    -0.198 NA
ATOM     13  O   UNL     1      -1.333  -0.538  -1.850  0.00  0.00    -0.272 OA
BRANCH  12  14
ATOM     14  C   UNL     1      -4.125  -0.710  -1.121  0.00  0.00    +0.161 C 
BRANCH  14  15
ATOM     15  C   UNL     1      -4.856  -0.555   0.317  0.00  0.00    +0.249 C 
ATOM     16  O   UNL     1      -5.952   0.022   0.319  0.00  0.00    -0.285 OA
BRANCH  15  17
ATOM     17  C   UNL     1      -4.892  -1.824   1.068  0.00  0.00    +0.321 C 
ATOM     18  O   UNL     1      -5.058  -1.812   2.297  0.00  0.00    -0.263 OA
ATOM     19  N   UNL     1      -4.756  -3.087   0.430  0.00  0.00    -0.081 NA
ENDBRANCH  15  17
ENDBRANCH  14  15
BRANCH  14  20
ATOM     20  C   UNL     1      -3.693   0.876  -1.180  0.00  0.00    +0.030 C 
BRANCH  20  21
ATOM     21  C   UNL     1      -4.918   1.703  -1.184  0.00  0.00    +0.002 C 
ATOM     22  C   UNL     1      -4.545   3.072  -0.609  0.00  0.00    +0.000 C 
ATOM     23  C   UNL     1      -4.240   3.465  -2.054  0.00  0.00    +0.000 C 
ATOM     24  C   UNL     1      -5.282   2.423  -2.453  0.00  0.00    +0.000 C 
ENDBRANCH  20  21
ENDBRANCH  14  20
ENDBRANCH  12  14
ENDBRANCH   3  11
BRANCH   1  25
ATOM     25  C   UNL     1       2.685   1.089   0.039  0.00  0.00    +0.173 C 
BRANCH  25  28
ATOM     26  N   UNL     1       5.979  -0.590  -0.710  0.00  0.00    -0.191 NA
ATOM     27  C   UNL     1       4.615  -0.323  -0.360  0.00  0.00    +0.340 C 
ATOM     28  N   UNL     1       3.773   0.636  -1.021  0.00  0.00    -0.180 NA
ATOM     29  O   UNL     1       4.022  -1.397  -0.031  0.00  0.00    -0.249 OA
BRANCH  26  31
ATOM     30  C   UNL     1       6.421  -1.813   0.513  0.00  0.00    +0.022 C 
ATOM     31  C   UNL     1       6.717  -1.582   0.086  0.00  0.00    +0.080 C 
ATOM     32  C   UNL     1       7.091  -2.786  -0.779  0.00  0.00    +0.022 C 
ATOM     33  C   UNL     1       7.986  -0.903   0.603  0.00  0.00    +0.022 C 
ENDBRANCH  26  31
ENDBRANCH  25  28
BRANCH  25  34
ATOM     34  C   UNL     1       2.420   2.549  -0.659  0.00  0.00    +0.027 C 
ATOM     35  C   UNL     1       3.754   3.201  -0.813  0.00  0.00    +0.002 C 
ATOM     36  C   UNL     1       1.713   3.258   0.497  0.00  0.00    +0.002 C 
ATOM     37  C   UNL     1       1.542   2.483  -1.794  0.00  0.00    +0.002 C 
ENDBRANCH  25  34
ENDBRANCH   1  25
TORSDOF 10
