REMARK  Name = 
REMARK  5 active torsions:
REMARK  status: ('A' for Active; 'I' for Inactive)
REMARK    1  A    between atoms: C_2  and  C_3
REMARK    2  A    between atoms: C_3  and  C_4
REMARK    3  A    between atoms: C_4  and  C_5
REMARK    4  A    between atoms: C_4  and  C_8
REMARK    5  A    between atoms: C_5  and  C_6
REMARK                            x       y       z     vdW  Elec       q    Type
REMARK                         _______ _______ _______ _____ _____    ______ ____
ROOT
ATOM      1  C   UNL     1      -0.025  -0.146   0.115  0.00  0.00    +0.103 C 
ENDROOT
BRANCH   1   2
ATOM      2  C   UNL     1      -0.822  -1.356   0.163  0.00  0.00    +0.364 C 
ATOM      3  O   UNL     1      -0.986  -1.953   1.419  0.00  0.00    -0.246 OA
ATOM      4  O   UNL     1      -1.846  -1.392  -0.586  0.00  0.00    -0.246 OA
ENDBRANCH   1   2
BRANCH   1   5
ATOM      5  C   UNL     1      -0.509   1.043   0.811  0.00  0.00    +0.011 C 
BRANCH   5   7
ATOM      6  C   UNL     1      -1.010   3.232  -0.110  0.00  0.00    +0.000 C 
ATOM      7  C   UNL     1      -1.493   1.786  -0.085  0.00  0.00    +0.001 C 
ENDBRANCH   5   7
ENDBRANCH   1   5
BRANCH   1   8
ATOM      8  C   UNL     1       1.131  -0.087  -0.762  0.00  0.00    +0.011 C 
BRANCH   8   9
ATOM      9  C   UNL     1       2.255  -0.970  -0.295  0.00  0.00    +0.001 C 
ATOM     10  C   UNL     1       3.305  -0.156   0.452  0.00  0.00    +0.000 C 
ENDBRANCH   8   9
ENDBRANCH   1   8
TORSDOF 5
