REMARK  Name = 
REMARK  7 active torsions:
REMARK  status: ('A' for Active; 'I' for Inactive)
REMARK    1  A    between atoms: C_2  and  N_3
REMARK    2  A    between atoms: N_3  and  C_4
REMARK    3  A    between atoms: N_3  and  C_6
REMARK    4  A    between atoms: C_6  and  C_7
REMARK    5  A    between atoms: C_7  and  N_8
REMARK    6  A    between atoms: C_9  and  C_11
REMARK    7  A    between atoms: C_15  and  C_16
REMARK                            x       y       z     vdW  Elec       q    Type
REMARK                         _______ _______ _______ _____ _____    ______ ____
ROOT
ATOM      1  C   UNL     1      -1.535   0.454  -0.181  0.00  0.00    +0.066 A 
ATOM      2  C   UNL     1      -0.384  -0.275  -0.400  0.00  0.00    +0.001 A 
ATOM      3  C   UNL     1      -0.317  -1.529  -1.200  0.00  0.00    +0.033 C 
ATOM      4  C   UNL     1       0.694   0.368   0.198  0.00  0.00    +0.077 A 
ATOM      5  N   UNL     1       0.207   1.579   0.566  0.00  0.00    -0.250 NA
ATOM      6  C   UNL     1      -1.139   1.561   0.558  0.00  0.00    +0.063 A 
ATOM      7  C   UNL     1      -2.073   2.318   1.449  0.00  0.00    +0.052 C 
ENDROOT
BRANCH   4   8
ATOM      8  C   UNL     1       2.049   0.244  -0.354  0.00  0.00    +0.023 C 
ATOM      9  C   UNL     1       3.085   0.454   0.422  0.00  0.00    +0.058 C 
ATOM     10  C   UNL     1       4.474   0.127   0.079  0.00  0.00    +0.022 A 
ATOM     11  C   UNL     1       5.237   0.742   1.064  0.00  0.00    +0.074 A 
ATOM     12  C   UNL     1       6.613   0.615   0.916  0.00  0.00    +0.019 A 
ATOM     13  C   UNL     1       7.153  -0.450   0.205  0.00  0.00    +0.031 A 
ATOM     14  C   UNL     1       6.357  -1.141  -0.701  0.00  0.00    +0.140 A 
ATOM     15  F   UNL     1       6.735  -2.361  -1.181  0.00  0.00    -0.204 F 
ATOM     16  N   UNL     1       4.398   1.040   2.185  0.00  0.00    -0.175 NA
ATOM     17  C   UNL     1       5.075  -0.647  -0.906  0.00  0.00    +0.031 A 
ATOM     18  C   UNL     1       3.039   0.711   1.868  0.00  0.00    +0.269 C 
ATOM     19  O   UNL     1       2.078   0.507   2.670  0.00  0.00    -0.268 OA
ENDBRANCH   4   8
BRANCH   1  21
ATOM     20  N   UNL     1      -3.732  -0.717  -0.522  0.00  0.00    -0.200 NA
ATOM     21  C   UNL     1      -2.831   0.323  -0.862  0.00  0.00    +0.266 C 
ATOM     22  O   UNL     1      -3.059   0.932  -1.951  0.00  0.00    -0.268 OA
BRANCH  20  23
ATOM     23  C   UNL     1      -4.786  -1.190  -1.385  0.00  0.00    +0.133 C 
BRANCH  23  24
ATOM     24  C   UNL     1      -6.076  -0.431  -1.213  0.00  0.00    +0.096 C 
BRANCH  24  25
ATOM     25  N   UNL     1      -6.577  -0.461   0.137  0.00  0.00    -0.271 NA
BRANCH  25  27
ATOM     26  C   UNL     1      -5.923   1.617   1.142  0.00  0.00    +0.019 C 
ATOM     27  C   UNL     1      -5.669   0.116   1.098  0.00  0.00    +0.072 C 
ENDBRANCH  25  27
BRANCH  25  28
ATOM     28  C   UNL     1      -7.092  -1.745   0.533  0.00  0.00    +0.072 C 
ATOM     29  C   UNL     1      -6.002  -2.760   0.778  0.00  0.00    +0.019 C 
ENDBRANCH  25  28
ENDBRANCH  24  25
ENDBRANCH  23  24
ENDBRANCH  20  23
ENDBRANCH   1  21
TORSDOF 7
