REMARK  Name = 
REMARK  4 active torsions:
REMARK  status: ('A' for Active; 'I' for Inactive)
REMARK    1  A    between atoms: C_6  and  N_7
REMARK    2  A    between atoms: N_14  and  C_15
REMARK    3  A    between atoms: C_15  and  C_16
REMARK    4  A    between atoms: C_21  and  C_22
REMARK                            x       y       z     vdW  Elec       q    Type
REMARK                         _______ _______ _______ _____ _____    ______ ____
ROOT
ATOM      1  C   UNL     1       0.001   4.287   0.109  0.00  0.00    +0.138 C 
ATOM      2  N   UNL     1      -0.382   3.024  -0.152  0.00  0.00    -0.247 N 
ATOM      3  C   UNL     1       0.428   2.011   0.228  0.00  0.00    +0.335 A 
ATOM      4  O   UNL     1       1.157   2.235   1.243  0.00  0.00    -0.246 OA
ATOM      5  N   UNL     1       0.015   0.758  -0.090  0.00  0.00    -0.265 N 
ATOM      6  C   UNL     1      -1.238   0.535  -0.476  0.00  0.00    +0.121 A 
ATOM      7  C   UNL     1      -1.880   1.558  -1.161  0.00  0.00    +0.093 A 
ATOM      8  C   UNL     1      -1.401   2.856  -1.029  0.00  0.00    +0.267 A 
ATOM      9  O   UNL     1      -2.201   3.834  -1.145  0.00  0.00    -0.267 OA
ENDROOT
BRANCH   6  10
ATOM     10  N   UNL     1      -1.995  -0.641  -0.140  0.00  0.00    -0.293 N 
ATOM     11  C   UNL     1      -2.687  -0.433   1.059  0.00  0.00    +0.111 C 
ATOM     12  C   UNL     1      -3.622  -1.739   1.453  0.00  0.00    +0.112 C 
ATOM     13  N   UNL     1      -2.554  -2.222   2.540  0.00  0.00    -0.131 NA
ATOM     14  C   UNL     1      -2.977  -2.772   0.313  0.00  0.00    +0.023 C 
ATOM     15  C   UNL     1      -3.643  -2.135  -0.910  0.00  0.00    +0.023 C 
ATOM     16  C   UNL     1      -2.530  -1.206  -1.381  0.00  0.00    +0.092 C 
ENDBRANCH   6  10
BRANCH   5  17
ATOM     17  C   UNL     1       0.783  -0.365   0.349  0.00  0.00    +0.139 C 
BRANCH  17  18
ATOM     18  C   UNL     1       2.129  -0.462  -0.248  0.00  0.00    +0.010 A 
ATOM     19  C   UNL     1       2.823  -1.650  -0.049  0.00  0.00    +0.066 A 
ATOM     20  C   UNL     1       4.172  -1.577   0.285  0.00  0.00    +0.010 A 
ATOM     21  C   UNL     1       4.903  -0.413   0.167  0.00  0.00    +0.001 A 
ATOM     22  C   UNL     1       4.237   0.659  -0.416  0.00  0.00    -0.000 A 
ATOM     23  C   UNL     1       2.882   0.592  -0.688  0.00  0.00    -0.002 A 
BRANCH  19  24
ATOM     24  C   UNL     1       2.128  -2.903  -0.019  0.00  0.00    +0.100 C 
ATOM     25  N   UNL     1       1.451  -3.829   0.159  0.00  0.00    -0.191 NA
ENDBRANCH  19  24
ENDBRANCH  17  18
ENDBRANCH   5  17
TORSDOF 4
