REMARK  Name = 
REMARK  3 active torsions:
REMARK  status: ('A' for Active; 'I' for Inactive)
REMARK    1  A    between atoms: O_2  and  C_3
REMARK    2  A    between atoms: C_8  and  C_9
REMARK    3  A    between atoms: C_9  and  C_11
REMARK                            x       y       z     vdW  Elec       q    Type
REMARK                         _______ _______ _______ _____ _____    ______ ____
ROOT
ATOM      1  C   UNL     1       3.291  -0.322   0.237  0.00  0.00    +0.139 A 
ATOM      2  C   UNL     1       2.486  -0.230  -0.888  0.00  0.00    +0.037 A 
ATOM      3  C   UNL     1       1.112  -0.370  -0.721  0.00  0.00    +0.003 A 
ATOM      4  C   UNL     1       0.520  -0.433   0.533  0.00  0.00    -0.000 A 
ATOM      5  C   UNL     1      -0.687   0.261   0.584  0.00  0.00    -0.004 A 
ATOM      6  C   UNL     1      -1.677  -0.087  -0.326  0.00  0.00    -0.012 A 
ATOM      7  C   UNL     1      -1.135  -0.394  -1.577  0.00  0.00    -0.004 A 
ATOM      8  C   UNL     1       1.337  -0.438   1.635  0.00  0.00    +0.003 A 
ATOM      9  C   UNL     1       0.238  -0.497  -1.786  0.00  0.00    -0.000 A 
ATOM     10  C   UNL     1       2.688  -0.645   1.438  0.00  0.00    +0.037 A 
ENDROOT
BRANCH   1  12
ATOM     11  C   UNL     1       5.405  -0.191   1.367  0.00  0.00    +0.252 C 
ATOM     12  O   UNL     1       4.675  -0.197   0.185  0.00  0.00    -0.471 OA
ENDBRANCH   1  12
BRANCH   6  13
ATOM     13  C   UNL     1      -2.783   1.087  -0.594  0.00  0.00    +0.126 C 
ATOM     14  C   UNL     1      -2.829   1.602   0.988  0.00  0.00    +0.017 C 
BRANCH  13  15
ATOM     15  C   UNL     1      -4.030   0.059  -0.418  0.00  0.00    +0.368 C 
ATOM     16  O   UNL     1      -4.327  -0.415   0.817  0.00  0.00    -0.245 OA
ATOM     17  O   UNL     1      -4.286  -0.594  -1.474  0.00  0.00    -0.245 OA
ENDBRANCH  13  15
ENDBRANCH   6  13
TORSDOF 3
