REMARK  Name = 
REMARK  3 active torsions:
REMARK  status: ('A' for Active; 'I' for Inactive)
REMARK    1  A    between atoms: C_2  and  C_3
REMARK    2  A    between atoms: C_3  and  N_4
REMARK    3  A    between atoms: C_9  and  C_10
REMARK                            x       y       z     vdW  Elec       q    Type
REMARK                         _______ _______ _______ _____ _____    ______ ____
ROOT
ATOM      1  C   UNL     1       0.851   2.028  -0.001  0.00  0.00    +0.028 C 
ATOM      2  C   UNL     1       0.245   0.660   0.032  0.00  0.00    +0.162 C 
ATOM      3  S   UNL     1      -0.576   0.221   1.454  0.00  0.00    +0.007 S 
ATOM      4  O   UNL     1      -0.038  -0.750   2.371  0.00  0.00    -0.171 OA
ATOM      5  O   UNL     1      -1.036   1.433   2.220  0.00  0.00    -0.171 OA
ATOM      6  C   UNL     1      -2.207  -0.392   0.707  0.00  0.00    +0.215 C 
ATOM      7  N   UNL     1      -1.546  -0.701  -0.645  0.00  0.00    -0.252 N 
ATOM      8  C   UNL     1      -2.256  -1.879  -0.526  0.00  0.00    +0.231 C 
ATOM      9  O   UNL     1      -3.196  -2.340  -1.246  0.00  0.00    -0.275 OA
ATOM     10  C   UNL     1      -1.980  -1.970   0.949  0.00  0.00    +0.130 C 
ATOM     11  C   UNL     1      -0.984   0.705  -1.109  0.00  0.00    +0.202 C 
ENDROOT
BRANCH  11  12
ATOM     12  C   UNL     1      -1.987   1.617  -0.168  0.00  0.00    +0.384 C 
ATOM     13  O   UNL     1      -1.522   2.932  -0.298  0.00  0.00    -0.244 OA
ATOM     14  O   UNL     1      -3.128   1.478  -0.721  0.00  0.00    -0.244 OA
ENDBRANCH  11  12
BRANCH   2  15
ATOM     15  C   UNL     1       1.116  -0.397  -0.568  0.00  0.00    +0.153 C 
BRANCH  15  16
ATOM     16  N   UNL     1       2.539  -0.214  -0.288  0.00  0.00    -0.228 N 
ATOM     17  N   UNL     1       3.396   0.267  -1.190  0.00  0.00    -0.064 NA
ATOM     18  N   UNL     1       4.626  -0.135  -0.939  0.00  0.00    -0.127 NA
ATOM     19  C   UNL     1       4.456  -1.335  -0.332  0.00  0.00    +0.144 A 
ATOM     20  C   UNL     1       3.227  -1.227   0.299  0.00  0.00    +0.119 A 
ENDBRANCH  15  16
ENDBRANCH   2  15
TORSDOF 3
