REMARK  Name = 
REMARK  0 active torsions:
REMARK  status: ('A' for Active; 'I' for Inactive)
REMARK                            x       y       z     vdW  Elec       q    Type
REMARK                         _______ _______ _______ _____ _____    ______ ____
ROOT
ATOM      1  C   UNL     1      -1.945   3.388   0.663  0.00  0.00    +0.090 C 
ATOM      2  N   UNL     1      -1.177   2.633  -0.088  0.00  0.00    -0.271 NA
ATOM      3  C   UNL     1      -1.859   1.949  -1.086  0.00  0.00    +0.077 C 
ATOM      4  C   UNL     1      -0.913   0.655  -1.425  0.00  0.00    +0.047 C 
ATOM      5  C   UNL     1       0.503   1.452  -0.844  0.00  0.00    +0.047 C 
ATOM      6  C   UNL     1       1.269   0.175  -0.254  0.00  0.00    +0.015 A 
ATOM      7  C   UNL     1       1.357  -1.050  -0.904  0.00  0.00    +0.141 A 
ATOM      8  O   UNL     1       0.234  -1.874  -0.692  0.00  0.00    -0.454 OA
ATOM      9  C   UNL     1      -1.060  -1.509  -0.267  0.00  0.00    +0.141 A 
ATOM     10  C   UNL     1      -1.863  -2.506   0.160  0.00  0.00    +0.037 A 
ATOM     11  C   UNL     1      -3.144  -2.152   0.566  0.00  0.00    +0.003 A 
ATOM     12  C   UNL     1      -3.361  -0.833   0.945  0.00  0.00    -0.000 A 
ATOM     13  C   UNL     1      -2.620   0.097   0.223  0.00  0.00    -0.001 A 
ATOM     14  C   UNL     1       2.570  -1.719  -0.795  0.00  0.00    +0.038 A 
ATOM     15  C   UNL     1       3.635  -1.144  -0.103  0.00  0.00    +0.015 A 
ATOM     16  C   UNL     1       3.443  -0.026   0.706  0.00  0.00    +0.058 A 
ATOM     17 CL   UNL     1       4.054   0.013   2.365  0.00  0.00    -0.082 Cl
ATOM     18  C   UNL     1       2.389   0.790   0.302  0.00  0.00    +0.010 A 
ATOM     19  C   UNL     1      -1.277  -0.134  -0.061  0.00  0.00    +0.014 A 
ATOM     20  C   UNL     1      -0.235   1.796   0.588  0.00  0.00    +0.077 C 
ENDROOT
TORSDOF 0
