REMARK  Name = 
REMARK  7 active torsions:
REMARK  status: ('A' for Active; 'I' for Inactive)
REMARK    1  A    between atoms: N_7  and  C_8
REMARK    2  A    between atoms: C_11  and  O_12
REMARK    3  A    between atoms: O_12  and  C_13
REMARK    4  A    between atoms: C_13  and  C_14
REMARK    5  A    between atoms: C_17  and  C_18
REMARK    6  A    between atoms: C_17  and  C_24
REMARK    7  A    between atoms: C_18  and  N_19
REMARK                            x       y       z     vdW  Elec       q    Type
REMARK                         _______ _______ _______ _____ _____    ______ ____
ROOT
ATOM      1  C   UNL     1      -1.477   1.657   0.883  0.00  0.00    +0.191 C 
ATOM      2  O   UNL     1      -1.611   0.164   0.498  0.00  0.00    -0.325 OA
ATOM      3  C   UNL     1      -2.973   0.249   0.324  0.00  0.00    +0.230 C 
ATOM      4  O   UNL     1      -3.277   1.363  -0.407  0.00  0.00    -0.327 OA
ATOM      5  C   UNL     1      -2.141   2.120  -0.590  0.00  0.00    +0.178 C 
ENDROOT
BRANCH   3   6
ATOM      6  C   UNL     1      -3.695   0.312   1.629  0.00  0.00    +0.041 A 
ATOM      7  C   UNL     1      -3.174  -0.266   2.772  0.00  0.00    +0.059 A 
ATOM      8 CL   UNL     1      -1.658  -1.135   2.691  0.00  0.00    -0.082 Cl
ATOM      9  C   UNL     1      -4.032  -0.373   3.843  0.00  0.00    +0.023 A 
ATOM     10  C   UNL     1      -5.391  -0.159   3.707  0.00  0.00    +0.058 A 
ATOM     11 CL   UNL     1      -6.463  -0.797   4.935  0.00  0.00    -0.082 Cl
ATOM     12  C   UNL     1      -5.856   0.539   2.624  0.00  0.00    +0.011 A 
ATOM     13  C   UNL     1      -4.940   0.926   1.655  0.00  0.00    +0.002 A 
ENDBRANCH   3   6
BRANCH   1  14
ATOM     14  C   UNL     1       0.085   1.751   0.272  0.00  0.00    +0.237 C 
BRANCH  14  15
ATOM     15  O   UNL     1       0.049   1.080  -0.943  0.00  0.00    -0.473 OA
BRANCH  15  19
ATOM     16  C   UNL     1       3.910  -0.013  -1.673  0.00  0.00    +0.048 A 
ATOM     17  C   UNL     1       3.070   0.216  -2.752  0.00  0.00    +0.018 A 
ATOM     18  C   UNL     1       1.715   0.452  -2.550  0.00  0.00    +0.038 A 
ATOM     19  C   UNL     1       1.142   0.289  -1.294  0.00  0.00    +0.139 A 
ATOM     20  C   UNL     1       1.965  -0.292  -0.340  0.00  0.00    +0.038 A 
ATOM     21  C   UNL     1       3.296  -0.559  -0.553  0.00  0.00    +0.018 A 
BRANCH  16  27
ATOM     22  C   UNL     1       8.826  -0.368   1.498  0.00  0.00    +0.095 C 
ATOM     23  C   UNL     1       7.760   0.161   0.673  0.00  0.00    +0.226 C 
ATOM     24  N   UNL     1       7.531  -0.487  -0.583  0.00  0.00    -0.276 N 
ATOM     25  C   UNL     1       6.836  -1.747  -0.549  0.00  0.00    +0.115 C 
ATOM     26  C   UNL     1       5.696  -1.707  -1.523  0.00  0.00    +0.112 C 
ATOM     27  N   UNL     1       5.288  -0.345  -1.826  0.00  0.00    -0.304 N 
ATOM     28  C   UNL     1       6.266   0.533  -2.412  0.00  0.00    +0.112 C 
ATOM     29  C   UNL     1       7.634   0.320  -1.781  0.00  0.00    +0.115 C 
ATOM     30  O   UNL     1       6.718   0.531   1.281  0.00  0.00    -0.275 OA
ENDBRANCH  16  27
ENDBRANCH  15  19
ENDBRANCH  14  15
ENDBRANCH   1  14
BRANCH   3  31
ATOM     31  C   UNL     1      -3.525  -0.958  -0.417  0.00  0.00    +0.168 C 
BRANCH  31  32
ATOM     32  N   UNL     1      -4.607  -0.543  -1.306  0.00  0.00    -0.302 N 
ATOM     33  C   UNL     1      -5.916  -0.843  -1.132  0.00  0.00    +0.179 A 
ATOM     34  N   UNL     1      -6.668   0.026  -1.839  0.00  0.00    -0.222 NA
ATOM     35  C   UNL     1      -5.826   0.860  -2.454  0.00  0.00    +0.119 A 
ATOM     36  C   UNL     1      -4.557   0.298  -2.363  0.00  0.00    +0.098 A 
ENDBRANCH  31  32
ENDBRANCH   3  31
TORSDOF 7
