REMARK  Name = 
REMARK  11 active torsions:
REMARK  status: ('A' for Active; 'I' for Inactive)
REMARK    1  A    between atoms: N_4  and  C_5
REMARK    2  A    between atoms: N_4  and  C_10
REMARK    3  A    between atoms: C_5  and  C_6
REMARK    4  A    between atoms: C_6  and  C_8
REMARK    5  A    between atoms: C_13  and  C_14
REMARK    6  A    between atoms: N_16  and  C_17
REMARK    7  A    between atoms: C_17  and  C_18
REMARK    8  A    between atoms: C_22  and  C_23
REMARK    9  A    between atoms: N_25  and  C_26
REMARK   10  A    between atoms: C_26  and  C_27
REMARK   11  A    between atoms: C_27  and  C_29
REMARK                            x       y       z     vdW  Elec       q    Type
REMARK                         _______ _______ _______ _____ _____    ______ ____
ROOT
ATOM      1  C   UNL     1      -1.387  -0.382   0.121  0.00  0.00    +0.065 A 
ATOM      2  C   UNL     1      -0.059  -0.741  -0.003  0.00  0.00    +0.049 A 
ATOM      3  I   UNL     1       0.574  -2.699   0.431  0.00  0.00    -0.041 I 
ATOM      4  C   UNL     1       0.802   0.115  -0.678  0.00  0.00    +0.067 A 
ATOM      5  C   UNL     1       0.502   1.455  -0.717  0.00  0.00    +0.040 A 
ATOM      6  I   UNL     1       1.783   2.779  -1.751  0.00  0.00    -0.042 I 
ATOM      7  C   UNL     1      -0.833   1.798  -0.591  0.00  0.00    +0.067 A 
ATOM      8  C   UNL     1      -1.686   0.964   0.119  0.00  0.00    +0.049 A 
ATOM      9  I   UNL     1      -3.467   1.700   0.990  0.00  0.00    -0.041 I 
ENDROOT
BRANCH   1  12
ATOM     10  C   UNL     1      -1.700  -0.938   2.792  0.00  0.00    +0.095 C 
ATOM     11  C   UNL     1      -2.571  -1.336   2.019  0.00  0.00    +0.230 C 
ATOM     12  N   UNL     1      -2.364  -1.296   0.604  0.00  0.00    -0.255 N 
ATOM     13  O   UNL     1      -3.767  -1.465   2.420  0.00  0.00    -0.275 OA
BRANCH  12  14
ATOM     14  C   UNL     1      -3.388  -1.714  -0.348  0.00  0.00    +0.134 C 
BRANCH  14  15
ATOM     15  C   UNL     1      -2.567  -2.929  -1.179  0.00  0.00    +0.205 C 
ATOM     16  O   UNL     1      -3.500  -2.764  -2.407  0.00  0.00    -0.218 OA
BRANCH  15  17
ATOM     17  C   UNL     1      -3.578  -4.106  -0.523  0.00  0.00    +0.217 C 
ATOM     18  O   UNL     1      -2.836  -4.503   0.602  0.00  0.00    -0.218 OA
ENDBRANCH  15  17
ENDBRANCH  14  15
ENDBRANCH  12  14
ENDBRANCH   1  12
BRANCH   4  19
ATOM     19  C   UNL     1       1.968  -0.463  -1.359  0.00  0.00    +0.266 C 
ATOM     20  N   UNL     1       2.845  -1.325  -0.623  0.00  0.00    -0.199 NA
ATOM     21  O   UNL     1       1.968  -0.666  -2.612  0.00  0.00    -0.268 OA
BRANCH  20  22
ATOM     22  C   UNL     1       4.233  -1.384  -1.078  0.00  0.00    +0.151 C 
BRANCH  22  23
ATOM     23  C   UNL     1       4.960  -1.415   0.442  0.00  0.00    +0.206 C 
ATOM     24  O   UNL     1       5.634  -0.042   0.187  0.00  0.00    -0.218 OA
BRANCH  23  25
ATOM     25  C   UNL     1       6.300  -2.224  -0.178  0.00  0.00    +0.217 C 
ATOM     26  O   UNL     1       5.909  -3.546   0.087  0.00  0.00    -0.218 OA
ENDBRANCH  23  25
ENDBRANCH  22  23
ENDBRANCH  20  22
ENDBRANCH   4  19
BRANCH   7  27
ATOM     27  C   UNL     1      -1.182   3.224  -0.571  0.00  0.00    +0.266 C 
ATOM     28  N   UNL     1      -0.430   4.194   0.143  0.00  0.00    -0.199 NA
ATOM     29  O   UNL     1      -2.345   3.558  -0.913  0.00  0.00    -0.268 OA
BRANCH  28  30
ATOM     30  C   UNL     1      -1.061   5.098   1.103  0.00  0.00    +0.151 C 
BRANCH  30  31
ATOM     31  C   UNL     1       0.034   5.435   2.110  0.00  0.00    +0.205 C 
ATOM     32  O   UNL     1       1.208   5.617   1.362  0.00  0.00    -0.218 OA
ENDBRANCH  30  31
ENDBRANCH  28  30
ENDBRANCH   7  27
TORSDOF 11
