REMARK  Name = 
REMARK  8 active torsions:
REMARK  status: ('A' for Active; 'I' for Inactive)
REMARK    1  A    between atoms: O_2  and  C_3
REMARK    2  A    between atoms: C_6  and  C_7
REMARK    3  A    between atoms: C_7  and  C_8
REMARK    4  A    between atoms: C_8  and  N_10
REMARK    5  A    between atoms: N_10  and  C_11
REMARK    6  A    between atoms: C_11  and  C_12
REMARK    7  A    between atoms: C_12  and  C_14
REMARK    8  A    between atoms: C_19  and  N_20
REMARK                            x       y       z     vdW  Elec       q    Type
REMARK                         _______ _______ _______ _____ _____    ______ ____
ROOT
ATOM      1  C   UNL     1      -0.689  -1.300  -0.952  0.00  0.00    +0.126 C 
ENDROOT
BRANCH   1   2
ATOM      2  C   UNL     1      -1.090  -0.947   0.650  0.00  0.00    +0.192 C 
ATOM      3  O   UNL     1      -1.950  -2.238   0.768  0.00  0.00    -0.217 OA
BRANCH   2   4
ATOM      4  C   UNL     1      -2.367  -0.013   0.180  0.00  0.00    +0.011 A 
ATOM      5  C   UNL     1      -3.242  -0.535  -0.678  0.00  0.00    +0.018 A 
ATOM      6  C   UNL     1      -4.505   0.062  -0.707  0.00  0.00    +0.112 A 
ATOM      7  C   UNL     1      -4.990   0.617   0.469  0.00  0.00    +0.211 A 
ATOM      8  O   UNL     1      -6.252   0.328   0.988  0.00  0.00    -0.285 OA
ATOM      9  C   UNL     1      -4.032   1.257   1.246  0.00  0.00    +0.043 A 
ATOM     10  C   UNL     1      -2.681   0.977   1.075  0.00  0.00    +0.002 A 
BRANCH   6  11
ATOM     11  N   UNL     1      -5.507  -0.364  -1.627  0.00  0.00    -0.168 NA
ATOM     12  C   UNL     1      -6.508   0.572  -1.969  0.00  0.00    +0.325 C 
ATOM     13  O   UNL     1      -6.447   1.750  -1.557  0.00  0.00    -0.263 OA
ENDBRANCH   6  11
ENDBRANCH   2   4
ENDBRANCH   1   2
BRANCH   1  14
ATOM     14  N   UNL     1       0.490  -2.079  -0.710  0.00  0.00    -0.216 NA
BRANCH  14  15
ATOM     15  C   UNL     1       1.457  -1.130   0.137  0.00  0.00    +0.077 C 
ATOM     16  C   UNL     1       1.304   0.103  -0.976  0.00  0.00    +0.019 C 
BRANCH  15  17
ATOM     17  C   UNL     1       2.799  -1.735  -0.645  0.00  0.00    +0.044 C 
BRANCH  17  21
ATOM     18  C   UNL     1       6.054   0.930  -0.440  0.00  0.00    +0.139 A 
ATOM     19  C   UNL     1       6.172  -0.340   0.099  0.00  0.00    +0.037 A 
ATOM     20  C   UNL     1       5.049  -1.160   0.091  0.00  0.00    -0.001 A 
ATOM     21  C   UNL     1       3.846  -0.720  -0.451  0.00  0.00    -0.021 A 
ATOM     22  C   UNL     1       4.003   0.300  -1.383  0.00  0.00    -0.001 A 
ATOM     23  C   UNL     1       4.889   1.324  -1.086  0.00  0.00    +0.037 A 
BRANCH  18  25
ATOM     24  C   UNL     1       7.286   2.366   0.236  0.00  0.00    +0.252 C 
ATOM     25  O   UNL     1       6.912   1.975  -0.084  0.00  0.00    -0.471 OA
ENDBRANCH  18  25
ENDBRANCH  17  21
ENDBRANCH  15  17
ENDBRANCH  14  15
ENDBRANCH   1  14
TORSDOF 8
