REMARK  Name = 
REMARK  2 active torsions:
REMARK  status: ('A' for Active; 'I' for Inactive)
REMARK    1  A    between atoms: C_6  and  C_7
REMARK    2  A    between atoms: C_10  and  C_11
REMARK                            x       y       z     vdW  Elec       q    Type
REMARK                         _______ _______ _______ _____ _____    ______ ____
ROOT
ATOM      1  C   UNL     1       0.456  -1.804   2.251  0.00  0.00    +0.052 C 
ATOM      2  C   UNL     1      -0.335  -1.223   1.131  0.00  0.00    +0.063 A 
ATOM      3  C   UNL     1       0.151  -0.054   0.563  0.00  0.00    +0.015 A 
ATOM      4  C   UNL     1      -0.719   0.843  -0.038  0.00  0.00    +0.016 A 
ATOM      5  C   UNL     1      -1.986   0.393  -0.307  0.00  0.00    +0.126 A 
ATOM      6  C   UNL     1      -2.308  -0.938  -0.066  0.00  0.00    +0.289 A 
ATOM      7  O   UNL     1      -3.246  -1.440  -0.752  0.00  0.00    -0.264 OA
ATOM      8  N   UNL     1      -1.559  -1.686   0.784  0.00  0.00    -0.212 NA
ENDROOT
BRANCH   3   9
ATOM      9  C   UNL     1       1.599   0.088   0.356  0.00  0.00    +0.004 A 
ATOM     10  C   UNL     1       2.310  -0.872  -0.354  0.00  0.00    +0.021 A 
ATOM     11  C   UNL     1       3.338  -0.461  -1.192  0.00  0.00    +0.099 A 
ATOM     12  N   UNL     1       3.735   0.835  -1.222  0.00  0.00    -0.242 NA
ATOM     13  C   UNL     1       3.374   1.621  -0.179  0.00  0.00    +0.099 A 
ATOM     14  C   UNL     1       2.157   1.359   0.425  0.00  0.00    +0.021 A 
ENDBRANCH   3   9
BRANCH   5  15
ATOM     15  C   UNL     1      -3.004   1.337  -0.708  0.00  0.00    +0.105 C 
ATOM     16  N   UNL     1      -3.962   2.004  -0.691  0.00  0.00    -0.191 NA
ENDBRANCH   5  15
TORSDOF 2
