REMARK  Name = 
REMARK  0 active torsions:
REMARK  status: ('A' for Active; 'I' for Inactive)
REMARK                            x       y       z     vdW  Elec       q    Type
REMARK                         _______ _______ _______ _____ _____    ______ ____
ROOT
ATOM      1  C   UNL     1       3.936  -1.030   0.051  0.00  0.00    +0.090 C 
ATOM      2  N   UNL     1       3.037  -0.700  -0.422  0.00  0.00    -0.272 NA
ATOM      3  C   UNL     1       1.879  -1.005   0.589  0.00  0.00    +0.066 C 
ATOM      4  C   UNL     1       1.354   0.598   0.363  0.00  0.00    +0.044 C 
ATOM      5  C   UNL     1       0.310   0.404  -0.828  0.00  0.00    +0.067 C 
ATOM      6  C   UNL     1      -0.533   1.783  -0.923  0.00  0.00    +0.204 C 
ATOM      7  O   UNL     1      -1.706   1.373  -0.033  0.00  0.00    -0.473 OA
ATOM      8  C   UNL     1      -1.917   0.046  -0.152  0.00  0.00    +0.173 A 
ATOM      9  C   UNL     1      -2.700  -0.830   0.602  0.00  0.00    +0.229 A 
ATOM     10  C   UNL     1      -2.524  -2.194   0.355  0.00  0.00    +0.045 A 
ATOM     11  C   UNL     1      -1.323  -2.681  -0.169  0.00  0.00    -0.001 A 
ATOM     12  C   UNL     1      -0.322  -1.782  -0.263  0.00  0.00    -0.022 A 
ATOM     13  O   UNL     1      -3.358  -0.399   1.765  0.00  0.00    -0.283 OA
ATOM     14  C   UNL     1       0.343   2.667   0.286  0.00  0.00    +0.214 C 
ATOM     15  O   UNL     1      -0.780   3.667   0.401  0.00  0.00    -0.214 OA
ATOM     16  C   UNL     1      -0.157   1.815   1.566  0.00  0.00    +0.005 C 
ATOM     17  C   UNL     1      -0.719  -0.485  -0.590  0.00  0.00    +0.014 A 
ATOM     18  C   UNL     1       1.276   0.328  -1.920  0.00  0.00    +0.025 C 
ATOM     19  C   UNL     1       0.216   0.523   1.494  0.00  0.00    -0.027 C 
ATOM     20  C   UNL     1       1.083  -1.850  -0.548  0.00  0.00    +0.042 C 
ATOM     21  C   UNL     1       2.606  -0.248  -1.623  0.00  0.00    +0.073 C 
ENDROOT
TORSDOF 0
