REMARK  Name = 
REMARK  0 active torsions:
REMARK  status: ('A' for Active; 'I' for Inactive)
REMARK                            x       y       z     vdW  Elec       q    Type
REMARK                         _______ _______ _______ _____ _____    ______ ____
ROOT
ATOM      1  O   UNL     1      -0.484   1.202  -0.036  0.00  0.00    -0.197 OA
ATOM      2  C   UNL     1      -0.002   0.043   0.104  0.00  0.00    +0.592 C 
ATOM      3  O   UNL     1       1.356  -0.211  -0.039  0.00  0.00    -0.197 OA
ATOM      4  O   UNL     1      -0.870  -1.034  -0.029  0.00  0.00    -0.197 OA
ENDROOT
TORSDOF 0
