REMARK  Name = 
REMARK  5 active torsions:
REMARK  status: ('A' for Active; 'I' for Inactive)
REMARK    1  A    between atoms: C_8  and  O_9
REMARK    2  A    between atoms: O_9  and  C_10
REMARK    3  A    between atoms: C_10  and  C_12
REMARK    4  A    between atoms: C_12  and  C_14
REMARK    5  A    between atoms: C_12  and  C_20
REMARK                            x       y       z     vdW  Elec       q    Type
REMARK                         _______ _______ _______ _____ _____    ______ ____
ROOT
ATOM      1  C   UNL     1      -1.384   0.100   0.895  0.00  0.00    +0.252 C 
ATOM      2  O   UNL     1      -1.668   0.150   2.271  0.00  0.00    -0.205 OA
ENDROOT
BRANCH   1   3
ATOM      3  C   UNL     1      -1.671  -1.259   0.455  0.00  0.00    +0.019 A 
ATOM      4  C   UNL     1      -2.782  -1.873   1.027  0.00  0.00    -0.001 A 
ATOM      5  C   UNL     1      -3.382  -2.976   0.488  0.00  0.00    -0.000 A 
ATOM      6  C   UNL     1      -2.914  -3.520  -0.686  0.00  0.00    -0.000 A 
ATOM      7  C   UNL     1      -1.760  -2.963  -1.202  0.00  0.00    -0.000 A 
ATOM      8  C   UNL     1      -1.068  -1.945  -0.557  0.00  0.00    -0.001 A 
ENDBRANCH   1   3
BRANCH   1   9
ATOM      9  C   UNL     1      -2.308   1.036   0.182  0.00  0.00    +0.019 A 
ATOM     10  C   UNL     1      -1.832   2.123  -0.541  0.00  0.00    -0.001 A 
ATOM     11  C   UNL     1      -2.655   2.850  -1.357  0.00  0.00    -0.000 A 
ATOM     12  C   UNL     1      -3.994   2.557  -1.373  0.00  0.00    -0.000 A 
ATOM     13  C   UNL     1      -4.485   1.597  -0.521  0.00  0.00    -0.000 A 
ATOM     14  C   UNL     1      -3.667   1.071   0.452  0.00  0.00    -0.001 A 
ENDBRANCH   1   9
BRANCH   1  15
ATOM     15  C   UNL     1      -0.031   0.592   0.710  0.00  0.00    +0.353 C 
ATOM     16  O   UNL     1       0.191   1.761   1.153  0.00  0.00    -0.247 OA
BRANCH  15  17
ATOM     17  O   UNL     1       0.987   0.074  -0.062  0.00  0.00    -0.444 OA
BRANCH  17  21
ATOM     18  C   UNL     1       5.187  -1.772  -0.198  0.00  0.00    +0.171 C 
ATOM     19  N   UNL     1       4.404  -0.676  -0.148  0.00  0.00    +0.304 N 
ATOM     20  C   UNL     1       2.997  -1.070  -0.067  0.00  0.00    +0.153 C 
ATOM     21  C   UNL     1       2.291   0.171   0.770  0.00  0.00    +0.224 C 
ATOM     22  C   UNL     1       2.914   1.349  -0.207  0.00  0.00    +0.058 C 
ATOM     23  C   UNL     1       3.168   0.759  -1.543  0.00  0.00    +0.065 C 
ATOM     24  C   UNL     1       4.219   1.605   0.541  0.00  0.00    +0.065 C 
ATOM     25  C   UNL     1       4.505   0.026  -1.429  0.00  0.00    +0.109 C 
ATOM     26  C   UNL     1       4.738   0.231   0.947  0.00  0.00    +0.109 C 
ENDBRANCH  17  21
ENDBRANCH  15  17
ENDBRANCH   1  15
TORSDOF 5
