REMARK  Name = 
REMARK  2 active torsions:
REMARK  status: ('A' for Active; 'I' for Inactive)
REMARK    1  A    between atoms: C_2  and  C_4
REMARK    2  A    between atoms: C_4  and  C_6
REMARK                            x       y       z     vdW  Elec       q    Type
REMARK                         _______ _______ _______ _____ _____    ______ ____
ROOT
ATOM      1  C   UNL     1      -1.369  -0.686   0.559  0.00  0.00    +0.147 C 
ATOM      2  N   UNL     1      -0.097  -0.785  -0.382  0.00  0.00    -0.228 NA
ATOM      3  C   UNL     1       1.113  -0.324   0.231  0.00  0.00    +0.157 A 
ATOM      4  C   UNL     1       1.075   0.985   0.698  0.00  0.00    +0.170 A 
ATOM      5  N   UNL     1       2.240   1.564   0.993  0.00  0.00    -0.193 NA
ATOM      6  C   UNL     1       3.426   0.966   0.799  0.00  0.00    +0.260 A 
ATOM      7  N   UNL     1       3.428  -0.171   0.086  0.00  0.00    -0.171 NA
ATOM      8  N   UNL     1       4.595   1.778   0.827  0.00  0.00    -0.086 NA
ATOM      9  N   UNL     1      -0.166   1.323   1.335  0.00  0.00    -0.217 NA
ATOM     10  C   UNL     1       2.323  -0.952   0.096  0.00  0.00    +0.299 A 
ATOM     11  O   UNL     1       2.336  -2.167  -0.203  0.00  0.00    -0.264 OA
ATOM     12  C   UNL     1      -1.329   0.968   0.551  0.00  0.00    +0.138 C 
ENDROOT
BRANCH   1  13
ATOM     13  C   UNL     1      -2.438  -0.691  -0.807  0.00  0.00    +0.203 C 
ATOM     14  O   UNL     1      -2.771  -2.150  -0.601  0.00  0.00    -0.219 OA
BRANCH  13  16
ATOM     15  C   UNL     1      -4.875  -0.688  -0.910  0.00  0.00    +0.038 C 
ATOM     16  C   UNL     1      -3.756  -0.198   0.227  0.00  0.00    +0.184 C 
ATOM     17  O   UNL     1      -3.735   1.228  -0.347  0.00  0.00    -0.220 OA
ENDBRANCH  13  16
ENDBRANCH   1  13
TORSDOF 2
