REMARK  Name = 
REMARK  2 active torsions:
REMARK  status: ('A' for Active; 'I' for Inactive)
REMARK    1  A    between atoms: C_24  and  C_26
REMARK    2  A    between atoms: C_26  and  C_28
REMARK                            x       y       z     vdW  Elec       q    Type
REMARK                         _______ _______ _______ _____ _____    ______ ____
ROOT
ATOM      1  C   UNL     1      -3.406  -2.848  -0.619  0.00  0.00    +0.003 C 
ATOM      2  C   UNL     1      -2.883  -2.403   0.861  0.00  0.00    +0.035 C 
ATOM      3  C   UNL     1      -2.985  -0.804   0.616  0.00  0.00    +0.180 C 
ATOM      4  O   UNL     1      -2.973  -0.362   1.934  0.00  0.00    -0.218 OA
ATOM      5  C   UNL     1      -1.751  -0.414  -0.058  0.00  0.00    +0.035 C 
ATOM      6  C   UNL     1      -0.829  -1.134   1.049  0.00  0.00    +0.006 C 
ATOM      7  C   UNL     1       0.533  -1.008   0.051  0.00  0.00    +0.036 C 
ATOM      8  C   UNL     1       0.753   0.541   0.379  0.00  0.00    +0.168 C 
ATOM      9  C   UNL     1      -0.076   1.389  -0.752  0.00  0.00    +0.182 C 
ATOM     10  O   UNL     1      -0.042   0.300  -1.810  0.00  0.00    -0.220 OA
ATOM     11  F   UNL     1       0.311   0.903   1.571  0.00  0.00    -0.237 F 
ATOM     12  C   UNL     1       2.137   0.938   0.019  0.00  0.00    +0.066 C 
ATOM     13  C   UNL     1       3.146   0.128   0.759  0.00  0.00    -0.003 C 
ATOM     14  C   UNL     1       4.404   0.523   0.610  0.00  0.00    +0.036 C 
ATOM     15  C   UNL     1       4.672   1.962   0.518  0.00  0.00    +0.195 C 
ATOM     16  C   UNL     1       3.534   2.851   0.252  0.00  0.00    +0.038 C 
ATOM     17  O   UNL     1       5.765   2.465   0.861  0.00  0.00    -0.287 OA
ATOM     18  C   UNL     1       2.890  -1.412   0.309  0.00  0.00    +0.180 C 
ATOM     19  F   UNL     1       3.751  -1.925   1.438  0.00  0.00    -0.233 F 
ATOM     20  C   UNL     1       2.386   0.801  -1.479  0.00  0.00    +0.011 C 
ATOM     21  C   UNL     1       2.289   2.376   0.289  0.00  0.00    -0.017 C 
ATOM     22  C   UNL     1       1.526  -1.485   1.245  0.00  0.00    +0.042 C 
ATOM     23  C   UNL     1      -1.750  -1.154  -1.335  0.00  0.00    +0.003 C 
ATOM     24  C   UNL     1      -1.540   0.982  -0.129  0.00  0.00    +0.038 C 
ATOM     25  C   UNL     1      -1.302  -2.558   0.450  0.00  0.00    +0.003 C 
ENDROOT
BRANCH   3  26
ATOM     26  C   UNL     1      -4.206  -0.412  -0.006  0.00  0.00    +0.211 C 
ATOM     27  O   UNL     1      -5.055  -1.006  -0.610  0.00  0.00    -0.291 OA
BRANCH  26  28
ATOM     28  C   UNL     1      -4.292   1.079  -0.202  0.00  0.00    +0.248 C 
ATOM     29  O   UNL     1      -5.008   1.689   0.803  0.00  0.00    -0.212 OA
ENDBRANCH  26  28
ENDBRANCH   3  26
TORSDOF 2
