REMARK  Name = 
REMARK  5 active torsions:
REMARK  status: ('A' for Active; 'I' for Inactive)
REMARK    1  A    between atoms: C_2  and  C_4
REMARK    2  A    between atoms: C_4  and  S_5
REMARK    3  A    between atoms: S_5  and  C_7
REMARK    4  A    between atoms: C_7  and  C_8
REMARK    5  A    between atoms: C_7  and  C_14
REMARK                            x       y       z     vdW  Elec       q    Type
REMARK                         _______ _______ _______ _____ _____    ______ ____
ROOT
ATOM      1  C   UNL     1       0.047   0.145  -0.896  0.00  0.00    +0.124 C 
ENDROOT
BRANCH   1   2
ATOM      2  C   UNL     1      -0.633  -1.085  -0.453  0.00  0.00    -0.006 A 
ATOM      3  C   UNL     1      -1.190  -1.929  -1.397  0.00  0.00    -0.003 A 
ATOM      4  C   UNL     1      -1.968  -3.005  -1.047  0.00  0.00    -0.000 A 
ATOM      5  C   UNL     1      -2.612  -2.946   0.180  0.00  0.00    -0.000 A 
ATOM      6  C   UNL     1      -2.046  -2.191   1.175  0.00  0.00    -0.000 A 
ATOM      7  C   UNL     1      -1.120  -1.224   0.840  0.00  0.00    -0.003 A 
ENDBRANCH   1   2
BRANCH   1   8
ATOM      8  C   UNL     1      -0.761   1.374  -0.615  0.00  0.00    -0.006 A 
ATOM      9  C   UNL     1      -0.158   2.595  -0.341  0.00  0.00    -0.003 A 
ATOM     10  C   UNL     1      -0.850   3.635   0.270  0.00  0.00    -0.000 A 
ATOM     11  C   UNL     1      -2.010   3.260   0.938  0.00  0.00    -0.000 A 
ATOM     12  C   UNL     1      -2.774   2.294   0.295  0.00  0.00    -0.000 A 
ATOM     13  C   UNL     1      -2.135   1.343  -0.491  0.00  0.00    -0.003 A 
ENDBRANCH   1   8
BRANCH   1  14
ATOM     14  S   UNL     1       1.605   0.397   0.042  0.00  0.00    +0.059 S 
ATOM     15  O   UNL     1       2.532   0.941  -1.081  0.00  0.00    -0.255 OA
BRANCH  14  16
ATOM     16  C   UNL     1       2.243  -1.320   0.185  0.00  0.00    +0.180 C 
BRANCH  16  18
ATOM     17  N   UNL     1       4.598  -0.763  -0.178  0.00  0.00    -0.087 NA
ATOM     18  C   UNL     1       3.613  -1.113   0.759  0.00  0.00    +0.274 C 
ATOM     19  O   UNL     1       3.619  -0.407   1.815  0.00  0.00    -0.271 OA
ENDBRANCH  16  18
ENDBRANCH  14  16
ENDBRANCH   1  14
TORSDOF 5
