REMARK  Name = 
REMARK  5 active torsions:
REMARK  status: ('A' for Active; 'I' for Inactive)
REMARK    1  A    between atoms: C_2  and  C_3
REMARK    2  A    between atoms: C_3  and  C_4
REMARK    3  A    between atoms: N_8  and  C_9
REMARK    4  A    between atoms: C_9  and  C_10
REMARK    5  A    between atoms: C_9  and  C_12
REMARK                            x       y       z     vdW  Elec       q    Type
REMARK                         _______ _______ _______ _____ _____    ______ ____
ROOT
ATOM      1  C   UNL     1       1.436  -1.422   0.672  0.00  0.00    +0.029 C 
ATOM      2  C   UNL     1       0.235  -0.494   1.327  0.00  0.00    +0.094 C 
ATOM      3  N   UNL     1      -0.426  -0.120   0.173  0.00  0.00    -0.273 N 
ATOM      4  C   UNL     1       0.389  -0.160  -1.006  0.00  0.00    +0.226 C 
ATOM      5  O   UNL     1       0.153   0.328  -2.135  0.00  0.00    -0.275 OA
ATOM      6  C   UNL     1       1.782  -0.272  -0.466  0.00  0.00    +0.087 C 
ENDROOT
BRANCH   1   7
ATOM      7  C   UNL     1       2.555  -0.803   1.725  0.00  0.00    +0.002 C 
BRANCH   7   9
ATOM      8  C   UNL     1       4.303   0.217   0.380  0.00  0.00    +0.000 C 
ATOM      9  C   UNL     1       3.798  -1.018   0.908  0.00  0.00    +0.000 C 
ENDBRANCH   7   9
ENDBRANCH   1   7
BRANCH   3  10
ATOM     10  C   UNL     1      -2.001  -0.120  -0.116  0.00  0.00    +0.155 C 
BRANCH  10  11
ATOM     11  C   UNL     1      -2.142   1.518  -0.072  0.00  0.00    +0.279 C 
ATOM     12  O   UNL     1      -1.122   2.168  -0.281  0.00  0.00    -0.270 OA
ATOM     13  N   UNL     1      -3.262   1.837  -0.915  0.00  0.00    -0.086 NA
ENDBRANCH  10  11
BRANCH  10  14
ATOM     14  C   UNL     1      -2.410  -0.221   1.510  0.00  0.00    +0.029 C 
ATOM     15  C   UNL     1      -3.287  -1.438   1.492  0.00  0.00    +0.002 C 
ENDBRANCH  10  14
ENDBRANCH   3  10
TORSDOF 5
