REMARK  Name = 
REMARK  8 active torsions:
REMARK  status: ('A' for Active; 'I' for Inactive)
REMARK    1  A    between atoms: N_4  and  C_5
REMARK    2  A    between atoms: C_5  and  C_6
REMARK    3  A    between atoms: C_6  and  C_7
REMARK    4  A    between atoms: C_6  and  C_14
REMARK    5  A    between atoms: C_7  and  C_8
REMARK    6  A    between atoms: N_16  and  C_17
REMARK    7  A    between atoms: C_17  and  C_18
REMARK    8  A    between atoms: C_23  and  C_25
REMARK                            x       y       z     vdW  Elec       q    Type
REMARK                         _______ _______ _______ _____ _____    ______ ____
ROOT
ATOM      1  C   UNL     1      -0.621  -0.406   1.134  0.00  0.00    +0.082 C 
ENDROOT
BRANCH   1   8
ATOM      2  C   UNL     1       2.827  -2.529   0.261  0.00  0.00    +0.002 C 
ATOM      3  C   UNL     1       1.610  -1.516  -0.145  0.00  0.00    +0.020 C 
ATOM      4  C   UNL     1       2.597  -0.476  -0.926  0.00  0.00    +0.022 C 
ATOM      5  C   UNL     1       2.969  -1.158  -2.230  0.00  0.00    +0.004 C 
ATOM      6  C   UNL     1       1.720   0.698  -1.175  0.00  0.00    +0.021 C 
ATOM      7  C   UNL     1       0.817   1.111  -0.088  0.00  0.00    +0.072 C 
ATOM      8  N   UNL     1       0.624   0.258   1.007  0.00  0.00    -0.272 NA
ATOM      9  C   UNL     1       1.710  -0.684   1.262  0.00  0.00    +0.072 C 
BRANCH   4  10
ATOM     10  C   UNL     1       3.752  -0.224  -0.056  0.00  0.00    -0.020 A 
ATOM     11  C   UNL     1       4.938  -0.930  -0.231  0.00  0.00    +0.038 A 
ATOM     12  C   UNL     1       6.063  -0.598   0.495  0.00  0.00    +0.195 A 
ATOM     13  O   UNL     1       7.131  -1.490   0.393  0.00  0.00    -0.287 OA
ATOM     14  C   UNL     1       6.245   0.754   0.739  0.00  0.00    +0.042 A 
ATOM     15  C   UNL     1       5.162   1.618   0.648  0.00  0.00    +0.003 A 
ATOM     16  C   UNL     1       3.947   1.113   0.276  0.00  0.00    -0.004 A 
ENDBRANCH   4  10
ENDBRANCH   1   8
BRANCH   1  17
ATOM     17  C   UNL     1      -1.531  -0.050  -0.181  0.00  0.00    +0.098 C 
BRANCH  17  18
ATOM     18  C   UNL     1      -2.260  -1.487  -0.150  0.00  0.00    +0.243 C 
ATOM     19  N   UNL     1      -3.678  -1.468  -0.361  0.00  0.00    -0.193 NA
ATOM     20  O   UNL     1      -1.700  -2.248  -1.003  0.00  0.00    -0.273 OA
BRANCH  19  21
ATOM     21  C   UNL     1      -4.343  -2.642  -0.907  0.00  0.00    +0.228 C 
BRANCH  21  22
ATOM     22  C   UNL     1      -5.541  -2.985  -0.111  0.00  0.00    +0.387 C 
ATOM     23  O   UNL     1      -6.284  -1.901   0.368  0.00  0.00    -0.244 OA
ATOM     24  O   UNL     1      -6.147  -4.036  -0.482  0.00  0.00    -0.244 OA
ENDBRANCH  21  22
ENDBRANCH  19  21
ENDBRANCH  17  18
BRANCH  17  25
ATOM     25  C   UNL     1      -2.676   0.676   0.743  0.00  0.00    +0.037 C 
BRANCH  25  26
ATOM     26  C   UNL     1      -2.667   2.097   0.366  0.00  0.00    -0.022 A 
ATOM     27  C   UNL     1      -2.651   2.564  -0.944  0.00  0.00    -0.004 A 
ATOM     28  C   UNL     1      -2.268   3.898  -1.046  0.00  0.00    -0.000 A 
ATOM     29  C   UNL     1      -2.987   4.783  -0.249  0.00  0.00    -0.000 A 
ATOM     30  C   UNL     1      -3.497   4.292   0.945  0.00  0.00    -0.000 A 
ATOM     31  C   UNL     1      -3.260   2.963   1.276  0.00  0.00    -0.004 A 
ENDBRANCH  25  26
ENDBRANCH  17  25
ENDBRANCH   1  17
TORSDOF 8
