REMARK  Name = 
REMARK  2 active torsions:
REMARK  status: ('A' for Active; 'I' for Inactive)
REMARK    1  A    between atoms: C_2  and  C_5
REMARK    2  A    between atoms: C_5  and  C_6
REMARK                            x       y       z     vdW  Elec       q    Type
REMARK                         _______ _______ _______ _____ _____    ______ ____
ROOT
ATOM      1  C   UNL     1      -0.442   0.226  -0.602  0.00  0.00    -0.021 A 
ATOM      2  C   UNL     1      -1.577  -0.147  -1.309  0.00  0.00    -0.004 A 
ATOM      3  C   UNL     1      -2.697  -0.606  -0.624  0.00  0.00    -0.000 A 
ATOM      4  C   UNL     1      -2.751  -0.522   0.763  0.00  0.00    -0.000 A 
ATOM      5  C   UNL     1      -1.875   0.396   1.329  0.00  0.00    -0.000 A 
ATOM      6  C   UNL     1      -0.671   0.670   0.694  0.00  0.00    -0.004 A 
ENDROOT
BRANCH   1   7
ATOM      7  C   UNL     1       0.913  -0.136  -1.098  0.00  0.00    +0.044 C 
BRANCH   7   9
ATOM      8  C   UNL     1       1.915  -1.109   0.981  0.00  0.00    +0.019 C 
ATOM      9  C   UNL     1       1.962  -0.001  -0.034  0.00  0.00    +0.081 C 
ATOM     10  N   UNL     1       1.919   1.266   0.660  0.00  0.00    -0.134 NA
ATOM     11  C   UNL     1       3.305  -0.037  -0.759  0.00  0.00    +0.019 C 
ENDBRANCH   7   9
ENDBRANCH   1   7
TORSDOF 2
