REMARK  Name = 
REMARK  3 active torsions:
REMARK  status: ('A' for Active; 'I' for Inactive)
REMARK    1  A    between atoms: CA_2  and  C_3
REMARK    2  A    between atoms: CA_2  and  C_12
REMARK    3  A    between atoms: C_3  and  C_4
REMARK                            x       y       z     vdW  Elec       q    Type
REMARK                         _______ _______ _______ _____ _____    ______ ____
ROOT
ATOM      1  C   UNL     1       0.114  -0.153   0.347  0.00  0.00    -0.017 A 
ATOM      2  C   UNL     1       1.103  -0.310  -0.617  0.00  0.00    +0.041 A 
ATOM      3  C   UNL     1       2.453  -0.337  -0.282  0.00  0.00    +0.234 A 
ATOM      4  O   UNL     1       3.457  -0.335  -1.244  0.00  0.00    -0.283 OA
ATOM      5  C   UNL     1       2.854  -0.131   1.033  0.00  0.00    +0.234 A 
ATOM      6  O   UNL     1       3.931   0.718   1.308  0.00  0.00    -0.283 OA
ATOM      7  C   UNL     1       1.878  -0.318   2.006  0.00  0.00    +0.045 A 
ATOM      8  C   UNL     1       0.533  -0.379   1.654  0.00  0.00    -0.001 A 
ENDROOT
BRANCH   1   9
ATOM      9  C   UNL     1      -1.043   0.767   0.097  0.00  0.00    +0.057 C 
BRANCH   9  11
ATOM     10  N   UNL     1      -1.862  -1.294  -0.661  0.00  0.00    -0.120 NA
ATOM     11  CA  UNL     1      -2.346  -0.227   0.435  0.00  0.00    +0.199 C 
BRANCH  11  12
ATOM     12  C   UNL     1      -3.272   0.561  -0.670  0.00  0.00    +0.382 C 
ATOM     13  OXT UNL     1      -4.229  -0.268  -1.242  0.00  0.00    -0.244 OA
ATOM     14  O   UNL     1      -3.570   1.706  -0.211  0.00  0.00    -0.244 OA
ENDBRANCH  11  12
ENDBRANCH   9  11
ENDBRANCH   1   9
TORSDOF 3
