REMARK  Name = 
REMARK  1 active torsions:
REMARK  status: ('A' for Active; 'I' for Inactive)
REMARK    1  A    between atoms: C_2  and  C_3
REMARK                            x       y       z     vdW  Elec       q    Type
REMARK                         _______ _______ _______ _____ _____    ______ ____
ROOT
ATOM      1  O   UNL     1       1.499   0.597   1.647  0.00  0.00    -0.275 OA
ATOM      2  C   UNL     1       1.648   0.782   0.894  0.00  0.00    +0.226 C 
ATOM      3  N   UNL     1       0.702   1.606   0.197  0.00  0.00    -0.269 N 
ATOM      4  C   UNL     1      -0.707   1.533   0.594  0.00  0.00    +0.118 C 
ATOM      5  C   UNL     1      -0.990  -0.093   0.754  0.00  0.00    +0.117 C 
ATOM      6  N   UNL     1      -0.502  -0.477  -0.696  0.00  0.00    -0.274 N 
ATOM      7  C   UNL     1      -1.097  -1.724  -1.182  0.00  0.00    +0.098 C 
ATOM      8  C   UNL     1      -2.316  -1.164  -1.909  0.00  0.00    +0.048 C 
ATOM      9  C   UNL     1      -2.956  -0.258  -0.903  0.00  0.00    -0.023 A 
ATOM     10  C   UNL     1      -4.338  -0.147  -1.074  0.00  0.00    -0.004 A 
ATOM     11  C   UNL     1      -5.213  -0.276   0.002  0.00  0.00    -0.000 A 
ATOM     12  C   UNL     1      -4.712  -0.382   1.295  0.00  0.00    -0.000 A 
ATOM     13  C   UNL     1      -3.363  -0.066   1.425  0.00  0.00    -0.003 A 
ATOM     14  C   UNL     1      -0.116   0.454  -1.621  0.00  0.00    +0.246 C 
ATOM     15  O   UNL     1      -0.303   0.281  -2.846  0.00  0.00    -0.273 OA
ATOM     16  C   UNL     1      -2.536   0.074   0.312  0.00  0.00    -0.007 A 
ATOM     17  C   UNL     1       0.820   1.569  -1.264  0.00  0.00    +0.179 C 
ENDROOT
BRANCH   2  18
ATOM     18  C   UNL     1       2.712   0.017   0.171  0.00  0.00    +0.077 C 
ATOM     19  C   UNL     1       3.322  -1.008   1.069  0.00  0.00    +0.009 C 
ATOM     20  C   UNL     1       4.434  -1.728   0.357  0.00  0.00    +0.000 C 
ATOM     21  C   UNL     1       5.479  -0.757  -0.130  0.00  0.00    +0.000 C 
ATOM     22  C   UNL     1       4.815   0.199  -1.113  0.00  0.00    +0.000 C 
ATOM     23  C   UNL     1       3.715   0.967  -0.440  0.00  0.00    +0.009 C 
ENDBRANCH   2  18
TORSDOF 1
