REMARK  Name = 
REMARK  5 active torsions:
REMARK  status: ('A' for Active; 'I' for Inactive)
REMARK    1  A    between atoms: C_2  and  C_4
REMARK    2  A    between atoms: C_4  and  S_5
REMARK    3  A    between atoms: S_5  and  C_7
REMARK    4  A    between atoms: C_7  and  C_8
REMARK    5  A    between atoms: C_7  and  C_14
REMARK                            x       y       z     vdW  Elec       q    Type
REMARK                         _______ _______ _______ _____ _____    ______ ____
ROOT
ATOM      1  C   UNL     1       0.004  -0.144  -0.223  0.00  0.00    +0.124 C 
ENDROOT
BRANCH   1   2
ATOM      2  C   UNL     1      -0.609   1.187   0.043  0.00  0.00    -0.006 A 
ATOM      3  C   UNL     1      -1.631   1.561  -0.788  0.00  0.00    -0.003 A 
ATOM      4  C   UNL     1      -2.131   2.843  -0.841  0.00  0.00    -0.000 A 
ATOM      5  C   UNL     1      -1.512   3.786  -0.044  0.00  0.00    -0.000 A 
ATOM      6  C   UNL     1      -0.443   3.461   0.776  0.00  0.00    -0.000 A 
ATOM      7  C   UNL     1       0.018   2.165   0.772  0.00  0.00    -0.003 A 
ENDBRANCH   1   2
BRANCH   1   8
ATOM      8  C   UNL     1      -1.067  -1.153  -0.056  0.00  0.00    -0.006 A 
ATOM      9  C   UNL     1      -0.876  -2.383  -0.667  0.00  0.00    -0.003 A 
ATOM     10  C   UNL     1      -1.790  -3.412  -0.525  0.00  0.00    -0.000 A 
ATOM     11  C   UNL     1      -2.886  -3.157   0.284  0.00  0.00    -0.000 A 
ATOM     12  C   UNL     1      -3.223  -1.864   0.592  0.00  0.00    -0.000 A 
ATOM     13  C   UNL     1      -2.288  -0.865   0.515  0.00  0.00    -0.003 A 
ENDBRANCH   1   8
BRANCH   1  14
ATOM     14  S   UNL     1       1.296  -0.484   1.042  0.00  0.00    +0.059 S 
ATOM     15  O   UNL     1       1.845  -1.835   0.502  0.00  0.00    -0.255 OA
BRANCH  14  16
ATOM     16  C   UNL     1       2.578   0.717   0.521  0.00  0.00    +0.180 C 
BRANCH  16  18
ATOM     17  N   UNL     1       4.237  -1.225   0.521  0.00  0.00    -0.087 NA
ATOM     18  C   UNL     1       3.834   0.061   0.154  0.00  0.00    +0.274 C 
ATOM     19  O   UNL     1       4.645   0.740  -0.538  0.00  0.00    -0.271 OA
ENDBRANCH  16  18
ENDBRANCH  14  16
ENDBRANCH   1  14
TORSDOF 5
