REMARK  Name = 
REMARK  11 active torsions:
REMARK  status: ('A' for Active; 'I' for Inactive)
REMARK    1  A    between atoms: C_2  and  N_4
REMARK    2  A    between atoms: N_4  and  C_5
REMARK    3  A    between atoms: C_5  and  C_6
REMARK    4  A    between atoms: C_6  and  C_8
REMARK    5  A    between atoms: C_8  and  O_9
REMARK    6  A    between atoms: O_9  and  C_10
REMARK    7  A    between atoms: C_13  and  C_14
REMARK    8  A    between atoms: C_14  and  C_15
REMARK    9  A    between atoms: C_15  and  O_16
REMARK   10  A    between atoms: O_16  and  C_17
REMARK   11  A    between atoms: C_17  and  C_18
REMARK                            x       y       z     vdW  Elec       q    Type
REMARK                         _______ _______ _______ _____ _____    ______ ____
ROOT
ATOM      1  C   UNL     1      -1.226  -0.155  -0.765  0.00  0.00    +0.139 A 
ATOM      2  C   UNL     1      -0.619  -0.455  -1.981  0.00  0.00    +0.037 A 
ATOM      3  C   UNL     1       0.727  -0.178  -2.203  0.00  0.00    -0.001 A 
ATOM      4  C   UNL     1       1.499   0.429  -1.217  0.00  0.00    -0.019 A 
ATOM      5  C   UNL     1       0.753   1.145  -0.286  0.00  0.00    -0.001 A 
ATOM      6  C   UNL     1      -0.592   0.866  -0.065  0.00  0.00    +0.037 A 
ENDROOT
BRANCH   1   7
ATOM      7  O   UNL     1      -2.051  -1.087  -0.169  0.00  0.00    -0.473 OA
BRANCH   7   8
ATOM      8  C   UNL     1      -2.250  -1.275   1.190  0.00  0.00    +0.240 C 
BRANCH   8   9
ATOM      9  C   UNL     1      -2.796   0.150   1.808  0.00  0.00    +0.213 C 
ATOM     10  O   UNL     1      -3.852  -0.559   2.637  0.00  0.00    -0.218 OA
BRANCH   9  11
ATOM     11  C   UNL     1      -3.856   0.374   0.566  0.00  0.00    +0.125 C 
BRANCH  11  12
ATOM     12  N   UNL     1      -4.891   1.158   1.185  0.00  0.00    -0.217 NA
BRANCH  12  14
ATOM     13  C   UNL     1      -6.742   0.233   0.748  0.00  0.00    +0.019 C 
ATOM     14  C   UNL     1      -6.074   0.997   0.340  0.00  0.00    +0.073 C 
ATOM     15  C   UNL     1      -5.615   0.836  -1.104  0.00  0.00    +0.019 C 
ENDBRANCH  12  14
ENDBRANCH  11  12
ENDBRANCH   9  11
ENDBRANCH   8   9
ENDBRANCH   7   8
ENDBRANCH   1   7
BRANCH   4  16
ATOM     16  C   UNL     1       2.858  -0.091  -0.857  0.00  0.00    +0.058 C 
BRANCH  16  17
ATOM     17  C   UNL     1       3.885   0.223  -1.905  0.00  0.00    +0.147 C 
BRANCH  17  18
ATOM     18  O   UNL     1       5.120  -0.172  -1.387  0.00  0.00    -0.353 OA
BRANCH  18  19
ATOM     19  C   UNL     1       5.379   0.560  -0.243  0.00  0.00    +0.142 C 
BRANCH  19  20
ATOM     20  C   UNL     1       6.250  -0.198   0.724  0.00  0.00    +0.030 C 
ATOM     21  C   UNL     1       6.494   0.455   2.039  0.00  0.00    +0.003 C 
ATOM     22  C   UNL     1       7.598   0.428   0.946  0.00  0.00    +0.003 C 
ENDBRANCH  19  20
ENDBRANCH  18  19
ENDBRANCH  17  18
ENDBRANCH  16  17
ENDBRANCH   4  16
TORSDOF 11
