REMARK  Name = 
REMARK  5 active torsions:
REMARK  status: ('A' for Active; 'I' for Inactive)
REMARK    1  A    between atoms: C_2  and  N_3
REMARK    2  A    between atoms: N_3  and  C_4
REMARK    3  A    between atoms: N_3  and  C_6
REMARK    4  A    between atoms: C_6  and  C_7
REMARK    5  A    between atoms: N_9  and  C_10
REMARK                            x       y       z     vdW  Elec       q    Type
REMARK                         _______ _______ _______ _____ _____    ______ ____
ROOT
ATOM      1  C   UNL     1       0.595  -0.149   0.135  0.00  0.00    +0.262 C 
ATOM      2  N   UNL     1      -0.549  -0.905  -0.243  0.00  0.00    -0.179 NA
ATOM      3  O   UNL     1       0.575   0.503   1.216  0.00  0.00    -0.271 OA
ENDROOT
BRANCH   2   4
ATOM      4  C   UNL     1      -1.819  -0.314   0.059  0.00  0.00    +0.065 A 
ATOM      5  C   UNL     1      -2.173  -0.133   1.386  0.00  0.00    -0.007 A 
ATOM      6  C   UNL     1      -1.762  -1.185   2.365  0.00  0.00    +0.032 C 
ATOM      7  C   UNL     1      -3.106   0.831   1.735  0.00  0.00    -0.003 A 
ATOM      8  C   UNL     1      -3.459   1.790   0.795  0.00  0.00    -0.001 A 
ATOM      9  C   UNL     1      -3.344   1.388  -0.529  0.00  0.00    -0.003 A 
ATOM     10  C   UNL     1      -2.540   0.350  -0.917  0.00  0.00    -0.007 A 
ATOM     11  C   UNL     1      -2.280   0.025  -2.345  0.00  0.00    +0.032 C 
ENDBRANCH   2   4
BRANCH   1  12
ATOM     12  C   UNL     1       1.870  -0.162  -0.642  0.00  0.00    +0.161 C 
BRANCH  12  13
ATOM     13  N   UNL     1       2.930  -0.350   0.299  0.00  0.00    -0.265 NA
BRANCH  13  15
ATOM     14  C   UNL     1       4.484   1.546   0.012  0.00  0.00    +0.019 C 
ATOM     15  C   UNL     1       3.479   0.834   0.859  0.00  0.00    +0.073 C 
ENDBRANCH  13  15
BRANCH  13  16
ATOM     16  C   UNL     1       3.860  -1.383  -0.029  0.00  0.00    +0.073 C 
ATOM     17  C   UNL     1       3.236  -2.686   0.462  0.00  0.00    +0.019 C 
ENDBRANCH  13  16
ENDBRANCH  12  13
ENDBRANCH   1  12
TORSDOF 5
