REMARK  Name = 
REMARK  7 active torsions:
REMARK  status: ('A' for Active; 'I' for Inactive)
REMARK    1  A    between atoms: C_2  and  C_4
REMARK    2  A    between atoms: C_4  and  C_5
REMARK    3  A    between atoms: C_5  and  N_6
REMARK    4  A    between atoms: C_7  and  C_9
REMARK    5  A    between atoms: C_12  and  N_13
REMARK    6  A    between atoms: N_14  and  C_15
REMARK    7  A    between atoms: C_20  and  C_21
REMARK                            x       y       z     vdW  Elec       q    Type
REMARK                         _______ _______ _______ _____ _____    ______ ____
ROOT
ATOM      1  C   UNL     1       2.631  -1.678  -0.595  0.00  0.00    +0.055 A 
ATOM      2  C   UNL     1       1.955  -0.749   0.167  0.00  0.00    +0.006 A 
ATOM      3  C   UNL     1       0.612  -0.586  -0.063  0.00  0.00    +0.021 A 
ATOM      4  C   UNL     1      -0.148  -1.697  -0.407  0.00  0.00    +0.103 A 
ATOM      5  C   UNL     1       0.522  -2.638  -1.181  0.00  0.00    +0.021 A 
ATOM      6  C   UNL     1       1.910  -2.682  -1.173  0.00  0.00    +0.006 A 
ENDROOT
BRANCH   1   8
ATOM      7  N   UNL     1       4.472  -0.386  -1.586  0.00  0.00    -0.201 NA
ATOM      8  C   UNL     1       4.077  -1.504  -0.782  0.00  0.00    +0.265 C 
ATOM      9  O   UNL     1       4.773  -1.672   0.265  0.00  0.00    -0.268 OA
BRANCH   7  10
ATOM     10  C   UNL     1       5.747   0.288  -1.359  0.00  0.00    +0.127 C 
BRANCH  10  11
ATOM     11  C   UNL     1       5.501   1.362  -0.312  0.00  0.00    +0.137 C 
BRANCH  11  13
ATOM     12  O   UNL     1       7.110   3.019   0.368  0.00  0.00    -0.246 OA
ATOM     13  C   UNL     1       6.832   1.800   0.190  0.00  0.00    +0.367 C 
ATOM     14  O   UNL     1       7.824   0.835   0.379  0.00  0.00    -0.246 OA
ENDBRANCH  11  13
ENDBRANCH  10  11
ENDBRANCH   7  10
ENDBRANCH   1   8
BRANCH   4  15
ATOM     15  N   UNL     1      -1.567  -1.564  -0.443  0.00  0.00    -0.148 NA
ATOM     16  N   UNL     1      -2.314  -1.590   0.566  0.00  0.00    -0.148 NA
BRANCH  16  17
ATOM     17  C   UNL     1      -3.345  -0.624   0.816  0.00  0.00    +0.103 A 
ATOM     18  C   UNL     1      -4.422  -0.480  -0.052  0.00  0.00    +0.031 A 
ATOM     19  C   UNL     1      -5.157   0.693  -0.123  0.00  0.00    +0.120 A 
ATOM     20  C   UNL     1      -4.494   1.859   0.233  0.00  0.00    +0.202 A 
ATOM     21  O   UNL     1      -5.023   3.080  -0.159  0.00  0.00    -0.286 OA
ATOM     22  C   UNL     1      -3.410   1.791   1.096  0.00  0.00    +0.044 A 
ATOM     23  C   UNL     1      -2.979   0.532   1.496  0.00  0.00    +0.024 A 
BRANCH  19  24
ATOM     24  C   UNL     1      -6.593   0.698  -0.426  0.00  0.00    +0.391 C 
ATOM     25  O   UNL     1      -7.109   1.891  -0.930  0.00  0.00    -0.240 OA
ATOM     26  O   UNL     1      -7.402  -0.001   0.254  0.00  0.00    -0.240 OA
ENDBRANCH  19  24
ENDBRANCH  16  17
ENDBRANCH   4  15
TORSDOF 7
