REMARK  Name = 
REMARK  1 active torsions:
REMARK  status: ('A' for Active; 'I' for Inactive)
REMARK    1  A    between atoms: S_2  and  C_5
REMARK                            x       y       z     vdW  Elec       q    Type
REMARK                         _______ _______ _______ _____ _____    ______ ____
ROOT
ATOM      1  C   UNL     1       1.388  -0.377   0.140  0.00  0.00    +0.137 A 
ATOM      2  C   UNL     1       1.206  -0.724  -1.194  0.00  0.00    +0.078 A 
ATOM      3 CL   UNL     1       2.345  -0.224  -2.441  0.00  0.00    -0.081 Cl
ATOM      4  C   UNL     1      -0.063  -1.181  -1.528  0.00  0.00    +0.031 A 
ATOM      5  C   UNL     1      -1.157  -0.866  -0.729  0.00  0.00    +0.092 A 
ATOM      6  N   UNL     1      -2.433  -1.270  -1.199  0.00  0.00    -0.189 NA
ATOM      7  C   UNL     1      -3.619  -0.779  -0.567  0.00  0.00    +0.208 C 
ATOM      8  N   UNL     1      -3.628   0.442  -0.116  0.00  0.00    -0.108 NA
ATOM      9  S   UNL     1      -2.307   0.896   0.920  0.00  0.00    +0.103 S 
ATOM     10  O   UNL     1      -1.931   2.302   0.548  0.00  0.00    -0.146 OA
ATOM     11  O   UNL     1      -2.685   0.770   2.362  0.00  0.00    -0.146 OA
ATOM     12  C   UNL     1      -1.003  -0.209   0.487  0.00  0.00    +0.146 A 
ATOM     13  C   UNL     1       0.297  -0.009   0.918  0.00  0.00    +0.043 A 
ENDROOT
BRANCH   1  15
ATOM     14  N   UNL     1       3.568   1.223  -0.661  0.00  0.00    +0.039 NA
ATOM     15  S   UNL     1       3.013   0.134   0.573  0.00  0.00    +0.094 S 
ATOM     16  O   UNL     1       3.968  -1.012   0.626  0.00  0.00    -0.150 OA
ATOM     17  O   UNL     1       3.039   0.884   1.861  0.00  0.00    -0.150 OA
ENDBRANCH   1  15
TORSDOF 1
