REMARK  Name = 
REMARK  2 active torsions:
REMARK  status: ('A' for Active; 'I' for Inactive)
REMARK    1  A    between atoms: N_3  and  C_4
REMARK    2  A    between atoms: N_11  and  C_12
REMARK                            x       y       z     vdW  Elec       q    Type
REMARK                         _______ _______ _______ _____ _____    ______ ____
ROOT
ATOM      1  O   UNL     1      -0.544  -0.278  -0.486  0.00  0.00    -0.248 OA
ATOM      2  C   UNL     1      -0.252  -1.420  -0.020  0.00  0.00    +0.348 C 
ATOM      3  N   UNL     1       1.102  -1.633   0.326  0.00  0.00    -0.161 NA
ATOM      4  N   UNL     1      -1.342  -2.123   0.588  0.00  0.00    -0.161 NA
ENDROOT
BRANCH   3   5
ATOM      5  C   UNL     1       2.054  -0.568   0.427  0.00  0.00    +0.076 A 
ATOM      6  C   UNL     1       1.854   0.655  -0.195  0.00  0.00    +0.029 A 
ATOM      7  C   UNL     1       2.929   1.462  -0.486  0.00  0.00    +0.069 A 
ATOM      8 CL   UNL     1       2.665   2.971  -1.325  0.00  0.00    -0.081 Cl
ATOM      9  C   UNL     1       4.237   1.061  -0.248  0.00  0.00    +0.068 A 
ATOM     10 CL   UNL     1       5.510   1.555  -1.357  0.00  0.00    -0.081 Cl
ATOM     11  C   UNL     1       4.374  -0.052   0.573  0.00  0.00    +0.014 A 
ATOM     12  C   UNL     1       3.277  -0.792   0.996  0.00  0.00    +0.018 A 
ENDBRANCH   3   5
BRANCH   4  13
ATOM     13  C   UNL     1      -2.655  -1.549   0.648  0.00  0.00    +0.075 A 
ATOM     14  C   UNL     1      -3.461  -1.615  -0.473  0.00  0.00    +0.018 A 
ATOM     15  C   UNL     1      -4.345  -0.585  -0.774  0.00  0.00    +0.013 A 
ATOM     16  C   UNL     1      -4.273   0.631  -0.114  0.00  0.00    +0.058 A 
ATOM     17 CL   UNL     1      -4.695   2.082  -0.977  0.00  0.00    -0.082 Cl
ATOM     18  C   UNL     1      -3.643   0.621   1.112  0.00  0.00    +0.013 A 
ATOM     19  C   UNL     1      -2.793  -0.425   1.448  0.00  0.00    +0.018 A 
ENDBRANCH   4  13
TORSDOF 2
