REMARK  Name = 
REMARK  6 active torsions:
REMARK  status: ('A' for Active; 'I' for Inactive)
REMARK    1  A    between atoms: C_2  and  O_3
REMARK    2  A    between atoms: O_3  and  C_4
REMARK    3  A    between atoms: N_6  and  C_7
REMARK    4  A    between atoms: C_20  and  C_21
REMARK    5  A    between atoms: C_22  and  C_23
REMARK    6  A    between atoms: C_26  and  C_27
REMARK                            x       y       z     vdW  Elec       q    Type
REMARK                         _______ _______ _______ _____ _____    ______ ____
ROOT
ATOM      1  C   UNL     1      -4.661   0.865  -2.086  0.00  0.00    +0.099 C 
ATOM      2  C   UNL     1      -3.895   1.777  -0.991  0.00  0.00    +0.022 C 
ATOM      3  C   UNL     1      -2.794   1.235   0.027  0.00  0.00    +0.003 C 
ATOM      4  C   UNL     1      -3.737   0.201   0.892  0.00  0.00    +0.011 C 
ATOM      5  C   UNL     1      -2.635  -0.540   1.866  0.00  0.00    +0.103 C 
ATOM      6  C   UNL     1      -1.240   0.362   1.531  0.00  0.00    +0.055 C 
ATOM      7  C   UNL     1      -0.774   0.233  -0.096  0.00  0.00    +0.026 C 
ATOM      8  C   UNL     1      -0.291  -0.954   2.113  0.00  0.00    +0.170 C 
ATOM      9  C   UNL     1      -0.915  -0.728   3.643  0.00  0.00    +0.047 C 
ATOM     10  O   UNL     1      -1.314  -2.064   1.816  0.00  0.00    -0.452 OA
ATOM     11  C   UNL     1      -2.202  -1.780   0.910  0.00  0.00    +0.316 C 
ATOM     12  O   UNL     1      -3.208  -2.545   0.801  0.00  0.00    -0.250 OA
ATOM     13  C   UNL     1      -2.270  -0.202  -0.761  0.00  0.00    +0.004 C 
ATOM     14  C   UNL     1      -2.153   0.543  -2.188  0.00  0.00    +0.002 C 
ATOM     15  C   UNL     1      -3.452  -0.249  -2.415  0.00  0.00    +0.022 C 
ENDROOT
BRANCH   1  17
ATOM     16  C   UNL     1      -6.627   0.656  -0.629  0.00  0.00    +0.421 C 
ATOM     17  N   UNL     1      -5.410  -0.030  -0.966  0.00  0.00    -0.170 NA
ATOM     18  O   UNL     1      -7.276   1.325  -1.489  0.00  0.00    -0.225 OA
BRANCH  16  19
ATOM     19  O   UNL     1      -7.230   0.665   0.613  0.00  0.00    -0.434 OA
BRANCH  19  21
ATOM     20  C   UNL     1      -7.734   3.019   0.434  0.00  0.00    +0.051 C 
ATOM     21  C   UNL     1      -7.839   1.807   1.203  0.00  0.00    +0.210 C 
ENDBRANCH  19  21
ENDBRANCH  16  19
ENDBRANCH   1  17
BRANCH   7  22
ATOM     22  C   UNL     1      -0.053  -1.220  -0.104  0.00  0.00    -0.025 C 
ATOM     23  C   UNL     1       1.150  -0.992  -0.620  0.00  0.00    +0.015 C 
BRANCH  23  24
ATOM     24  C   UNL     1       2.439  -1.487  -0.270  0.00  0.00    +0.081 A 
ATOM     25  N   UNL     1       3.053  -1.384   0.930  0.00  0.00    -0.244 NA
ATOM     26  C   UNL     1       4.287  -0.922   1.119  0.00  0.00    +0.099 A 
ATOM     27  C   UNL     1       5.161  -0.827   0.071  0.00  0.00    +0.019 A 
ATOM     28  C   UNL     1       4.712  -1.356  -1.132  0.00  0.00    +0.003 A 
ATOM     29  C   UNL     1       3.357  -1.642  -1.311  0.00  0.00    +0.019 A 
BRANCH  27  30
ATOM     30  C   UNL     1       6.228   0.174   0.155  0.00  0.00    +0.004 A 
ATOM     31  C   UNL     1       7.547  -0.167   0.434  0.00  0.00    +0.030 A 
ATOM     32  C   UNL     1       8.578   0.597  -0.095  0.00  0.00    +0.140 A 
ATOM     33  F   UNL     1       9.881   0.207  -0.054  0.00  0.00    -0.204 F 
ATOM     34  C   UNL     1       8.278   1.681  -0.908  0.00  0.00    +0.030 A 
ATOM     35  C   UNL     1       7.029   2.244  -0.765  0.00  0.00    +0.002 A 
ATOM     36  C   UNL     1       6.010   1.499  -0.204  0.00  0.00    +0.000 A 
ENDBRANCH  27  30
ENDBRANCH  23  24
ENDBRANCH   7  22
TORSDOF 6
