REMARK  Name = 
REMARK  1 active torsions:
REMARK  status: ('A' for Active; 'I' for Inactive)
REMARK    1  A    between atoms: C_14  and  C_15
REMARK                            x       y       z     vdW  Elec       q    Type
REMARK                         _______ _______ _______ _____ _____    ______ ____
ROOT
ATOM      1  C   UNL     1      -4.294  -0.222   1.107  0.00  0.00    +0.072 C 
ATOM      2  C   UNL     1      -3.285  -1.254   0.722  0.00  0.00    +0.124 A 
ATOM      3  N   UNL     1      -2.092  -0.968   0.188  0.00  0.00    -0.295 N 
ATOM      4  C   UNL     1      -1.466   0.321   0.160  0.00  0.00    +0.066 A 
ATOM      5  C   UNL     1      -0.203   0.675  -0.279  0.00  0.00    +0.034 A 
ATOM      6  C   UNL     1       0.781  -0.156  -0.982  0.00  0.00    +0.080 C 
ATOM      7  N   UNL     1       0.577  -1.367  -1.363  0.00  0.00    -0.264 NA
ATOM      8  C   UNL     1      -0.604  -2.174  -1.542  0.00  0.00    +0.171 C 
ATOM      9  C   UNL     1       0.259   1.977  -0.283  0.00  0.00    +0.014 A 
ATOM     10  C   UNL     1      -0.609   2.946   0.204  0.00  0.00    +0.058 A 
ATOM     11 CL   UNL     1      -0.425   4.645  -0.217  0.00  0.00    -0.082 Cl
ATOM     12  C   UNL     1      -1.709   2.537   0.950  0.00  0.00    +0.013 A 
ATOM     13  C   UNL     1      -2.248   1.269   0.769  0.00  0.00    +0.018 A 
ATOM     14  C   UNL     1      -1.549  -2.066  -0.392  0.00  0.00    +0.086 A 
ATOM     15  C   UNL     1      -2.316  -3.121   0.088  0.00  0.00    +0.115 A 
ATOM     16  N   UNL     1      -3.399  -2.589   0.699  0.00  0.00    -0.229 NA
ENDROOT
BRANCH   6  17
ATOM     17  C   UNL     1       2.170   0.166  -0.631  0.00  0.00    +0.045 A 
ATOM     18  C   UNL     1       3.100  -0.860  -0.521  0.00  0.00    +0.142 A 
ATOM     19  F   UNL     1       2.850  -2.018  -1.163  0.00  0.00    -0.204 F 
ATOM     20  C   UNL     1       4.122  -0.818   0.419  0.00  0.00    +0.030 A 
ATOM     21  C   UNL     1       4.201   0.279   1.268  0.00  0.00    +0.002 A 
ATOM     22  C   UNL     1       3.659   1.455   0.763  0.00  0.00    +0.000 A 
ATOM     23  C   UNL     1       2.480   1.341   0.034  0.00  0.00    +0.004 A 
ENDBRANCH   6  17
TORSDOF 1
