REMARK  Name = 
REMARK  1 active torsions:
REMARK  status: ('A' for Active; 'I' for Inactive)
REMARK    1  A    between atoms: C_2  and  C_3
REMARK                            x       y       z     vdW  Elec       q    Type
REMARK                         _______ _______ _______ _____ _____    ______ ____
ROOT
ATOM      1  C   UNL     1      -4.052  -0.399  -0.606  0.00  0.00    +0.180 C 
ATOM      2  C   UNL     1      -2.591  -0.437  -0.850  0.00  0.00    +0.037 C 
ATOM      3  C   UNL     1      -2.180  -0.213   0.722  0.00  0.00    +0.003 C 
ATOM      4  C   UNL     1      -0.626  -0.879   0.484  0.00  0.00    +0.001 C 
ATOM      5  C   UNL     1      -0.020   0.668   0.092  0.00  0.00    +0.004 C 
ATOM      6  C   UNL     1      -0.431   0.465  -1.489  0.00  0.00    +0.000 C 
ATOM      7  C   UNL     1       1.507   0.114  -0.129  0.00  0.00    +0.019 C 
ATOM      8  C   UNL     1       1.984  -0.297   1.211  0.00  0.00    -0.041 C 
ATOM      9  C   UNL     1       3.297  -0.522   1.264  0.00  0.00    +0.031 C 
ATOM     10  C   UNL     1       4.234   0.439   0.675  0.00  0.00    +0.172 A 
ATOM     11  C   UNL     1       3.706   1.248  -0.325  0.00  0.00    +0.038 A 
ATOM     12  C   UNL     1       4.806   1.890  -0.861  0.00  0.00    +0.139 A 
ATOM     13  N   UNL     1       5.864   1.258  -0.356  0.00  0.00    -0.076 NA
ATOM     14  O   UNL     1       5.544   0.458   0.609  0.00  0.00    -0.354 OA
ATOM     15  C   UNL     1       1.168  -1.164   2.114  0.00  0.00    +0.022 C 
ATOM     16  C   UNL     1       1.474  -1.056  -1.013  0.00  0.00    +0.004 C 
ATOM     17  C   UNL     1       2.260   1.307  -0.634  0.00  0.00    +0.035 C 
ATOM     18  C   UNL     1      -0.252  -0.700   2.042  0.00  0.00    +0.004 C 
ATOM     19  C   UNL     1      -2.844  -1.670   1.087  0.00  0.00    +0.004 C 
ATOM     20  C   UNL     1      -2.221  -1.816  -1.219  0.00  0.00    +0.003 C 
ATOM     21  C   UNL     1      -1.943   0.678  -1.528  0.00  0.00    +0.003 C 
ATOM     22  C   UNL     1      -4.246  -1.284   0.623  0.00  0.00    +0.043 C 
ATOM     23  O   UNL     1      -4.789  -1.034  -1.621  0.00  0.00    -0.212 OA
ENDROOT
BRANCH   1  25
ATOM     24  C   UNL     1      -5.049   2.023  -0.270  0.00  0.00    -0.012 C 
ATOM     25  C   UNL     1      -4.598   0.924  -0.370  0.00  0.00    -0.049 C 
ENDBRANCH   1  25
TORSDOF 1
