REMARK  Name = 
REMARK  1 active torsions:
REMARK  status: ('A' for Active; 'I' for Inactive)
REMARK    1  A    between atoms: C_2  and  C_4
REMARK                            x       y       z     vdW  Elec       q    Type
REMARK                         _______ _______ _______ _____ _____    ______ ____
ROOT
ATOM      1  C   UNL     1      -0.859   1.149  -0.360  0.00  0.00    +0.038 C 
ATOM      2  C   UNL     1      -0.679  -0.078   0.733  0.00  0.00    +0.185 C 
ATOM      3  O   UNL     1      -0.755  -1.081  -0.411  0.00  0.00    -0.220 OA
ENDROOT
BRANCH   2   4
ATOM      4  C   UNL     1       0.968  -0.003   0.666  0.00  0.00    +0.215 C 
ATOM      5  O   UNL     1       1.325   0.013  -0.628  0.00  0.00    -0.218 OA
ENDBRANCH   2   4
TORSDOF 1
