REMARK  Name = 
REMARK  1 active torsions:
REMARK  status: ('A' for Active; 'I' for Inactive)
REMARK    1  A    between atoms: C_2  and  C_4
REMARK                            x       y       z     vdW  Elec       q    Type
REMARK                         _______ _______ _______ _____ _____    ______ ____
ROOT
ATOM      1  C   UNL     1       0.285  -0.200  -0.414  0.00  0.00    +0.095 A 
ATOM      2  C   UNL     1      -0.435   0.987  -0.316  0.00  0.00    +0.200 A 
ATOM      3  O   UNL     1       0.302   2.161  -0.326  0.00  0.00    -0.286 OA
ATOM      4  C   UNL     1      -1.784   1.010  -0.006  0.00  0.00    +0.042 A 
ATOM      5  C   UNL     1      -2.337  -0.118   0.591  0.00  0.00    +0.003 A 
ATOM      6  C   UNL     1      -1.768  -1.328   0.221  0.00  0.00    +0.000 A 
ATOM      7  C   UNL     1      -0.490  -1.349  -0.306  0.00  0.00    +0.008 A 
ENDROOT
BRANCH   1   9
ATOM      8  N   UNL     1       2.135   0.272   1.187  0.00  0.00    -0.084 NA
ATOM      9  C   UNL     1       1.713  -0.249  -0.075  0.00  0.00    +0.287 C 
ATOM     10  O   UNL     1       2.380  -1.187  -0.556  0.00  0.00    -0.267 OA
ENDBRANCH   1   9
TORSDOF 1
