REMARK  Name = 
REMARK  4 active torsions:
REMARK  status: ('A' for Active; 'I' for Inactive)
REMARK    1  A    between atoms: C_5  and  C_6
REMARK    2  A    between atoms: C_8  and  C_9
REMARK    3  A    between atoms: N_14  and  C_15
REMARK    4  A    between atoms: C_18  and  S_19
REMARK                            x       y       z     vdW  Elec       q    Type
REMARK                         _______ _______ _______ _____ _____    ______ ____
ROOT
ATOM      1  C   UNL     1      -1.589   0.538   0.485  0.00  0.00    +0.084 A 
ATOM      2  N   UNL     1      -0.288   0.658   0.157  0.00  0.00    -0.230 N 
ATOM      3  N   UNL     1       0.052   1.855   0.639  0.00  0.00    -0.161 NA
ATOM      4  C   UNL     1      -1.011   2.692   0.581  0.00  0.00    +0.174 A 
ATOM      5  C   UNL     1      -2.090   1.832   0.406  0.00  0.00    +0.044 A 
ENDROOT
BRANCH   1  10
ATOM      6  C   UNL     1      -4.227  -4.427  -0.171  0.00  0.00    +0.031 C 
ATOM      7  C   UNL     1      -3.889  -2.997  -0.031  0.00  0.00    -0.022 A 
ATOM      8  C   UNL     1      -3.960  -2.296   1.155  0.00  0.00    -0.004 A 
ATOM      9  C   UNL     1      -3.181  -1.168   1.383  0.00  0.00    +0.001 A 
ATOM     10  C   UNL     1      -2.366  -0.696   0.393  0.00  0.00    +0.018 A 
ATOM     11  C   UNL     1      -2.533  -1.228  -0.879  0.00  0.00    +0.001 A 
ATOM     12  C   UNL     1      -3.271  -2.366  -1.087  0.00  0.00    -0.004 A 
ENDBRANCH   1  10
BRANCH   2  13
ATOM     13  C   UNL     1       0.579  -0.317  -0.440  0.00  0.00    +0.083 A 
ATOM     14  C   UNL     1       1.417   0.012  -1.501  0.00  0.00    +0.021 A 
ATOM     15  C   UNL     1       2.725  -0.457  -1.567  0.00  0.00    +0.022 A 
ATOM     16  C   UNL     1       3.211  -1.304  -0.577  0.00  0.00    +0.125 A 
ATOM     17  C   UNL     1       2.237  -1.984   0.146  0.00  0.00    +0.022 A 
ATOM     18  C   UNL     1       0.947  -1.473   0.240  0.00  0.00    +0.021 A 
BRANCH  16  19
ATOM     19  S   UNL     1       4.872  -1.195  -0.057  0.00  0.00    +0.093 S 
ATOM     20  O   UNL     1       5.032  -1.856   1.280  0.00  0.00    -0.150 OA
ATOM     21  O   UNL     1       5.338   0.238   0.055  0.00  0.00    -0.150 OA
ATOM     22  N   UNL     1       5.831  -2.065  -1.214  0.00  0.00    +0.039 NA
ENDBRANCH  16  19
ENDBRANCH   2  13
BRANCH   4  23
ATOM     23  C   UNL     1      -0.976   4.147   0.231  0.00  0.00    +0.437 C 
ATOM     24  F   UNL     1       0.287   4.540  -0.184  0.00  0.00    -0.164 F 
ATOM     25  F   UNL     1      -1.888   4.380  -0.785  0.00  0.00    -0.164 F 
ATOM     26  F   UNL     1      -1.259   4.936   1.339  0.00  0.00    -0.164 F 
ENDBRANCH   4  23
TORSDOF 4
