REMARK  Name = 
REMARK  5 active torsions:
REMARK  status: ('A' for Active; 'I' for Inactive)
REMARK    1  A    between atoms: C_2  and  C_3
REMARK    2  A    between atoms: C_10  and  O_11
REMARK    3  A    between atoms: O_11  and  C_12
REMARK    4  A    between atoms: C_17  and  N_18
REMARK    5  A    between atoms: C_40  and  C_42
REMARK                            x       y       z     vdW  Elec       q    Type
REMARK                         _______ _______ _______ _____ _____    ______ ____
ROOT
ATOM      1  C   UNL     1      -1.407  -1.209  -1.484  0.00  0.00    -0.021 A 
ATOM      2  C   UNL     1      -0.314  -0.661  -0.831  0.00  0.00    +0.017 A 
ATOM      3  C   UNL     1      -0.601   0.108   0.286  0.00  0.00    +0.081 A 
ATOM      4  C   UNL     1       0.483   0.615   0.980  0.00  0.00    +0.022 A 
ATOM      5  C   UNL     1       1.721   0.651   0.373  0.00  0.00    +0.039 A 
ATOM      6  C   UNL     1       1.911   0.219  -0.932  0.00  0.00    +0.150 A 
ATOM      7  N   UNL     1      -1.843   0.600   0.453  0.00  0.00    -0.244 NA
ATOM      8  C   UNL     1      -2.839   0.391  -0.442  0.00  0.00    +0.095 A 
ATOM      9  C   UNL     1      -4.280   0.439  -0.163  0.00  0.00    +0.080 A 
ATOM     10  N   UNL     1      -4.918  -0.216  -1.162  0.00  0.00    -0.290 N 
ATOM     11  C   UNL     1      -3.926  -0.765  -2.082  0.00  0.00    +0.137 C 
ATOM     12  C   UNL     1      -6.270  -0.281  -1.112  0.00  0.00    +0.260 A 
ATOM     13  O   UNL     1      -6.846  -0.874  -2.073  0.00  0.00    -0.267 OA
ATOM     14  C   UNL     1      -6.981  -0.043   0.053  0.00  0.00    +0.076 A 
ATOM     15  C   UNL     1      -8.206  -0.841   0.374  0.00  0.00    +0.240 C 
ATOM     16  O   UNL     1      -7.873  -1.615   1.524  0.00  0.00    -0.441 OA
ATOM     17  C   UNL     1      -7.106  -1.064   2.554  0.00  0.00    +0.349 C 
ATOM     18  C   UNL     1      -6.870   0.411   2.462  0.00  0.00    +0.233 C 
ATOM     19  O   UNL     1      -5.927   0.829   3.398  0.00  0.00    -0.210 OA
ATOM     20  O   UNL     1      -6.188  -1.737   3.111  0.00  0.00    -0.247 OA
ATOM     21  C   UNL     1      -6.356   0.656   1.078  0.00  0.00    +0.021 A 
ATOM     22  C   UNL     1      -5.039   1.020   0.840  0.00  0.00    +0.017 A 
ATOM     23  C   UNL     1       0.941  -0.640  -1.427  0.00  0.00    +0.039 A 
ATOM     24  C   UNL     1      -2.686  -0.731  -1.247  0.00  0.00    +0.016 A 
ENDROOT
BRANCH   1  26
ATOM     25  C   UNL     1      -0.868  -1.671  -3.780  0.00  0.00    +0.005 C 
ATOM     26  C   UNL     1      -1.163  -2.295  -2.457  0.00  0.00    +0.026 C 
ENDBRANCH   1  26
BRANCH  18  27
ATOM     27  C   UNL     1      -8.136   1.194   2.729  0.00  0.00    +0.046 C 
ATOM     28  C   UNL     1      -8.217   1.376   4.240  0.00  0.00    +0.004 C 
ENDBRANCH  18  27
BRANCH   6  29
ATOM     29  O   UNL     1       3.040   0.575  -1.641  0.00  0.00    -0.410 OA
BRANCH  29  30
ATOM     30  C   UNL     1       4.205   0.782  -0.901  0.00  0.00    +0.409 C 
ATOM     31  N   UNL     1       5.444   1.141  -1.487  0.00  0.00    -0.246 N 
ATOM     32  C   UNL     1       6.069   0.158  -2.368  0.00  0.00    +0.098 C 
ATOM     33  C   UNL     1       7.472  -0.056  -1.831  0.00  0.00    +0.038 C 
ATOM     34  C   UNL     1       7.362  -0.259  -0.324  0.00  0.00    +0.061 C 
ATOM     35  C   UNL     1       7.160   1.110   0.278  0.00  0.00    +0.038 C 
ATOM     36  C   UNL     1       6.354   1.951  -0.689  0.00  0.00    +0.098 C 
ATOM     37  O   UNL     1       4.242   0.424   0.315  0.00  0.00    -0.226 OA
BRANCH  34  38
ATOM     38  N   UNL     1       8.581  -0.893   0.101  0.00  0.00    -0.274 NA
ATOM     39  C   UNL     1       8.883  -0.706   1.494  0.00  0.00    +0.072 C 
ATOM     40  C   UNL     1       9.607   0.575   1.792  0.00  0.00    +0.017 C 
ATOM     41  C   UNL     1      10.712   0.881   0.821  0.00  0.00    +0.003 C 
ATOM     42  C   UNL     1      10.975  -0.343  -0.045  0.00  0.00    +0.017 C 
ATOM     43  C   UNL     1       9.696  -0.646  -0.775  0.00  0.00    +0.072 C 
ENDBRANCH  34  38
ENDBRANCH  29  30
ENDBRANCH   6  29
TORSDOF 5
