REMARK  Name = 
REMARK  2 active torsions:
REMARK  status: ('A' for Active; 'I' for Inactive)
REMARK    1  A    between atoms: C_22  and  C_24
REMARK    2  A    between atoms: C_24  and  C_26
REMARK                            x       y       z     vdW  Elec       q    Type
REMARK                         _______ _______ _______ _____ _____    ______ ____
ROOT
ATOM      1  C   UNL     1       2.001   1.170   0.494  0.00  0.00    +0.003 C 
ATOM      2  C   UNL     1       1.835  -0.019  -0.203  0.00  0.00    +0.035 C 
ATOM      3  C   UNL     1       3.065  -0.739  -0.162  0.00  0.00    +0.180 C 
ATOM      4  O   UNL     1       2.987  -2.077  -0.524  0.00  0.00    -0.218 OA
ATOM      5  C   UNL     1       3.314  -0.751   1.352  0.00  0.00    +0.038 C 
ATOM      6  C   UNL     1       1.960  -0.516   2.016  0.00  0.00    +0.003 C 
ATOM      7  C   UNL     1       1.053  -1.042   0.790  0.00  0.00    +0.006 C 
ATOM      8  C   UNL     1      -0.155   0.139   0.919  0.00  0.00    +0.033 C 
ATOM      9  C   UNL     1      -0.821  -0.482   2.256  0.00  0.00    +0.007 C 
ATOM     10  C   UNL     1      -2.204   0.024   2.212  0.00  0.00    +0.022 C 
ATOM     11  C   UNL     1      -2.694   0.591   0.947  0.00  0.00    -0.039 C 
ATOM     12  C   UNL     1      -2.155   0.237  -0.410  0.00  0.00    +0.046 C 
ATOM     13  C   UNL     1      -1.741   1.541  -1.038  0.00  0.00    +0.007 C 
ATOM     14  C   UNL     1      -3.257  -0.374  -1.226  0.00  0.00    +0.014 C 
ATOM     15  C   UNL     1      -4.500   0.446  -1.319  0.00  0.00    +0.070 C 
ATOM     16  C   UNL     1      -4.912   1.052  -0.023  0.00  0.00    +0.173 C 
ATOM     17  O   UNL     1      -6.150   0.928   0.234  0.00  0.00    -0.291 OA
ATOM     18  C   UNL     1      -3.886   1.190   0.990  0.00  0.00    +0.029 C 
ATOM     19  C   UNL     1      -1.103  -0.669  -0.099  0.00  0.00    +0.164 C 
ATOM     20  F   UNL     1      -1.482  -1.846   0.424  0.00  0.00    -0.237 F 
ATOM     21  C   UNL     1      -0.144  -1.113  -1.341  0.00  0.00    +0.182 C 
ATOM     22  O   UNL     1      -0.993  -0.432  -2.403  0.00  0.00    -0.220 OA
ATOM     23  C   UNL     1       0.904   0.164  -1.274  0.00  0.00    +0.038 C 
ENDROOT
BRANCH   3  24
ATOM     24  C   UNL     1       4.294  -0.141  -0.719  0.00  0.00    +0.211 C 
ATOM     25  O   UNL     1       5.354  -0.635  -0.329  0.00  0.00    -0.291 OA
BRANCH  24  26
ATOM     26  C   UNL     1       4.400   1.256  -1.201  0.00  0.00    +0.248 C 
ATOM     27  O   UNL     1       5.031   2.101  -0.307  0.00  0.00    -0.212 OA
ENDBRANCH  24  26
ENDBRANCH   3  24
TORSDOF 2
