REMARK  Name = 
REMARK  2 active torsions:
REMARK  status: ('A' for Active; 'I' for Inactive)
REMARK    1  A    between atoms: C_26  and  C_27
REMARK    2  A    between atoms: C_27  and  C_29
REMARK                            x       y       z     vdW  Elec       q    Type
REMARK                         _______ _______ _______ _____ _____    ______ ____
ROOT
ATOM      1  C   UNL     1       3.774  -2.038   1.166  0.00  0.00    +0.061 C 
ATOM      2  C   UNL     1       3.123  -2.041   0.771  0.00  0.00    +0.188 C 
ATOM      3  O   UNL     1       3.354  -1.252  -0.378  0.00  0.00    -0.330 OA
ATOM      4  C   UNL     1       2.844  -0.008  -0.159  0.00  0.00    +0.173 C 
ATOM      5  C   UNL     1       2.768  -0.017   1.487  0.00  0.00    +0.149 C 
ATOM      6  C   UNL     1       1.417   0.944   1.494  0.00  0.00    +0.033 C 
ATOM      7  C   UNL     1       0.570  -0.189   0.718  0.00  0.00    +0.005 C 
ATOM      8  C   UNL     1      -0.650   0.748   0.042  0.00  0.00    +0.006 C 
ATOM      9  C   UNL     1      -1.350  -0.705  -0.436  0.00  0.00    +0.038 C 
ATOM     10  C   UNL     1      -0.579  -0.806  -1.966  0.00  0.00    +0.153 C 
ATOM     11  C   UNL     1       0.959  -0.898  -1.448  0.00  0.00    +0.036 C 
ATOM     12  O   UNL     1      -0.517   0.677  -2.258  0.00  0.00    -0.223 OA
ATOM     13  C   UNL     1      -2.785  -0.177  -0.916  0.00  0.00    +0.039 C 
ATOM     14  C   UNL     1      -3.401   0.709   0.061  0.00  0.00    -0.006 C 
ATOM     15  C   UNL     1      -4.670   0.752   0.240  0.00  0.00    +0.036 C 
ATOM     16  C   UNL     1      -5.401  -0.514   0.174  0.00  0.00    +0.195 C 
ATOM     17  C   UNL     1      -4.646  -1.684  -0.257  0.00  0.00    +0.038 C 
ATOM     18  O   UNL     1      -6.621  -0.501   0.478  0.00  0.00    -0.287 OA
ATOM     19  C   UNL     1      -2.472   1.950   0.559  0.00  0.00    +0.180 C 
ATOM     20  F   UNL     1      -3.273   2.262   1.799  0.00  0.00    -0.233 F 
ATOM     21  C   UNL     1      -2.885   0.120  -2.334  0.00  0.00    +0.009 C 
ATOM     22  C   UNL     1      -3.493  -1.513  -0.777  0.00  0.00    -0.020 C 
ATOM     23  C   UNL     1      -1.504   0.876   1.395  0.00  0.00    +0.040 C 
ATOM     24  C   UNL     1       1.470   0.074  -0.607  0.00  0.00    +0.034 C 
ATOM     25  C   UNL     1       1.350   1.576  -0.944  0.00  0.00    +0.003 C 
ATOM     26  O   UNL     1       2.102  -1.381   1.480  0.00  0.00    -0.334 OA
ATOM     27  C   UNL     1       2.579  -3.377   0.246  0.00  0.00    +0.061 C 
ENDROOT
BRANCH   4  28
ATOM     28  C   UNL     1       3.746   1.124  -0.297  0.00  0.00    +0.210 C 
ATOM     29  O   UNL     1       3.751   1.985  -1.177  0.00  0.00    -0.291 OA
BRANCH  28  30
ATOM     30  C   UNL     1       4.581   1.708   0.836  0.00  0.00    +0.248 C 
ATOM     31  O   UNL     1       5.859   1.598   0.255  0.00  0.00    -0.212 OA
ENDBRANCH  28  30
ENDBRANCH   4  28
TORSDOF 2
