REMARK  Name = 
REMARK  3 active torsions:
REMARK  status: ('A' for Active; 'I' for Inactive)
REMARK    1  A    between atoms: C_2  and  C_4
REMARK    2  A    between atoms: N_12  and  O_13
REMARK    3  A    between atoms: O_13  and  S_14
REMARK                            x       y       z     vdW  Elec       q    Type
REMARK                         _______ _______ _______ _____ _____    ______ ____
ROOT
ATOM      1  C   UNL     1      -2.566   0.411   0.824  0.00  0.00    +0.157 C 
ATOM      2  N   UNL     1      -1.366  -0.612   0.858  0.00  0.00    -0.254 N 
ATOM      3  C   UNL     1      -0.065  -0.317   1.405  0.00  0.00    +0.332 C 
ATOM      4  N   UNL     1       0.852  -0.003   0.378  0.00  0.00    -0.129 N 
ATOM      5  C   UNL     1       0.096  -0.256  -0.986  0.00  0.00    +0.127 C 
ATOM      6  C   UNL     1      -0.857   1.055  -0.955  0.00  0.00    +0.026 C 
ATOM      7  O   UNL     1       0.101   0.137   2.581  0.00  0.00    -0.250 OA
ATOM      8  C   UNL     1      -1.006  -1.277  -0.322  0.00  0.00    +0.118 C 
ATOM      9  C   UNL     1      -1.627   1.492   0.030  0.00  0.00    +0.031 C 
ENDROOT
BRANCH   1  11
ATOM     10  N   UNL     1      -2.961  -0.261  -0.996  0.00  0.00    -0.086 NA
ATOM     11  C   UNL     1      -3.219  -0.165  -0.542  0.00  0.00    +0.279 C 
ATOM     12  O   UNL     1      -4.135  -1.004  -0.265  0.00  0.00    -0.270 OA
ENDBRANCH   1  11
BRANCH   4  13
ATOM     13  O   UNL     1       2.045  -0.679   0.410  0.00  0.00    -0.137 OA
BRANCH  13  14
ATOM     14  S   UNL     1       3.308   0.172  -0.183  0.00  0.00    +0.020 S 
ATOM     15  O   UNL     1       4.154   1.010   1.018  0.00  0.00    -0.267 OA
ATOM     16  O   UNL     1       4.319  -0.809  -0.740  0.00  0.00    -0.343 OA
ATOM     17  O   UNL     1       2.926   1.104  -1.280  0.00  0.00    -0.343 OA
ENDBRANCH  13  14
ENDBRANCH   4  13
TORSDOF 3
