REMARK  Name = 
REMARK  6 active torsions:
REMARK  status: ('A' for Active; 'I' for Inactive)
REMARK    1  A    between atoms: O_2  and  C_3
REMARK    2  A    between atoms: C_6  and  N_7
REMARK    3  A    between atoms: C_8  and  C_10
REMARK    4  A    between atoms: C_13  and  C_14
REMARK    5  A    between atoms: C_21  and  C_22
REMARK    6  A    between atoms: N_24  and  C_25
REMARK                            x       y       z     vdW  Elec       q    Type
REMARK                         _______ _______ _______ _____ _____    ______ ____
ROOT
ATOM      1  C   UNL     1      -1.514   2.885   0.360  0.00  0.00    +0.139 A 
ATOM      2  C   UNL     1      -2.043   1.954  -0.527  0.00  0.00    +0.043 A 
ATOM      3  C   UNL     1      -1.449   0.708  -0.689  0.00  0.00    +0.074 A 
ATOM      4  C   UNL     1      -0.474   0.273   0.201  0.00  0.00    +0.078 A 
ATOM      5  C   UNL     1      -0.100   1.174   1.189  0.00  0.00    +0.020 A 
ATOM      6  C   UNL     1      -0.577   2.455   1.265  0.00  0.00    +0.038 A 
ENDROOT
BRANCH   4   7
ATOM      7  N   UNL     1       0.447  -0.671  -0.357  0.00  0.00    -0.175 NA
ATOM      8  C   UNL     1       1.385  -1.386   0.418  0.00  0.00    +0.269 C 
ATOM      9  O   UNL     1       1.041  -1.660   1.604  0.00  0.00    -0.268 OA
BRANCH   8  10
ATOM     10  C   UNL     1       2.770  -1.625  -0.008  0.00  0.00    +0.055 A 
ATOM     11  C   UNL     1       3.085  -1.371  -1.334  0.00  0.00    +0.005 A 
ATOM     12  C   UNL     1       4.364  -1.000  -1.727  0.00  0.00    +0.008 A 
ATOM     13  C   UNL     1       5.216  -0.465  -0.769  0.00  0.00    +0.087 A 
ATOM     14  C   UNL     1       5.018  -0.887   0.534  0.00  0.00    +0.008 A 
ATOM     15  C   UNL     1       3.753  -1.313   0.918  0.00  0.00    +0.005 A 
BRANCH  13  16
ATOM     16  C   UNL     1       6.196   0.546  -1.127  0.00  0.00    +0.376 C 
ATOM     17  N   UNL     1       7.288   0.754  -0.229  0.00  0.00    -0.179 N 
ATOM     18  C   UNL     1       7.804  -0.420   0.470  0.00  0.00    +0.254 C 
ATOM     19  C   UNL     1       7.401   2.025   0.480  0.00  0.00    +0.254 C 
ATOM     20  N   UNL     1       5.873   1.561  -1.869  0.00  0.00    +0.193 NA
ENDBRANCH  13  16
ENDBRANCH   8  10
ENDBRANCH   4   7
BRANCH   3  21
ATOM     21  C   UNL     1      -2.243  -0.343  -1.341  0.00  0.00    +0.272 C 
ATOM     22  N   UNL     1      -2.992  -1.302  -0.627  0.00  0.00    -0.157 NA
ATOM     23  O   UNL     1      -2.567  -0.182  -2.557  0.00  0.00    -0.268 OA
BRANCH  22  24
ATOM     24  C   UNL     1      -4.348  -1.633  -0.905  0.00  0.00    +0.155 A 
ATOM     25  N   UNL     1      -4.900  -2.595  -0.124  0.00  0.00    -0.226 NA
ATOM     26  C   UNL     1      -6.203  -2.552   0.248  0.00  0.00    +0.112 A 
ATOM     27  C   UNL     1      -6.944  -1.381   0.147  0.00  0.00    +0.077 A 
ATOM     28 CL   UNL     1      -8.015  -0.849   1.439  0.00  0.00    -0.081 Cl
ATOM     29  C   UNL     1      -6.496  -0.492  -0.823  0.00  0.00    +0.016 A 
ATOM     30  C   UNL     1      -5.262  -0.722  -1.420  0.00  0.00    +0.037 A 
ENDBRANCH  22  24
ENDBRANCH   3  21
BRANCH   1  32
ATOM     31  C   UNL     1      -3.432   4.372   0.067  0.00  0.00    +0.252 C 
ATOM     32  O   UNL     1      -2.081   4.141   0.377  0.00  0.00    -0.471 OA
ENDBRANCH   1  32
TORSDOF 6
