REMARK  Name = 
REMARK  6 active torsions:
REMARK  status: ('A' for Active; 'I' for Inactive)
REMARK    1  A    between atoms: C_2  and  O_4
REMARK    2  A    between atoms: O_4  and  C_5
REMARK    3  A    between atoms: C_6  and  N_7
REMARK    4  A    between atoms: C_21  and  O_22
REMARK    5  A    between atoms: O_22  and  C_23
REMARK    6  A    between atoms: C_26  and  N_27
REMARK                            x       y       z     vdW  Elec       q    Type
REMARK                         _______ _______ _______ _____ _____    ______ ____
ROOT
ATOM      1  C   UNL     1      -3.811   0.982   0.952  0.00  0.00    +0.217 C 
ATOM      2  C   UNL     1      -2.250   0.874   0.536  0.00  0.00    +0.043 C 
ATOM      3  C   UNL     1      -2.182  -0.690   0.177  0.00  0.00    +0.009 C 
ATOM      4  C   UNL     1      -0.796  -0.508  -0.751  0.00  0.00    +0.000 C 
ATOM      5  C   UNL     1       0.128  -0.475   0.658  0.00  0.00    +0.000 C 
ATOM      6  C   UNL     1       0.002   1.129   0.862  0.00  0.00    +0.000 C 
ATOM      7  C   UNL     1       1.525  -0.410  -0.153  0.00  0.00    +0.006 C 
ATOM      8  C   UNL     1       1.778  -2.009   0.013  0.00  0.00    +0.004 C 
ATOM      9  C   UNL     1       3.133  -2.134  -0.865  0.00  0.00    +0.050 C 
ATOM     10  C   UNL     1       3.840  -0.676  -0.860  0.00  0.00    +0.217 C 
ATOM     11  C   UNL     1       3.833  -0.524   0.849  0.00  0.00    +0.099 C 
ATOM     12  C   UNL     1       0.822  -2.377  -1.264  0.00  0.00    +0.000 C 
ATOM     13  C   UNL     1       1.407   0.014  -1.510  0.00  0.00    +0.000 C 
ATOM     14  C   UNL     1       2.420   0.285   0.775  0.00  0.00    +0.059 C 
ATOM     15  C   UNL     1      -0.589  -2.097  -0.870  0.00  0.00    +0.000 C 
ATOM     16  C   UNL     1      -3.257  -0.355  -1.004  0.00  0.00    +0.059 C 
ATOM     17  C   UNL     1      -1.923   1.689  -0.639  0.00  0.00    +0.004 C 
ATOM     18  C   UNL     1      -1.335   1.172   1.627  0.00  0.00    +0.004 C 
ATOM     19  C   UNL     1      -4.230  -0.555   0.296  0.00  0.00    +0.099 C 
ENDROOT
BRANCH  19  20
ATOM     20  N   UNL     1      -5.559  -0.167  -0.398  0.00  0.00    +0.300 N 
ATOM     21  C   UNL     1      -5.993  -1.495  -0.859  0.00  0.00    +0.109 C 
ATOM     22  C   UNL     1      -5.824  -2.583   0.091  0.00  0.00    +0.061 C 
ATOM     23  C   UNL     1      -6.800  -2.286   1.214  0.00  0.00    +0.012 C 
ATOM     24  C   UNL     1      -6.566  -0.891   1.692  0.00  0.00    +0.061 C 
ATOM     25  C   UNL     1      -6.493   0.155   0.587  0.00  0.00    +0.109 C 
ATOM     26  C   UNL     1      -5.480   0.343  -1.655  0.00  0.00    +0.170 C 
ENDBRANCH  19  20
BRANCH  11  27
ATOM     27  N   UNL     1       4.680   0.779   0.887  0.00  0.00    +0.300 N 
ATOM     28  C   UNL     1       5.026   1.232  -0.394  0.00  0.00    +0.109 C 
ATOM     29  C   UNL     1       6.505   1.554  -0.429  0.00  0.00    +0.061 C 
ATOM     30  C   UNL     1       6.695   2.549   0.711  0.00  0.00    +0.012 C 
ATOM     31  C   UNL     1       6.459   1.827   2.033  0.00  0.00    +0.061 C 
ATOM     32  C   UNL     1       5.867   0.476   1.687  0.00  0.00    +0.109 C 
ATOM     33  C   UNL     1       3.999   1.759   1.690  0.00  0.00    +0.170 C 
ENDBRANCH  11  27
BRANCH   1  34
ATOM     34  O   UNL     1      -4.199   1.794  -0.280  0.00  0.00    -0.446 OA
BRANCH  34  36
ATOM     35  C   UNL     1      -5.008   3.968  -1.131  0.00  0.00    +0.121 C 
ATOM     36  C   UNL     1      -4.460   3.120  -0.122  0.00  0.00    +0.318 C 
ATOM     37  O   UNL     1      -3.860   3.672   0.849  0.00  0.00    -0.250 OA
ENDBRANCH  34  36
ENDBRANCH   1  34
BRANCH  10  38
ATOM     38  O   UNL     1       5.246  -1.268  -0.869  0.00  0.00    -0.446 OA
BRANCH  38  39
ATOM     39  C   UNL     1       5.579  -2.269  -0.023  0.00  0.00    +0.318 C 
ATOM     40  O   UNL     1       4.686  -2.807   0.686  0.00  0.00    -0.250 OA
ATOM     41  C   UNL     1       6.982  -2.793  -0.073  0.00  0.00    +0.121 C 
ENDBRANCH  38  39
ENDBRANCH  10  38
TORSDOF 6
