REMARK  Name = 
REMARK  9 active torsions:
REMARK  status: ('A' for Active; 'I' for Inactive)
REMARK    1  A    between atoms: O_2  and  C_3
REMARK    2  A    between atoms: C_5  and  C_6
REMARK    3  A    between atoms: C_6  and  C_7
REMARK    4  A    between atoms: C_7  and  C_9
REMARK    5  A    between atoms: C_20  and  O_21
REMARK    6  A    between atoms: C_37  and  O_38
REMARK    7  A    between atoms: C_64  and  O_65
REMARK    8  A    between atoms: O_65  and  C_66
REMARK    9  A    between atoms: C_66  and  C_67
REMARK                            x       y       z     vdW  Elec       q    Type
REMARK                         _______ _______ _______ _____ _____    ______ ____
ROOT
ATOM      1  C   UNL     1       2.078   0.230  -1.030  0.00  0.00    +0.176 C 
ATOM      2  O   UNL     1       2.686  -0.470   0.179  0.00  0.00    -0.451 OA
ATOM      3  C   UNL     1       2.336  -1.738   0.292  0.00  0.00    +0.335 C 
ATOM      4  O   UNL     1       3.071  -2.689   0.699  0.00  0.00    -0.248 OA
ATOM      5  C   UNL     1       0.822  -2.225   0.042  0.00  0.00    +0.175 C 
ATOM      6  N   UNL     1       0.537  -2.292   1.590  0.00  0.00    -0.265 N 
ATOM      7  C   UNL     1       0.613  -1.093   2.332  0.00  0.00    +0.094 C 
ATOM      8  C   UNL     1      -0.699  -0.347   2.112  0.00  0.00    +0.022 C 
ATOM      9  C   UNL     1      -1.105  -0.706   0.684  0.00  0.00    +0.004 C 
ATOM     10  C   UNL     1       0.819  -3.599   2.006  0.00  0.00    +0.289 C 
ATOM     11  O   UNL     1       1.083  -3.759   3.219  0.00  0.00    -0.267 OA
ATOM     12  C   UNL     1       0.515  -4.682   1.048  0.00  0.00    +0.279 C 
ATOM     13  O   UNL     1       0.761  -5.788   1.652  0.00  0.00    -0.281 OA
ATOM     14  C   UNL     1      -0.533  -4.535   0.053  0.00  0.00    +0.279 C 
ATOM     15  O   UNL     1      -1.736  -4.492   0.790  0.00  0.00    -0.329 OA
ATOM     16  C   UNL     1      -2.803  -4.059  -0.195  0.00  0.00    +0.121 C 
ATOM     17  C   UNL     1      -3.020  -5.594  -0.754  0.00  0.00    +0.030 C 
ATOM     18  C   UNL     1      -1.793  -5.982  -1.480  0.00  0.00    +0.008 C 
ATOM     19  C   UNL     1      -4.017  -4.273   0.896  0.00  0.00    +0.063 C 
ATOM     20  C   UNL     1      -3.629  -3.137   2.022  0.00  0.00    +0.136 C 
ATOM     21  C   UNL     1      -4.068  -1.919   1.039  0.00  0.00    -0.017 C 
ATOM     22  C   UNL     1      -2.715  -1.347   0.673  0.00  0.00    +0.029 C 
ATOM     23  C   UNL     1      -4.908  -1.048   1.534  0.00  0.00    -0.006 C 
ATOM     24  C   UNL     1      -6.281  -0.851   1.045  0.00  0.00    -0.001 C 
ATOM     25  C   UNL     1      -6.601  -1.317  -0.165  0.00  0.00    -0.000 C 
ATOM     26  C   UNL     1      -6.401  -0.327  -1.232  0.00  0.00    -0.005 C 
ATOM     27  C   UNL     1      -6.809   0.909  -1.139  0.00  0.00    -0.026 C 
ATOM     28  C   UNL     1      -5.878   1.915  -0.307  0.00  0.00    +0.022 C 
ATOM     29  C   UNL     1      -4.558   1.577  -1.216  0.00  0.00    +0.005 C 
ATOM     30  C   UNL     1      -6.264   3.182  -1.246  0.00  0.00    +0.012 C 
ATOM     31  C   UNL     1      -5.777   4.494  -0.410  0.00  0.00    +0.061 C 
ATOM     32  C   UNL     1      -4.854   3.733   0.706  0.00  0.00    +0.008 C 
ATOM     33  C   UNL     1      -4.546   4.745  -1.410  0.00  0.00    +0.180 C 
ATOM     34  O   UNL     1      -4.777   5.055  -2.517  0.00  0.00    -0.293 OA
ATOM     35  C   UNL     1      -3.294   5.374  -0.630  0.00  0.00    +0.206 C 
ATOM     36  C   UNL     1      -2.199   4.849  -1.856  0.00  0.00    +0.204 C 
ATOM     37  O   UNL     1      -2.500   3.401  -1.546  0.00  0.00    -0.216 OA
ATOM     38  C   UNL     1      -0.951   4.904  -0.848  0.00  0.00    -0.015 C 
ATOM     39  C   UNL     1      -0.813   6.156  -0.036  0.00  0.00    +0.029 C 
ATOM     40  C   UNL     1      -0.154   3.965  -0.665  0.00  0.00    -0.025 C 
ATOM     41  C   UNL     1       0.121   2.794  -1.722  0.00  0.00    +0.079 C 
ATOM     42  C   UNL     1       0.445   3.818  -2.960  0.00  0.00    +0.012 C 
ATOM     43  C   UNL     1       1.667   2.661  -1.297  0.00  0.00    +0.158 C 
ATOM     44  O   UNL     1       2.324   3.662  -1.219  0.00  0.00    -0.296 OA
ATOM     45  O   UNL     1      -0.527  -4.053  -1.144  0.00  0.00    -0.187 OA
ATOM     46  C   UNL     1      -0.642  -6.135  -0.340  0.00  0.00    +0.062 C 
ATOM     47  C   UNL     1       0.575  -6.110  -1.424  0.00  0.00    +0.006 C 
ATOM     48  C   UNL     1       0.144  -0.740  -0.110  0.00  0.00    +0.031 C 
ATOM     49  C   UNL     1       1.919   1.652  -0.216  0.00  0.00    +0.108 C 
ENDROOT
BRANCH  35  50
ATOM     50  O   UNL     1      -3.432   6.734  -1.270  0.00  0.00    -0.343 OA
ATOM     51  C   UNL     1      -3.849   7.479  -0.153  0.00  0.00    +0.175 C 
ENDBRANCH  35  50
BRANCH   1  52
ATOM     52  C   UNL     1       3.526   0.841  -1.696  0.00  0.00    +0.041 C 
ATOM     53  C   UNL     1       3.200   0.229  -3.158  0.00  0.00    +0.004 C 
BRANCH  52  54
ATOM     54  C   UNL     1       4.528  -0.364  -1.280  0.00  0.00    +0.004 C 
BRANCH  54  59
ATOM     55  C   UNL     1       5.945   0.646   1.206  0.00  0.00    +0.142 C 
ATOM     56  C   UNL     1       7.678   0.687   1.137  0.00  0.00    +0.142 C 
ATOM     57  C   UNL     1       7.878   0.427  -0.450  0.00  0.00    +0.032 C 
ATOM     58  C   UNL     1       6.975  -0.525  -1.017  0.00  0.00    +0.003 C 
ATOM     59  C   UNL     1       5.861   0.562  -1.528  0.00  0.00    +0.003 C 
ATOM     60  C   UNL     1       5.656   1.401  -0.185  0.00  0.00    +0.032 C 
BRANCH  55  62
ATOM     61  C   UNL     1       5.669  -1.436   1.706  0.00  0.00    +0.174 C 
ATOM     62  O   UNL     1       5.803  -0.810   0.818  0.00  0.00    -0.351 OA
ENDBRANCH  55  62
BRANCH  56  63
ATOM     63  O   UNL     1       7.667   2.185   0.933  0.00  0.00    -0.351 OA
BRANCH  63  64
ATOM     64  C   UNL     1       8.797   2.704   1.487  0.00  0.00    +0.178 C 
BRANCH  64  65
ATOM     65  C   UNL     1       9.822   1.615   1.607  0.00  0.00    +0.214 C 
ATOM     66  O   UNL     1      10.594   1.658   0.436  0.00  0.00    -0.218 OA
ENDBRANCH  64  65
ENDBRANCH  63  64
ENDBRANCH  56  63
ENDBRANCH  54  59
ENDBRANCH  52  54
ENDBRANCH   1  52
BRANCH  20  67
ATOM     67  O   UNL     1      -5.004  -3.268   2.661  0.00  0.00    -0.349 OA
ATOM     68  C   UNL     1      -4.977  -4.536   3.246  0.00  0.00    +0.174 C 
ENDBRANCH  20  67
TORSDOF 9
