REMARK  Name = 
REMARK  2 active torsions:
REMARK  status: ('A' for Active; 'I' for Inactive)
REMARK    1  A    between atoms: N_2  and  C_5
REMARK    2  A    between atoms: C_5  and  C_6
REMARK                            x       y       z     vdW  Elec       q    Type
REMARK                         _______ _______ _______ _____ _____    ______ ____
ROOT
ATOM      1  C   UNL     1       0.858  -0.497   1.457  0.00  0.00    +0.172 C 
ATOM      2  N   UNL     1       1.048   0.025   0.142  0.00  0.00    +0.319 N 
ATOM      3  C   UNL     1       2.239  -0.581  -0.452  0.00  0.00    +0.172 C 
ATOM      4  C   UNL     1       1.311   1.454   0.208  0.00  0.00    +0.172 C 
ENDROOT
BRANCH   2   5
ATOM      5  C   UNL     1      -0.008  -0.213  -0.788  0.00  0.00    +0.225 C 
BRANCH   5   6
ATOM      6  C   UNL     1      -1.362  -0.232  -0.199  0.00  0.00    +0.420 C 
ATOM      7  O   UNL     1      -1.838   0.868   0.520  0.00  0.00    -0.239 OA
ATOM      8  O   UNL     1      -2.248  -0.824  -0.889  0.00  0.00    -0.239 OA
ENDBRANCH   5   6
ENDBRANCH   2   5
TORSDOF 2
