REMARK  Name = 
REMARK  5 active torsions:
REMARK  status: ('A' for Active; 'I' for Inactive)
REMARK    1  A    between atoms: C_2  and  C_3
REMARK    2  A    between atoms: C_3  and  C_4
REMARK    3  A    between atoms: C_4  and  C_5
REMARK    4  A    between atoms: C_4  and  N_10
REMARK    5  A    between atoms: C_12  and  C_13
REMARK                            x       y       z     vdW  Elec       q    Type
REMARK                         _______ _______ _______ _____ _____    ______ ____
ROOT
ATOM      1  N   UNL     1       1.446  -0.391  -0.665  0.00  0.00    -0.250 N 
ATOM      2  N   UNL     1       1.178   0.270  -1.770  0.00  0.00    -0.168 NA
ATOM      3  C   UNL     1      -0.139   0.139  -2.026  0.00  0.00    +0.123 A 
ATOM      4  C   UNL     1      -0.674  -0.582  -0.964  0.00  0.00    +0.057 A 
ATOM      5  C   UNL     1       0.326  -0.528   0.002  0.00  0.00    +0.098 A 
ENDROOT
BRANCH   4   6
ATOM      6  C   UNL     1      -2.109  -0.660  -0.760  0.00  0.00    +0.089 A 
ATOM      7  C   UNL     1      -2.688  -0.016   0.298  0.00  0.00    +0.055 A 
ATOM      8  C   UNL     1      -4.069   0.020   0.399  0.00  0.00    +0.166 A 
ATOM      9  N   UNL     1      -4.387   0.775   1.478  0.00  0.00    -0.225 NA
ATOM     10  C   UNL     1      -3.243   1.249   1.995  0.00  0.00    +0.101 A 
ATOM     11  N   UNL     1      -4.826  -0.476  -0.610  0.00  0.00    -0.205 NA
ATOM     12  C   UNL     1      -4.205  -1.129  -1.622  0.00  0.00    +0.200 A 
ATOM     13  C   UNL     1      -2.178   0.809   1.259  0.00  0.00    +0.025 A 
ATOM     14  N   UNL     1      -2.894  -1.371  -1.593  0.00  0.00    -0.224 NA
ENDBRANCH   4   6
BRANCH   1  15
ATOM     15  C   UNL     1       2.871  -0.184  -0.037  0.00  0.00    +0.120 C 
BRANCH  15  16
ATOM     16  C   UNL     1       2.345   0.924   1.062  0.00  0.00    +0.024 C 
ATOM     17  C   UNL     1       1.984   2.111   0.182  0.00  0.00    +0.002 C 
ATOM     18  C   UNL     1       3.354   2.499  -0.352  0.00  0.00    +0.000 C 
ATOM     19  C   UNL     1       4.174   2.506   0.933  0.00  0.00    +0.000 C 
ATOM     20  C   UNL     1       3.642   1.312   1.709  0.00  0.00    +0.002 C 
ENDBRANCH  15  16
BRANCH  15  21
ATOM     21  C   UNL     1       2.688  -1.436   1.018  0.00  0.00    +0.130 C 
BRANCH  21  23
ATOM     22  N   UNL     1       3.929  -3.349  -0.292  0.00  0.00    -0.196 NA
ATOM     23  C   UNL     1       3.476  -2.492   0.354  0.00  0.00    +0.075 C 
ENDBRANCH  21  23
ENDBRANCH  15  21
ENDBRANCH   1  15
TORSDOF 5
