REMARK  Name = 
REMARK  7 active torsions:
REMARK  status: ('A' for Active; 'I' for Inactive)
REMARK    1  A    between atoms: N_2  and  C_3
REMARK    2  A    between atoms: C_3  and  C_4
REMARK    3  A    between atoms: C_4  and  C_5
REMARK    4  A    between atoms: C_5  and  O_6
REMARK    5  A    between atoms: C_5  and  C_17
REMARK    6  A    between atoms: O_6  and  C_7
REMARK    7  A    between atoms: C_10  and  C_11
REMARK                            x       y       z     vdW  Elec       q    Type
REMARK                         _______ _______ _______ _____ _____    ______ ____
ROOT
ATOM      1  C   UNL     1      -1.560  -0.452   0.165  0.00  0.00    +0.190 C 
ENDROOT
BRANCH   1   2
ATOM      2  C   UNL     1      -2.456   0.643  -0.686  0.00  0.00    +0.017 A 
ATOM      3  C   UNL     1      -1.886   0.802  -1.949  0.00  0.00    -0.001 A 
ATOM      4  C   UNL     1      -2.601   1.607  -2.828  0.00  0.00    -0.000 A 
ATOM      5  C   UNL     1      -3.974   1.595  -2.743  0.00  0.00    -0.000 A 
ATOM      6  C   UNL     1      -4.556   1.092  -1.590  0.00  0.00    -0.000 A 
ATOM      7  C   UNL     1      -3.796   0.290  -0.746  0.00  0.00    -0.001 A 
ENDBRANCH   1   2
BRANCH   1   8
ATOM      8  C   UNL     1      -2.574  -0.352   1.506  0.00  0.00    +0.067 C 
BRANCH   8   9
ATOM      9  C   UNL     1      -3.107  -1.782   1.557  0.00  0.00    +0.093 C 
BRANCH   9  11
ATOM     10  C   UNL     1      -2.635  -1.696   3.874  0.00  0.00    +0.107 C 
ATOM     11  N   UNL     1      -2.658  -2.484   2.744  0.00  0.00    -0.216 NA
ENDBRANCH   9  11
ENDBRANCH   8   9
ENDBRANCH   1   8
BRANCH   1  12
ATOM     12  O   UNL     1      -0.645   0.692   0.736  0.00  0.00    -0.475 OA
BRANCH  12  13
ATOM     13  C   UNL     1       0.693   0.522   0.441  0.00  0.00    +0.139 A 
ATOM     14  C   UNL     1       1.083   0.028  -0.770  0.00  0.00    +0.037 A 
ATOM     15  C   UNL     1       2.400  -0.247  -0.978  0.00  0.00    +0.007 A 
ATOM     16  C   UNL     1       3.324  -0.053   0.006  0.00  0.00    +0.072 A 
ATOM     17  C   UNL     1       2.924   0.320   1.258  0.00  0.00    +0.007 A 
ATOM     18  C   UNL     1       1.604   0.676   1.467  0.00  0.00    +0.037 A 
BRANCH  16  19
ATOM     19  C   UNL     1       4.750  -0.285  -0.281  0.00  0.00    +0.419 C 
ATOM     20  F   UNL     1       5.357   0.962  -0.331  0.00  0.00    -0.166 F 
ATOM     21  F   UNL     1       5.398  -1.014   0.675  0.00  0.00    -0.166 F 
ATOM     22  F   UNL     1       4.916  -0.864  -1.527  0.00  0.00    -0.166 F 
ENDBRANCH  16  19
ENDBRANCH  12  13
ENDBRANCH   1  12
TORSDOF 7
