REMARK  Name = 
REMARK  4 active torsions:
REMARK  status: ('A' for Active; 'I' for Inactive)
REMARK    1  A    between atoms: C_2  and  C_3
REMARK    2  A    between atoms: C_2  and  O_8
REMARK    3  A    between atoms: C_3  and  N_4
REMARK    4  A    between atoms: O_8  and  C_9
REMARK                            x       y       z     vdW  Elec       q    Type
REMARK                         _______ _______ _______ _____ _____    ______ ____
ROOT
ATOM      1  C   UNL     1      -0.094  -1.188   2.033  0.00  0.00    +0.054 C 
ATOM      2  C   UNL     1       0.043  -0.722   0.456  0.00  0.00    +0.225 C 
ENDROOT
BRANCH   2   3
ATOM      3  O   UNL     1       1.386  -0.014   0.728  0.00  0.00    -0.430 OA
BRANCH   3   4
ATOM      4  C   UNL     1       2.298  -0.160  -0.315  0.00  0.00    +0.441 C 
ATOM      5  O   UNL     1       2.319  -1.197  -1.043  0.00  0.00    -0.223 OA
ATOM      6  N   UNL     1       3.238   0.896  -0.493  0.00  0.00    -0.048 NA
ENDBRANCH   3   4
ENDBRANCH   2   3
BRANCH   2   7
ATOM      7  C   UNL     1      -0.803   0.669   0.727  0.00  0.00    +0.153 C 
BRANCH   7   8
ATOM      8  N   UNL     1      -1.835   0.519  -0.298  0.00  0.00    +0.313 N 
ATOM      9  C   UNL     1      -1.264  -0.072  -1.497  0.00  0.00    +0.171 C 
ATOM     10  C   UNL     1      -2.748  -0.475   0.262  0.00  0.00    +0.171 C 
ATOM     11  C   UNL     1      -2.539   1.744  -0.559  0.00  0.00    +0.171 C 
ENDBRANCH   7   8
ENDBRANCH   2   7
TORSDOF 4
