REMARK  Name = 
REMARK  0 active torsions:
REMARK  status: ('A' for Active; 'I' for Inactive)
REMARK                            x       y       z     vdW  Elec       q    Type
REMARK                         _______ _______ _______ _____ _____    ______ ____
ROOT
ATOM      1  O   UNL     1       2.537  -0.705   0.557  0.00  0.00    -0.243 OA
ATOM      2  C   UNL     1       1.492  -0.419  -0.100  0.00  0.00    +0.372 A 
ATOM      3  N   UNL     1       0.396  -1.199   0.012  0.00  0.00    -0.150 NA
ATOM      4  C   UNL     1      -0.841  -0.650   0.057  0.00  0.00    +0.312 A 
ATOM      5  O   UNL     1      -1.882  -1.358   0.206  0.00  0.00    -0.263 OA
ATOM      6  C   UNL     1      -0.983   0.730  -0.033  0.00  0.00    +0.217 A 
ATOM      7  F   UNL     1      -2.124   1.339   0.404  0.00  0.00    -0.197 F 
ATOM      8  C   UNL     1       0.118   1.462  -0.456  0.00  0.00    +0.138 A 
ATOM      9  N   UNL     1       1.287   0.802  -0.647  0.00  0.00    -0.187 NA
ENDROOT
TORSDOF 0
