REMARK  Name = 
REMARK  1 active torsions:
REMARK  status: ('A' for Active; 'I' for Inactive)
REMARK    1  A    between atoms: C_20  and  C_21
REMARK                            x       y       z     vdW  Elec       q    Type
REMARK                         _______ _______ _______ _____ _____    ______ ____
ROOT
ATOM      1  C   UNL     1      -1.375  -0.745  -1.593  0.00  0.00    +0.004 C 
ATOM      2  C   UNL     1      -1.438  -0.360  -0.157  0.00  0.00    +0.019 C 
ATOM      3  C   UNL     1      -2.564  -1.077   0.423  0.00  0.00    -0.026 C 
ATOM      4  C   UNL     1      -2.320  -2.340   0.059  0.00  0.00    -0.030 C 
ATOM      5  C   UNL     1      -0.855  -2.547  -0.196  0.00  0.00    +0.026 C 
ATOM      6  C   UNL     1      -0.345  -1.256   0.640  0.00  0.00    +0.008 C 
ATOM      7  C   UNL     1       0.842  -0.756  -0.448  0.00  0.00    +0.005 C 
ATOM      8  C   UNL     1       1.887  -1.865   0.050  0.00  0.00    +0.025 C 
ATOM      9  C   UNL     1       3.131  -1.335  -0.603  0.00  0.00    -0.035 C 
ATOM     10  C   UNL     1       3.190  -0.059  -1.010  0.00  0.00    -0.047 C 
ATOM     11  C   UNL     1       2.527   1.013  -0.259  0.00  0.00    +0.015 C 
ATOM     12  C   UNL     1       2.068   2.112  -1.097  0.00  0.00    +0.004 C 
ATOM     13  C   UNL     1       3.442   1.572   0.827  0.00  0.00    +0.006 C 
ATOM     14  C   UNL     1       4.852   1.762   0.388  0.00  0.00    +0.034 C 
ATOM     15  C   UNL     1       5.329   0.238  -0.031  0.00  0.00    +0.156 C 
ATOM     16  O   UNL     1       6.639   0.752  -0.604  0.00  0.00    -0.223 OA
ATOM     17  C   UNL     1       4.561   0.353  -1.491  0.00  0.00    +0.055 C 
ATOM     18  C   UNL     1       1.370   0.383   0.679  0.00  0.00    +0.004 C 
ATOM     19  C   UNL     1       0.244   1.475   0.277  0.00  0.00    +0.001 C 
ATOM     20  C   UNL     1      -1.090   0.960   0.247  0.00  0.00    +0.004 C 
ENDROOT
BRANCH   3  21
ATOM     21  C   UNL     1      -3.849  -0.450   0.728  0.00  0.00    +0.015 A 
ATOM     22  C   UNL     1      -3.896   0.891   1.007  0.00  0.00    +0.099 A 
ATOM     23  N   UNL     1      -5.022   1.634   0.967  0.00  0.00    -0.242 NA
ATOM     24  C   UNL     1      -6.178   0.950   0.817  0.00  0.00    +0.099 A 
ATOM     25  C   UNL     1      -6.184  -0.337   0.294  0.00  0.00    +0.021 A 
ATOM     26  C   UNL     1      -4.965  -0.970   0.085  0.00  0.00    +0.003 A 
ENDBRANCH   3  21
TORSDOF 1
