REMARK  Name = 
REMARK  4 active torsions:
REMARK  status: ('A' for Active; 'I' for Inactive)
REMARK    1  A    between atoms: O_2  and  C_3
REMARK    2  A    between atoms: C_4  and  N_5
REMARK    3  A    between atoms: C_18  and  C_19
REMARK    4  A    between atoms: N_23  and  C_24
REMARK                            x       y       z     vdW  Elec       q    Type
REMARK                         _______ _______ _______ _____ _____    ______ ____
ROOT
ATOM      1  C   UNL     1       0.469   0.646   0.216  0.00  0.00    +0.170 A 
ATOM      2  C   UNL     1      -0.847   0.222   0.191  0.00  0.00    +0.099 A 
ATOM      3  C   UNL     1      -1.146  -1.090  -0.162  0.00  0.00    +0.060 A 
ATOM      4  C   UNL     1      -2.451  -1.474  -0.324  0.00  0.00    +0.205 A 
ATOM      5  C   UNL     1      -3.418  -0.609   0.168  0.00  0.00    +0.136 A 
ATOM      6  C   UNL     1      -3.069   0.655   0.624  0.00  0.00    +0.086 A 
ATOM      7  O   UNL     1      -2.715  -2.551  -0.896  0.00  0.00    -0.286 OA
ATOM      8  C   UNL     1      -0.115  -1.989  -0.381  0.00  0.00    +0.036 A 
ATOM      9  C   UNL     1       1.185  -1.606  -0.094  0.00  0.00    +0.157 A 
ATOM     10  F   UNL     1       2.038  -2.579   0.326  0.00  0.00    -0.203 F 
ATOM     11  N   UNL     1      -1.815   1.127   0.450  0.00  0.00    -0.325 N 
ATOM     12  C   UNL     1       1.499  -0.281   0.167  0.00  0.00    +0.112 A 
ENDROOT
BRANCH  12  13
ATOM     13  N   UNL     1       2.792   0.142   0.565  0.00  0.00    -0.300 N 
ATOM     14  C   UNL     1       3.830  -0.895   0.602  0.00  0.00    +0.108 C 
ATOM     15  C   UNL     1       4.410  -0.711  -0.925  0.00  0.00    +0.093 C 
ATOM     16  C   UNL     1       5.462  -1.960  -0.756  0.00  0.00    +0.021 C 
ATOM     17  N   UNL     1       5.498   0.336  -0.480  0.00  0.00    -0.216 NA
ATOM     18  C   UNL     1       4.848   1.300   0.328  0.00  0.00    +0.110 C 
ATOM     19  C   UNL     1       3.379   1.418   0.158  0.00  0.00    +0.110 C 
ENDBRANCH  12  13
BRANCH   5  20
ATOM     20  C   UNL     1      -4.798  -0.922  -0.227  0.00  0.00    +0.392 C 
ATOM     21  O   UNL     1      -5.176  -2.253  -0.110  0.00  0.00    -0.240 OA
ATOM     22  O   UNL     1      -5.258  -0.296  -1.228  0.00  0.00    -0.240 OA
ENDBRANCH   5  20
BRANCH  11  23
ATOM     23  C   UNL     1      -1.417   2.461   0.873  0.00  0.00    +0.086 C 
ATOM     24  C   UNL     1      -2.424   3.202   1.674  0.00  0.00    +0.024 C 
ATOM     25  C   UNL     1      -2.298   3.591   0.264  0.00  0.00    +0.024 C 
ENDBRANCH  11  23
BRANCH   1  27
ATOM     26  C   UNL     1       0.818   2.170  -0.871  0.00  0.00    +0.253 C 
ATOM     27  O   UNL     1       0.721   1.948  -0.238  0.00  0.00    -0.469 OA
ENDBRANCH   1  27
TORSDOF 4
