REMARK  Name = 
REMARK  4 active torsions:
REMARK  status: ('A' for Active; 'I' for Inactive)
REMARK    1  A    between atoms: C_2  and  C_3
REMARK    2  A    between atoms: C_2  and  C_8
REMARK    3  A    between atoms: C_3  and  C_4
REMARK    4  A    between atoms: C_4  and  C_5
REMARK                            x       y       z     vdW  Elec       q    Type
REMARK                         _______ _______ _______ _____ _____    ______ ____
ROOT
ATOM      1  C   UNL     1       2.200  -0.020  -0.689  0.00  0.00    +0.000 C 
ATOM      2  C   UNL     1       1.023   0.397   0.321  0.00  0.00    +0.000 C 
ATOM      3  C   UNL     1       0.132  -0.850  -0.229  0.00  0.00    +0.002 C 
ATOM      4  C   UNL     1      -0.941  -0.535   1.021  0.00  0.00    +0.030 C 
ATOM      5  C   UNL     1      -1.968   0.110  -0.120  0.00  0.00    +0.002 C 
ATOM      6  C   UNL     1      -1.216   1.551  -0.057  0.00  0.00    +0.000 C 
ATOM      7  C   UNL     1      -3.026   0.598   0.982  0.00  0.00    +0.000 C 
ATOM      8  C   UNL     1      -3.979  -0.688   1.297  0.00  0.00    +0.005 C 
ATOM      9  C   UNL     1      -4.061  -1.203  -0.264  0.00  0.00    +0.033 C 
ATOM     10  C   UNL     1      -5.325  -0.245  -0.719  0.00  0.00    +0.152 C 
ATOM     11  C   UNL     1      -4.320   1.006  -1.115  0.00  0.00    +0.033 C 
ATOM     12  O   UNL     1      -5.287  -0.812  -2.131  0.00  0.00    -0.223 OA
ATOM     13  C   UNL     1      -2.914  -1.724   1.864  0.00  0.00    +0.033 C 
ATOM     14  C   UNL     1      -2.389   1.099   2.172  0.00  0.00    +0.000 C 
ATOM     15  C   UNL     1      -3.934   1.547   0.232  0.00  0.00    +0.003 C 
ATOM     16  C   UNL     1      -1.557  -2.112   1.097  0.00  0.00    +0.152 C 
ATOM     17  O   UNL     1      -2.044  -2.207  -0.345  0.00  0.00    -0.223 OA
ATOM     18  C   UNL     1       1.100  -1.859   0.583  0.00  0.00    +0.000 C 
ATOM     19  C   UNL     1       1.356   0.153   1.713  0.00  0.00    +0.000 C 
ATOM     20  C   UNL     1       0.214   1.477  -0.126  0.00  0.00    +0.000 C 
ATOM     21  C   UNL     1       2.409  -1.463   0.022  0.00  0.00    +0.000 C 
ENDROOT
BRANCH   1  23
ATOM     22  C   UNL     1       2.798   2.031   0.633  0.00  0.00    +0.000 C 
ATOM     23  C   UNL     1       3.512   0.649   0.168  0.00  0.00    +0.001 C 
BRANCH  23  24
ATOM     24  C   UNL     1       4.099   1.383  -1.153  0.00  0.00    +0.012 C 
BRANCH  24  25
ATOM     25  C   UNL     1       4.835   0.401  -1.971  0.00  0.00    +0.114 C 
BRANCH  25  26
ATOM     26  C   UNL     1       6.114  -0.059  -1.374  0.00  0.00    +0.365 C 
ATOM     27  O   UNL     1       7.061   0.792  -0.800  0.00  0.00    -0.246 OA
ATOM     28  O   UNL     1       6.107  -1.274  -1.011  0.00  0.00    -0.246 OA
ENDBRANCH  25  26
ENDBRANCH  24  25
ENDBRANCH  23  24
ENDBRANCH   1  23
TORSDOF 4
