REMARK  Name = 
REMARK  2 active torsions:
REMARK  status: ('A' for Active; 'I' for Inactive)
REMARK    1  A    between atoms: C_2  and  O_3
REMARK    2  A    between atoms: O_3  and  C_4
REMARK                            x       y       z     vdW  Elec       q    Type
REMARK                         _______ _______ _______ _____ _____    ______ ____
ROOT
ATOM      1  C   UNL     1       4.197  -0.887   0.296  0.00  0.00    +0.405 C 
ATOM      2  N   UNL     1       2.908  -0.343   0.551  0.00  0.00    -0.245 N 
ATOM      3  C   UNL     1       2.234  -0.832   1.750  0.00  0.00    +0.101 C 
ATOM      4  C   UNL     1       0.725  -0.839   1.542  0.00  0.00    +0.044 C 
ATOM      5  C   UNL     1       0.310   0.108   0.479  0.00  0.00    -0.039 C 
ATOM      6  C   UNL     1      -0.884  -0.078  -0.069  0.00  0.00    +0.009 C 
ATOM      7  C   UNL     1      -1.016   0.112  -1.519  0.00  0.00    +0.077 A 
ATOM      8  C   UNL     1      -2.172  -0.037  -2.276  0.00  0.00    -0.004 A 
ATOM      9  C   UNL     1      -2.153   0.591  -3.516  0.00  0.00    -0.001 A 
ATOM     10  C   UNL     1      -1.083   1.401  -3.876  0.00  0.00    +0.020 A 
ATOM     11  C   UNL     1       0.089   1.404  -3.149  0.00  0.00    +0.099 A 
ATOM     12  C   UNL     1      -3.593  -0.206  -1.864  0.00  0.00    +0.033 C 
ATOM     13  C   UNL     1      -3.762  -1.178  -0.729  0.00  0.00    +0.031 C 
ATOM     14  C   UNL     1      -3.311  -0.558   0.554  0.00  0.00    -0.021 A 
ATOM     15  C   UNL     1      -4.329  -0.439   1.493  0.00  0.00    +0.007 A 
ATOM     16  C   UNL     1      -3.980   0.217   2.665  0.00  0.00    +0.057 A 
ATOM     17 CL   UNL     1      -5.119   1.122   3.627  0.00  0.00    -0.082 Cl
ATOM     18  C   UNL     1      -2.664   0.107   3.096  0.00  0.00    +0.011 A 
ATOM     19  C   UNL     1      -1.634  -0.110   2.190  0.00  0.00    +0.001 A 
ATOM     20  N   UNL     1       0.112   0.636  -2.036  0.00  0.00    -0.244 NA
ATOM     21  C   UNL     1      -1.981  -0.314   0.878  0.00  0.00    -0.003 A 
ATOM     22  C   UNL     1       1.125   1.279   0.069  0.00  0.00    +0.044 C 
ATOM     23  C   UNL     1       2.604   1.031   0.173  0.00  0.00    +0.101 C 
ATOM     24  O   UNL     1       4.390  -2.123   0.433  0.00  0.00    -0.226 OA
ENDROOT
BRANCH   1  25
ATOM     25  O   UNL     1       5.248  -0.109  -0.198  0.00  0.00    -0.435 OA
BRANCH  25  27
ATOM     26  C   UNL     1       7.179   0.561   1.046  0.00  0.00    +0.051 C 
ATOM     27  C   UNL     1       6.558  -0.516   0.179  0.00  0.00    +0.210 C 
ENDBRANCH  25  27
ENDBRANCH   1  25
TORSDOF 2
