REMARK  Name = 
REMARK  14 active torsions:
REMARK  status: ('A' for Active; 'I' for Inactive)
REMARK    1  A    between atoms: C_2  and  C_4
REMARK    2  A    between atoms: C_4  and  N_5
REMARK    3  A    between atoms: N_5  and  C_6
REMARK    4  A    between atoms: N_5  and  S_30
REMARK    5  A    between atoms: C_6  and  C_7
REMARK    6  A    between atoms: C_7  and  O_8
REMARK    7  A    between atoms: C_7  and  C_13
REMARK    8  A    between atoms: O_8  and  P_9
REMARK    9  A    between atoms: C_13  and  C_14
REMARK   10  A    between atoms: C_13  and  N_21
REMARK   11  A    between atoms: C_14  and  C_15
REMARK   12  A    between atoms: C_22  and  O_24
REMARK   13  A    between atoms: O_24  and  C_25
REMARK   14  A    between atoms: S_30  and  C_33
REMARK                            x       y       z     vdW  Elec       q    Type
REMARK                         _______ _______ _______ _____ _____    ______ ____
ROOT
ATOM      1  C   UNL     1       0.266  -0.957  -0.141  0.00  0.00    +0.164 C 
ENDROOT
BRANCH   1   2
ATOM      2  C   UNL     1      -0.350   0.137   0.923  0.00  0.00    +0.128 C 
BRANCH   2   3
ATOM      3  N   UNL     1      -1.688  -0.295   1.139  0.00  0.00    -0.153 NA
BRANCH   3   4
ATOM      4  S   UNL     1      -2.794   0.811   1.705  0.00  0.00    +0.063 S 
ATOM      5  O   UNL     1      -2.138   2.174   1.769  0.00  0.00    -0.153 OA
ATOM      6  O   UNL     1      -3.117   0.469   3.145  0.00  0.00    -0.153 OA
BRANCH   4   7
ATOM      7  C   UNL     1      -4.250   0.995   0.754  0.00  0.00    +0.122 A 
ATOM      8  C   UNL     1      -5.449   0.644   1.366  0.00  0.00    +0.021 A 
ATOM      9  C   UNL     1      -6.678   1.017   0.865  0.00  0.00    +0.019 A 
ATOM     10  C   UNL     1      -6.749   1.790  -0.283  0.00  0.00    +0.089 A 
ATOM     11  N   UNL     1      -7.992   2.467  -0.500  0.00  0.00    -0.128 NA
ATOM     12  C   UNL     1      -5.598   2.483  -0.615  0.00  0.00    +0.019 A 
ATOM     13  C   UNL     1      -4.375   2.038  -0.158  0.00  0.00    +0.021 A 
ENDBRANCH   4   7
ENDBRANCH   3   4
BRANCH   3  14
ATOM     14  C   UNL     1      -2.078  -1.384   0.378  0.00  0.00    +0.096 C 
BRANCH  14  16
ATOM     15  C   UNL     1      -3.780  -2.061  -0.872  0.00  0.00    +0.001 C 
ATOM     16  C   UNL     1      -3.487  -1.817   0.389  0.00  0.00    +0.018 C 
ATOM     17  C   UNL     1      -3.572  -3.131   1.159  0.00  0.00    +0.001 C 
ENDBRANCH  14  16
ENDBRANCH   3  14
ENDBRANCH   2   3
ENDBRANCH   1   2
BRANCH   1  18
ATOM     18  O   UNL     1      -0.486  -0.366  -1.308  0.00  0.00    -0.269 OA
BRANCH  18  19
ATOM     19  P   UNL     1      -0.184   1.179  -1.597  0.00  0.00    +0.533 P 
ATOM     20  O   UNL     1       1.099   1.534  -2.661  0.00  0.00    -0.115 OA
ATOM     21  O   UNL     1      -1.543   1.736  -2.480  0.00  0.00    -0.115 OA
ATOM     22  O   UNL     1      -0.063   2.156  -0.481  0.00  0.00    -0.222 OA
ENDBRANCH  18  19
ENDBRANCH   1  18
BRANCH   1  23
ATOM     23  C   UNL     1       1.660  -0.000  -0.467  0.00  0.00    +0.132 C 
BRANCH  23  24
ATOM     24  N   UNL     1       2.493  -0.652   0.690  0.00  0.00    -0.168 NA
ATOM     25  C   UNL     1       3.448   0.218   1.308  0.00  0.00    +0.421 C 
ATOM     26  O   UNL     1       2.938   1.281   1.745  0.00  0.00    -0.225 OA
BRANCH  25  27
ATOM     27  O   UNL     1       4.832   0.073   1.176  0.00  0.00    -0.435 OA
BRANCH  27  28
ATOM     28  C   UNL     1       5.627   1.300   1.680  0.00  0.00    +0.202 C 
ATOM     29  C   UNL     1       4.859   2.317   0.629  0.00  0.00    +0.186 C 
ATOM     30  O   UNL     1       5.917   3.175   0.438  0.00  0.00    -0.350 OA
ATOM     31  C   UNL     1       6.950   2.396  -0.036  0.00  0.00    +0.146 C 
ATOM     32  C   UNL     1       6.835   1.038   0.585  0.00  0.00    +0.078 C 
ENDBRANCH  27  28
ENDBRANCH  25  27
ENDBRANCH  23  24
BRANCH  23  33
ATOM     33  C   UNL     1       2.191  -1.054  -1.592  0.00  0.00    +0.051 C 
BRANCH  33  34
ATOM     34  C   UNL     1       2.496  -2.335  -1.005  0.00  0.00    -0.020 A 
ATOM     35  C   UNL     1       3.734  -2.886  -1.329  0.00  0.00    -0.004 A 
ATOM     36  C   UNL     1       4.107  -4.144  -0.935  0.00  0.00    -0.000 A 
ATOM     37  C   UNL     1       3.320  -4.739   0.044  0.00  0.00    -0.000 A 
ATOM     38  C   UNL     1       2.025  -4.321   0.207  0.00  0.00    -0.000 A 
ATOM     39  C   UNL     1       1.573  -3.287  -0.587  0.00  0.00    -0.004 A 
ENDBRANCH  33  34
ENDBRANCH  23  33
ENDBRANCH   1  23
TORSDOF 14
