REMARK  Name = 
REMARK  6 active torsions:
REMARK  status: ('A' for Active; 'I' for Inactive)
REMARK    1  A    between atoms: C_2  and  C_3
REMARK    2  A    between atoms: C_2  and  C_5
REMARK    3  A    between atoms: C_5  and  C_7
REMARK    4  A    between atoms: C_10  and  O_11
REMARK    5  A    between atoms: O_11  and  C_12
REMARK    6  A    between atoms: C_12  and  C_13
REMARK                            x       y       z     vdW  Elec       q    Type
REMARK                         _______ _______ _______ _____ _____    ______ ____
ROOT
ATOM      1  C   UNL     1      -1.308  -0.471  -0.125  0.00  0.00    +0.050 A 
ATOM      2  C   UNL     1      -0.351  -1.197  -0.814  0.00  0.00    +0.074 A 
ATOM      3 CL   UNL     1      -0.761  -2.655  -1.709  0.00  0.00    -0.081 Cl
ATOM      4  C   UNL     1       0.991  -0.905  -0.609  0.00  0.00    +0.102 A 
ATOM      5 CL   UNL     1       2.168  -1.397  -1.793  0.00  0.00    -0.078 Cl
ATOM      6  C   UNL     1       1.301  -0.125   0.495  0.00  0.00    +0.151 A 
ATOM      7  C   UNL     1       0.346   0.672   1.083  0.00  0.00    +0.038 A 
ATOM      8  C   UNL     1      -0.943   0.675   0.564  0.00  0.00    +0.007 A 
ENDROOT
BRANCH   1   9
ATOM      9  C   UNL     1      -2.717  -0.748  -0.433  0.00  0.00    +0.192 C 
ATOM     10  O   UNL     1      -3.008  -0.746  -1.668  0.00  0.00    -0.287 OA
BRANCH   9  12
ATOM     11  C   UNL     1      -3.365  -0.148   1.805  0.00  0.00    -0.001 C 
ATOM     12  C   UNL     1      -3.740  -0.410   0.564  0.00  0.00    +0.017 C 
BRANCH  12  13
ATOM     13  C   UNL     1      -4.962   0.307   0.081  0.00  0.00    +0.030 C 
ATOM     14  C   UNL     1      -4.493   1.711  -0.286  0.00  0.00    +0.005 C 
ENDBRANCH  12  13
ENDBRANCH   9  12
ENDBRANCH   1   9
BRANCH   6  15
ATOM     15  O   UNL     1       2.654   0.132   0.738  0.00  0.00    -0.463 OA
BRANCH  15  16
ATOM     16  C   UNL     1       3.177   1.324   0.164  0.00  0.00    +0.319 C 
BRANCH  16  17
ATOM     17  C   UNL     1       4.619   1.176  -0.195  0.00  0.00    +0.408 C 
ATOM     18  O   UNL     1       4.937   1.366  -1.544  0.00  0.00    -0.241 OA
ATOM     19  O   UNL     1       5.456   1.440   0.720  0.00  0.00    -0.241 OA
ENDBRANCH  16  17
ENDBRANCH  15  16
ENDBRANCH   6  15
TORSDOF 6
