REMARK  Name = 
REMARK  3 active torsions:
REMARK  status: ('A' for Active; 'I' for Inactive)
REMARK    1  A    between atoms: C_7  and  O_8
REMARK    2  A    between atoms: O_8  and  C_9
REMARK    3  A    between atoms: C_9  and  C_10
REMARK                            x       y       z     vdW  Elec       q    Type
REMARK                         _______ _______ _______ _____ _____    ______ ____
ROOT
ATOM      1  C   UNL     1      -3.137  -2.934  -0.455  0.00  0.00    +0.031 C 
ATOM      2  C   UNL     1      -2.741  -1.639   0.186  0.00  0.00    -0.019 A 
ATOM      3  C   UNL     1      -1.411  -1.336   0.147  0.00  0.00    +0.033 A 
ATOM      4  C   UNL     1      -0.901  -0.044   0.224  0.00  0.00    +0.138 A 
ATOM      5  C   UNL     1      -1.849   0.956   0.378  0.00  0.00    +0.033 A 
ATOM      6  C   UNL     1      -3.183   0.663   0.633  0.00  0.00    -0.019 A 
ATOM      7  C   UNL     1      -4.210   1.739   0.790  0.00  0.00    +0.031 C 
ATOM      8  C   UNL     1      -3.645  -0.619   0.406  0.00  0.00    -0.008 A 
ENDROOT
BRANCH   4   9
ATOM      9  O   UNL     1       0.384   0.033   0.717  0.00  0.00    -0.472 OA
BRANCH   9  10
ATOM     10  C   UNL     1       1.260   1.110   0.596  0.00  0.00    +0.251 C 
BRANCH  10  11
ATOM     11  C   UNL     1       1.818   1.026  -0.966  0.00  0.00    +0.235 C 
ATOM     12  O   UNL     1       2.448  -0.365  -0.718  0.00  0.00    -0.432 OA
ATOM     13  C   UNL     1       3.556  -0.181   0.033  0.00  0.00    +0.421 C 
ATOM     14  O   UNL     1       4.233  -1.151   0.491  0.00  0.00    -0.225 OA
ATOM     15  N   UNL     1       4.191   0.866  -0.721  0.00  0.00    -0.165 NA
ATOM     16  C   UNL     1       3.187   1.877  -0.581  0.00  0.00    +0.166 C 
ENDBRANCH  10  11
ENDBRANCH   9  10
ENDBRANCH   4   9
TORSDOF 3
