REMARK  Name = 
REMARK  2 active torsions:
REMARK  status: ('A' for Active; 'I' for Inactive)
REMARK    1  A    between atoms: C_2  and  C_10
REMARK    2  A    between atoms: C_3  and  C_4
REMARK                            x       y       z     vdW  Elec       q    Type
REMARK                         _______ _______ _______ _____ _____    ______ ____
ROOT
ATOM      1  C   UNL     1       1.533  -0.401  -0.521  0.00  0.00    +0.116 C 
ATOM      2  N   UNL     1       0.972  -1.456   0.536  0.00  0.00    -0.203 NA
ATOM      3  C   UNL     1       0.615  -2.607  -0.245  0.00  0.00    +0.244 C 
ATOM      4  O   UNL     1       0.924  -3.788   0.106  0.00  0.00    -0.273 OA
ATOM      5  C   UNL     1      -0.703  -2.363  -0.921  0.00  0.00    +0.120 C 
ATOM      6  C   UNL     1      -1.623  -3.180   0.227  0.00  0.00    +0.167 C 
ATOM      7  O   UNL     1      -1.414  -2.034   1.241  0.00  0.00    -0.222 OA
ATOM      8  C   UNL     1      -3.072  -2.626  -0.380  0.00  0.00    +0.080 C 
ATOM      9  C   UNL     1      -2.998  -2.560  -1.814  0.00  0.00    +0.010 C 
ATOM     10  C   UNL     1      -3.858  -3.909  -0.084  0.00  0.00    +0.010 C 
ATOM     11  C   UNL     1      -3.527  -1.508   0.442  0.00  0.00    +0.154 C 
ATOM     12  O   UNL     1      -3.706  -1.932   1.589  0.00  0.00    -0.296 OA
ATOM     13  C   UNL     1      -4.832  -0.991  -0.348  0.00  0.00    +0.088 C 
ATOM     14  C   UNL     1      -5.939  -1.621   0.691  0.00  0.00    +0.010 C 
ATOM     15  C   UNL     1      -4.935   0.576   0.391  0.00  0.00    +0.159 C 
ATOM     16  O   UNL     1      -4.577   0.113   1.788  0.00  0.00    -0.223 OA
ATOM     17  C   UNL     1      -3.314   0.972  -0.039  0.00  0.00    +0.031 C 
ATOM     18  C   UNL     1      -3.703   1.106  -1.620  0.00  0.00    +0.003 C 
ATOM     19  C   UNL     1      -3.552   2.568   0.200  0.00  0.00    +0.003 C 
ATOM     20  C   UNL     1      -2.351   3.246  -0.464  0.00  0.00    +0.003 C 
ATOM     21  C   UNL     1      -1.134   2.428  -0.433  0.00  0.00    +0.030 C 
ATOM     22  C   UNL     1       0.036   3.059  -0.882  0.00  0.00    +0.118 C 
ATOM     23  C   UNL     1       1.302   1.991  -0.939  0.00  0.00    +0.142 C 
ATOM     24  C   UNL     1       0.286   4.295  -1.630  0.00  0.00    +0.032 C 
ATOM     25  O   UNL     1       1.213   3.119   0.246  0.00  0.00    -0.356 OA
ATOM     26  C   UNL     1       0.515   0.799   0.027  0.00  0.00    +0.058 C 
ENDROOT
BRANCH   1  28
ATOM     27  C   UNL     1       2.880  -0.196   1.037  0.00  0.00    +0.028 C 
ATOM     28  C   UNL     1       2.693   0.073   0.539  0.00  0.00    -0.023 C 
ATOM     29  C   UNL     1       3.584   0.860  -0.044  0.00  0.00    +0.013 C 
BRANCH  29  30
ATOM     30  C   UNL     1       4.994   0.703   0.343  0.00  0.00    +0.087 A 
ATOM     31  N   UNL     1       5.803   1.750   0.280  0.00  0.00    -0.243 NA
ATOM     32  C   UNL     1       7.038   1.467  -0.109  0.00  0.00    +0.089 A 
ATOM     33  C   UNL     1       8.005   2.571  -0.398  0.00  0.00    +0.059 C 
ATOM     34  S   UNL     1       7.236  -0.143   0.442  0.00  0.00    -0.070 S 
ATOM     35  C   UNL     1       5.610  -0.381   0.960  0.00  0.00    +0.056 A 
ENDBRANCH  29  30
ENDBRANCH   1  28
TORSDOF 2
