REMARK  Name = 
REMARK  2 active torsions:
REMARK  status: ('A' for Active; 'I' for Inactive)
REMARK    1  A    between atoms: C_2  and  CA_4
REMARK    2  A    between atoms: C_6  and  C_7
REMARK                            x       y       z     vdW  Elec       q    Type
REMARK                         _______ _______ _______ _____ _____    ______ ____
ROOT
ATOM      1  CA  UNL     1       2.299  -0.266   0.949  0.00  0.00    +0.284 C 
ATOM      2  C   UNL     1       2.308  -1.573  -0.061  0.00  0.00    +0.279 C 
ATOM      3  O   UNL     1       3.418  -2.139   0.057  0.00  0.00    -0.270 OA
ATOM      4  N   UNL     1       1.178  -2.454  -0.054  0.00  0.00    -0.177 NA
ATOM      5  C   UNL     1      -0.173  -2.077   0.153  0.00  0.00    +0.075 A 
ATOM      6  C   UNL     1      -0.681  -0.787   0.043  0.00  0.00    +0.033 A 
ATOM      7  C   UNL     1      -2.049  -0.620  -0.097  0.00  0.00    +0.014 A 
ATOM      8  C   UNL     1      -2.876  -1.722   0.090  0.00  0.00    +0.058 A 
ATOM      9  C   UNL     1      -2.338  -2.814   0.734  0.00  0.00    +0.013 A 
ATOM     10 CL   UNL     1      -4.493  -1.722  -0.603  0.00  0.00    -0.082 Cl
ATOM     11  C   UNL     1       0.067   0.449   0.061  0.00  0.00    +0.078 C 
ATOM     12  C   UNL     1      -1.007  -3.119   0.537  0.00  0.00    +0.018 A 
ATOM     13  N   UNL     1       1.357   0.560  -0.064  0.00  0.00    -0.252 NA
ENDROOT
BRANCH  11  14
ATOM     14  C   UNL     1      -0.739   1.652  -0.175  0.00  0.00    +0.017 A 
ATOM     15  C   UNL     1      -1.365   2.189   0.928  0.00  0.00    +0.001 A 
ATOM     16  C   UNL     1      -2.235   3.242   0.710  0.00  0.00    +0.000 A 
ATOM     17  C   UNL     1      -2.211   3.904  -0.502  0.00  0.00    +0.000 A 
ATOM     18  C   UNL     1      -1.415   3.446  -1.544  0.00  0.00    +0.000 A 
ATOM     19  C   UNL     1      -0.684   2.285  -1.406  0.00  0.00    +0.001 A 
ENDBRANCH  11  14
BRANCH   1  21
ATOM     20  O   UNL     1       4.237   0.859   1.029  0.00  0.00    -0.243 OA
ATOM     21  C   UNL     1       3.675   0.353   0.287  0.00  0.00    +0.396 C 
ATOM     22  OXT UNL     1       3.728   0.356  -1.073  0.00  0.00    -0.243 OA
ENDBRANCH   1  21
TORSDOF 2
