REMARK  Name = 
REMARK  1 active torsions:
REMARK  status: ('A' for Active; 'I' for Inactive)
REMARK    1  A    between atoms: S_2  and  C_5
REMARK                            x       y       z     vdW  Elec       q    Type
REMARK                         _______ _______ _______ _____ _____    ______ ____
ROOT
ATOM      1  C   UNL     1       1.376  -0.296  -0.036  0.00  0.00    +0.137 A 
ATOM      2  C   UNL     1       1.362   0.179  -1.340  0.00  0.00    +0.078 A 
ATOM      3 CL   UNL     1       2.718  -0.266  -2.344  0.00  0.00    -0.081 Cl
ATOM      4  C   UNL     1       0.170   0.679  -1.852  0.00  0.00    +0.030 A 
ATOM      5  C   UNL     1      -0.963   0.639  -1.073  0.00  0.00    +0.087 A 
ATOM      6  N   UNL     1      -2.135   1.386  -1.311  0.00  0.00    -0.215 NA
ATOM      7  C   UNL     1      -2.941   1.849  -0.184  0.00  0.00    +0.227 C 
ATOM      8  N   UNL     1      -3.561   0.759   0.527  0.00  0.00    -0.054 NA
ATOM      9  S   UNL     1      -2.534  -0.613   0.670  0.00  0.00    +0.080 S 
ATOM     10  O   UNL     1      -2.470  -1.148   2.064  0.00  0.00    -0.152 OA
ATOM     11  O   UNL     1      -3.091  -1.667  -0.234  0.00  0.00    -0.152 OA
ATOM     12  C   UNL     1      -0.965  -0.154   0.069  0.00  0.00    +0.140 A 
ATOM     13  C   UNL     1       0.219  -0.464   0.708  0.00  0.00    +0.042 A 
ENDROOT
BRANCH   1  15
ATOM     14  N   UNL     1       2.714   0.833   2.148  0.00  0.00    +0.039 NA
ATOM     15  S   UNL     1       2.905  -0.289   0.837  0.00  0.00    +0.094 S 
ATOM     16  O   UNL     1       4.015   0.228  -0.030  0.00  0.00    -0.150 OA
ATOM     17  O   UNL     1       3.182  -1.656   1.379  0.00  0.00    -0.150 OA
ENDBRANCH   1  15
TORSDOF 1
