REMARK  Name = 
REMARK  1 active torsions:
REMARK  status: ('A' for Active; 'I' for Inactive)
REMARK    1  A    between atoms: C_2  and  C_3
REMARK                            x       y       z     vdW  Elec       q    Type
REMARK                         _______ _______ _______ _____ _____    ______ ____
ROOT
ATOM      1  C   UNL     1      -0.522  -0.468   0.160  0.00  0.00    +0.080 C 
ATOM      2  C   UNL     1      -0.161   0.974   0.242  0.00  0.00    +0.247 C 
ATOM      3  O   UNL     1      -0.992   1.914   0.323  0.00  0.00    -0.273 OA
ATOM      4  N   UNL     1       1.255   1.092   0.227  0.00  0.00    -0.145 NA
ATOM      5  C   UNL     1       1.831  -0.150  -0.105  0.00  0.00    +0.248 C 
ATOM      6  O   UNL     1       3.028  -0.372  -0.390  0.00  0.00    -0.273 OA
ATOM      7  C   UNL     1       0.806  -1.196   0.093  0.00  0.00    +0.096 C 
ATOM      8  C   UNL     1      -1.256  -0.891   1.407  0.00  0.00    +0.010 C 
ENDROOT
BRANCH   1  10
ATOM      9  C   UNL     1      -2.632  -0.195  -0.866  0.00  0.00    +0.001 C 
ATOM     10  C   UNL     1      -1.357  -0.710  -1.092  0.00  0.00    +0.009 C 
ENDBRANCH   1  10
TORSDOF 1
