REMARK  Name = 
REMARK  11 active torsions:
REMARK  status: ('A' for Active; 'I' for Inactive)
REMARK    1  A    between atoms: C_2  and  C_3
REMARK    2  A    between atoms: C_3  and  N_5
REMARK    3  A    between atoms: N_8  and  C_9
REMARK    4  A    between atoms: C_12  and  N_13
REMARK    5  A    between atoms: N_16  and  C_17
REMARK    6  A    between atoms: C_20  and  O_21
REMARK    7  A    between atoms: O_21  and  C_22
REMARK    8  A    between atoms: C_22  and  C_23
REMARK    9  A    between atoms: C_26  and  C_27
REMARK   10  A    between atoms: C_26  and  C_33
REMARK   11  A    between atoms: C_27  and  N_28
REMARK                            x       y       z     vdW  Elec       q    Type
REMARK                         _______ _______ _______ _____ _____    ______ ____
ROOT
ATOM      1  C   UNL     1       0.896  -0.375   0.441  0.00  0.00    +0.048 A 
ATOM      2  C   UNL     1       0.273  -1.354   1.206  0.00  0.00    +0.018 A 
ATOM      3  C   UNL     1      -1.026  -1.770   0.985  0.00  0.00    +0.038 A 
ATOM      4  C   UNL     1      -1.851  -0.910   0.295  0.00  0.00    +0.139 A 
ATOM      5  C   UNL     1      -1.246  -0.127  -0.668  0.00  0.00    +0.038 A 
ATOM      6  C   UNL     1       0.121   0.100  -0.613  0.00  0.00    +0.018 A 
ENDROOT
BRANCH   1  10
ATOM      7  N   UNL     1       3.202  -2.439  -0.796  0.00  0.00    -0.304 N 
ATOM      8  C   UNL     1       2.401  -1.484  -1.576  0.00  0.00    +0.112 C 
ATOM      9  C   UNL     1       2.848  -0.150  -0.966  0.00  0.00    +0.112 C 
ATOM     10  N   UNL     1       2.328  -0.242   0.405  0.00  0.00    -0.304 N 
ATOM     11  C   UNL     1       3.043  -1.248   1.198  0.00  0.00    +0.112 C 
ATOM     12  C   UNL     1       2.641  -2.579   0.555  0.00  0.00    +0.112 C 
BRANCH   7  16
ATOM     13  C   UNL     1       6.687  -0.504  -0.101  0.00  0.00    +0.070 A 
ATOM     14  C   UNL     1       6.540  -1.664   0.603  0.00  0.00    +0.019 A 
ATOM     15  C   UNL     1       5.434  -2.443   0.277  0.00  0.00    +0.016 A 
ATOM     16  C   UNL     1       4.607  -2.135  -0.797  0.00  0.00    +0.048 A 
ATOM     17  C   UNL     1       5.180  -1.282  -1.727  0.00  0.00    +0.016 A 
ATOM     18  C   UNL     1       6.322  -0.545  -1.439  0.00  0.00    +0.019 A 
BRANCH  13  22
ATOM     19  N   UNL     1       9.187   1.778   0.660  0.00  0.00    -0.202 N 
ATOM     20  C   UNL     1       8.505   1.045  -0.202  0.00  0.00    +0.352 A 
ATOM     21  O   UNL     1       8.538   1.385  -1.425  0.00  0.00    -0.244 OA
ATOM     22  N   UNL     1       7.347   0.667   0.401  0.00  0.00    -0.240 N 
ATOM     23  C   UNL     1       7.457   1.044   1.698  0.00  0.00    +0.207 A 
ATOM     24  N   UNL     1       8.658   1.647   1.877  0.00  0.00    -0.144 NA
BRANCH  19  25
ATOM     25  C   UNL     1      10.739   2.056   0.534  0.00  0.00    +0.110 C 
ATOM     26  C   UNL     1      10.662   2.421  -1.080  0.00  0.00    +0.027 C 
BRANCH  25  28
ATOM     27  C   UNL     1      10.607  -0.154   1.493  0.00  0.00    +0.002 C 
ATOM     28  C   UNL     1      11.119   0.472   0.219  0.00  0.00    +0.025 C 
ENDBRANCH  25  28
ENDBRANCH  19  25
ENDBRANCH  13  22
ENDBRANCH   7  16
ENDBRANCH   1  10
BRANCH   4  29
ATOM     29  O   UNL     1      -3.140  -0.584   0.726  0.00  0.00    -0.473 OA
BRANCH  29  30
ATOM     30  C   UNL     1      -3.770   0.582   0.270  0.00  0.00    +0.237 C 
BRANCH  30  31
ATOM     31  C   UNL     1      -4.174   0.246  -1.314  0.00  0.00    +0.191 C 
ATOM     32  O   UNL     1      -5.551   0.901  -1.194  0.00  0.00    -0.325 OA
ATOM     33  C   UNL     1      -6.147   0.260  -0.191  0.00  0.00    +0.231 C 
ATOM     34  O   UNL     1      -5.529  -0.903   0.158  0.00  0.00    -0.327 OA
ATOM     35  C   UNL     1      -4.798  -1.254  -0.939  0.00  0.00    +0.178 C 
BRANCH  33  36
ATOM     36  C   UNL     1      -7.579  -0.116  -0.428  0.00  0.00    +0.041 A 
ATOM     37  C   UNL     1      -7.895  -0.982  -1.470  0.00  0.00    +0.059 A 
ATOM     38 CL   UNL     1      -7.233  -0.425  -3.004  0.00  0.00    -0.082 Cl
ATOM     39  C   UNL     1      -9.012  -1.805  -1.391  0.00  0.00    +0.023 A 
ATOM     40  C   UNL     1      -9.558  -2.005  -0.127  0.00  0.00    +0.058 A 
ATOM     41 CL   UNL     1     -10.421  -3.470   0.303  0.00  0.00    -0.082 Cl
ATOM     42  C   UNL     1      -9.570  -0.900   0.716  0.00  0.00    +0.011 A 
ATOM     43  C   UNL     1      -8.557   0.034   0.540  0.00  0.00    +0.002 A 
ENDBRANCH  33  36
BRANCH  33  44
ATOM     44  C   UNL     1      -6.216   1.138   1.058  0.00  0.00    +0.190 C 
BRANCH  44  45
ATOM     45  N   UNL     1      -6.364   2.532   0.692  0.00  0.00    -0.225 N 
ATOM     46  N   UNL     1      -5.791   3.563   1.318  0.00  0.00    -0.145 NA
ATOM     47  C   UNL     1      -5.701   4.505   0.346  0.00  0.00    +0.221 A 
ATOM     48  N   UNL     1      -6.857   4.343  -0.343  0.00  0.00    -0.201 NA
ATOM     49  C   UNL     1      -7.354   3.127  -0.018  0.00  0.00    +0.197 A 
ENDBRANCH  44  45
ENDBRANCH  33  44
ENDBRANCH  30  31
ENDBRANCH  29  30
ENDBRANCH   4  29
TORSDOF 11
