REMARK  Name = 
REMARK  10 active torsions:
REMARK  status: ('A' for Active; 'I' for Inactive)
REMARK    1  A    between atoms: C_2  and  C_4
REMARK    2  A    between atoms: C_7  and  O_8
REMARK    3  A    between atoms: O_8  and  C_9
REMARK    4  A    between atoms: C_9  and  C_10
REMARK    5  A    between atoms: C_10  and  C_11
REMARK    6  A    between atoms: C_11  and  C_12
REMARK    7  A    between atoms: C_12  and  C_13
REMARK    8  A    between atoms: C_13  and  O_14
REMARK    9  A    between atoms: O_14  and  C_15
REMARK   10  A    between atoms: C_18  and  C_19
REMARK                            x       y       z     vdW  Elec       q    Type
REMARK                         _______ _______ _______ _____ _____    ______ ____
ROOT
ATOM      1  C   UNL     1       0.577  -0.619   0.365  0.00  0.00    +0.008 C 
ENDROOT
BRANCH   1   2
ATOM      2  C   UNL     1      -0.464  -1.711   0.484  0.00  0.00    +0.047 C 
BRANCH   2   3
ATOM      3  C   UNL     1      -1.258  -1.489   1.747  0.00  0.00    +0.205 C 
BRANCH   3   4
ATOM      4  O   UNL     1      -2.625  -1.775   1.522  0.00  0.00    -0.475 OA
BRANCH   4   8
ATOM      5  C   UNL     1      -5.396   0.708  -0.377  0.00  0.00    +0.098 A 
ATOM      6  C   UNL     1      -4.245   1.238   0.188  0.00  0.00    +0.011 A 
ATOM      7  C   UNL     1      -3.224   0.413   0.627  0.00  0.00    +0.037 A 
ATOM      8  C   UNL     1      -3.511  -0.885   0.954  0.00  0.00    +0.139 A 
ATOM      9  C   UNL     1      -4.744  -1.380   0.566  0.00  0.00    +0.037 A 
ATOM     10  C   UNL     1      -5.571  -0.652  -0.248  0.00  0.00    +0.011 A 
BRANCH   5  12
ATOM     11  N   UNL     1      -7.564   1.042  -1.263  0.00  0.00    +0.205 NA
ATOM     12  C   UNL     1      -6.534   1.560  -0.676  0.00  0.00    +0.477 C 
ATOM     13  N   UNL     1      -6.715   2.854  -0.101  0.00  0.00    +0.205 NA
ENDBRANCH   5  12
ENDBRANCH   4   8
ENDBRANCH   3   4
ENDBRANCH   2   3
ENDBRANCH   1   2
BRANCH   1  14
ATOM     14  C   UNL     1       0.918  -0.304  -1.064  0.00  0.00    +0.047 C 
BRANCH  14  15
ATOM     15  C   UNL     1       1.909  -1.305  -1.587  0.00  0.00    +0.205 C 
BRANCH  15  16
ATOM     16  O   UNL     1       2.588  -2.009  -0.573  0.00  0.00    -0.475 OA
BRANCH  16  17
ATOM     17  C   UNL     1       3.831  -1.577  -0.096  0.00  0.00    +0.139 A 
ATOM     18  C   UNL     1       4.910  -1.389  -0.954  0.00  0.00    +0.037 A 
ATOM     19  C   UNL     1       5.785  -0.326  -0.766  0.00  0.00    +0.011 A 
ATOM     20  C   UNL     1       5.533   0.655   0.185  0.00  0.00    +0.098 A 
ATOM     21  C   UNL     1       4.724   0.237   1.235  0.00  0.00    +0.011 A 
ATOM     22  C   UNL     1       3.933  -0.899   1.113  0.00  0.00    +0.037 A 
BRANCH  20  23
ATOM     23  C   UNL     1       5.713   2.081  -0.120  0.00  0.00    +0.477 C 
ATOM     24  N   UNL     1       4.605   2.987  -0.155  0.00  0.00    +0.205 NA
ATOM     25  N   UNL     1       6.825   2.546  -0.600  0.00  0.00    +0.205 NA
ENDBRANCH  20  23
ENDBRANCH  16  17
ENDBRANCH  15  16
ENDBRANCH  14  15
ENDBRANCH   1  14
TORSDOF 10
