REMARK  Name = 
REMARK  7 active torsions:
REMARK  status: ('A' for Active; 'I' for Inactive)
REMARK    1  A    between atoms: C_2  and  C_3
REMARK    2  A    between atoms: N_10  and  C_11
REMARK    3  A    between atoms: C_11  and  C_12
REMARK    4  A    between atoms: C_12  and  C_13
REMARK    5  A    between atoms: C_16  and  S_17
REMARK    6  A    between atoms: S_17  and  N_20
REMARK    7  A    between atoms: N_23  and  C_24
REMARK                            x       y       z     vdW  Elec       q    Type
REMARK                         _______ _______ _______ _____ _____    ______ ____
ROOT
ATOM      1  C   UNL     1      -0.435  -0.248   1.720  0.00  0.00    -0.020 A 
ATOM      2  C   UNL     1      -0.397  -0.936   0.526  0.00  0.00    -0.003 A 
ATOM      3  C   UNL     1       0.390  -0.444  -0.501  0.00  0.00    +0.020 A 
ATOM      4  C   UNL     1       1.211   0.650  -0.333  0.00  0.00    +0.129 A 
ATOM      5  C   UNL     1       1.327   1.202   0.937  0.00  0.00    +0.020 A 
ATOM      6  C   UNL     1       0.292   0.921   1.820  0.00  0.00    -0.003 A 
ENDROOT
BRANCH   4   7
ATOM      7  S   UNL     1       2.634   0.718  -1.367  0.00  0.00    +0.104 S 
ATOM      8  O   UNL     1       3.141   2.135  -1.475  0.00  0.00    -0.146 OA
ATOM      9  O   UNL     1       2.227   0.203  -2.716  0.00  0.00    -0.146 OA
BRANCH   7  10
ATOM     10  N   UNL     1       3.907  -0.247  -0.721  0.00  0.00    -0.071 NA
ATOM     11  C   UNL     1       4.425  -1.251  -1.331  0.00  0.00    +0.371 C 
ATOM     12  N   UNL     1       5.678  -1.726  -0.837  0.00  0.00    -0.185 NA
ATOM     13  O   UNL     1       4.064  -1.428  -2.667  0.00  0.00    -0.244 OA
BRANCH  12  14
ATOM     14  C   UNL     1       6.257  -1.202   0.395  0.00  0.00    +0.097 C 
ATOM     15  C   UNL     1       5.627   0.135   0.666  0.00  0.00    +0.022 C 
ATOM     16  C   UNL     1       6.591   1.284   0.557  0.00  0.00    +0.002 C 
ATOM     17  C   UNL     1       7.436   1.240  -0.684  0.00  0.00    +0.000 C 
ATOM     18  C   UNL     1       6.805   1.912  -1.868  0.00  0.00    +0.000 C 
ATOM     19  C   UNL     1       7.914  -0.143  -1.033  0.00  0.00    +0.002 C 
ATOM     20  C   UNL     1       7.757  -0.990   0.225  0.00  0.00    +0.022 C 
ENDBRANCH  12  14
ENDBRANCH   7  10
ENDBRANCH   4   7
BRANCH   1  21
ATOM     21  C   UNL     1      -1.203  -0.764   2.891  0.00  0.00    +0.050 C 
BRANCH  21  22
ATOM     22  C   UNL     1      -2.292  -1.715   2.479  0.00  0.00    +0.121 C 
BRANCH  22  28
ATOM     23  C   UNL     1      -7.299   0.697  -0.039  0.00  0.00    +0.026 C 
ATOM     24  C   UNL     1      -6.623  -0.119   0.977  0.00  0.00    +0.252 C 
ATOM     25  O   UNL     1      -7.169  -0.972   1.719  0.00  0.00    -0.270 OA
ATOM     26  N   UNL     1      -5.208   0.078   0.876  0.00  0.00    -0.206 N 
ATOM     27  C   UNL     1      -4.170  -0.877   1.126  0.00  0.00    +0.329 C 
ATOM     28  N   UNL     1      -3.542  -0.985   2.409  0.00  0.00    -0.188 NA
ATOM     29  O   UNL     1      -3.928  -1.819   0.312  0.00  0.00    -0.250 OA
ATOM     30  C   UNL     1      -5.075   1.324   0.127  0.00  0.00    +0.125 C 
ATOM     31  C   UNL     1      -6.365   1.451  -0.595  0.00  0.00    -0.023 C 
ATOM     32  C   UNL     1      -6.588   2.325  -1.773  0.00  0.00    +0.028 C 
BRANCH  23  34
ATOM     33  C   UNL     1      -8.746  -0.977  -1.172  0.00  0.00    +0.005 C 
ATOM     34  C   UNL     1      -8.644   0.448  -0.648  0.00  0.00    +0.030 C 
ENDBRANCH  23  34
ENDBRANCH  22  28
ENDBRANCH  21  22
ENDBRANCH   1  21
TORSDOF 7
