REMARK  Name = 
REMARK  14 active torsions:
REMARK  status: ('A' for Active; 'I' for Inactive)
REMARK    1  A    between atoms: C_2  and  C_3
REMARK    2  A    between atoms: C_3  and  C_4
REMARK    3  A    between atoms: C_4  and  C_5
REMARK    4  A    between atoms: C_5  and  C_6
REMARK    5  A    between atoms: C_6  and  C_7
REMARK    6  A    between atoms: C_7  and  N_8
REMARK    7  A    between atoms: N_8  and  C_9
REMARK    8  A    between atoms: N_8  and  C_11
REMARK    9  A    between atoms: C_11  and  C_12
REMARK   10  A    between atoms: C_12  and  C_13
REMARK   11  A    between atoms: C_13  and  C_14
REMARK   12  A    between atoms: C_14  and  C_16
REMARK   13  A    between atoms: C_19  and  N_20
REMARK   14  A    between atoms: N_20  and  S_21
REMARK                            x       y       z     vdW  Elec       q    Type
REMARK                         _______ _______ _______ _____ _____    ______ ____
ROOT
ATOM      1  C   UNL     1       0.068  -0.018   0.649  0.00  0.00    +0.039 C 
ENDROOT
BRANCH   1   2
ATOM      2  C   UNL     1      -1.336  -0.794   1.033  0.00  0.00    +0.174 C 
ATOM      3  O   UNL     1      -0.821  -2.116   0.485  0.00  0.00    -0.218 OA
BRANCH   2   4
ATOM      4  C   UNL     1      -1.996  -0.401  -0.395  0.00  0.00    +0.008 A 
ATOM      5  C   UNL     1      -2.075   0.958  -0.637  0.00  0.00    -0.000 A 
ATOM      6  C   UNL     1      -3.191   1.458  -1.294  0.00  0.00    +0.018 A 
ATOM      7  C   UNL     1      -4.353   0.701  -1.392  0.00  0.00    +0.091 A 
ATOM      8  C   UNL     1      -4.150  -0.674  -1.346  0.00  0.00    +0.018 A 
ATOM      9  C   UNL     1      -2.990  -1.228  -0.821  0.00  0.00    -0.000 A 
BRANCH   7  10
ATOM     10  N   UNL     1      -5.643   1.278  -1.155  0.00  0.00    -0.101 NA
BRANCH  10  11
ATOM     11  S   UNL     1      -6.851   0.467  -0.219  0.00  0.00    +0.075 S 
ATOM     12  O   UNL     1      -6.106  -0.305   0.847  0.00  0.00    -0.153 OA
ATOM     13  O   UNL     1      -7.772   1.420   0.465  0.00  0.00    -0.153 OA
ATOM     14  C   UNL     1      -7.744  -0.614  -1.300  0.00  0.00    +0.202 C 
ENDBRANCH  10  11
ENDBRANCH   7  10
ENDBRANCH   2   4
ENDBRANCH   1   2
BRANCH   1  15
ATOM     15  C   UNL     1       1.181  -0.851   1.195  0.00  0.00    +0.020 C 
BRANCH  15  16
ATOM     16  C   UNL     1       2.203  -1.036   0.108  0.00  0.00    +0.072 C 
BRANCH  16  17
ATOM     17  N   UNL     1       2.874   0.147  -0.296  0.00  0.00    -0.273 NA
BRANCH  17  18
ATOM     18  C   UNL     1       2.317   1.384   0.100  0.00  0.00    +0.072 C 
ATOM     19  C   UNL     1       2.841   1.967   1.369  0.00  0.00    +0.019 C 
ENDBRANCH  17  18
BRANCH  17  20
ATOM     20  C   UNL     1       4.288   0.071  -0.403  0.00  0.00    +0.072 C 
BRANCH  20  21
ATOM     21  C   UNL     1       5.048   0.451   0.830  0.00  0.00    +0.017 C 
BRANCH  21  22
ATOM     22  C   UNL     1       5.115  -0.780   1.724  0.00  0.00    +0.001 C 
BRANCH  22  23
ATOM     23  C   UNL     1       6.306  -1.592   1.229  0.00  0.00    +0.000 C 
BRANCH  23  24
ATOM     24  C   UNL     1       7.379  -0.589   0.872  0.00  0.00    +0.000 C 
BRANCH  24  26
ATOM     25  C   UNL     1       7.808  -0.436  -1.010  0.00  0.00    +0.000 C 
ATOM     26  C   UNL     1       7.598  -0.552  -0.637  0.00  0.00    +0.000 C 
ENDBRANCH  24  26
ENDBRANCH  23  24
ENDBRANCH  22  23
ENDBRANCH  21  22
ENDBRANCH  20  21
ENDBRANCH  17  20
ENDBRANCH  16  17
ENDBRANCH  15  16
ENDBRANCH   1  15
TORSDOF 14
