REMARK  Name = 
REMARK  0 active torsions:
REMARK  status: ('A' for Active; 'I' for Inactive)
REMARK                            x       y       z     vdW  Elec       q    Type
REMARK                         _______ _______ _______ _____ _____    ______ ____
ROOT
ATOM      1  C   UNL     1       1.524  -0.700  -0.135  0.00  0.00    +0.106 C 
ATOM      2  S   UNL     1       0.010   0.081   0.426  0.00  0.00    +0.044 S 
ATOM      3  O   UNL     1      -0.111   1.478  -0.162  0.00  0.00    -0.256 OA
ATOM      4  C   UNL     1      -1.423  -0.859  -0.129  0.00  0.00    +0.106 C 
ENDROOT
TORSDOF 0
