REMARK  Name = 
REMARK  13 active torsions:
REMARK  status: ('A' for Active; 'I' for Inactive)
REMARK    1  A    between atoms: O_2  and  C_3
REMARK    2  A    between atoms: N_5  and  C_6
REMARK    3  A    between atoms: C_6  and  C_7
REMARK    4  A    between atoms: C_6  and  C_63
REMARK    5  A    between atoms: C_13  and  C_14
REMARK    6  A    between atoms: C_16  and  C_17
REMARK    7  A    between atoms: C_25  and  C_26
REMARK    8  A    between atoms: C_35  and  C_36
REMARK    9  A    between atoms: C_39  and  C_40
REMARK   10  A    between atoms: C_45  and  C_47
REMARK   11  A    between atoms: C_47  and  N_48
REMARK   12  A    between atoms: C_47  and  C_53
REMARK   13  A    between atoms: C_49  and  O_51
REMARK                            x       y       z     vdW  Elec       q    Type
REMARK                         _______ _______ _______ _____ _____    ______ ____
ROOT
ATOM      1  C   UNL     1       4.349  -1.300   0.436  0.00  0.00    +0.019 A 
ATOM      2  C   UNL     1       3.646  -0.639   1.435  0.00  0.00    +0.003 A 
ATOM      3  C   UNL     1       2.322  -1.010   1.656  0.00  0.00    +0.017 A 
ATOM      4  C   UNL     1       1.250  -0.371   2.271  0.00  0.00    +0.019 A 
ATOM      5  C   UNL     1       0.140  -0.516   1.444  0.00  0.00    +0.066 A 
ATOM      6  C   UNL     1      -1.208  -0.059   1.580  0.00  0.00    +0.050 A 
ATOM      7  C   UNL     1      -2.194  -0.586   0.778  0.00  0.00    +0.142 A 
ATOM      8  C   UNL     1      -3.475  -0.104   1.036  0.00  0.00    +0.039 A 
ATOM      9  C   UNL     1      -3.509   1.273   1.247  0.00  0.00    +0.022 A 
ATOM     10  C   UNL     1      -2.692   1.677   2.297  0.00  0.00    +0.002 A 
ATOM     11  O   UNL     1      -1.868  -1.692   0.093  0.00  0.00    -0.454 OA
ATOM     12  C   UNL     1      -0.487  -1.719  -0.660  0.00  0.00    +0.280 C 
ATOM     13  C   UNL     1      -1.469   1.026   2.406  0.00  0.00    +0.005 A 
ATOM     14  N   UNL     1       0.378  -1.540   0.686  0.00  0.00    -0.291 N 
ATOM     15  C   UNL     1       1.704  -1.823   0.711  0.00  0.00    +0.063 A 
ATOM     16  C   UNL     1       2.499  -2.740   0.034  0.00  0.00    +0.017 A 
ATOM     17  C   UNL     1       3.872  -2.571   0.138  0.00  0.00    +0.003 A 
ENDROOT
BRANCH  12  18
ATOM     18  C   UNL     1      -0.504  -0.100  -1.038  0.00  0.00    +0.040 A 
ATOM     19  C   UNL     1      -1.018  -0.058  -2.336  0.00  0.00    +0.001 A 
ATOM     20  C   UNL     1      -0.459   0.779  -3.302  0.00  0.00    -0.000 A 
ATOM     21  C   UNL     1       0.164   1.883  -2.724  0.00  0.00    -0.000 A 
ATOM     22  C   UNL     1       0.848   1.723  -1.524  0.00  0.00    -0.000 A 
ATOM     23  C   UNL     1       0.783   0.440  -0.987  0.00  0.00    +0.001 A 
ENDBRANCH  12  18
BRANCH   9  24
ATOM     24  C   UNL     1      -4.528   2.170   0.776  0.00  0.00    +0.102 A 
ATOM     25  N   UNL     1      -5.508   2.017  -0.151  0.00  0.00    -0.227 NA
ATOM     26  C   UNL     1      -6.601   2.438   0.479  0.00  0.00    +0.157 A 
ATOM     27  N   UNL     1      -6.220   3.570   1.113  0.00  0.00    -0.226 NA
ATOM     28  C   UNL     1      -4.947   3.290   1.489  0.00  0.00    +0.119 A 
BRANCH  26  29
ATOM     29  C   UNL     1      -8.088   2.398  -0.179  0.00  0.00    +0.134 C 
ATOM     30  N   UNL     1      -7.968   0.896  -0.711  0.00  0.00    -0.273 N 
ATOM     31  C   UNL     1      -9.247   0.510  -1.252  0.00  0.00    +0.246 C 
ATOM     32  O   UNL     1      -9.450   0.151  -2.411  0.00  0.00    -0.273 OA
ATOM     33  C   UNL     1      -7.318   0.198   0.354  0.00  0.00    +0.094 C 
ATOM     34  C   UNL     1      -7.789   0.818   1.644  0.00  0.00    +0.024 C 
ATOM     35  C   UNL     1      -8.766   1.880   1.254  0.00  0.00    +0.029 C 
BRANCH  31  36
ATOM     36  C   UNL     1     -10.237  -0.130  -0.120  0.00  0.00    +0.175 C 
BRANCH  36  37
ATOM     37  N   UNL     1     -11.553   0.064  -1.008  0.00  0.00    -0.161 NA
ATOM     38  C   UNL     1     -12.314   1.118  -0.398  0.00  0.00    +0.422 C 
ATOM     39  O   UNL     1     -12.511   1.131   0.857  0.00  0.00    -0.225 OA
BRANCH  38  40
ATOM     40  O   UNL     1     -13.178   1.833  -1.236  0.00  0.00    -0.429 OA
ATOM     41  C   UNL     1     -13.896   2.899  -0.616  0.00  0.00    +0.257 C 
ENDBRANCH  38  40
ENDBRANCH  36  37
BRANCH  36  42
ATOM     42  C   UNL     1      -9.915  -1.683  -0.618  0.00  0.00    +0.029 C 
ATOM     43  C   UNL     1     -10.793  -2.061  -1.708  0.00  0.00    +0.002 C 
ATOM     44  C   UNL     1     -10.031  -2.510   0.653  0.00  0.00    +0.002 C 
ENDBRANCH  36  42
ENDBRANCH  31  36
ENDBRANCH  26  29
ENDBRANCH   9  24
BRANCH   1  48
ATOM     45  C   UNL     1       7.447  -1.185  -1.204  0.00  0.00    +0.157 A 
ATOM     46  N   UNL     1       6.702  -0.491  -2.082  0.00  0.00    -0.226 NA
ATOM     47  C   UNL     1       5.576  -0.141  -1.405  0.00  0.00    +0.119 A 
ATOM     48  C   UNL     1       5.572  -0.749  -0.156  0.00  0.00    +0.102 A 
ATOM     49  N   UNL     1       6.705  -1.484  -0.161  0.00  0.00    -0.227 NA
BRANCH  45  52
ATOM     50  C   UNL     1       9.814  -1.348   0.400  0.00  0.00    +0.246 C 
ATOM     51  N   UNL     1       9.223  -2.412  -0.309  0.00  0.00    -0.273 N 
ATOM     52  C   UNL     1       8.608  -2.187  -1.762  0.00  0.00    +0.134 C 
ATOM     53  C   UNL     1       7.644  -3.541  -1.701  0.00  0.00    +0.029 C 
ATOM     54  C   UNL     1       7.992  -4.186  -0.442  0.00  0.00    +0.024 C 
ATOM     55  C   UNL     1       9.467  -3.832  -0.287  0.00  0.00    +0.094 C 
ATOM     56  O   UNL     1       9.647  -1.123   1.580  0.00  0.00    -0.273 OA
BRANCH  50  57
ATOM     57  C   UNL     1      10.498  -0.203  -0.537  0.00  0.00    +0.175 C 
BRANCH  57  58
ATOM     58  C   UNL     1      12.017  -0.492   0.074  0.00  0.00    +0.029 C 
ATOM     59  C   UNL     1      12.216  -1.977  -0.209  0.00  0.00    +0.002 C 
ATOM     60  C   UNL     1      11.994  -0.210   1.524  0.00  0.00    +0.002 C 
ENDBRANCH  57  58
BRANCH  57  62
ATOM     61  C   UNL     1       9.504   2.054  -0.177  0.00  0.00    +0.422 C 
ATOM     62  N   UNL     1      10.207   1.000   0.473  0.00  0.00    -0.161 NA
ATOM     63  O   UNL     1       9.383   2.095  -1.439  0.00  0.00    -0.225 OA
BRANCH  61  65
ATOM     64  C   UNL     1       8.385   4.203  -0.154  0.00  0.00    +0.257 C 
ATOM     65  O   UNL     1       9.187   3.239   0.473  0.00  0.00    -0.429 OA
ENDBRANCH  61  65
ENDBRANCH  57  62
ENDBRANCH  50  57
ENDBRANCH  45  52
ENDBRANCH   1  48
TORSDOF 13
