REMARK  Name = 
REMARK  8 active torsions:
REMARK  status: ('A' for Active; 'I' for Inactive)
REMARK    1  A    between atoms: C_2  and  C_4
REMARK    2  A    between atoms: C_4  and  C_5
REMARK    3  A    between atoms: C_5  and  C_6
REMARK    4  A    between atoms: C_6  and  N_7
REMARK    5  A    between atoms: C_10  and  O_11
REMARK    6  A    between atoms: O_11  and  C_12
REMARK    7  A    between atoms: C_12  and  C_13
REMARK    8  A    between atoms: C_12  and  C_20
REMARK                            x       y       z     vdW  Elec       q    Type
REMARK                         _______ _______ _______ _____ _____    ______ ____
ROOT
ATOM      1  C   UNL     1      -1.657  -0.978  -0.557  0.00  0.00    +0.177 C 
ENDROOT
BRANCH   1   2
ATOM      2  C   UNL     1      -2.923  -0.148  -1.150  0.00  0.00    +0.010 A 
ATOM      3  C   UNL     1      -3.646  -0.911  -2.067  0.00  0.00    -0.001 A 
ATOM      4  C   UNL     1      -5.037  -0.958  -1.991  0.00  0.00    +0.011 A 
ATOM      5  C   UNL     1      -5.712  -0.154  -1.078  0.00  0.00    +0.058 A 
ATOM      6 CL   UNL     1      -7.187  -0.697  -0.281  0.00  0.00    -0.082 Cl
ATOM      7  C   UNL     1      -4.971   0.927  -0.613  0.00  0.00    +0.011 A 
ATOM      8  C   UNL     1      -3.602   0.731  -0.448  0.00  0.00    -0.001 A 
ENDBRANCH   1   2
BRANCH   1   9
ATOM      9  C   UNL     1      -1.779  -0.434   0.970  0.00  0.00    +0.090 A 
ATOM     10  N   UNL     1      -1.628   0.816   1.239  0.00  0.00    -0.245 NA
ATOM     11  C   UNL     1      -1.888   1.263   2.467  0.00  0.00    +0.099 A 
ATOM     12  C   UNL     1      -2.708   0.525   3.312  0.00  0.00    +0.021 A 
ATOM     13  C   UNL     1      -3.329  -0.587   2.759  0.00  0.00    +0.003 A 
ATOM     14  C   UNL     1      -2.711  -1.183   1.672  0.00  0.00    +0.018 A 
ENDBRANCH   1   9
BRANCH   1  15
ATOM     15  O   UNL     1      -0.676   0.097  -1.004  0.00  0.00    -0.348 OA
BRANCH  15  19
ATOM     16  N   UNL     1       3.140  -0.085  -0.398  0.00  0.00    -0.273 NA
ATOM     17  C   UNL     1       2.437  -0.372   0.821  0.00  0.00    +0.075 C 
ATOM     18  C   UNL     1       1.072  -0.935   0.415  0.00  0.00    +0.047 C 
ATOM     19  C   UNL     1       0.378   0.126  -0.257  0.00  0.00    +0.119 C 
ATOM     20  C   UNL     1       1.223   1.311  -0.506  0.00  0.00    +0.047 C 
ATOM     21  C   UNL     1       2.427   0.800  -1.291  0.00  0.00    +0.075 C 
BRANCH  16  22
ATOM     22  C   UNL     1       4.452   0.478  -0.205  0.00  0.00    +0.073 C 
BRANCH  22  23
ATOM     23  C   UNL     1       5.410  -0.412  -0.989  0.00  0.00    +0.029 C 
BRANCH  23  24
ATOM     24  C   UNL     1       6.467  -0.919  -0.015  0.00  0.00    +0.115 C 
BRANCH  24  26
ATOM     25  O   UNL     1       7.147   0.552   0.721  0.00  0.00    -0.246 OA
ATOM     26  C   UNL     1       7.246   0.309   0.362  0.00  0.00    +0.365 C 
ATOM     27  O   UNL     1       8.057   0.834  -0.652  0.00  0.00    -0.246 OA
ENDBRANCH  24  26
ENDBRANCH  23  24
ENDBRANCH  22  23
ENDBRANCH  16  22
ENDBRANCH  15  19
ENDBRANCH   1  15
TORSDOF 8
