REMARK  Name = 
REMARK  8 active torsions:
REMARK  status: ('A' for Active; 'I' for Inactive)
REMARK    1  A    between atoms: C_2  and  C_4
REMARK    2  A    between atoms: C_4  and  O_5
REMARK    3  A    between atoms: O_5  and  C_6
REMARK    4  A    between atoms: C_9  and  C_10
REMARK    5  A    between atoms: C_10  and  N_11
REMARK    6  A    between atoms: N_14  and  C_15
REMARK    7  A    between atoms: N_14  and  C_23
REMARK    8  A    between atoms: C_15  and  C_16
REMARK                            x       y       z     vdW  Elec       q    Type
REMARK                         _______ _______ _______ _____ _____    ______ ____
ROOT
ATOM      1  N   UNL     1      -0.226  -0.169   1.053  0.00  0.00    -0.184 NA
ATOM      2  C   UNL     1      -1.104  -0.306  -0.059  0.00  0.00    +0.324 C 
ATOM      3  N   UNL     1      -2.527  -0.387   0.089  0.00  0.00    -0.260 N 
ATOM      4  O   UNL     1      -0.550  -0.453  -1.184  0.00  0.00    -0.251 OA
ENDROOT
BRANCH   3   5
ATOM      5  C   UNL     1      -3.204  -1.518  -0.501  0.00  0.00    +0.080 C 
ATOM      6  C   UNL     1      -4.100  -2.239   0.491  0.00  0.00    +0.037 C 
ATOM      7  C   UNL     1      -4.728  -3.399  -0.242  0.00  0.00    +0.074 C 
ATOM      8  N   UNL     1      -3.762  -4.353  -0.725  0.00  0.00    -0.271 NA
ATOM      9  C   UNL     1      -3.057  -4.948   0.383  0.00  0.00    +0.090 C 
ATOM     10  C   UNL     1      -2.903  -3.685  -1.665  0.00  0.00    +0.074 C 
ATOM     11  C   UNL     1      -2.208  -2.524  -1.022  0.00  0.00    +0.037 C 
ENDBRANCH   3   5
BRANCH   3  12
ATOM     12  C   UNL     1      -3.107   0.453   1.117  0.00  0.00    +0.122 C 
BRANCH  12  13
ATOM     13  C   UNL     1      -3.140   1.845   0.568  0.00  0.00    -0.002 A 
ATOM     14  C   UNL     1      -3.596   2.106  -0.720  0.00  0.00    -0.000 A 
ATOM     15  C   UNL     1      -4.461   3.159  -0.986  0.00  0.00    +0.029 A 
ATOM     16  C   UNL     1      -4.789   4.065   0.015  0.00  0.00    +0.140 A 
ATOM     17  F   UNL     1      -6.066   4.543   0.089  0.00  0.00    -0.204 F 
ATOM     18  C   UNL     1      -3.947   4.048   1.121  0.00  0.00    +0.029 A 
ATOM     19  C   UNL     1      -3.144   2.951   1.411  0.00  0.00    -0.000 A 
ENDBRANCH  12  13
ENDBRANCH   3  12
BRANCH   1  20
ATOM     20  C   UNL     1       0.997  -0.925   1.151  0.00  0.00    +0.143 C 
BRANCH  20  24
ATOM     21  C   UNL     1       4.876   0.349   0.159  0.00  0.00    +0.139 A 
ATOM     22  C   UNL     1       4.228   0.897   1.256  0.00  0.00    +0.037 A 
ATOM     23  C   UNL     1       2.868   0.738   1.469  0.00  0.00    +0.001 A 
ATOM     24  C   UNL     1       2.187  -0.181   0.692  0.00  0.00    -0.000 A 
ATOM     25  C   UNL     1       2.732  -0.467  -0.551  0.00  0.00    +0.001 A 
ATOM     26  C   UNL     1       4.104  -0.349  -0.731  0.00  0.00    +0.037 A 
BRANCH  21  27
ATOM     27  O   UNL     1       6.127   0.809  -0.264  0.00  0.00    -0.475 OA
BRANCH  27  28
ATOM     28  C   UNL     1       7.235   0.594   0.604  0.00  0.00    +0.205 C 
BRANCH  28  30
ATOM     29  C   UNL     1       8.548  -1.357  -0.094  0.00  0.00    +0.004 C 
ATOM     30  C   UNL     1       8.461   0.163  -0.153  0.00  0.00    +0.044 C 
ATOM     31  C   UNL     1       8.255   0.540  -1.615  0.00  0.00    +0.004 C 
ENDBRANCH  28  30
ENDBRANCH  27  28
ENDBRANCH  21  27
ENDBRANCH  20  24
ENDBRANCH   1  20
TORSDOF 8
