REMARK  Name = 
REMARK  10 active torsions:
REMARK  status: ('A' for Active; 'I' for Inactive)
REMARK    1  A    between atoms: C_2  and  N_3
REMARK    2  A    between atoms: N_3  and  C_4
REMARK    3  A    between atoms: N_3  and  C_6
REMARK    4  A    between atoms: C_6  and  C_7
REMARK    5  A    between atoms: C_8  and  C_9
REMARK    6  A    between atoms: C_9  and  O_10
REMARK    7  A    between atoms: O_10  and  C_11
REMARK    8  A    between atoms: C_11  and  C_13
REMARK    9  A    between atoms: C_13  and  C_15
REMARK   10  A    between atoms: C_13  and  C_21
REMARK                            x       y       z     vdW  Elec       q    Type
REMARK                         _______ _______ _______ _____ _____    ______ ____
ROOT
ATOM      1  C   UNL     1      -1.760   0.135   0.409  0.00  0.00    +0.233 C 
ATOM      2  O   UNL     1      -1.583   0.438   1.766  0.00  0.00    -0.210 OA
ENDROOT
BRANCH   1   3
ATOM      3  C   UNL     1      -2.426   1.328  -0.197  0.00  0.00    +0.015 A 
ATOM      4  C   UNL     1      -3.792   1.437   0.026  0.00  0.00    -0.001 A 
ATOM      5  C   UNL     1      -4.448   2.630  -0.135  0.00  0.00    -0.000 A 
ATOM      6  C   UNL     1      -3.694   3.723  -0.528  0.00  0.00    -0.000 A 
ATOM      7  C   UNL     1      -2.450   3.491  -1.102  0.00  0.00    -0.000 A 
ATOM      8  C   UNL     1      -1.732   2.345  -0.805  0.00  0.00    -0.001 A 
ENDBRANCH   1   3
BRANCH   1   9
ATOM      9  C   UNL     1      -2.708  -1.011   0.266  0.00  0.00    +0.043 C 
ATOM     10  C   UNL     1      -3.378  -1.426   1.541  0.00  0.00    +0.003 C 
ATOM     11  C   UNL     1      -4.597  -2.251   1.145  0.00  0.00    +0.000 C 
ATOM     12  C   UNL     1      -4.121  -3.451   0.336  0.00  0.00    +0.000 C 
ATOM     13  C   UNL     1      -3.383  -3.018  -0.920  0.00  0.00    +0.000 C 
ATOM     14  C   UNL     1      -2.181  -2.157  -0.546  0.00  0.00    +0.003 C 
ENDBRANCH   1   9
BRANCH   1  15
ATOM     15  C   UNL     1      -0.434  -0.119  -0.219  0.00  0.00    +0.350 C 
ATOM     16  O   UNL     1       0.295   0.809  -0.632  0.00  0.00    -0.247 OA
BRANCH  15  17
ATOM     17  O   UNL     1       0.170  -1.328   0.059  0.00  0.00    -0.432 OA
BRANCH  17  18
ATOM     18  C   UNL     1       1.473  -1.684  -0.319  0.00  0.00    +0.284 C 
BRANCH  18  20
ATOM     19  C   UNL     1       3.288   0.196  -0.145  0.00  0.00    -0.069 C 
ATOM     20  C   UNL     1       2.369  -0.575   0.054  0.00  0.00    -0.042 C 
BRANCH  19  21
ATOM     21  C   UNL     1       4.566   0.929  -0.190  0.00  0.00    +0.150 C 
BRANCH  21  22
ATOM     22  N   UNL     1       5.679   0.069   0.196  0.00  0.00    -0.262 NA
BRANCH  22  23
ATOM     23  C   UNL     1       6.915   0.600  -0.368  0.00  0.00    +0.073 C 
ATOM     24  C   UNL     1       6.984   2.092  -0.116  0.00  0.00    +0.019 C 
ENDBRANCH  22  23
BRANCH  22  26
ATOM     25  C   UNL     1       5.417  -1.925  -0.142  0.00  0.00    +0.019 C 
ATOM     26  C   UNL     1       5.533  -1.276  -0.309  0.00  0.00    +0.073 C 
ENDBRANCH  22  26
ENDBRANCH  21  22
ENDBRANCH  19  21
ENDBRANCH  18  20
ENDBRANCH  17  18
ENDBRANCH  15  17
ENDBRANCH   1  15
TORSDOF 10
