REMARK  Name = 
REMARK  9 active torsions:
REMARK  status: ('A' for Active; 'I' for Inactive)
REMARK    1  A    between atoms: C_2  and  O_3
REMARK    2  A    between atoms: O_3  and  C_4
REMARK    3  A    between atoms: C_4  and  O_6
REMARK    4  A    between atoms: O_6  and  C_7
REMARK    5  A    between atoms: C_7  and  C_8
REMARK    6  A    between atoms: C_8  and  C_10
REMARK    7  A    between atoms: C_10  and  O_11
REMARK    8  A    between atoms: O_11  and  C_12
REMARK    9  A    between atoms: C_12  and  C_14
REMARK                            x       y       z     vdW  Elec       q    Type
REMARK                         _______ _______ _______ _____ _____    ______ ____
ROOT
ATOM      1  C   UNL     1       1.744  -0.675  -0.043  0.00  0.00    +0.193 C 
ATOM      2  C   UNL     1       0.318  -0.479  -0.331  0.00  0.00    +0.043 C 
ATOM      3  C   UNL     1      -0.306  -1.265   0.963  0.00  0.00    +0.004 C 
ATOM      4  C   UNL     1      -1.742  -0.333   0.943  0.00  0.00    +0.003 C 
ATOM      5  C   UNL     1      -2.441  -1.310  -0.245  0.00  0.00    +0.038 C 
ATOM      6  C   UNL     1      -1.767  -0.340  -1.515  0.00  0.00    +0.153 C 
ATOM      7  O   UNL     1      -2.307  -1.311  -2.579  0.00  0.00    -0.223 OA
ATOM      8  C   UNL     1      -3.833  -0.518  -0.229  0.00  0.00    +0.036 C 
ATOM      9  C   UNL     1      -4.464  -0.659   1.095  0.00  0.00    -0.038 C 
ATOM     10  C   UNL     1      -5.679  -0.106   1.158  0.00  0.00    +0.034 C 
ATOM     11  C   UNL     1      -6.498   0.059  -0.052  0.00  0.00    +0.195 C 
ATOM     12  C   UNL     1      -5.971  -0.648  -1.227  0.00  0.00    +0.038 C 
ATOM     13  O   UNL     1      -7.382   0.965  -0.143  0.00  0.00    -0.287 OA
ATOM     14  C   UNL     1      -3.713  -0.586   2.387  0.00  0.00    +0.022 C 
ATOM     15  C   UNL     1      -3.683   0.897  -0.557  0.00  0.00    +0.009 C 
ATOM     16  C   UNL     1      -4.744  -1.173  -1.209  0.00  0.00    -0.020 C 
ATOM     17  C   UNL     1      -2.377  -1.222   2.138  0.00  0.00    +0.004 C 
ATOM     18  C   UNL     1       0.449  -0.204   1.962  0.00  0.00    +0.004 C 
ATOM     19  C   UNL     1       0.050   0.969  -0.147  0.00  0.00    +0.004 C 
ATOM     20  C   UNL     1      -0.312  -1.166  -1.454  0.00  0.00    +0.037 C 
ATOM     21  C   UNL     1       1.845  -0.524   1.473  0.00  0.00    +0.048 C 
ENDROOT
BRANCH   1  22
ATOM     22  C   UNL     1       2.489   0.461  -0.689  0.00  0.00    +0.230 C 
ATOM     23  O   UNL     1       2.577   0.425  -1.915  0.00  0.00    -0.288 OA
BRANCH  22  24
ATOM     24  C   UNL     1       2.665   1.683   0.114  0.00  0.00    +0.276 C 
BRANCH  24  25
ATOM     25  O   UNL     1       3.182   2.776  -0.584  0.00  0.00    -0.440 OA
BRANCH  25  26
ATOM     26  C   UNL     1       3.386   3.937   0.168  0.00  0.00    +0.317 C 
ATOM     27  O   UNL     1       3.222   3.921   1.425  0.00  0.00    -0.250 OA
BRANCH  26  28
ATOM     28  C   UNL     1       4.182   5.085  -0.359  0.00  0.00    +0.110 C 
ATOM     29  C   UNL     1       3.928   6.297   0.517  0.00  0.00    +0.012 C 
ENDBRANCH  26  28
ENDBRANCH  25  26
ENDBRANCH  24  25
ENDBRANCH  22  24
ENDBRANCH   1  22
BRANCH   1  30
ATOM     30  O   UNL     1       2.339  -1.853  -0.493  0.00  0.00    -0.418 OA
BRANCH  30  31
ATOM     31  C   UNL     1       3.737  -1.857  -0.429  0.00  0.00    +0.512 C 
ATOM     32  O   UNL     1       4.397  -0.857  -0.013  0.00  0.00    -0.203 OA
BRANCH  31  33
ATOM     33  O   UNL     1       4.509  -2.897  -0.936  0.00  0.00    -0.418 OA
BRANCH  33  35
ATOM     34  C   UNL     1       6.394  -4.378  -0.843  0.00  0.00    +0.051 C 
ATOM     35  C   UNL     1       5.807  -3.113  -0.385  0.00  0.00    +0.212 C 
ENDBRANCH  33  35
ENDBRANCH  31  33
ENDBRANCH  30  31
ENDBRANCH   1  30
TORSDOF 9
