REMARK  Name = 
REMARK  4 active torsions:
REMARK  status: ('A' for Active; 'I' for Inactive)
REMARK    1  A    between atoms: O_2  and  N_3
REMARK    2  A    between atoms: C_16  and  C_17
REMARK    3  A    between atoms: N_21  and  C_22
REMARK    4  A    between atoms: C_26  and  C_27
REMARK                            x       y       z     vdW  Elec       q    Type
REMARK                         _______ _______ _______ _____ _____    ______ ____
ROOT
ATOM      1  N   UNL     1       5.122   1.052  -0.871  0.00  0.00    -0.090 NA
ATOM      2  C   UNL     1       4.359   0.016  -0.760  0.00  0.00    +0.097 C 
ATOM      3  C   UNL     1       4.545  -0.819   0.600  0.00  0.00    +0.080 C 
ATOM      4  C   UNL     1       3.054  -0.441   1.154  0.00  0.00    +0.100 C 
ATOM      5  N   UNL     1       2.261  -0.685  -0.028  0.00  0.00    -0.286 N 
ATOM      6  C   UNL     1       0.889  -0.278  -0.004  0.00  0.00    +0.161 A 
ATOM      7  C   UNL     1       0.661   1.089   0.130  0.00  0.00    +0.172 A 
ATOM      8  F   UNL     1       1.321   1.889  -0.758  0.00  0.00    -0.201 F 
ATOM      9  C   UNL     1      -0.508   1.513   0.756  0.00  0.00    +0.039 A 
ATOM     10  C   UNL     1      -1.463   0.527   1.001  0.00  0.00    +0.076 A 
ATOM     11  C   UNL     1      -2.745   0.876   1.414  0.00  0.00    +0.206 A 
ATOM     12  C   UNL     1      -3.891   0.458   0.744  0.00  0.00    +0.136 A 
ATOM     13  C   UNL     1      -3.713  -0.677  -0.002  0.00  0.00    +0.087 A 
ATOM     14  N   UNL     1      -2.503  -1.281  -0.133  0.00  0.00    -0.313 N 
ATOM     15  O   UNL     1      -2.805   1.789   2.277  0.00  0.00    -0.286 OA
ATOM     16  C   UNL     1      -1.378  -0.696   0.343  0.00  0.00    +0.148 A 
ATOM     17  N   UNL     1      -0.138  -1.151   0.074  0.00  0.00    -0.211 NA
ATOM     18  C   UNL     1       3.023  -0.302  -1.219  0.00  0.00    +0.137 C 
ENDROOT
BRANCH  14  19
ATOM     19  C   UNL     1      -2.393  -2.307  -1.133  0.00  0.00    +0.087 C 
ATOM     20  C   UNL     1      -3.154  -3.570  -1.058  0.00  0.00    +0.025 C 
ATOM     21  C   UNL     1      -3.443  -2.534  -2.147  0.00  0.00    +0.025 C 
ENDBRANCH  14  19
BRANCH  12  22
ATOM     22  C   UNL     1      -5.034   1.373   0.613  0.00  0.00    +0.392 C 
ATOM     23  O   UNL     1      -5.683   1.706   1.809  0.00  0.00    -0.240 OA
ATOM     24  O   UNL     1      -4.820   2.388  -0.124  0.00  0.00    -0.240 OA
ENDBRANCH  12  22
BRANCH   1  26
ATOM     25  C   UNL     1       4.621   3.359  -1.337  0.00  0.00    +0.288 C 
ATOM     26  O   UNL     1       4.696   2.023  -1.718  0.00  0.00    -0.374 OA
ENDBRANCH   1  26
BRANCH   3  27
ATOM     27  C   UNL     1       4.038  -2.221  -0.083  0.00  0.00    +0.117 C 
ATOM     28  N   UNL     1       5.081  -3.095   0.459  0.00  0.00    -0.131 NA
ENDBRANCH   3  27
TORSDOF 4
