REMARK  Name = 
REMARK  2 active torsions:
REMARK  status: ('A' for Active; 'I' for Inactive)
REMARK    1  A    between atoms: N9_10  and  C1*_11
REMARK    2  A    between atoms: C4*_13  and  C5*_14
REMARK                            x       y       z     vdW  Elec       q    Type
REMARK                         _______ _______ _______ _____ _____    ______ ____
ROOT
ATOM      1  O6    I A   1       4.343  -0.883  -0.905  0.00  0.00    -0.263 OA
ATOM      2  C6    I A   1       3.657  -0.273  -0.461  0.00  0.00    +0.301 A 
ATOM      3  C5    I A   1       2.440  -0.744   0.018  0.00  0.00    +0.175 A 
ATOM      4  N7    I A   1       2.005  -1.980   0.340  0.00  0.00    -0.217 NA
ATOM      5  C8    I A   1       0.678  -1.888   0.421  0.00  0.00    +0.182 A 
ATOM      6  N9    I A   1       0.277  -0.611   0.655  0.00  0.00    -0.269 N 
ATOM      7  C4    I A   1       1.398   0.104   0.372  0.00  0.00    +0.171 A 
ATOM      8  N3    I A   1       1.680   1.423   0.489  0.00  0.00    -0.205 NA
ATOM      9  C2    I A   1       2.905   1.882   0.174  0.00  0.00    +0.203 A 
ATOM     10  N1    I A   1       3.835   1.063  -0.317  0.00  0.00    -0.184 NA
ENDROOT
BRANCH   6  11
ATOM     11  C1*   I A   1      -0.968  -0.078  -0.229  0.00  0.00    +0.241 C 
ATOM     12  C2*   I A   1      -1.955  -1.449   0.224  0.00  0.00    +0.234 C 
ATOM     13  O2*   I A   1      -1.986  -1.961  -1.201  0.00  0.00    -0.216 OA
ATOM     14  C3*   I A   1      -3.400  -0.501   0.164  0.00  0.00    +0.216 C 
ATOM     15  O3*   I A   1      -3.680  -0.681  -1.318  0.00  0.00    -0.218 OA
ATOM     16  C4*   I A   1      -2.540   0.975  -0.166  0.00  0.00    +0.183 C 
ATOM     17  O4*   I A   1      -1.559   0.693   0.980  0.00  0.00    -0.331 OA
BRANCH  16  18
ATOM     18  C5*   I A   1      -3.545   1.854   0.839  0.00  0.00    +0.214 C 
ATOM     19  O5*   I A   1      -3.583   3.054   0.139  0.00  0.00    -0.218 OA
ENDBRANCH  16  18
ENDBRANCH   6  11
TORSDOF 2
