REMARK  Name = 
REMARK  5 active torsions:
REMARK  status: ('A' for Active; 'I' for Inactive)
REMARK    1  A    between atoms: C_2  and  O_3
REMARK    2  A    between atoms: C_2  and  C_22
REMARK    3  A    between atoms: O_3  and  C_4
REMARK    4  A    between atoms: C_6  and  C_7
REMARK    5  A    between atoms: N_10  and  C_11
REMARK                            x       y       z     vdW  Elec       q    Type
REMARK                         _______ _______ _______ _____ _____    ______ ____
ROOT
ATOM      1  C   UNL     1       0.793  -0.044   0.643  0.00  0.00    +0.173 A 
ATOM      2  C   UNL     1       0.269  -1.332   0.686  0.00  0.00    +0.204 A 
ATOM      3  N   UNL     1       0.386  -2.001   1.941  0.00  0.00    -0.104 NA
ATOM      4  N   UNL     1      -0.659  -1.670  -0.244  0.00  0.00    -0.223 NA
ATOM      5  C   UNL     1      -1.188  -0.665  -0.989  0.00  0.00    +0.101 A 
ATOM      6  C   UNL     1      -1.171   0.646  -0.518  0.00  0.00    +0.025 A 
ATOM      7  C   UNL     1       0.006   0.985   0.145  0.00  0.00    +0.042 A 
ENDROOT
BRANCH   6   8
ATOM      8  C   UNL     1      -2.402   1.444  -0.409  0.00  0.00    +0.041 A 
ATOM      9  C   UNL     1      -3.503   1.216   0.411  0.00  0.00    +0.097 A 
ATOM     10  N   UNL     1      -4.650   1.374  -0.285  0.00  0.00    -0.251 N 
ATOM     11  N   UNL     1      -4.309   2.117  -1.320  0.00  0.00    -0.168 NA
ATOM     12  C   UNL     1      -2.963   2.145  -1.471  0.00  0.00    +0.122 A 
BRANCH  10  13
ATOM     13  C   UNL     1      -5.909   0.651  -0.117  0.00  0.00    +0.108 C 
ATOM     14  C   UNL     1      -5.800  -0.352   1.015  0.00  0.00    +0.043 C 
ATOM     15  C   UNL     1      -7.197  -0.916   1.246  0.00  0.00    +0.091 C 
ATOM     16  N   UNL     1      -7.867  -1.209  -0.008  0.00  0.00    -0.218 NA
ATOM     17  C   UNL     1      -6.898  -1.435  -1.050  0.00  0.00    +0.091 C 
ATOM     18  C   UNL     1      -6.296  -0.078  -1.393  0.00  0.00    +0.043 C 
ENDBRANCH  10  13
ENDBRANCH   6   8
BRANCH   1  19
ATOM     19  O   UNL     1       2.147   0.070   0.994  0.00  0.00    -0.472 OA
BRANCH  19  21
ATOM     20  C   UNL     1       3.230  -1.956   0.745  0.00  0.00    +0.052 C 
ATOM     21  C   UNL     1       3.104  -0.523  -0.066  0.00  0.00    +0.190 C 
BRANCH  21  22
ATOM     22  C   UNL     1       4.463   0.076   0.611  0.00  0.00    +0.041 A 
ATOM     23  C   UNL     1       5.546  -0.785   0.444  0.00  0.00    +0.085 A 
ATOM     24 CL   UNL     1       5.289  -2.467   0.829  0.00  0.00    -0.080 Cl
ATOM     25  C   UNL     1       6.735  -0.446  -0.138  0.00  0.00    +0.150 A 
ATOM     26  F   UNL     1       7.674  -1.359  -0.522  0.00  0.00    -0.203 F 
ATOM     27  C   UNL     1       6.955   0.851  -0.505  0.00  0.00    +0.031 A 
ATOM     28  C   UNL     1       6.002   1.781  -0.218  0.00  0.00    +0.014 A 
ATOM     29  C   UNL     1       4.737   1.350   0.110  0.00  0.00    +0.058 A 
ATOM     30 CL   UNL     1       3.479   2.532   0.046  0.00  0.00    -0.082 Cl
ENDBRANCH  21  22
ENDBRANCH  19  21
ENDBRANCH   1  19
TORSDOF 5
