REMARK  Name = 
REMARK  0 active torsions:
REMARK  status: ('A' for Active; 'I' for Inactive)
REMARK                            x       y       z     vdW  Elec       q    Type
REMARK                         _______ _______ _______ _____ _____    ______ ____
ROOT
ATOM      1  C   UNL     1      -2.639  -2.361   1.421  0.00  0.00    +0.090 C 
ATOM      2  N   UNL     1      -2.575  -2.203   0.045  0.00  0.00    -0.268 NA
ATOM      3  C   UNL     1      -2.503  -0.768  -0.178  0.00  0.00    +0.097 C 
ATOM      4  C   UNL     1      -1.125  -0.446   0.726  0.00  0.00    +0.112 C 
ATOM      5  N   UNL     1      -0.169  -0.699  -0.542  0.00  0.00    -0.289 N 
ATOM      6  C   UNL     1       1.243  -0.640  -0.293  0.00  0.00    +0.128 A 
ATOM      7  C   UNL     1       1.965   0.376   0.318  0.00  0.00    +0.014 A 
ATOM      8  C   UNL     1       1.386   1.512   1.090  0.00  0.00    +0.055 C 
ATOM      9  C   UNL     1       0.037   1.895   0.635  0.00  0.00    -0.020 A 
ATOM     10  C   UNL     1      -0.091   3.268   0.440  0.00  0.00    -0.004 A 
ATOM     11  C   UNL     1      -1.062   3.698  -0.457  0.00  0.00    -0.000 A 
ATOM     12  C   UNL     1      -1.965   2.785  -0.987  0.00  0.00    -0.000 A 
ATOM     13  C   UNL     1      -1.891   1.447  -0.623  0.00  0.00    -0.003 A 
ATOM     14  C   UNL     1       3.295   0.219   0.602  0.00  0.00    +0.000 A 
ATOM     15  C   UNL     1       3.845  -1.044   0.420  0.00  0.00    +0.020 A 
ATOM     16  C   UNL     1       3.260  -1.818  -0.571  0.00  0.00    +0.100 A 
ATOM     17  N   UNL     1       1.962  -1.600  -0.903  0.00  0.00    -0.229 NA
ATOM     18  C   UNL     1      -0.464  -1.953  -1.201  0.00  0.00    +0.110 C 
ATOM     19  C   UNL     1      -1.142   1.174   0.460  0.00  0.00    -0.007 A 
ATOM     20  C   UNL     1      -1.368  -2.844  -0.403  0.00  0.00    +0.094 C 
ENDROOT
TORSDOF 0
