REMARK  Name = 
REMARK  0 active torsions:
REMARK  status: ('A' for Active; 'I' for Inactive)
REMARK                            x       y       z     vdW  Elec       q    Type
REMARK                         _______ _______ _______ _____ _____    ______ ____
ROOT
ATOM      1  C   UNL     1       4.974  -0.617  -0.985  0.00  0.00    +0.090 C 
ATOM      2  N   UNL     1       3.630  -0.504  -0.483  0.00  0.00    -0.271 NA
ATOM      3  C   UNL     1       3.529   0.683   0.343  0.00  0.00    +0.077 C 
ATOM      4  C   UNL     1       2.071   0.916   0.722  0.00  0.00    +0.039 C 
ATOM      5  C   UNL     1       1.198  -0.191   0.297  0.00  0.00    -0.041 C 
ATOM      6  C   UNL     1      -0.065  -0.010  -0.088  0.00  0.00    -0.008 C 
ATOM      7  C   UNL     1      -0.879  -1.229  -0.147  0.00  0.00    -0.001 A 
ATOM      8  C   UNL     1      -2.199  -1.284  -0.554  0.00  0.00    -0.000 A 
ATOM      9  C   UNL     1      -2.763  -2.551  -0.601  0.00  0.00    -0.000 A 
ATOM     10  C   UNL     1      -2.179  -3.602   0.095  0.00  0.00    -0.000 A 
ATOM     11  C   UNL     1      -1.087  -3.376   0.924  0.00  0.00    -0.000 A 
ATOM     12  C   UNL     1      -3.186  -0.212  -0.691  0.00  0.00    -0.000 C 
ATOM     13  C   UNL     1      -3.054   1.078  -0.379  0.00  0.00    -0.000 C 
ATOM     14  C   UNL     1      -1.801   1.843  -0.400  0.00  0.00    -0.000 A 
ATOM     15  C   UNL     1      -2.001   3.142  -0.846  0.00  0.00    -0.000 A 
ATOM     16  C   UNL     1      -1.020   4.072  -0.540  0.00  0.00    -0.000 A 
ATOM     17  C   UNL     1       0.198   3.640  -0.090  0.00  0.00    -0.000 A 
ATOM     18  C   UNL     1       0.521   2.289  -0.080  0.00  0.00    -0.000 A 
ATOM     19  C   UNL     1      -0.325  -2.259   0.604  0.00  0.00    -0.000 A 
ATOM     20  C   UNL     1      -0.516   1.374  -0.152  0.00  0.00    -0.001 A 
ATOM     21  C   UNL     1       1.721  -1.580   0.436  0.00  0.00    +0.039 C 
ATOM     22  C   UNL     1       3.233  -1.623   0.342  0.00  0.00    +0.077 C 
ENDROOT
TORSDOF 0
