REMARK  Name = 
REMARK  4 active torsions:
REMARK  status: ('A' for Active; 'I' for Inactive)
REMARK    1  A    between atoms: C_7  and  C_8
REMARK    2  A    between atoms: C_8  and  C_9
REMARK    3  A    between atoms: C_8  and  C_15
REMARK    4  A    between atoms: C_8  and  N_21
REMARK                            x       y       z     vdW  Elec       q    Type
REMARK                         _______ _______ _______ _____ _____    ______ ____
ROOT
ATOM      1  C   UNL     1       0.101  -0.149   0.168  0.00  0.00    +0.128 C 
ENDROOT
BRANCH   1   4
ATOM      2 CL   UNL     1       0.023   1.518  -2.410  0.00  0.00    -0.082 Cl
ATOM      3  C   UNL     1       1.400   0.588  -1.832  0.00  0.00    +0.056 A 
ATOM      4  C   UNL     1       1.359   0.014  -0.581  0.00  0.00    +0.015 A 
ATOM      5  C   UNL     1       2.585  -0.128   0.060  0.00  0.00    -0.001 A 
ATOM      6  C   UNL     1       3.762  -0.048  -0.655  0.00  0.00    -0.000 A 
ATOM      7  C   UNL     1       3.759   0.160  -2.026  0.00  0.00    +0.001 A 
ATOM      8  C   UNL     1       2.573   0.630  -2.576  0.00  0.00    +0.011 A 
ENDBRANCH   1   4
BRANCH   1   9
ATOM      9  C   UNL     1      -0.687  -1.261  -0.410  0.00  0.00    +0.004 A 
ATOM     10  C   UNL     1      -1.834  -1.701   0.227  0.00  0.00    -0.002 A 
ATOM     11  C   UNL     1      -2.732  -2.572  -0.365  0.00  0.00    -0.000 A 
ATOM     12  C   UNL     1      -2.682  -2.651  -1.749  0.00  0.00    -0.000 A 
ATOM     13  C   UNL     1      -1.641  -2.068  -2.456  0.00  0.00    -0.000 A 
ATOM     14  C   UNL     1      -0.527  -1.698  -1.720  0.00  0.00    -0.002 A 
ENDBRANCH   1   9
BRANCH   1  15
ATOM     15  C   UNL     1      -0.721   1.102   0.176  0.00  0.00    +0.004 A 
ATOM     16  C   UNL     1      -2.106   1.038   0.097  0.00  0.00    -0.002 A 
ATOM     17  C   UNL     1      -2.902   2.158   0.273  0.00  0.00    -0.000 A 
ATOM     18  C   UNL     1      -2.245   3.325   0.644  0.00  0.00    -0.000 A 
ATOM     19  C   UNL     1      -0.951   3.280   1.091  0.00  0.00    -0.000 A 
ATOM     20  C   UNL     1      -0.233   2.119   0.989  0.00  0.00    -0.002 A 
ENDBRANCH   1  15
BRANCH   1  21
ATOM     21  N   UNL     1       0.385  -0.422   1.575  0.00  0.00    -0.301 N 
ATOM     22  C   UNL     1       1.204   0.275   2.386  0.00  0.00    +0.179 A 
ATOM     23  N   UNL     1       1.602  -0.587   3.354  0.00  0.00    -0.222 NA
ATOM     24  C   UNL     1       0.739  -1.623   3.340  0.00  0.00    +0.119 A 
ATOM     25  C   UNL     1      -0.231  -1.298   2.400  0.00  0.00    +0.099 A 
ENDBRANCH   1  21
TORSDOF 4
