REMARK  Name = 
REMARK  9 active torsions:
REMARK  status: ('A' for Active; 'I' for Inactive)
REMARK    1  A    between atoms: C_2  and  C_3
REMARK    2  A    between atoms: C_3  and  C_4
REMARK    3  A    between atoms: C_4  and  C_5
REMARK    4  A    between atoms: C_5  and  C_6
REMARK    5  A    between atoms: C_5  and  C_8
REMARK    6  A    between atoms: C_8  and  O_9
REMARK    7  A    between atoms: O_9  and  C_10
REMARK    8  A    between atoms: C_10  and  C_12
REMARK    9  A    between atoms: C_15  and  N_16
REMARK                            x       y       z     vdW  Elec       q    Type
REMARK                         _______ _______ _______ _____ _____    ______ ____
ROOT
ATOM      1  C   UNL     1       0.123  -0.068  -0.420  0.00  0.00    +0.341 C 
ATOM      2  O   UNL     1       0.355  -0.590  -1.553  0.00  0.00    -0.245 OA
ENDROOT
BRANCH   1   3
ATOM      3  C   UNL     1      -1.250  -0.222   0.076  0.00  0.00    +0.076 A 
ATOM      4  C   UNL     1      -2.006   0.861   0.506  0.00  0.00    +0.008 A 
ATOM      5  C   UNL     1      -3.365   0.833   0.251  0.00  0.00    +0.015 A 
ATOM      6  C   UNL     1      -3.952  -0.382  -0.014  0.00  0.00    +0.048 A 
ATOM      7  C   UNL     1      -3.229  -1.529   0.181  0.00  0.00    +0.015 A 
ATOM      8  C   UNL     1      -1.845  -1.454   0.127  0.00  0.00    +0.008 A 
BRANCH   6   9
ATOM      9  N   UNL     1      -5.381  -0.421  -0.104  0.00  0.00    -0.304 N 
ATOM     10  C   UNL     1      -6.104  -1.092   0.974  0.00  0.00    +0.112 C 
ATOM     11  C   UNL     1      -6.009   0.686  -0.784  0.00  0.00    +0.112 C 
ENDBRANCH   6   9
ENDBRANCH   1   3
BRANCH   1  12
ATOM     12  O   UNL     1       0.727   1.155  -0.161  0.00  0.00    -0.445 OA
BRANCH  12  13
ATOM     13  C   UNL     1       1.898   1.512  -0.845  0.00  0.00    +0.209 C 
BRANCH  13  14
ATOM     14  C   UNL     1       2.869   0.175  -0.742  0.00  0.00    +0.044 C 
BRANCH  14  15
ATOM     15  C   UNL     1       2.854   0.203   0.912  0.00  0.00    +0.004 C 
ATOM     16  C   UNL     1       3.118   1.613   1.317  0.00  0.00    +0.000 C 
ENDBRANCH  14  15
BRANCH  14  17
ATOM     17  C   UNL     1       4.239   1.102  -0.831  0.00  0.00    +0.004 C 
BRANCH  17  18
ATOM     18  C   UNL     1       5.258   0.376  -0.014  0.00  0.00    +0.000 C 
BRANCH  18  20
ATOM     19  C   UNL     1       6.522  -1.640   0.338  0.00  0.00    +0.000 C 
ATOM     20  C   UNL     1       5.178  -1.118  -0.114  0.00  0.00    +0.000 C 
ENDBRANCH  18  20
ENDBRANCH  17  18
ENDBRANCH  14  17
ENDBRANCH  13  14
ENDBRANCH  12  13
ENDBRANCH   1  12
TORSDOF 9
