REMARK  Name = 
REMARK  2 active torsions:
REMARK  status: ('A' for Active; 'I' for Inactive)
REMARK    1  A    between atoms: C_7  and  N_8
REMARK    2  A    between atoms: C_13  and  S_14
REMARK                            x       y       z     vdW  Elec       q    Type
REMARK                         _______ _______ _______ _____ _____    ______ ____
ROOT
ATOM      1  N   UNL     1       1.610  -0.002   0.028  0.00  0.00    -0.239 N 
ATOM      2  C   UNL     1       1.187   0.816   1.340  0.00  0.00    +0.173 C 
ATOM      3  C   UNL     1       2.561   1.770   1.264  0.00  0.00    +0.046 C 
ATOM      4  N   UNL     1       0.354   1.866   0.457  0.00  0.00    -0.219 NA
ATOM      5  C   UNL     1      -0.741   1.266  -0.234  0.00  0.00    +0.072 A 
ATOM      6  C   UNL     1      -0.791  -0.097  -0.506  0.00  0.00    +0.070 A 
ATOM      7  C   UNL     1      -1.992  -0.799  -0.532  0.00  0.00    +0.027 A 
ATOM      8  C   UNL     1      -3.158  -0.077  -0.294  0.00  0.00    +0.136 A 
ATOM      9  C   UNL     1      -3.117   1.282  -0.594  0.00  0.00    +0.078 A 
ATOM     10 CL   UNL     1      -4.645   2.086  -0.806  0.00  0.00    -0.081 Cl
ATOM     11  C   UNL     1      -1.902   1.962  -0.553  0.00  0.00    +0.029 A 
ATOM     12  C   UNL     1       0.509  -0.773  -0.448  0.00  0.00    +0.255 C 
ATOM     13  O   UNL     1       0.601  -1.925  -0.910  0.00  0.00    -0.269 OA
ENDROOT
BRANCH   1  16
ATOM     14  C   UNL     1       3.021  -0.618  -2.241  0.00  0.00    +0.032 C 
ATOM     15  C   UNL     1       3.653  -0.458  -1.096  0.00  0.00    -0.008 A 
ATOM     16  C   UNL     1       2.893  -0.575   0.065  0.00  0.00    +0.052 A 
ATOM     17  C   UNL     1       3.593  -0.837   1.237  0.00  0.00    +0.015 A 
ATOM     18  C   UNL     1       4.971  -0.657   1.319  0.00  0.00    +0.001 A 
ATOM     19  C   UNL     1       5.692  -0.359   0.172  0.00  0.00    -0.000 A 
ATOM     20  C   UNL     1       5.041  -0.477  -1.048  0.00  0.00    -0.003 A 
ENDBRANCH   1  16
BRANCH   8  21
ATOM     21  S   UNL     1      -4.501  -0.740   0.630  0.00  0.00    +0.094 S 
ATOM     22  O   UNL     1      -5.514  -1.394  -0.284  0.00  0.00    -0.150 OA
ATOM     23  O   UNL     1      -4.011  -1.757   1.613  0.00  0.00    -0.150 OA
ATOM     24  N   UNL     1      -5.312   0.497   1.542  0.00  0.00    +0.039 NA
ENDBRANCH   8  21
TORSDOF 2
