REMARK  Name = 
REMARK  8 active torsions:
REMARK  status: ('A' for Active; 'I' for Inactive)
REMARK    1  A    between atoms: C_2  and  C_4
REMARK    2  A    between atoms: C_4  and  O_5
REMARK    3  A    between atoms: O_5  and  C_6
REMARK    4  A    between atoms: C_6  and  C_7
REMARK    5  A    between atoms: C_7  and  N_8
REMARK    6  A    between atoms: N_11  and  C_12
REMARK    7  A    between atoms: C_12  and  C_13
REMARK    8  A    between atoms: C_12  and  C_19
REMARK                            x       y       z     vdW  Elec       q    Type
REMARK                         _______ _______ _______ _____ _____    ______ ____
ROOT
ATOM      1  C   UNL     1      -1.503   0.198   0.949  0.00  0.00    +0.103 C 
ENDROOT
BRANCH   1   2
ATOM      2  C   UNL     1      -2.677   0.771  -0.065  0.00  0.00    -0.004 A 
ATOM      3  C   UNL     1      -2.824   2.131   0.198  0.00  0.00    -0.002 A 
ATOM      4  C   UNL     1      -4.071   2.734   0.313  0.00  0.00    +0.011 A 
ATOM      5  C   UNL     1      -5.222   1.969   0.169  0.00  0.00    +0.058 A 
ATOM      6 CL   UNL     1      -6.774   2.487   0.824  0.00  0.00    -0.082 Cl
ATOM      7  C   UNL     1      -5.031   0.685  -0.329  0.00  0.00    +0.011 A 
ATOM      8  C   UNL     1      -3.855   0.050   0.049  0.00  0.00    -0.002 A 
ENDBRANCH   1   2
BRANCH   1   9
ATOM      9  C   UNL     1      -1.665  -1.358   0.437  0.00  0.00    -0.004 A 
ATOM     10  C   UNL     1      -1.762  -1.544  -0.897  0.00  0.00    -0.003 A 
ATOM     11  C   UNL     1      -1.942  -2.861  -1.304  0.00  0.00    -0.000 A 
ATOM     12  C   UNL     1      -2.510  -3.767  -0.431  0.00  0.00    -0.000 A 
ATOM     13  C   UNL     1      -2.780  -3.392   0.879  0.00  0.00    -0.000 A 
ATOM     14  C   UNL     1      -2.344  -2.153   1.333  0.00  0.00    -0.003 A 
ENDBRANCH   1   9
BRANCH   1  18
ATOM     15  N   UNL     1       2.481   0.925   0.312  0.00  0.00    -0.268 NA
ATOM     16  C   UNL     1       1.690   0.034   1.158  0.00  0.00    +0.090 C 
ATOM     17  C   UNL     1       0.605  -0.532   0.248  0.00  0.00    +0.090 C 
ATOM     18  N   UNL     1      -0.350   0.507  -0.133  0.00  0.00    -0.264 NA
ATOM     19  C   UNL     1       0.171   1.776   0.355  0.00  0.00    +0.090 C 
ATOM     20  C   UNL     1       1.581   1.986  -0.097  0.00  0.00    +0.090 C 
BRANCH  15  21
ATOM     21  C   UNL     1       2.945   0.260  -0.880  0.00  0.00    +0.105 C 
BRANCH  21  22
ATOM     22  C   UNL     1       3.798  -0.944  -0.590  0.00  0.00    +0.160 C 
BRANCH  22  23
ATOM     23  O   UNL     1       4.873  -0.659   0.245  0.00  0.00    -0.341 OA
BRANCH  23  24
ATOM     24  C   UNL     1       5.571   0.474  -0.134  0.00  0.00    +0.257 C 
BRANCH  24  26
ATOM     25  O   UNL     1       6.829  -0.729  -1.526  0.00  0.00    -0.243 OA
ATOM     26  C   UNL     1       6.814   0.080  -0.827  0.00  0.00    +0.394 C 
ATOM     27  O   UNL     1       7.952   0.872  -0.645  0.00  0.00    -0.243 OA
ENDBRANCH  24  26
ENDBRANCH  23  24
ENDBRANCH  22  23
ENDBRANCH  21  22
ENDBRANCH  15  21
ENDBRANCH   1  18
TORSDOF 8
