REMARK  Name = 
REMARK  7 active torsions:
REMARK  status: ('A' for Active; 'I' for Inactive)
REMARK    1  A    between atoms: C_2  and  C_3
REMARK    2  A    between atoms: C_3  and  C_4
REMARK    3  A    between atoms: C_11  and  C_12
REMARK    4  A    between atoms: C_14  and  S_15
REMARK    5  A    between atoms: S_15  and  N_18
REMARK    6  A    between atoms: C_27  and  O_28
REMARK    7  A    between atoms: O_28  and  C_29
REMARK                            x       y       z     vdW  Elec       q    Type
REMARK                         _______ _______ _______ _____ _____    ______ ____
ROOT
ATOM      1  C   UNL     1      -0.250  -1.040   0.306  0.00  0.00    +0.071 A 
ATOM      2  C   UNL     1       0.308  -2.286   0.046  0.00  0.00    +0.141 A 
ATOM      3  C   UNL     1       1.576  -2.494   0.549  0.00  0.00    +0.038 A 
ATOM      4  C   UNL     1       2.336  -1.412   0.973  0.00  0.00    +0.023 A 
ATOM      5  C   UNL     1       1.897  -0.107   0.782  0.00  0.00    +0.122 A 
ATOM      6  C   UNL     1       0.530   0.054   0.618  0.00  0.00    +0.026 A 
ENDROOT
BRANCH   1  10
ATOM      7  C   UNL     1      -4.500   1.449   0.369  0.00  0.00    +0.098 A 
ATOM      8  C   UNL     1      -3.658   0.352   0.261  0.00  0.00    +0.120 A 
ATOM      9  N   UNL     1      -2.364   0.175   0.617  0.00  0.00    -0.223 NA
ATOM     10  C   UNL     1      -1.702  -0.899   0.142  0.00  0.00    +0.169 A 
ATOM     11  N   UNL     1      -2.420  -1.853  -0.475  0.00  0.00    -0.187 NA
ATOM     12  C   UNL     1      -3.625  -1.618  -1.043  0.00  0.00    +0.299 A 
ATOM     13  O   UNL     1      -3.972  -2.233  -2.096  0.00  0.00    -0.263 OA
ATOM     14  C   UNL     1      -4.209  -0.404  -0.755  0.00  0.00    +0.154 A 
ATOM     15  N   UNL     1      -5.326   0.185  -1.224  0.00  0.00    -0.243 N 
ATOM     16  C   UNL     1      -6.034  -0.294  -2.385  0.00  0.00    +0.154 C 
ATOM     17  N   UNL     1      -5.587   1.166  -0.387  0.00  0.00    -0.172 NA
BRANCH   7  18
ATOM     18  C   UNL     1      -4.127   2.738   1.019  0.00  0.00    +0.049 C 
BRANCH  18  20
ATOM     19  C   UNL     1      -6.362   3.771   0.561  0.00  0.00    +0.000 C 
ATOM     20  C   UNL     1      -5.347   3.410   1.637  0.00  0.00    +0.006 C 
ENDBRANCH  18  20
ENDBRANCH   7  18
ENDBRANCH   1  10
BRANCH   5  21
ATOM     21  S   UNL     1       3.038   1.186   0.431  0.00  0.00    +0.063 S 
ATOM     22  O   UNL     1       2.891   1.498  -1.039  0.00  0.00    -0.153 OA
ATOM     23  O   UNL     1       2.715   2.397   1.258  0.00  0.00    -0.153 OA
BRANCH  21  24
ATOM     24  N   UNL     1       4.585   0.634   0.855  0.00  0.00    -0.153 NA
ATOM     25  C   UNL     1       5.510   1.619   1.275  0.00  0.00    +0.113 C 
ATOM     26  C   UNL     1       6.701   1.823   0.397  0.00  0.00    +0.092 C 
ATOM     27  N   UNL     1       7.304   0.607  -0.077  0.00  0.00    -0.269 NA
ATOM     28  C   UNL     1       7.999  -0.137   0.939  0.00  0.00    +0.090 C 
ATOM     29  C   UNL     1       6.283  -0.147  -0.755  0.00  0.00    +0.092 C 
ATOM     30  C   UNL     1       5.088  -0.453   0.094  0.00  0.00    +0.113 C 
ENDBRANCH  21  24
ENDBRANCH   5  21
BRANCH   2  31
ATOM     31  O   UNL     1      -0.234  -3.079  -0.970  0.00  0.00    -0.475 OA
BRANCH  31  32
ATOM     32  C   UNL     1       0.314  -3.007  -2.279  0.00  0.00    +0.206 C 
ATOM     33  C   UNL     1       0.640  -1.601  -2.695  0.00  0.00    +0.051 C 
ENDBRANCH  31  32
ENDBRANCH   2  31
TORSDOF 7
