REMARK  Name = 
REMARK  1 active torsions:
REMARK  status: ('A' for Active; 'I' for Inactive)
REMARK    1  A    between atoms: N_17  and  C_18
REMARK                            x       y       z     vdW  Elec       q    Type
REMARK                         _______ _______ _______ _____ _____    ______ ____
ROOT
ATOM      1  C   UNL     1       3.531  -2.209  -0.814  0.00  0.00    +0.033 C 
ATOM      2  C   UNL     1       2.928  -0.977  -0.256  0.00  0.00    +0.000 A 
ATOM      3  C   UNL     1       1.608  -0.663  -0.555  0.00  0.00    +0.115 A 
ATOM      4  N   UNL     1       0.873  -1.843  -0.872  0.00  0.00    -0.205 NA
ATOM      5  C   UNL     1      -0.539  -2.022  -0.719  0.00  0.00    +0.282 A 
ATOM      6  C   UNL     1      -1.585  -1.035  -0.421  0.00  0.00    +0.092 A 
ATOM      7  C   UNL     1      -1.436   0.323  -0.178  0.00  0.00    +0.149 A 
ATOM      8  N   UNL     1      -0.211   1.040  -0.260  0.00  0.00    -0.299 N 
ATOM      9  N   UNL     1      -2.382   1.002   0.516  0.00  0.00    -0.227 NA
ATOM     10  C   UNL     1      -3.308   0.329   1.241  0.00  0.00    +0.101 A 
ATOM     11  C   UNL     1      -3.534  -1.001   0.996  0.00  0.00    +0.021 A 
ATOM     12  C   UNL     1      -2.732  -1.641   0.071  0.00  0.00    +0.009 A 
ATOM     13  O   UNL     1      -0.994  -3.175  -0.985  0.00  0.00    -0.265 OA
ATOM     14  C   UNL     1       1.152   0.609  -0.328  0.00  0.00    +0.162 A 
ATOM     15  N   UNL     1       2.020   1.505   0.198  0.00  0.00    -0.225 NA
ATOM     16  C   UNL     1       3.208   1.144   0.725  0.00  0.00    +0.100 A 
ATOM     17  C   UNL     1       3.737  -0.116   0.476  0.00  0.00    +0.018 A 
ENDROOT
BRANCH   8  18
ATOM     18  C   UNL     1      -0.345   2.469  -0.185  0.00  0.00    +0.088 C 
ATOM     19  C   UNL     1      -0.390   3.123   1.160  0.00  0.00    +0.025 C 
ATOM     20  C   UNL     1      -1.602   3.137   0.189  0.00  0.00    +0.025 C 
ENDBRANCH   8  18
TORSDOF 1
