REMARK  Name = 
REMARK  7 active torsions:
REMARK  status: ('A' for Active; 'I' for Inactive)
REMARK    1  A    between atoms: C_2  and  N_3
REMARK    2  A    between atoms: N_3  and  C_4
REMARK    3  A    between atoms: N_6  and  C_7
REMARK    4  A    between atoms: C_7  and  C_8
REMARK    5  A    between atoms: C_8  and  C_9
REMARK    6  A    between atoms: C_9  and  O_10
REMARK    7  A    between atoms: C_17  and  S_18
REMARK                            x       y       z     vdW  Elec       q    Type
REMARK                         _______ _______ _______ _____ _____    ______ ____
ROOT
ATOM      1  C   UNL     1      -0.625  -1.895   0.505  0.00  0.00    +0.114 C 
ATOM      2  C   UNL     1      -1.059  -0.365   0.185  0.00  0.00    +0.022 A 
ATOM      3  C   UNL     1      -0.538   0.606   0.952  0.00  0.00    +0.150 A 
ATOM      4  S   UNL     1      -1.803   1.778   0.980  0.00  0.00    -0.048 S 
ATOM      5  C   UNL     1      -3.036   0.832   0.254  0.00  0.00    +0.155 A 
ATOM      6  S   UNL     1       1.228   0.761   0.864  0.00  0.00    +0.069 S 
ATOM      7  O   UNL     1       1.679   1.978   0.168  0.00  0.00    -0.152 OA
ATOM      8  O   UNL     1       1.782   0.572   2.231  0.00  0.00    -0.152 OA
ATOM      9  N   UNL     1       1.508  -0.699  -0.047  0.00  0.00    -0.153 NA
ATOM     10  C   UNL     1      -2.337  -0.214  -0.226  0.00  0.00    +0.026 A 
ATOM     11  C   UNL     1       0.967  -1.628   0.809  0.00  0.00    +0.118 C 
ENDROOT
BRANCH   5  12
ATOM     12  S   UNL     1      -4.573   1.438  -0.368  0.00  0.00    +0.099 S 
ATOM     13  O   UNL     1      -4.347   2.064  -1.709  0.00  0.00    -0.150 OA
ATOM     14  O   UNL     1      -5.125   2.397   0.630  0.00  0.00    -0.150 OA
ATOM     15  N   UNL     1      -5.648   0.110  -0.504  0.00  0.00    +0.040 NA
ENDBRANCH   5  12
BRANCH   1  16
ATOM     16  N   UNL     1      -0.344  -2.221  -1.014  0.00  0.00    -0.214 NA
BRANCH  16  18
ATOM     17  C   UNL     1       0.343  -3.820  -0.391  0.00  0.00    +0.020 C 
ATOM     18  C   UNL     1       0.186  -3.575  -0.818  0.00  0.00    +0.089 C 
ENDBRANCH  16  18
ENDBRANCH   1  16
BRANCH   9  19
ATOM     19  C   UNL     1       2.696  -0.801  -0.731  0.00  0.00    +0.098 C 
BRANCH  19  20
ATOM     20  C   UNL     1       3.911  -0.596   0.125  0.00  0.00    +0.051 C 
BRANCH  20  21
ATOM     21  C   UNL     1       5.099  -0.088  -0.537  0.00  0.00    +0.144 C 
BRANCH  21  22
ATOM     22  O   UNL     1       5.348   1.197  -0.714  0.00  0.00    -0.351 OA
ATOM     23  C   UNL     1       4.689   2.173  -0.067  0.00  0.00    +0.174 C 
ENDBRANCH  21  22
ENDBRANCH  20  21
ENDBRANCH  19  20
ENDBRANCH   9  19
TORSDOF 7
