REMARK  Name = 
REMARK  10 active torsions:
REMARK  status: ('A' for Active; 'I' for Inactive)
REMARK    1  A    between atoms: C_2  and  C_3
REMARK    2  A    between atoms: C_3  and  C_4
REMARK    3  A    between atoms: C_4  and  C_5
REMARK    4  A    between atoms: C_5  and  C_6
REMARK    5  A    between atoms: C_6  and  C_8
REMARK    6  A    between atoms: C_8  and  C_9
REMARK    7  A    between atoms: C_9  and  C_10
REMARK    8  A    between atoms: C_21  and  O_22
REMARK    9  A    between atoms: O_22  and  C_23
REMARK   10  A    between atoms: C_23  and  C_24
REMARK                            x       y       z     vdW  Elec       q    Type
REMARK                         _______ _______ _______ _____ _____    ______ ____
ROOT
ATOM      1  C   UNL     1       1.544  -0.469   0.413  0.00  0.00    +0.031 C 
ATOM      2  C   UNL     1       0.216  -0.690  -0.599  0.00  0.00    +0.007 C 
ATOM      3  C   UNL     1      -0.269   0.942  -0.514  0.00  0.00    +0.007 C 
ATOM      4  C   UNL     1      -1.825   0.660  -0.904  0.00  0.00    +0.029 C 
ATOM      5  C   UNL     1      -2.509  -0.023   0.172  0.00  0.00    +0.008 A 
ATOM      6  C   UNL     1      -3.888   0.164   0.227  0.00  0.00    +0.135 A 
ATOM      7  C   UNL     1      -4.696  -0.868   0.690  0.00  0.00    +0.037 A 
ATOM      8  C   UNL     1      -4.176  -2.060   1.158  0.00  0.00    +0.003 A 
ATOM      9  C   UNL     1      -2.795  -2.200   1.101  0.00  0.00    -0.004 A 
ATOM     10  C   UNL     1      -2.035  -1.330   0.323  0.00  0.00    -0.023 A 
ATOM     11  C   UNL     1      -0.390   0.848   1.122  0.00  0.00    +0.033 C 
ATOM     12  C   UNL     1      -0.612  -1.289   0.659  0.00  0.00    +0.026 C 
ATOM     13  C   UNL     1       1.217   1.166   0.798  0.00  0.00    +0.152 C 
ATOM     14  O   UNL     1       1.617   0.943   2.261  0.00  0.00    -0.223 OA
ENDROOT
BRANCH   1  15
ATOM     15  C   UNL     1       2.501  -0.044  -0.818  0.00  0.00    +0.005 C 
BRANCH  15  16
ATOM     16  C   UNL     1       3.332  -1.289  -1.127  0.00  0.00    +0.033 C 
BRANCH  16  17
ATOM     17  C   UNL     1       4.288  -1.291   0.250  0.00  0.00    +0.152 C 
ATOM     18  O   UNL     1       3.631  -2.594   0.748  0.00  0.00    -0.223 OA
BRANCH  17  19
ATOM     19  C   UNL     1       5.493  -2.151  -0.530  0.00  0.00    +0.033 C 
BRANCH  19  20
ATOM     20  C   UNL     1       6.784  -1.627   0.074  0.00  0.00    +0.003 C 
BRANCH  20  21
ATOM     21  C   UNL     1       6.576  -0.308   0.718  0.00  0.00    +0.000 C 
BRANCH  21  23
ATOM     22  C   UNL     1       7.057   1.940   0.530  0.00  0.00    +0.000 C 
ATOM     23  C   UNL     1       7.669   0.692   0.535  0.00  0.00    +0.000 C 
ENDBRANCH  21  23
ENDBRANCH  20  21
ENDBRANCH  19  20
ENDBRANCH  17  19
ENDBRANCH  16  17
ENDBRANCH  15  16
ENDBRANCH   1  15
BRANCH   6  24
ATOM     24  O   UNL     1      -4.533   1.107  -0.579  0.00  0.00    -0.464 OA
BRANCH  24  25
ATOM     25  C   UNL     1      -4.633   2.415  -0.025  0.00  0.00    +0.319 C 
BRANCH  25  26
ATOM     26  C   UNL     1      -6.107   2.650   0.130  0.00  0.00    +0.408 C 
ATOM     27  O   UNL     1      -6.787   2.839  -1.079  0.00  0.00    -0.241 OA
ATOM     28  O   UNL     1      -6.672   1.865   0.953  0.00  0.00    -0.241 OA
ENDBRANCH  25  26
ENDBRANCH  24  25
ENDBRANCH   6  24
TORSDOF 10
