REMARK  Name = 
REMARK  1 active torsions:
REMARK  status: ('A' for Active; 'I' for Inactive)
REMARK    1  A    between atoms: C_14  and  C_15
REMARK                            x       y       z     vdW  Elec       q    Type
REMARK                         _______ _______ _______ _____ _____    ______ ____
ROOT
ATOM      1  C   UNL     1       4.323   0.416  -0.134  0.00  0.00    +0.074 C 
ATOM      2  C   UNL     1       3.534  -0.831  -0.383  0.00  0.00    +0.147 A 
ATOM      3  N   UNL     1       2.193  -0.834  -0.577  0.00  0.00    -0.279 N 
ATOM      4  C   UNL     1       1.374   0.330  -0.733  0.00  0.00    +0.068 A 
ATOM      5  C   UNL     1       0.027   0.508  -0.438  0.00  0.00    +0.034 A 
ATOM      6  C   UNL     1      -0.876  -0.524   0.068  0.00  0.00    +0.078 C 
ATOM      7  N   UNL     1      -0.583  -1.753   0.374  0.00  0.00    -0.262 NA
ATOM      8  C   UNL     1       0.400  -2.627  -0.259  0.00  0.00    +0.191 C 
ATOM      9  C   UNL     1      -0.534   1.770  -0.300  0.00  0.00    +0.014 A 
ATOM     10  C   UNL     1       0.283   2.864  -0.397  0.00  0.00    +0.058 A 
ATOM     11 CL   UNL     1      -0.358   4.433   0.051  0.00  0.00    -0.082 Cl
ATOM     12  C   UNL     1       1.663   2.702  -0.419  0.00  0.00    +0.013 A 
ATOM     13  C   UNL     1       2.149   1.475  -0.856  0.00  0.00    +0.019 A 
ATOM     14  C   UNL     1       1.764  -2.055  -0.174  0.00  0.00    +0.172 A 
ATOM     15  N   UNL     1       2.753  -2.690   0.499  0.00  0.00    -0.131 NA
ATOM     16  N   UNL     1       3.850  -2.026   0.166  0.00  0.00    -0.133 NA
ENDROOT
BRANCH   6  17
ATOM     17  C   UNL     1      -2.283  -0.120   0.138  0.00  0.00    +0.017 A 
ATOM     18  C   UNL     1      -2.833   0.255   1.353  0.00  0.00    +0.001 A 
ATOM     19  C   UNL     1      -4.214   0.340   1.463  0.00  0.00    +0.000 A 
ATOM     20  C   UNL     1      -5.031  -0.118   0.436  0.00  0.00    +0.000 A 
ATOM     21  C   UNL     1      -4.471  -0.886  -0.577  0.00  0.00    +0.000 A 
ATOM     22  C   UNL     1      -3.130  -0.630  -0.839  0.00  0.00    +0.001 A 
ENDBRANCH   6  17
TORSDOF 1
