REMARK  Name = 
REMARK  6 active torsions:
REMARK  status: ('A' for Active; 'I' for Inactive)
REMARK    1  A    between atoms: C_4  and  C_5
REMARK    2  A    between atoms: C_15  and  C_16
REMARK    3  A    between atoms: C_16  and  C_18
REMARK    4  A    between atoms: C_18  and  C_19
REMARK    5  A    between atoms: C_19  and  C_20
REMARK    6  A    between atoms: C_20  and  C_21
REMARK                            x       y       z     vdW  Elec       q    Type
REMARK                         _______ _______ _______ _____ _____    ______ ____
ROOT
ATOM      1  C   UNL     1       2.320  -1.397   0.505  0.00  0.00    -0.009 C 
ATOM      2  C   UNL     1       1.260  -1.834  -0.207  0.00  0.00    -0.045 C 
ATOM      3  C   UNL     1       0.036  -2.071   0.816  0.00  0.00    +0.018 C 
ATOM      4  C   UNL     1      -0.473  -3.489   0.180  0.00  0.00    +0.004 C 
ATOM      5  C   UNL     1      -1.987  -3.403   0.387  0.00  0.00    +0.000 C 
ATOM      6  C   UNL     1      -2.143  -1.922   1.039  0.00  0.00    +0.000 C 
ATOM      7  C   UNL     1      -1.133  -1.315  -0.066  0.00  0.00    +0.003 C 
ATOM      8  C   UNL     1      -1.238  -1.879  -1.342  0.00  0.00    +0.000 C 
ATOM      9  C   UNL     1      -0.749   0.052   0.257  0.00  0.00    +0.001 C 
ATOM     10  C   UNL     1       0.344   0.365  -0.690  0.00  0.00    +0.004 C 
ATOM     11  C   UNL     1       1.052  -0.823  -1.280  0.00  0.00    +0.022 C 
ENDROOT
BRANCH   1  21
ATOM     12  C   UNL     1       2.863   0.650   1.653  0.00  0.00    -0.002 C 
ATOM     13  C   UNL     1       3.646   0.917   0.999  0.00  0.00    +0.004 C 
ATOM     14  C   UNL     1       3.884   2.427   0.441  0.00  0.00    +0.176 C 
ATOM     15  O   UNL     1       3.546   3.054   1.789  0.00  0.00    -0.218 OA
ATOM     16  C   UNL     1       5.494   2.381   0.783  0.00  0.00    +0.071 C 
ATOM     17  C   UNL     1       5.983   0.918   0.200  0.00  0.00    +0.159 C 
ATOM     18  O   UNL     1       7.032   1.580  -0.681  0.00  0.00    -0.223 OA
ATOM     19  C   UNL     1       4.921   0.833  -1.069  0.00  0.00    +0.059 C 
ATOM     20  C   UNL     1       3.810   0.193  -0.286  0.00  0.00    -0.021 C 
ATOM     21  C   UNL     1       3.545  -1.090  -0.261  0.00  0.00    -0.005 C 
ENDBRANCH   1  21
BRANCH   6  22
ATOM     22  C   UNL     1      -3.645  -1.475   0.361  0.00  0.00    +0.000 C 
ATOM     23  C   UNL     1      -3.676  -2.444  -0.936  0.00  0.00    +0.000 C 
BRANCH  22  24
ATOM     24  C   UNL     1      -3.159  -0.187  -0.505  0.00  0.00    +0.000 C 
BRANCH  24  25
ATOM     25  C   UNL     1      -4.405   0.212  -1.224  0.00  0.00    +0.003 C 
BRANCH  25  26
ATOM     26  C   UNL     1      -5.389   0.464  -0.086  0.00  0.00    +0.030 C 
BRANCH  26  27
ATOM     27  C   UNL     1      -5.383   1.947   0.179  0.00  0.00    +0.127 C 
ATOM     28  O   UNL     1      -5.072   2.262   1.500  0.00  0.00    -0.226 OA
ATOM     29  C   UNL     1      -4.463   2.684  -0.760  0.00  0.00    +0.033 C 
ATOM     30  C   UNL     1      -6.823   2.391  -0.059  0.00  0.00    +0.033 C 
ENDBRANCH  26  27
ENDBRANCH  25  26
ENDBRANCH  24  25
ENDBRANCH  22  24
ENDBRANCH   6  22
TORSDOF 6
