REMARK  Name = 
REMARK  0 active torsions:
REMARK  status: ('A' for Active; 'I' for Inactive)
REMARK                            x       y       z     vdW  Elec       q    Type
REMARK                         _______ _______ _______ _____ _____    ______ ____
ROOT
ATOM      1  O   UNL     1      -1.353  -0.669  -0.825  0.00  0.00    +0.000 OA
ATOM      2 SI   UNL     1       0.017  -0.011  -0.022  0.00  0.00    +0.000 Si
ATOM      3  O   UNL     1       0.286   1.601  -0.541  0.00  0.00    +0.000 OA
ATOM      4  O   UNL     1       1.421  -0.975  -0.268  0.00  0.00    +0.000 OA
ATOM      5  O   UNL     1      -0.371   0.054   1.655  0.00  0.00    +0.000 OA
ENDROOT
TORSDOF 0
