REMARK  Name = 
REMARK  10 active torsions:
REMARK  status: ('A' for Active; 'I' for Inactive)
REMARK    1  A    between atoms: C_2  and  C_3
REMARK    2  A    between atoms: C_3  and  C_4
REMARK    3  A    between atoms: C_4  and  C_5
REMARK    4  A    between atoms: C_5  and  C_6
REMARK    5  A    between atoms: C_6  and  C_8
REMARK    6  A    between atoms: C_9  and  C_10
REMARK    7  A    between atoms: C_17  and  C_18
REMARK    8  A    between atoms: C_18  and  C_19
REMARK    9  A    between atoms: C_19  and  C_20
REMARK   10  A    between atoms: C_20  and  C_21
REMARK                            x       y       z     vdW  Elec       q    Type
REMARK                         _______ _______ _______ _____ _____    ______ ____
ROOT
ATOM      1  C   UNL     1       0.473   1.080   1.598  0.00  0.00    +0.056 C 
ATOM      2  C   UNL     1      -0.134  -0.255   0.844  0.00  0.00    +0.054 C 
ATOM      3  C   UNL     1      -0.338   0.264  -0.745  0.00  0.00    +0.169 C 
ATOM      4  O   UNL     1      -1.890   0.248  -0.698  0.00  0.00    -0.484 OA
ATOM      5  C   UNL     1      -2.027  -0.961  -0.008  0.00  0.00    +0.112 C 
ATOM      6  C   UNL     1      -2.773  -1.998  -0.155  0.00  0.00    +0.006 C 
ATOM      7  C   UNL     1      -0.167   1.826  -0.658  0.00  0.00    +0.077 C 
ATOM      8  C   UNL     1      -1.682  -0.266   1.283  0.00  0.00    +0.068 C 
ATOM      9  C   UNL     1      -0.314   2.358   0.826  0.00  0.00    +0.160 C 
ATOM     10  O   UNL     1      -1.748   1.916   1.038  0.00  0.00    -0.223 OA
ENDROOT
BRANCH   1  12
ATOM     11  C   UNL     1       2.414   0.172   0.177  0.00  0.00    +0.002 C 
ATOM     12  C   UNL     1       1.767   1.073   0.664  0.00  0.00    -0.026 C 
BRANCH  11  13
ATOM     13  C   UNL     1       3.074  -1.186   0.746  0.00  0.00    +0.174 C 
ATOM     14  O   UNL     1       2.225  -2.032  -0.197  0.00  0.00    -0.218 OA
BRANCH  13  15
ATOM     15  C   UNL     1       4.315  -1.165  -0.341  0.00  0.00    +0.037 C 
BRANCH  15  16
ATOM     16  C   UNL     1       4.995   0.036   0.300  0.00  0.00    +0.003 C 
BRANCH  16  17
ATOM     17  C   UNL     1       6.459  -0.396   0.326  0.00  0.00    +0.000 C 
BRANCH  17  19
ATOM     18  C   UNL     1       8.509   0.285  -0.678  0.00  0.00    +0.000 C 
ATOM     19  C   UNL     1       7.154   0.809  -0.306  0.00  0.00    +0.000 C 
ENDBRANCH  17  19
ENDBRANCH  16  17
ENDBRANCH  15  16
ENDBRANCH  13  15
ENDBRANCH  11  13
ENDBRANCH   1  12
BRANCH   6  20
ATOM     20  C   UNL     1      -3.895  -1.949  -1.132  0.00  0.00    +0.029 C 
BRANCH  20  21
ATOM     21  C   UNL     1      -5.146  -1.785  -0.307  0.00  0.00    +0.017 C 
BRANCH  21  22
ATOM     22  C   UNL     1      -5.732  -0.423  -0.648  0.00  0.00    +0.114 C 
BRANCH  22  23
ATOM     23  C   UNL     1      -5.327   0.511   0.428  0.00  0.00    +0.365 C 
ATOM     24  O   UNL     1      -5.123   0.136   1.700  0.00  0.00    -0.246 OA
ATOM     25  O   UNL     1      -5.089   1.703   0.110  0.00  0.00    -0.246 OA
ENDBRANCH  22  23
ENDBRANCH  21  22
ENDBRANCH  20  21
ENDBRANCH   6  20
TORSDOF 10
