REMARK  Name = 
REMARK  4 active torsions:
REMARK  status: ('A' for Active; 'I' for Inactive)
REMARK    1  A    between atoms: C_2  and  C_5
REMARK    2  A    between atoms: C_7  and  C_8
REMARK    3  A    between atoms: C_12  and  N_13
REMARK    4  A    between atoms: C_14  and  C_16
REMARK                            x       y       z     vdW  Elec       q    Type
REMARK                         _______ _______ _______ _____ _____    ______ ____
ROOT
ATOM      1  C   UNL     1      -3.950   0.068   0.119  0.00  0.00    +0.016 A 
ATOM      2  C   UNL     1      -3.505  -0.557   1.277  0.00  0.00    +0.193 A 
ATOM      3  O   UNL     1      -4.365  -0.637   2.376  0.00  0.00    -0.287 OA
ATOM      4  C   UNL     1      -2.127  -0.642   1.430  0.00  0.00    +0.058 A 
ATOM      5  C   UNL     1      -1.285   0.045   0.565  0.00  0.00    +0.073 A 
ATOM      6  C   UNL     1      -1.789   1.007  -0.302  0.00  0.00    -0.008 A 
ATOM      7  C   UNL     1      -3.129   0.874  -0.646  0.00  0.00    -0.004 A 
ENDROOT
BRANCH   1   9
ATOM      8  C   UNL     1      -5.611   0.317  -1.700  0.00  0.00    +0.004 C 
ATOM      9  C   UNL     1      -5.361  -0.210  -0.292  0.00  0.00    +0.022 C 
ATOM     10  C   UNL     1      -6.315   0.452   0.663  0.00  0.00    +0.004 C 
ATOM     11  C   UNL     1      -5.563  -1.715  -0.364  0.00  0.00    +0.004 C 
ENDBRANCH   1   9
BRANCH   6  12
ATOM     12  C   UNL     1      -1.046   2.274  -0.543  0.00  0.00    +0.020 C 
ATOM     13  C   UNL     1      -1.762   2.987  -1.684  0.00  0.00    +0.004 C 
ATOM     14  C   UNL     1      -1.102   3.191   0.671  0.00  0.00    +0.004 C 
ATOM     15  C   UNL     1       0.371   2.032  -1.001  0.00  0.00    +0.004 C 
ENDBRANCH   6  12
BRANCH   5  16
ATOM     16  N   UNL     1       0.115  -0.127   0.580  0.00  0.00    -0.176 NA
ATOM     17  C   UNL     1       0.713  -1.421   0.443  0.00  0.00    +0.274 C 
ATOM     18  O   UNL     1       0.048  -2.271  -0.221  0.00  0.00    -0.268 OA
BRANCH  17  19
ATOM     19  C   UNL     1       2.170  -1.592   0.523  0.00  0.00    +0.113 A 
ATOM     20  C   UNL     1       2.937  -0.559   1.051  0.00  0.00    +0.203 A 
ATOM     21  O   UNL     1       2.433   0.160   1.959  0.00  0.00    -0.286 OA
ATOM     22  C   UNL     1       4.234  -0.354   0.594  0.00  0.00    +0.057 A 
ATOM     23  C   UNL     1       4.686  -1.042  -0.526  0.00  0.00    +0.084 A 
ATOM     24  C   UNL     1       5.401  -0.415  -1.539  0.00  0.00    +0.019 A 
ATOM     25  C   UNL     1       6.032   0.774  -1.198  0.00  0.00    +0.002 A 
ATOM     26  C   UNL     1       5.960   1.261   0.101  0.00  0.00    +0.000 A 
ATOM     27  N   UNL     1       4.100  -2.250  -0.717  0.00  0.00    -0.243 NA
ATOM     28  C   UNL     1       4.862   0.859   0.848  0.00  0.00    +0.005 A 
ATOM     29  C   UNL     1       2.845  -2.508  -0.274  0.00  0.00    +0.107 A 
ENDBRANCH  17  19
ENDBRANCH   5  16
TORSDOF 4
