REMARK  Name = 
REMARK  3 active torsions:
REMARK  status: ('A' for Active; 'I' for Inactive)
REMARK    1  A    between atoms: C_17  and  O_18
REMARK    2  A    between atoms: O_18  and  C_19
REMARK    3  A    between atoms: C_32  and  C_33
REMARK                            x       y       z     vdW  Elec       q    Type
REMARK                         _______ _______ _______ _____ _____    ______ ____
ROOT
ATOM      1  C   UNL     1       6.680  -5.625  -0.970  0.00  0.00    +0.007 C 
ATOM      2  C   UNL     1       6.582  -4.496   0.191  0.00  0.00    +0.053 C 
ATOM      3  C   UNL     1       7.355  -3.319  -0.770  0.00  0.00    +0.159 C 
ATOM      4  O   UNL     1       8.565  -4.188  -0.960  0.00  0.00    -0.223 OA
ATOM      5  C   UNL     1       8.071  -2.580   0.575  0.00  0.00    +0.071 C 
ATOM      6  C   UNL     1       9.244  -1.953  -0.325  0.00  0.00    +0.006 C 
ATOM      7  C   UNL     1       6.935  -1.316   0.537  0.00  0.00    +0.171 C 
ATOM      8  C   UNL     1       7.404  -0.804   2.023  0.00  0.00    +0.047 C 
ATOM      9  O   UNL     1       7.805  -0.269  -0.165  0.00  0.00    -0.452 OA
ATOM     10  C   UNL     1       7.164   0.746  -0.817  0.00  0.00    +0.319 C 
ATOM     11  O   UNL     1       6.853   0.787  -2.040  0.00  0.00    -0.250 OA
ATOM     12  C   UNL     1       6.282   1.454   0.121  0.00  0.00    +0.142 C 
ATOM     13  C   UNL     1       7.302   2.348   1.053  0.00  0.00    +0.166 C 
ATOM     14  O   UNL     1       7.900   3.048  -0.154  0.00  0.00    -0.222 OA
ATOM     15  C   UNL     1       6.166   3.503   1.325  0.00  0.00    +0.066 C 
ATOM     16  C   UNL     1       5.695   3.898  -0.198  0.00  0.00    +0.157 C 
ATOM     17  O   UNL     1       4.481   2.992  -0.123  0.00  0.00    -0.223 OA
ATOM     18  C   UNL     1       4.831   5.183   0.365  0.00  0.00    +0.066 C 
ATOM     19  C   UNL     1       3.905   5.378  -0.983  0.00  0.00    +0.155 C 
ATOM     20  O   UNL     1       2.828   4.456  -0.445  0.00  0.00    -0.223 OA
ATOM     21  C   UNL     1       3.177   6.709  -0.340  0.00  0.00    +0.036 C 
ATOM     22  C   UNL     1       1.743   6.589  -0.749  0.00  0.00    +0.038 C 
ATOM     23  C   UNL     1       1.077   5.907   0.580  0.00  0.00    +0.183 C 
ATOM     24  O   UNL     1       1.075   7.234   1.298  0.00  0.00    -0.220 OA
ATOM     25  C   UNL     1      -0.579   6.103   0.159  0.00  0.00    +0.189 C 
ATOM     26  O   UNL     1      -0.401   6.485  -1.282  0.00  0.00    -0.220 OA
ATOM     27  C   UNL     1      -0.726   4.517  -0.245  0.00  0.00    +0.100 C 
ATOM     28  C   UNL     1      -1.988   4.076   0.360  0.00  0.00    +0.156 C 
ATOM     29  O   UNL     1      -2.353   4.728   1.341  0.00  0.00    -0.296 OA
ATOM     30  C   UNL     1      -3.198   3.606  -0.349  0.00  0.00    +0.098 C 
ATOM     31  C   UNL     1      -3.869   2.670   0.822  0.00  0.00    +0.172 C 
ATOM     32  O   UNL     1      -4.724   3.799   1.347  0.00  0.00    -0.222 OA
ATOM     33  C   UNL     1      -5.073   2.000  -0.199  0.00  0.00    +0.164 C 
ATOM     34  C   UNL     1      -4.016   1.711  -1.510  0.00  0.00    +0.168 C 
ATOM     35  O   UNL     1      -3.021   0.991  -0.634  0.00  0.00    -0.222 OA
ATOM     36  C   UNL     1      -4.753   0.350  -2.036  0.00  0.00    +0.068 C 
ATOM     37  C   UNL     1      -4.805  -0.638  -0.729  0.00  0.00    +0.142 C 
ATOM     38  C   UNL     1      -3.468  -1.445  -1.177  0.00  0.00    +0.003 C 
ATOM     39  C   UNL     1      -2.712  -1.896  -0.235  0.00  0.00    -0.002 C 
ATOM     40  C   UNL     1      -2.785  -3.089   0.538  0.00  0.00    -0.000 C 
ATOM     41  C   UNL     1      -3.571  -4.040   0.024  0.00  0.00    -0.000 C 
ATOM     42  C   UNL     1      -2.910  -5.274  -0.435  0.00  0.00    -0.000 C 
ATOM     43  C   UNL     1      -1.660  -5.057  -0.856  0.00  0.00    -0.000 C 
ATOM     44  C   UNL     1      -0.776  -5.447   0.258  0.00  0.00    -0.005 C 
ATOM     45  C   UNL     1      -0.498  -6.746   0.121  0.00  0.00    -0.026 C 
ATOM     46  C   UNL     1       0.843  -7.022  -0.487  0.00  0.00    +0.031 C 
ATOM     47  C   UNL     1       1.697  -5.820  -0.205  0.00  0.00    +0.031 C 
ATOM     48  C   UNL     1       3.074  -6.236  -0.070  0.00  0.00    -0.026 C 
ATOM     49  C   UNL     1       4.162  -5.929  -0.542  0.00  0.00    -0.005 C 
ATOM     50  C   UNL     1       4.100  -4.514  -0.093  0.00  0.00    -0.005 C 
ATOM     51  C   UNL     1       5.151  -4.028  -0.306  0.00  0.00    -0.024 C 
ENDROOT
BRANCH  33  52
ATOM     52  C   UNL     1      -5.651   3.353  -0.752  0.00  0.00    +0.369 C 
ATOM     53  O   UNL     1      -6.787   3.789  -0.079  0.00  0.00    -0.245 OA
ATOM     54  O   UNL     1      -5.268   3.914  -1.750  0.00  0.00    -0.245 OA
ENDBRANCH  33  52
BRANCH  37  55
ATOM     55  O   UNL     1      -5.634  -1.650  -1.497  0.00  0.00    -0.327 OA
BRANCH  55  56
ATOM     56  C   UNL     1      -7.037  -1.363  -0.980  0.00  0.00    +0.268 C 
ATOM     57  C   UNL     1      -7.468  -3.026  -0.885  0.00  0.00    +0.228 C 
ATOM     58  O   UNL     1      -6.176  -3.533  -0.300  0.00  0.00    -0.216 OA
ATOM     59  C   UNL     1      -8.307  -3.089   0.591  0.00  0.00    +0.160 C 
ATOM     60  N   UNL     1      -7.189  -2.857   1.652  0.00  0.00    -0.127 NA
ATOM     61  C   UNL     1      -9.076  -1.582   0.662  0.00  0.00    +0.199 C 
ATOM     62  O   UNL     1      -9.430  -1.596  -0.805  0.00  0.00    -0.219 OA
ATOM     63  C   UNL     1      -7.845  -0.421   0.483  0.00  0.00    +0.150 C 
ATOM     64  C   UNL     1      -7.769  -0.181   2.107  0.00  0.00    +0.035 C 
ATOM     65  O   UNL     1      -6.621  -1.294   0.477  0.00  0.00    -0.328 OA
ENDBRANCH  55  56
ENDBRANCH  37  55
TORSDOF 3
