REMARK  Name = 
REMARK  4 active torsions:
REMARK  status: ('A' for Active; 'I' for Inactive)
REMARK    1  A    between atoms: O_2  and  C_3
REMARK    2  A    between atoms: C_18  and  O_19
REMARK    3  A    between atoms: O_19  and  C_20
REMARK    4  A    between atoms: C_41  and  O_42
REMARK                            x       y       z     vdW  Elec       q    Type
REMARK                         _______ _______ _______ _____ _____    ______ ____
ROOT
ATOM      1  C   UNL     1       5.706   3.070   0.215  0.00  0.00    +0.177 A 
ATOM      2  C   UNL     1       6.857   2.299   0.112  0.00  0.00    +0.229 A 
ATOM      3  O   UNL     1       8.082   2.950  -0.077  0.00  0.00    -0.283 OA
ATOM      4  C   UNL     1       6.717   0.923  -0.038  0.00  0.00    +0.041 A 
ATOM      5  C   UNL     1       5.476   0.338  -0.281  0.00  0.00    -0.020 A 
ATOM      6  C   UNL     1       5.270  -0.612  -1.425  0.00  0.00    +0.045 C 
ATOM      7  C   UNL     1       4.108  -0.196  -2.251  0.00  0.00    +0.094 C 
ATOM      8  N   UNL     1       3.206   0.776  -1.633  0.00  0.00    -0.205 NA
ATOM      9  C   UNL     1       3.058   0.529  -0.215  0.00  0.00    +0.177 C 
ATOM     10  C   UNL     1       2.935  -0.958  -0.207  0.00  0.00    +0.336 C 
ATOM     11  O   UNL     1       3.445  -1.645   0.732  0.00  0.00    -0.248 OA
ATOM     12  O   UNL     1       1.887  -1.437  -1.008  0.00  0.00    -0.445 OA
ATOM     13  C   UNL     1       0.976  -0.658  -1.702  0.00  0.00    +0.229 C 
ATOM     14  C   UNL     1      -0.537  -1.290  -1.554  0.00  0.00    +0.129 C 
ATOM     15  N   UNL     1      -1.225   0.008  -0.970  0.00  0.00    -0.240 NA
ATOM     16  C   UNL     1      -2.570   0.047  -1.799  0.00  0.00    +0.228 C 
ATOM     17  O   UNL     1      -2.286  -1.075  -2.791  0.00  0.00    -0.203 OA
ATOM     18  C   UNL     1      -3.569  -1.045  -0.905  0.00  0.00    +0.109 C 
ATOM     19  N   UNL     1      -3.979  -0.306   0.401  0.00  0.00    -0.265 NA
ATOM     20  C   UNL     1      -2.885   0.742   0.757  0.00  0.00    +0.099 C 
ATOM     21  C   UNL     1      -3.254   1.541  -0.591  0.00  0.00    +0.032 A 
ATOM     22  C   UNL     1      -3.263   2.903  -0.275  0.00  0.00    +0.226 A 
ATOM     23  O   UNL     1      -2.186   3.519   0.320  0.00  0.00    -0.284 OA
ATOM     24  C   UNL     1      -4.297   3.755  -0.566  0.00  0.00    +0.173 A 
ATOM     25  C   UNL     1      -5.357   3.298  -1.303  0.00  0.00    +0.015 A 
ATOM     26  C   UNL     1      -6.566   4.152  -1.535  0.00  0.00    +0.034 C 
ATOM     27  C   UNL     1      -5.205   2.099  -1.937  0.00  0.00    -0.006 A 
ATOM     28  C   UNL     1      -4.476   1.176  -1.196  0.00  0.00    -0.020 A 
ATOM     29  C   UNL     1      -3.892  -1.322   1.414  0.00  0.00    +0.090 C 
ATOM     30  C   UNL     1      -4.822  -0.240  -1.614  0.00  0.00    +0.046 C 
ATOM     31  C   UNL     1      -1.870  -0.542   0.294  0.00  0.00    +0.093 C 
ATOM     32  C   UNL     1      -0.665  -0.175   1.417  0.00  0.00    +0.089 C 
ATOM     33  C   UNL     1      -0.012  -1.534   1.003  0.00  0.00    +0.024 A 
ATOM     34  C   UNL     1      -0.210  -2.482   2.017  0.00  0.00    +0.144 A 
ATOM     35  C   UNL     1      -0.015  -3.839   1.775  0.00  0.00    +0.050 A 
ATOM     36  C   UNL     1       0.070  -4.312   0.469  0.00  0.00    +0.175 A 
ATOM     37  O   UNL     1      -0.108  -5.566  -0.129  0.00  0.00    -0.435 OA
ATOM     38  C   UNL     1       0.175  -5.467  -1.522  0.00  0.00    +0.429 C 
ATOM     39  O   UNL     1       0.443  -4.074  -1.669  0.00  0.00    -0.435 OA
ATOM     40  C   UNL     1       0.106  -3.382  -0.527  0.00  0.00    +0.173 A 
ATOM     41  C   UNL     1      -0.059  -4.865   2.848  0.00  0.00    +0.038 C 
ATOM     42  S   UNL     1       0.376   1.131   0.556  0.00  0.00    -0.133 S 
ATOM     43  C   UNL     1      -0.211  -2.071  -0.191  0.00  0.00    +0.033 A 
ATOM     44  C   UNL     1       2.020   1.095   0.561  0.00  0.00    +0.089 C 
ATOM     45  C   UNL     1       4.394   1.004   0.289  0.00  0.00    +0.002 A 
ATOM     46  C   UNL     1       4.510   2.390   0.362  0.00  0.00    +0.037 A 
ENDROOT
BRANCH   1  48
ATOM     47  C   UNL     1       6.893   4.878  -0.930  0.00  0.00    +0.253 C 
ATOM     48  O   UNL     1       5.787   4.350  -0.346  0.00  0.00    -0.468 OA
ENDBRANCH   1  48
BRANCH  24  49
ATOM     49  O   UNL     1      -4.538   4.959   0.116  0.00  0.00    -0.469 OA
ATOM     50  C   UNL     1      -5.490   4.824   1.173  0.00  0.00    +0.253 C 
ENDBRANCH  24  49
BRANCH  34  51
ATOM     51  O   UNL     1      -0.860  -2.202   3.220  0.00  0.00    -0.425 OA
BRANCH  51  52
ATOM     52  C   UNL     1      -2.224  -2.503   3.330  0.00  0.00    +0.322 C 
ATOM     53  O   UNL     1      -2.842  -3.218   2.517  0.00  0.00    -0.250 OA
ATOM     54  C   UNL     1      -3.021  -1.739   4.320  0.00  0.00    +0.122 C 
ENDBRANCH  51  52
ENDBRANCH  34  51
TORSDOF 4
