REMARK  Name = 
REMARK  4 active torsions:
REMARK  status: ('A' for Active; 'I' for Inactive)
REMARK    1  A    between atoms: C_8  and  C_9
REMARK    2  A    between atoms: C_9  and  C_10
REMARK    3  A    between atoms: C_10  and  N_11
REMARK    4  A    between atoms: C_14  and  C_15
REMARK                            x       y       z     vdW  Elec       q    Type
REMARK                         _______ _______ _______ _____ _____    ______ ____
ROOT
ATOM      1  N   UNL     1       0.043  -0.319   1.719  0.00  0.00    -0.272 NA
ATOM      2  C   UNL     1       0.696   0.849   2.205  0.00  0.00    +0.072 C 
ATOM      3  C   UNL     1       2.012   1.170   1.621  0.00  0.00    +0.023 C 
ATOM      4  C   UNL     1       2.323   0.615   0.285  0.00  0.00    +0.046 C 
ATOM      5  C   UNL     1       1.313  -0.293  -0.312  0.00  0.00    +0.023 C 
ATOM      6  C   UNL     1       0.819  -1.150   0.852  0.00  0.00    +0.072 C 
ENDROOT
BRANCH   4   7
ATOM      7  C   UNL     1       3.524  -0.264   0.441  0.00  0.00    +0.100 A 
ATOM      8  C   UNL     1       4.786   0.213   0.224  0.00  0.00    +0.054 A 
ATOM      9  C   UNL     1       5.598  -0.913   0.288  0.00  0.00    +0.179 A 
ATOM     10  C   UNL     1       6.761  -0.886  -0.472  0.00  0.00    +0.070 A 
ATOM     11  C   UNL     1       7.308   0.372  -0.698  0.00  0.00    +0.143 A 
ATOM     12  C   UNL     1       6.537   1.518  -0.686  0.00  0.00    +0.030 A 
ATOM     13  F   UNL     1       8.422   0.392  -1.466  0.00  0.00    -0.204 F 
ATOM     14  O   UNL     1       4.822  -1.866   0.767  0.00  0.00    -0.354 OA
ATOM     15  C   UNL     1       5.269   1.432  -0.179  0.00  0.00    +0.007 A 
ATOM     16  N   UNL     1       3.693  -1.359   1.199  0.00  0.00    -0.081 NA
ENDBRANCH   4   7
BRANCH   1  17
ATOM     17  C   UNL     1      -1.226  -0.026   1.113  0.00  0.00    +0.077 C 
BRANCH  17  18
ATOM     18  C   UNL     1      -1.257  -0.641  -0.260  0.00  0.00    +0.050 C 
BRANCH  18  21
ATOM     19  C   UNL     1      -2.042   0.829  -2.540  0.00  0.00    +0.052 C 
ATOM     20  C   UNL     1      -2.902   0.555  -1.546  0.00  0.00    +0.061 A 
ATOM     21  C   UNL     1      -2.632  -0.604  -0.821  0.00  0.00    +0.049 A 
ATOM     22  C   UNL     1      -3.613  -1.190  -0.029  0.00  0.00    +0.259 A 
ATOM     23  O   UNL     1      -3.299  -1.942   0.934  0.00  0.00    -0.267 OA
ATOM     24  N   UNL     1      -4.869  -0.709  -0.221  0.00  0.00    -0.282 N 
ATOM     25  C   UNL     1      -5.950  -1.188   0.614  0.00  0.00    +0.110 C 
ATOM     26  C   UNL     1      -7.266  -0.831  -0.009  0.00  0.00    +0.028 C 
ATOM     27  C   UNL     1      -7.409   0.606  -0.378  0.00  0.00    +0.043 C 
ATOM     28  C   UNL     1      -6.069   1.374   0.218  0.00  0.00    +0.208 C 
ATOM     29  O   UNL     1      -6.207   2.513  -0.784  0.00  0.00    -0.215 OA
ATOM     30  C   UNL     1      -5.102   0.515  -0.768  0.00  0.00    +0.153 A 
ATOM     31  N   UNL     1      -4.081   1.187  -1.313  0.00  0.00    -0.234 NA
ENDBRANCH  18  21
ENDBRANCH  17  18
ENDBRANCH   1  17
TORSDOF 4
