REMARK  Name = 
REMARK  12 active torsions:
REMARK  status: ('A' for Active; 'I' for Inactive)
REMARK    1  A    between atoms: C_2  and  C_3
REMARK    2  A    between atoms: N_5  and  C_6
REMARK    3  A    between atoms: N_5  and  C_9
REMARK    4  A    between atoms: C_6  and  C_7
REMARK    5  A    between atoms: C_12  and  C_13
REMARK    6  A    between atoms: N_15  and  C_16
REMARK    7  A    between atoms: C_16  and  C_17
REMARK    8  A    between atoms: C_17  and  C_19
REMARK    9  A    between atoms: C_23  and  C_24
REMARK   10  A    between atoms: N_26  and  C_27
REMARK   11  A    between atoms: C_27  and  C_28
REMARK   12  A    between atoms: C_28  and  C_30
REMARK                            x       y       z     vdW  Elec       q    Type
REMARK                         _______ _______ _______ _____ _____    ______ ____
ROOT
ATOM      1  C   UNL     1      -0.066  -1.587   0.713  0.00  0.00    +0.065 A 
ATOM      2  C   UNL     1      -1.003  -0.564   0.745  0.00  0.00    +0.049 A 
ATOM      3  I   UNL     1      -2.181  -0.446   2.502  0.00  0.00    -0.041 I 
ATOM      4  C   UNL     1      -1.019   0.464  -0.190  0.00  0.00    +0.067 A 
ATOM      5  C   UNL     1       0.131   0.640  -0.903  0.00  0.00    +0.040 A 
ATOM      6  I   UNL     1       0.285   2.357  -2.115  0.00  0.00    -0.042 I 
ATOM      7  C   UNL     1       1.273  -0.112  -0.645  0.00  0.00    +0.067 A 
ATOM      8  C   UNL     1       1.015  -1.384  -0.139  0.00  0.00    +0.049 A 
ATOM      9  I   UNL     1       2.494  -2.860  -0.166  0.00  0.00    -0.041 I 
ENDROOT
BRANCH   1  12
ATOM     10  O   UNL     1      -2.111  -3.392  -0.230  0.00  0.00    -0.272 OA
ATOM     11  C   UNL     1      -1.195  -3.615   0.014  0.00  0.00    +0.263 C 
ATOM     12  N   UNL     1      -0.531  -2.888   1.060  0.00  0.00    -0.253 N 
BRANCH  11  13
ATOM     13  C   UNL     1      -0.434  -4.606  -0.809  0.00  0.00    +0.267 C 
ATOM     14  O   UNL     1      -0.766  -4.396  -2.157  0.00  0.00    -0.210 OA
ENDBRANCH  11  13
BRANCH  12  15
ATOM     15  C   UNL     1      -0.865  -3.307   2.397  0.00  0.00    +0.134 C 
BRANCH  15  16
ATOM     16  C   UNL     1      -2.273  -3.869   2.503  0.00  0.00    +0.204 C 
ATOM     17  O   UNL     1      -2.381  -5.164   2.049  0.00  0.00    -0.218 OA
ENDBRANCH  15  16
ENDBRANCH  12  15
ENDBRANCH   1  12
BRANCH   4  18
ATOM     18  C   UNL     1      -2.114   1.406  -0.113  0.00  0.00    +0.266 C 
ATOM     19  N   UNL     1      -2.199   2.600  -0.900  0.00  0.00    -0.199 NA
ATOM     20  O   UNL     1      -2.969   1.330   0.821  0.00  0.00    -0.268 OA
BRANCH  19  21
ATOM     21  C   UNL     1      -2.561   3.792  -0.207  0.00  0.00    +0.151 C 
BRANCH  21  22
ATOM     22  C   UNL     1      -4.061   4.266  -0.792  0.00  0.00    +0.206 C 
ATOM     23  O   UNL     1      -4.544   2.819  -1.060  0.00  0.00    -0.218 OA
BRANCH  22  24
ATOM     24  C   UNL     1      -4.720   4.224   0.756  0.00  0.00    +0.217 C 
ATOM     25  O   UNL     1      -3.830   4.987   1.500  0.00  0.00    -0.218 OA
ENDBRANCH  22  24
ENDBRANCH  21  22
ENDBRANCH  19  21
ENDBRANCH   4  18
BRANCH   7  26
ATOM     26  C   UNL     1       2.596   0.276  -1.093  0.00  0.00    +0.266 C 
ATOM     27  N   UNL     1       3.704   0.493  -0.217  0.00  0.00    -0.199 NA
ATOM     28  O   UNL     1       2.823   0.142  -2.333  0.00  0.00    -0.268 OA
BRANCH  27  29
ATOM     29  C   UNL     1       5.002   0.136  -0.690  0.00  0.00    +0.151 C 
BRANCH  29  30
ATOM     30  C   UNL     1       5.840   1.587  -0.820  0.00  0.00    +0.206 C 
ATOM     31  O   UNL     1       4.626   2.308  -1.455  0.00  0.00    -0.218 OA
BRANCH  30  32
ATOM     32  C   UNL     1       5.375   2.062   0.725  0.00  0.00    +0.217 C 
ATOM     33  O   UNL     1       6.659   2.299   1.251  0.00  0.00    -0.218 OA
ENDBRANCH  30  32
ENDBRANCH  29  30
ENDBRANCH  27  29
ENDBRANCH   7  26
TORSDOF 12
