REMARK  Name = 
REMARK  5 active torsions:
REMARK  status: ('A' for Active; 'I' for Inactive)
REMARK    1  A    between atoms: C_2  and  C_3
REMARK    2  A    between atoms: C_3  and  C_4
REMARK    3  A    between atoms: C_4  and  C_5
REMARK    4  A    between atoms: C_5  and  C_7
REMARK    5  A    between atoms: C_7  and  C_8
REMARK                            x       y       z     vdW  Elec       q    Type
REMARK                         _______ _______ _______ _____ _____    ______ ____
ROOT
ATOM      1  C   UNL     1       0.000   0.233  -0.086  0.00  0.00    +0.145 C 
ATOM      2  C   UNL     1      -0.759  -0.138   1.112  0.00  0.00    +0.257 C 
ATOM      3  O   UNL     1      -0.291   0.217   2.235  0.00  0.00    -0.272 OA
ATOM      4  N   UNL     1      -1.776  -1.127   1.166  0.00  0.00    -0.125 NA
ATOM      5  C   UNL     1      -2.281  -1.616  -0.056  0.00  0.00    +0.352 C 
ATOM      6  O   UNL     1      -3.094  -2.585  -0.063  0.00  0.00    -0.248 OA
ATOM      7  N   UNL     1      -1.576  -1.320  -1.232  0.00  0.00    -0.125 NA
ATOM      8  C   UNL     1      -0.334  -0.610  -1.276  0.00  0.00    +0.257 C 
ATOM      9  O   UNL     1      -0.086  -0.126  -2.424  0.00  0.00    -0.272 OA
ENDROOT
BRANCH   1  10
ATOM     10  C   UNL     1       1.520  -0.162   0.334  0.00  0.00    +0.017 C 
ATOM     11  C   UNL     1       1.927   1.329   0.853  0.00  0.00    +0.001 C 
BRANCH  10  12
ATOM     12  C   UNL     1       2.103   0.116  -1.164  0.00  0.00    +0.001 C 
BRANCH  12  13
ATOM     13  C   UNL     1       3.165  -0.978  -1.220  0.00  0.00    +0.000 C 
ATOM     14  C   UNL     1       4.345  -0.640  -0.345  0.00  0.00    +0.000 C 
ENDBRANCH  12  13
ENDBRANCH  10  12
ENDBRANCH   1  10
BRANCH   1  15
ATOM     15  C   UNL     1      -0.080   1.651  -0.486  0.00  0.00    +0.044 C 
BRANCH  15  17
ATOM     16  C   UNL     1      -1.576   3.379   0.125  0.00  0.00    -0.005 C 
ATOM     17  C   UNL     1      -1.205   2.377   0.137  0.00  0.00    -0.025 C 
ENDBRANCH  15  17
ENDBRANCH   1  15
TORSDOF 5
