REMARK  Name = 
REMARK  5 active torsions:
REMARK  status: ('A' for Active; 'I' for Inactive)
REMARK    1  A    between atoms: O_2  and  C_3
REMARK    2  A    between atoms: C_8  and  S_9
REMARK    3  A    between atoms: S_9  and  C_11
REMARK    4  A    between atoms: C_11  and  C_12
REMARK    5  A    between atoms: C_17  and  O_18
REMARK                            x       y       z     vdW  Elec       q    Type
REMARK                         _______ _______ _______ _____ _____    ______ ____
ROOT
ATOM      1  S   UNL     1      -0.239   1.222  -1.208  0.00  0.00    +0.107 S 
ATOM      2  O   UNL     1      -1.269   1.505  -0.069  0.00  0.00    -0.248 OA
ENDROOT
BRANCH   1   8
ATOM      3  C   UNL     1       5.435   0.366   1.232  0.00  0.00    +0.140 A 
ATOM      4  C   UNL     1       4.675   0.221   0.078  0.00  0.00    +0.058 A 
ATOM      5  C   UNL     1       3.305   0.448   0.077  0.00  0.00    +0.104 A 
ATOM      6  C   UNL     1       2.679   0.434   1.317  0.00  0.00    +0.101 A 
ATOM      7  N   UNL     1       1.361   0.509   1.034  0.00  0.00    -0.218 NA
ATOM      8  C   UNL     1       1.130   0.489  -0.269  0.00  0.00    +0.221 A 
ATOM      9  C   UNL     1       3.388   0.843   2.418  0.00  0.00    +0.024 A 
ATOM     10  N   UNL     1       2.336   0.334  -0.863  0.00  0.00    -0.218 NA
ATOM     11  C   UNL     1       4.773   0.816   2.368  0.00  0.00    +0.039 A 
BRANCH   3  13
ATOM     12  C   UNL     1       6.840  -1.407   0.761  0.00  0.00    +0.252 C 
ATOM     13  O   UNL     1       6.670  -0.275   1.364  0.00  0.00    -0.471 OA
ENDBRANCH   3  13
ENDBRANCH   1   8
BRANCH   1  14
ATOM     14  C   UNL     1      -0.915  -0.323  -1.951  0.00  0.00    +0.145 C 
BRANCH  14  15
ATOM     15  C   UNL     1      -2.256  -0.630  -1.460  0.00  0.00    +0.072 A 
ATOM     16  C   UNL     1      -3.356   0.176  -1.721  0.00  0.00    +0.026 A 
ATOM     17  C   UNL     1      -3.316   1.006  -2.965  0.00  0.00    +0.035 C 
ATOM     18  C   UNL     1      -4.379   0.290  -0.793  0.00  0.00    +0.133 A 
ATOM     19  C   UNL     1      -4.378  -0.590   0.271  0.00  0.00    +0.031 A 
ATOM     20  C   UNL     1      -5.115  -0.234   1.505  0.00  0.00    +0.036 C 
ATOM     21  C   UNL     1      -3.579  -1.723   0.175  0.00  0.00    +0.097 A 
ATOM     22  N   UNL     1      -2.470  -1.656  -0.601  0.00  0.00    -0.248 NA
BRANCH  18  23
ATOM     23  O   UNL     1      -5.286   1.347  -0.895  0.00  0.00    -0.472 OA
ATOM     24  C   UNL     1      -6.033   1.835   0.194  0.00  0.00    +0.252 C 
ENDBRANCH  18  23
ENDBRANCH  14  15
ENDBRANCH   1  14
TORSDOF 5
