REMARK  Name = 
REMARK  1 active torsions:
REMARK  status: ('A' for Active; 'I' for Inactive)
REMARK    1  A    between atoms: C_8  and  N_9
REMARK                            x       y       z     vdW  Elec       q    Type
REMARK                         _______ _______ _______ _____ _____    ______ ____
ROOT
ATOM      1  C   UNL     1       0.761   1.841  -0.517  0.00  0.00    +0.131 C 
ATOM      2  N   UNL     1      -0.320   0.882  -0.393  0.00  0.00    -0.323 N 
ATOM      3  C   UNL     1       0.026  -0.503  -0.510  0.00  0.00    +0.083 A 
ATOM      4  C   UNL     1       1.293  -0.857  -0.379  0.00  0.00    +0.162 C 
ATOM      5  C   UNL     1      -1.087  -1.434  -0.291  0.00  0.00    +0.019 A 
ATOM      6  C   UNL     1      -2.252  -1.040   0.228  0.00  0.00    +0.003 A 
ATOM      7  C   UNL     1      -2.342   0.315   0.788  0.00  0.00    +0.019 A 
ATOM      8  C   UNL     1      -1.603   1.224   0.146  0.00  0.00    +0.076 A 
ENDROOT
BRANCH   4   9
ATOM      9  N   UNL     1       2.308   0.030   0.103  0.00  0.00    -0.026 NA
ATOM     10  O   UNL     1       3.216  -0.458   0.824  0.00  0.00    -0.143 OA
ENDBRANCH   4   9
TORSDOF 1
