REMARK  Name = 
REMARK  2 active torsions:
REMARK  status: ('A' for Active; 'I' for Inactive)
REMARK    1  A    between atoms: C_2  and  C_3
REMARK    2  A    between atoms: C_6  and  C_7
REMARK                            x       y       z     vdW  Elec       q    Type
REMARK                         _______ _______ _______ _____ _____    ______ ____
ROOT
ATOM      1  C   UNL     1       1.471  -0.877  -0.374  0.00  0.00    +0.019 C 
ATOM      2  C   UNL     1       1.240   0.561  -1.166  0.00  0.00    +0.002 C 
ATOM      3  C   UNL     1      -0.212   0.906  -0.888  0.00  0.00    +0.011 C 
ATOM      4  C   UNL     1      -0.932  -0.554  -0.544  0.00  0.00    +0.103 C 
ATOM      5  C   UNL     1      -0.542  -0.422   1.069  0.00  0.00    +0.011 C 
ATOM      6  C   UNL     1       0.965  -0.244   1.073  0.00  0.00    +0.002 C 
ENDROOT
BRANCH   4   7
ATOM      7  C   UNL     1      -2.394   0.129  -0.350  0.00  0.00    +0.364 C 
ATOM      8  O   UNL     1      -3.381  -0.867  -0.336  0.00  0.00    -0.246 OA
ATOM      9  O   UNL     1      -2.462   1.137   0.346  0.00  0.00    -0.246 OA
ENDBRANCH   4   7
BRANCH   1  11
ATOM     10  N   UNL     1       3.190   0.781   0.189  0.00  0.00    -0.131 NA
ATOM     11  C   UNL     1       3.057  -0.550  -0.053  0.00  0.00    +0.109 C 
ENDBRANCH   1  11
TORSDOF 2
