REMARK  Name = 
REMARK  2 active torsions:
REMARK  status: ('A' for Active; 'I' for Inactive)
REMARK    1  A    between atoms: C_6  and  N_7
REMARK    2  A    between atoms: C_20  and  C_21
REMARK                            x       y       z     vdW  Elec       q    Type
REMARK                         _______ _______ _______ _____ _____    ______ ____
ROOT
ATOM      1  C   UNL     1       1.167   3.123  -0.665  0.00  0.00    +0.028 C 
ATOM      2  C   UNL     1       1.953   2.729   0.744  0.00  0.00    +0.129 C 
ATOM      3  N   UNL     1       2.034   1.189   0.388  0.00  0.00    -0.321 N 
ATOM      4  C   UNL     1       0.964   0.557  -0.011  0.00  0.00    +0.099 A 
ATOM      5  C   UNL     1       1.148  -0.764  -0.411  0.00  0.00    +0.060 A 
ATOM      6  C   UNL     1       2.394  -1.269  -0.683  0.00  0.00    +0.205 A 
ATOM      7  C   UNL     1       3.500  -0.512  -0.324  0.00  0.00    +0.136 A 
ATOM      8  O   UNL     1       2.567  -2.483  -0.925  0.00  0.00    -0.286 OA
ATOM      9  C   UNL     1       0.127  -1.701  -0.298  0.00  0.00    +0.036 A 
ATOM     10  C   UNL     1      -1.171  -1.279  -0.267  0.00  0.00    +0.157 A 
ATOM     11  F   UNL     1      -2.177  -2.180  -0.261  0.00  0.00    -0.203 F 
ATOM     12  C   UNL     1      -1.377   0.059  -0.005  0.00  0.00    +0.112 A 
ATOM     13  C   UNL     1      -0.337   0.978   0.078  0.00  0.00    +0.170 A 
ATOM     14  O   UNL     1      -0.458   2.174   0.791  0.00  0.00    -0.471 OA
ATOM     15  C   UNL     1       3.308   0.757   0.209  0.00  0.00    +0.086 A 
ATOM     16  C   UNL     1       0.565   2.566   1.632  0.00  0.00    +0.228 C 
ENDROOT
BRANCH  12  17
ATOM     17  N   UNL     1      -2.681   0.595  -0.054  0.00  0.00    -0.301 N 
ATOM     18  C   UNL     1      -3.393   1.116   1.074  0.00  0.00    +0.108 C 
ATOM     19  C   UNL     1      -4.803   0.668   1.200  0.00  0.00    +0.094 C 
ATOM     20  N   UNL     1      -5.218  -0.392   0.371  0.00  0.00    -0.269 NA
ATOM     21  C   UNL     1      -5.569  -1.611   1.026  0.00  0.00    +0.090 C 
ATOM     22  C   UNL     1      -4.702  -0.487  -0.932  0.00  0.00    +0.094 C 
ATOM     23  C   UNL     1      -3.471   0.297  -1.240  0.00  0.00    +0.108 C 
ENDBRANCH  12  17
BRANCH   7  24
ATOM     24  C   UNL     1       4.815  -1.151  -0.184  0.00  0.00    +0.392 C 
ATOM     25  O   UNL     1       4.979  -2.527  -0.309  0.00  0.00    -0.240 OA
ATOM     26  O   UNL     1       5.837  -0.451  -0.321  0.00  0.00    -0.240 OA
ENDBRANCH   7  24
TORSDOF 2
