REMARK  Name = 
REMARK  6 active torsions:
REMARK  status: ('A' for Active; 'I' for Inactive)
REMARK    1  A    between atoms: C_5  and  C_6
REMARK    2  A    between atoms: C_6  and  O_7
REMARK    3  A    between atoms: O_7  and  N_8
REMARK    4  A    between atoms: C_9  and  C_10
REMARK    5  A    between atoms: C_9  and  C_16
REMARK    6  A    between atoms: C_10  and  N_11
REMARK                            x       y       z     vdW  Elec       q    Type
REMARK                         _______ _______ _______ _____ _____    ______ ____
ROOT
ATOM      1  N   UNL     1      -0.496  -0.778   0.053  0.00  0.00    -0.085 NA
ATOM      2  C   UNL     1      -1.604  -0.235  -0.291  0.00  0.00    +0.121 C 
ENDROOT
BRANCH   2   3
ATOM      3  C   UNL     1      -1.798   1.185   0.028  0.00  0.00    +0.029 A 
ATOM      4  C   UNL     1      -2.986   1.663   0.561  0.00  0.00    +0.060 A 
ATOM      5 CL   UNL     1      -4.170   0.443   1.009  0.00  0.00    -0.082 Cl
ATOM      6  C   UNL     1      -3.254   3.020   0.674  0.00  0.00    +0.023 A 
ATOM      7  C   UNL     1      -2.510   3.910  -0.066  0.00  0.00    +0.059 A 
ATOM      8 CL   UNL     1      -3.080   5.486  -0.540  0.00  0.00    -0.082 Cl
ATOM      9  C   UNL     1      -1.251   3.475  -0.460  0.00  0.00    +0.011 A 
ATOM     10  C   UNL     1      -0.929   2.124  -0.503  0.00  0.00    +0.003 A 
ENDBRANCH   2   3
BRANCH   1  11
ATOM     11  O   UNL     1       0.588  -0.098   0.543  0.00  0.00    -0.373 OA
BRANCH  11  12
ATOM     12  C   UNL     1       1.680   0.090  -0.320  0.00  0.00    +0.266 C 
BRANCH  12  18
ATOM     13 CL   UNL     1       7.049   1.207  -0.469  0.00  0.00    -0.082 Cl
ATOM     14  C   UNL     1       5.758   0.260   0.267  0.00  0.00    +0.058 A 
ATOM     15  C   UNL     1       5.230  -0.855  -0.375  0.00  0.00    +0.023 A 
ATOM     16  C   UNL     1       3.863  -1.104  -0.326  0.00  0.00    +0.058 A 
ATOM     17 CL   UNL     1       3.142  -2.461  -1.187  0.00  0.00    -0.082 Cl
ATOM     18  C   UNL     1       2.984  -0.252   0.331  0.00  0.00    +0.035 A 
ATOM     19  C   UNL     1       3.570   0.599   1.260  0.00  0.00    +0.001 A 
ATOM     20  C   UNL     1       4.947   0.791   1.264  0.00  0.00    +0.011 A 
ENDBRANCH  12  18
ENDBRANCH  11  12
ENDBRANCH   1  11
BRANCH   2  21
ATOM     21  C   UNL     1      -2.699  -1.015  -0.931  0.00  0.00    +0.157 C 
BRANCH  21  22
ATOM     22  N   UNL     1      -2.799  -2.349  -0.403  0.00  0.00    -0.302 N 
ATOM     23  C   UNL     1      -1.745  -3.142  -0.114  0.00  0.00    +0.179 A 
ATOM     24  N   UNL     1      -2.172  -4.363   0.278  0.00  0.00    -0.222 NA
ATOM     25  C   UNL     1      -3.481  -4.423  -0.032  0.00  0.00    +0.119 A 
ATOM     26  C   UNL     1      -3.837  -3.178  -0.533  0.00  0.00    +0.098 A 
ENDBRANCH  21  22
ENDBRANCH   2  21
TORSDOF 6
