REMARK  Name = 
REMARK  3 active torsions:
REMARK  status: ('A' for Active; 'I' for Inactive)
REMARK    1  A    between atoms: O_2  and  C_3
REMARK    2  A    between atoms: C_4  and  N_5
REMARK    3  A    between atoms: C_7  and  C_9
REMARK                            x       y       z     vdW  Elec       q    Type
REMARK                         _______ _______ _______ _____ _____    ______ ____
ROOT
ATOM      1  C   UNL     1       1.644  -1.683  -1.299  0.00  0.00    +0.178 C 
ATOM      2  C   UNL     1       0.077  -1.299  -1.494  0.00  0.00    +0.192 C 
ATOM      3  N   UNL     1      -0.668  -1.573  -0.309  0.00  0.00    -0.305 N 
ATOM      4  C   UNL     1      -1.375  -0.617   0.350  0.00  0.00    +0.077 A 
ATOM      5  C   UNL     1      -2.385  -1.239   1.071  0.00  0.00    +0.017 A 
ATOM      6  C   UNL     1      -3.479  -0.515   1.539  0.00  0.00    +0.005 A 
ATOM      7  C   UNL     1      -4.881  -0.994   1.763  0.00  0.00    +0.142 C 
ATOM      8  N   UNL     1      -5.688   0.186   1.878  0.00  0.00    -0.197 NA
ATOM      9  C   UNL     1      -4.875   1.351   1.691  0.00  0.00    +0.265 C 
ATOM     10  O   UNL     1      -5.410   2.477   1.514  0.00  0.00    -0.268 OA
ATOM     11  C   UNL     1      -3.577   0.848   1.278  0.00  0.00    +0.054 A 
ATOM     12  C   UNL     1      -2.644   1.453   0.452  0.00  0.00    +0.023 A 
ATOM     13  C   UNL     1      -2.396   2.754   0.052  0.00  0.00    +0.017 A 
ATOM     14  C   UNL     1      -1.404   2.654  -0.908  0.00  0.00    +0.062 A 
ATOM     15  N   UNL     1      -1.083   1.355  -1.025  0.00  0.00    -0.304 N 
ATOM     16  C   UNL     1       0.230   1.078  -1.858  0.00  0.00    +0.208 C 
ATOM     17  C   UNL     1       1.082   0.551  -0.536  0.00  0.00    +0.076 C 
ATOM     18  C   UNL     1      -1.175   3.750  -1.731  0.00  0.00    +0.017 A 
ATOM     19  C   UNL     1      -1.949   4.875  -1.583  0.00  0.00    +0.001 A 
ATOM     20  C   UNL     1      -2.716   5.049  -0.438  0.00  0.00    +0.000 A 
ATOM     21  C   UNL     1      -2.962   3.957   0.382  0.00  0.00    +0.001 A 
ATOM     22  C   UNL     1      -2.152  -2.609   1.027  0.00  0.00    +0.017 A 
ATOM     23  C   UNL     1      -3.054  -3.662   1.147  0.00  0.00    +0.001 A 
ATOM     24  C   UNL     1      -2.954  -4.811   0.388  0.00  0.00    +0.000 A 
ATOM     25  C   UNL     1      -1.665  -5.150  -0.005  0.00  0.00    +0.001 A 
ATOM     26  C   UNL     1      -0.887  -4.062  -0.385  0.00  0.00    +0.017 A 
ATOM     27  C   UNL     1      -1.575   0.715  -0.002  0.00  0.00    +0.078 A 
ATOM     28  C   UNL     1      -1.113  -2.784   0.117  0.00  0.00    +0.062 A 
ATOM     29  C   UNL     1      -0.249  -2.497  -2.414  0.00  0.00    +0.057 C 
ATOM     30  O   UNL     1      -0.189  -0.316  -2.263  0.00  0.00    -0.319 OA
ATOM     31  C   UNL     1       2.202  -0.071  -1.538  0.00  0.00    +0.111 C 
ENDROOT
BRANCH  31  32
ATOM     32  N   UNL     1       3.366  -0.133  -0.505  0.00  0.00    -0.273 N 
ATOM     33  C   UNL     1       4.598   0.227  -1.158  0.00  0.00    +0.249 C 
ATOM     34  O   UNL     1       4.743   0.340  -2.387  0.00  0.00    -0.270 OA
ATOM     35  C   UNL     1       3.220   0.576   0.762  0.00  0.00    +0.115 C 
BRANCH  33  36
ATOM     36  C   UNL     1       5.797   0.535  -0.357  0.00  0.00    +0.054 A 
ATOM     37  C   UNL     1       5.689   1.657   0.460  0.00  0.00    +0.005 A 
ATOM     38  C   UNL     1       6.270   1.709   1.722  0.00  0.00    +0.000 A 
ATOM     39  C   UNL     1       6.848   0.580   2.261  0.00  0.00    +0.000 A 
ATOM     40  C   UNL     1       7.015  -0.519   1.463  0.00  0.00    +0.000 A 
ATOM     41  C   UNL     1       6.320  -0.581   0.288  0.00  0.00    +0.005 A 
ENDBRANCH  33  36
ENDBRANCH  31  32
BRANCH   1  43
ATOM     42  C   UNL     1       1.772  -1.943   0.376  0.00  0.00    +0.174 C 
ATOM     43  O   UNL     1       1.633  -1.620   0.212  0.00  0.00    -0.347 OA
ENDBRANCH   1  43
TORSDOF 3
