REMARK  Name = 
REMARK  4 active torsions:
REMARK  status: ('A' for Active; 'I' for Inactive)
REMARK    1  A    between atoms: C_2  and  N_4
REMARK    2  A    between atoms: N_4  and  C_5
REMARK    3  A    between atoms: C_5  and  C_6
REMARK    4  A    between atoms: C_6  and  C_8
REMARK                            x       y       z     vdW  Elec       q    Type
REMARK                         _______ _______ _______ _____ _____    ______ ____
ROOT
ATOM      1  C   UNL     1      -0.687  -0.609   0.534  0.00  0.00    +0.015 A 
ATOM      2  C   UNL     1      -1.097   0.627   0.170  0.00  0.00    +0.040 A 
ATOM      3  C   UNL     1      -2.427   0.935   0.419  0.00  0.00    +0.199 A 
ATOM      4  O   UNL     1      -2.816   2.246   0.123  0.00  0.00    -0.286 OA
ATOM      5  C   UNL     1      -3.313  -0.118   0.235  0.00  0.00    +0.084 A 
ATOM      6  C   UNL     1      -2.889  -1.433   0.370  0.00  0.00    +0.199 A 
ATOM      7  O   UNL     1      -3.721  -2.468  -0.072  0.00  0.00    -0.286 OA
ATOM      8  C   UNL     1      -1.539  -1.710   0.556  0.00  0.00    +0.040 A 
ENDROOT
BRANCH   1   9
ATOM      9  C   UNL     1       0.847  -1.016   0.079  0.00  0.00    +0.192 C 
ATOM     10  O   UNL     1       0.661  -0.453  -1.357  0.00  0.00    -0.217 OA
BRANCH   9  11
ATOM     11  C   UNL     1       1.476   0.450   0.631  0.00  0.00    +0.126 C 
BRANCH  11  12
ATOM     12  N   UNL     1       2.559   0.626  -0.299  0.00  0.00    -0.216 NA
BRANCH  12  14
ATOM     13  C   UNL     1       4.918  -0.007  -0.362  0.00  0.00    +0.019 C 
ATOM     14  C   UNL     1       3.853   0.719   0.367  0.00  0.00    +0.073 C 
ATOM     15  C   UNL     1       4.173   2.210   0.339  0.00  0.00    +0.019 C 
ENDBRANCH  12  14
ENDBRANCH  11  12
ENDBRANCH   9  11
ENDBRANCH   1   9
TORSDOF 4
