REMARK  Name = 
REMARK  5 active torsions:
REMARK  status: ('A' for Active; 'I' for Inactive)
REMARK    1  A    between atoms: C_3  and  C_5
REMARK    2  A    between atoms: C_10  and  S_11
REMARK    3  A    between atoms: S_11  and  C_12
REMARK    4  A    between atoms: C_16  and  C_17
REMARK    5  A    between atoms: C_18  and  C_19
REMARK                            x       y       z     vdW  Elec       q    Type
REMARK                         _______ _______ _______ _____ _____    ______ ____
ROOT
ATOM      1  C   UNL     1      -1.141  -0.318   0.637  0.00  0.00    +0.031 A 
ATOM      2  C   UNL     1      -0.780  -1.003  -0.516  0.00  0.00    +0.027 A 
ATOM      3  C   UNL     1       0.426  -1.692  -0.530  0.00  0.00    +0.105 A 
ATOM      4  C   UNL     1       1.450  -1.204   0.271  0.00  0.00    +0.039 A 
ATOM      5  C   UNL     1       2.660  -1.696  -0.197  0.00  0.00    +0.104 A 
ATOM      6  N   UNL     1       2.327  -2.602  -1.148  0.00  0.00    -0.148 NA
ATOM      7  C   UNL     1       1.210  -0.253   1.229  0.00  0.00    +0.004 A 
ATOM      8  N   UNL     1       1.049  -2.436  -1.477  0.00  0.00    -0.148 NA
ATOM      9  C   UNL     1      -0.087   0.195   1.383  0.00  0.00    +0.007 A 
ENDROOT
BRANCH   5  10
ATOM     10  C   UNL     1       3.986  -1.185   0.144  0.00  0.00    +0.023 C 
ATOM     11  C   UNL     1       4.337   0.023  -0.295  0.00  0.00    +0.021 C 
BRANCH  11  12
ATOM     12  C   UNL     1       5.438   0.780   0.312  0.00  0.00    +0.081 A 
ATOM     13  N   UNL     1       6.436   1.314  -0.433  0.00  0.00    -0.244 NA
ATOM     14  C   UNL     1       7.638   1.480   0.172  0.00  0.00    +0.099 A 
ATOM     15  C   UNL     1       7.732   1.321   1.549  0.00  0.00    +0.021 A 
ATOM     16  C   UNL     1       6.549   1.522   2.248  0.00  0.00    +0.003 A 
ATOM     17  C   UNL     1       5.341   1.291   1.601  0.00  0.00    +0.019 A 
ENDBRANCH  11  12
ENDBRANCH   5  10
BRANCH   1  18
ATOM     18  S   UNL     1      -2.815   0.122   1.022  0.00  0.00    -0.087 S 
BRANCH  18  20
ATOM     19  C   UNL     1      -4.812  -0.093  -0.831  0.00  0.00    +0.061 A 
ATOM     20  C   UNL     1      -3.643   0.562  -0.486  0.00  0.00    +0.034 A 
ATOM     21  C   UNL     1      -3.120   1.571  -1.283  0.00  0.00    +0.007 A 
ATOM     22  C   UNL     1      -3.805   2.016  -2.407  0.00  0.00    +0.001 A 
ATOM     23  C   UNL     1      -4.898   1.282  -2.831  0.00  0.00    +0.000 A 
ATOM     24  C   UNL     1      -5.277   0.154  -2.117  0.00  0.00    +0.005 A 
BRANCH  19  27
ATOM     25  C   UNL     1      -7.762   0.473   1.391  0.00  0.00    +0.139 C 
ATOM     26  N   UNL     1      -6.331   0.434   1.126  0.00  0.00    -0.200 NA
ATOM     27  C   UNL     1      -5.725  -0.500   0.248  0.00  0.00    +0.265 C 
ATOM     28  O   UNL     1      -6.383  -1.559   0.013  0.00  0.00    -0.268 OA
ENDBRANCH  19  27
ENDBRANCH  18  20
ENDBRANCH   1  18
TORSDOF 5
