REMARK  Name = 
REMARK  3 active torsions:
REMARK  status: ('A' for Active; 'I' for Inactive)
REMARK    1  A    between atoms: C_2  and  C_3
REMARK    2  A    between atoms: C_2  and  C_5
REMARK    3  A    between atoms: C_2  and  C_7
REMARK                            x       y       z     vdW  Elec       q    Type
REMARK                         _______ _______ _______ _____ _____    ______ ____
ROOT
ATOM      1  N   UNL     1       0.032  -0.292   1.514  0.00  0.00    -0.126 NA
ATOM      2  C   UNL     1       0.090  -0.148   0.076  0.00  0.00    +0.168 C 
ENDROOT
BRANCH   2   3
ATOM      3  C   UNL     1      -1.186  -0.543  -0.606  0.00  0.00    +0.205 C 
ATOM      4  O   UNL     1      -2.101  -1.160   0.232  0.00  0.00    -0.219 OA
ENDBRANCH   2   3
BRANCH   2   5
ATOM      5  C   UNL     1       0.325   1.317  -0.240  0.00  0.00    +0.205 C 
ATOM      6  O   UNL     1      -0.924   1.960  -0.280  0.00  0.00    -0.219 OA
ENDBRANCH   2   5
BRANCH   2   7
ATOM      7  C   UNL     1       1.292  -0.922  -0.386  0.00  0.00    +0.205 C 
ATOM      8  O   UNL     1       2.473  -0.211  -0.311  0.00  0.00    -0.219 OA
ENDBRANCH   2   7
TORSDOF 3
