REMARK  Name = 
REMARK  2 active torsions:
REMARK  status: ('A' for Active; 'I' for Inactive)
REMARK    1  A    between atoms: C_2  and  C_3
REMARK    2  A    between atoms: C_22  and  C_23
REMARK                            x       y       z     vdW  Elec       q    Type
REMARK                         _______ _______ _______ _____ _____    ______ ____
ROOT
ATOM      1  C   UNL     1       3.424  -0.059  -0.513  0.00  0.00    +0.180 C 
ATOM      2  C   UNL     1       1.966   0.237  -0.200  0.00  0.00    +0.037 C 
ATOM      3  C   UNL     1       1.930  -0.761   1.060  0.00  0.00    +0.003 C 
ATOM      4  C   UNL     1       0.287  -1.186   1.153  0.00  0.00    +0.001 C 
ATOM      5  C   UNL     1      -0.278   0.364   0.811  0.00  0.00    +0.004 C 
ATOM      6  C   UNL     1      -0.384   0.308  -0.791  0.00  0.00    +0.000 C 
ATOM      7  C   UNL     1      -1.855  -0.122   1.214  0.00  0.00    +0.019 C 
ATOM      8  C   UNL     1      -2.185  -0.983  -0.089  0.00  0.00    -0.043 C 
ATOM      9  C   UNL     1      -3.442  -0.969  -0.497  0.00  0.00    +0.010 C 
ATOM     10  C   UNL     1      -4.408   0.063  -0.164  0.00  0.00    +0.101 C 
ATOM     11  C   UNL     1      -3.959   1.048   0.871  0.00  0.00    +0.050 C 
ATOM     12  N   UNL     1      -5.256   0.512  -1.037  0.00  0.00    -0.034 NA
ATOM     13  O   UNL     1      -5.869   1.744  -0.905  0.00  0.00    -0.143 OA
ATOM     14  C   UNL     1      -1.388  -2.215  -0.211  0.00  0.00    +0.022 C 
ATOM     15  C   UNL     1      -2.475   1.249   0.600  0.00  0.00    +0.010 C 
ATOM     16  C   UNL     1       0.092  -1.915  -0.268  0.00  0.00    +0.004 C 
ATOM     17  C   UNL     1       2.402  -2.054   0.188  0.00  0.00    +0.004 C 
ATOM     18  C   UNL     1       1.045   0.171  -1.217  0.00  0.00    +0.003 C 
ATOM     19  C   UNL     1       3.568  -1.548  -0.556  0.00  0.00    +0.043 C 
ATOM     20  O   UNL     1       4.130   0.380   0.616  0.00  0.00    -0.212 OA
ENDROOT
BRANCH   1  22
ATOM     21  C   UNL     1       4.314   0.902  -2.413  0.00  0.00    -0.012 C 
ATOM     22  C   UNL     1       3.909   0.587  -1.749  0.00  0.00    -0.049 C 
ENDBRANCH   1  22
BRANCH   2  23
ATOM     23  C   UNL     1       2.015   1.648   0.397  0.00  0.00    +0.003 C 
ATOM     24  C   UNL     1       2.416   2.601  -0.687  0.00  0.00    +0.000 C 
ENDBRANCH   2  23
TORSDOF 2
