REMARK  Name = 
REMARK  5 active torsions:
REMARK  status: ('A' for Active; 'I' for Inactive)
REMARK    1  A    between atoms: N_2  and  C_4
REMARK    2  A    between atoms: C_4  and  C_5
REMARK    3  A    between atoms: C_5  and  C_6
REMARK    4  A    between atoms: C_6  and  C_7
REMARK    5  A    between atoms: C_6  and  C_14
REMARK                            x       y       z     vdW  Elec       q    Type
REMARK                         _______ _______ _______ _____ _____    ______ ____
ROOT
ATOM      1  C   UNL     1      -0.397   0.402  -0.718  0.00  0.00    +0.064 C 
ENDROOT
BRANCH   1   2
ATOM      2  C   UNL     1       0.890  -0.576  -0.519  0.00  0.00    -0.017 A 
ATOM      3  C   UNL     1       1.723  -0.674  -1.599  0.00  0.00    -0.003 A 
ATOM      4  C   UNL     1       2.918  -1.349  -1.363  0.00  0.00    +0.006 A 
ATOM      5  C   UNL     1       3.305  -1.677  -0.068  0.00  0.00    +0.035 A 
ATOM      6 BR   UNL     1       5.130  -1.858   0.446  0.00  0.00    -0.049 Br
ATOM      7  C   UNL     1       2.260  -1.868   0.829  0.00  0.00    +0.006 A 
ATOM      8  C   UNL     1       1.073  -1.156   0.679  0.00  0.00    -0.003 A 
ENDBRANCH   1   2
BRANCH   1   9
ATOM      9  C   UNL     1      -1.415  -0.695  -0.049  0.00  0.00    +0.063 A 
ATOM     10  N   UNL     1      -2.481  -0.099   0.535  0.00  0.00    -0.248 NA
ATOM     11  C   UNL     1      -3.662  -0.742   0.566  0.00  0.00    +0.098 A 
ATOM     12  C   UNL     1      -4.042  -1.469  -0.555  0.00  0.00    +0.021 A 
ATOM     13  C   UNL     1      -3.026  -2.074  -1.254  0.00  0.00    +0.003 A 
ATOM     14  C   UNL     1      -1.732  -1.636  -1.023  0.00  0.00    +0.015 A 
ENDBRANCH   1   9
BRANCH   1  15
ATOM     15  C   UNL     1      -0.151   1.165   0.747  0.00  0.00    +0.028 C 
BRANCH  15  16
ATOM     16  C   UNL     1      -0.752   2.527   0.577  0.00  0.00    +0.073 C 
BRANCH  16  18
ATOM     17  C   UNL     1      -0.780   4.369  -0.678  0.00  0.00    +0.090 C 
ATOM     18  N   UNL     1       0.023   3.388  -0.304  0.00  0.00    -0.270 NA
ATOM     19  C   UNL     1       1.116   4.023   0.425  0.00  0.00    +0.090 C 
ENDBRANCH  16  18
ENDBRANCH  15  16
ENDBRANCH   1  15
TORSDOF 5
