REMARK  Name = 
REMARK  6 active torsions:
REMARK  status: ('A' for Active; 'I' for Inactive)
REMARK    1  A    between atoms: C_2  and  C_3
REMARK    2  A    between atoms: C_2  and  C_20
REMARK    3  A    between atoms: C_3  and  C_4
REMARK    4  A    between atoms: C_4  and  C_5
REMARK    5  A    between atoms: C_5  and  N_6
REMARK    6  A    between atoms: C_9  and  C_11
REMARK                            x       y       z     vdW  Elec       q    Type
REMARK                         _______ _______ _______ _____ _____    ______ ____
ROOT
ATOM      1  N   UNL     1      -0.151  -1.025   0.082  0.00  0.00    -0.272 NA
ATOM      2  C   UNL     1      -0.796  -2.144   0.721  0.00  0.00    +0.075 C 
ATOM      3  C   UNL     1      -2.192  -1.701   1.143  0.00  0.00    +0.052 C 
ATOM      4  C   UNL     1      -3.030  -1.520  -0.095  0.00  0.00    +0.148 C 
ATOM      5  O   UNL     1      -3.723  -2.681  -0.447  0.00  0.00    -0.221 OA
ATOM      6  C   UNL     1      -2.176  -1.132  -1.292  0.00  0.00    +0.052 C 
ATOM      7  C   UNL     1      -1.008  -0.306  -0.822  0.00  0.00    +0.075 C 
ENDROOT
BRANCH   4   8
ATOM      8  C   UNL     1      -4.010  -0.411   0.103  0.00  0.00    +0.005 A 
ATOM      9  C   UNL     1      -5.251  -0.472  -0.499  0.00  0.00    -0.001 A 
ATOM     10  C   UNL     1      -6.010   0.682  -0.615  0.00  0.00    +0.011 A 
ATOM     11  C   UNL     1      -5.552   1.919  -0.213  0.00  0.00    +0.058 A 
ATOM     12 CL   UNL     1      -6.657   3.207   0.205  0.00  0.00    -0.082 Cl
ATOM     13  C   UNL     1      -4.256   1.970   0.270  0.00  0.00    +0.011 A 
ATOM     14  C   UNL     1      -3.476   0.839   0.384  0.00  0.00    -0.001 A 
ENDBRANCH   4   8
BRANCH   1  15
ATOM     15  C   UNL     1       0.453  -0.102   1.007  0.00  0.00    +0.073 C 
BRANCH  15  16
ATOM     16  C   UNL     1       1.547   0.645   0.257  0.00  0.00    +0.025 C 
BRANCH  16  17
ATOM     17  C   UNL     1       2.045  -0.274  -0.849  0.00  0.00    +0.071 C 
BRANCH  17  19
ATOM     18  O   UNL     1       3.216  -2.299  -0.834  0.00  0.00    -0.291 OA
ATOM     19  C   UNL     1       3.068  -1.184  -0.245  0.00  0.00    +0.173 C 
BRANCH  19  20
ATOM     20  C   UNL     1       4.322  -0.529   0.154  0.00  0.00    +0.035 A 
ATOM     21  C   UNL     1       5.452  -0.576  -0.655  0.00  0.00    +0.005 A 
ATOM     22  C   UNL     1       6.191   0.582  -0.865  0.00  0.00    +0.030 A 
ATOM     23  C   UNL     1       6.042   1.684  -0.029  0.00  0.00    +0.140 A 
ATOM     24  F   UNL     1       6.285   2.951  -0.469  0.00  0.00    -0.204 F 
ATOM     25  C   UNL     1       5.313   1.442   1.128  0.00  0.00    +0.030 A 
ATOM     26  C   UNL     1       4.355   0.435   1.154  0.00  0.00    +0.005 A 
ENDBRANCH  19  20
ENDBRANCH  17  19
ENDBRANCH  16  17
ENDBRANCH  15  16
ENDBRANCH   1  15
TORSDOF 6
