REMARK  Name = 
REMARK  0 active torsions:
REMARK  status: ('A' for Active; 'I' for Inactive)
REMARK                            x       y       z     vdW  Elec       q    Type
REMARK                         _______ _______ _______ _____ _____    ______ ____
ROOT
ATOM      1  C   UNL     1       1.955   4.239   0.980  0.00  0.00    +0.038 C 
ATOM      2  C   UNL     1       0.966   3.280   0.404  0.00  0.00    +0.009 A 
ATOM      3  S   UNL     1      -0.664   3.491  -0.090  0.00  0.00    -0.075 S 
ATOM      4  C   UNL     1      -1.067   1.851  -0.395  0.00  0.00    +0.107 A 
ATOM      5  N   UNL     1      -2.295   1.304  -0.886  0.00  0.00    -0.202 NA
ATOM      6  C   UNL     1      -2.818  -0.020  -0.718  0.00  0.00    +0.114 A 
ATOM      7  C   UNL     1      -2.120  -1.061  -0.131  0.00  0.00    +0.208 A 
ATOM      8  N   UNL     1      -0.716  -1.168   0.092  0.00  0.00    -0.039 NA
ATOM      9  C   UNL     1       0.204  -0.255   0.133  0.00  0.00    +0.326 C 
ATOM     10  N   UNL     1       1.482  -0.783   0.506  0.00  0.00    -0.188 N 
ATOM     11  C   UNL     1       2.596   0.152   0.639  0.00  0.00    +0.220 C 
ATOM     12  C   UNL     1       3.907  -0.574   0.561  0.00  0.00    +0.124 C 
ATOM     13  N   UNL     1       4.050  -1.390  -0.617  0.00  0.00    -0.265 NA
ATOM     14  C   UNL     1       4.641  -2.652  -0.191  0.00  0.00    +0.090 C 
ATOM     15  C   UNL     1       2.783  -1.722  -1.240  0.00  0.00    +0.124 C 
ATOM     16  C   UNL     1       1.826  -2.064  -0.105  0.00  0.00    +0.220 C 
ATOM     17  C   UNL     1      -2.828  -2.151   0.363  0.00  0.00    +0.048 A 
ATOM     18  C   UNL     1      -4.194  -2.216   0.230  0.00  0.00    +0.004 A 
ATOM     19  C   UNL     1      -4.782  -1.327  -0.659  0.00  0.00    +0.002 A 
ATOM     20  C   UNL     1      -4.161  -0.130  -0.976  0.00  0.00    +0.020 A 
ATOM     21  C   UNL     1       0.050   1.207   0.123  0.00  0.00    +0.104 A 
ATOM     22  C   UNL     1       1.184   1.990  -0.065  0.00  0.00    +0.011 A 
ENDROOT
TORSDOF 0
