REMARK  Name = 
REMARK  2 active torsions:
REMARK  status: ('A' for Active; 'I' for Inactive)
REMARK    1  A    between atoms: SI_2  and  O_5
REMARK    2  A    between atoms: O_5  and  SI_6
REMARK                            x       y       z     vdW  Elec       q    Type
REMARK                         _______ _______ _______ _____ _____    ______ ____
ROOT
ATOM      1  O   UNL     1       0.071   0.007  -1.002  0.00  0.00    +0.000 OA
ENDROOT
BRANCH   1   3
ATOM      2  O   UNL     1      -1.575  -1.964   0.222  0.00  0.00    +0.000 OA
ATOM      3 SI   UNL     1      -1.382  -0.295  -0.169  0.00  0.00    +0.000 Si
ATOM      4  O   UNL     1      -2.670   0.090  -1.251  0.00  0.00    +0.000 OA
ATOM      5  O   UNL     1      -1.576   0.685   1.214  0.00  0.00    +0.000 OA
ENDBRANCH   1   3
BRANCH   1   6
ATOM      6 SI   UNL     1       1.399   0.293   0.015  0.00  0.00    +0.000 Si
ATOM      7  O   UNL     1       1.331  -0.655   1.450  0.00  0.00    +0.000 OA
ATOM      8  O   UNL     1       2.814  -0.126  -0.881  0.00  0.00    +0.000 OA
ATOM      9  O   UNL     1       1.589   1.965   0.401  0.00  0.00    +0.000 OA
ENDBRANCH   1   6
TORSDOF 2
