REMARK  Name = 
REMARK  5 active torsions:
REMARK  status: ('A' for Active; 'I' for Inactive)
REMARK    1  A    between atoms: C_2  and  C_3
REMARK    2  A    between atoms: C_3  and  C_4
REMARK    3  A    between atoms: C_4  and  C_5
REMARK    4  A    between atoms: C_5  and  C_7
REMARK    5  A    between atoms: C_7  and  C_8
REMARK                            x       y       z     vdW  Elec       q    Type
REMARK                         _______ _______ _______ _____ _____    ______ ____
ROOT
ATOM      1  C   UNL     1       0.020   0.122  -0.292  0.00  0.00    +0.145 C 
ATOM      2  C   UNL     1      -0.501   0.377   1.028  0.00  0.00    +0.257 C 
ATOM      3  O   UNL     1      -0.100   1.310   1.783  0.00  0.00    -0.272 OA
ATOM      4  N   UNL     1      -1.725  -0.253   1.433  0.00  0.00    -0.125 NA
ATOM      5  C   UNL     1      -2.548  -0.967   0.511  0.00  0.00    +0.352 C 
ATOM      6  O   UNL     1      -3.700  -1.398   0.796  0.00  0.00    -0.248 OA
ATOM      7  N   UNL     1      -1.852  -1.461  -0.641  0.00  0.00    -0.125 NA
ATOM      8  C   UNL     1      -0.491  -1.143  -0.836  0.00  0.00    +0.257 C 
ATOM      9  O   UNL     1       0.244  -2.051  -1.332  0.00  0.00    -0.272 OA
ENDROOT
BRANCH   1  10
ATOM     10  C   UNL     1       1.658  -0.083  -0.216  0.00  0.00    +0.017 C 
ATOM     11  C   UNL     1       1.906   1.511   0.165  0.00  0.00    +0.001 C 
BRANCH  10  12
ATOM     12  C   UNL     1       1.670  -0.524   1.382  0.00  0.00    +0.001 C 
BRANCH  12  13
ATOM     13  C   UNL     1       2.718  -1.606   1.483  0.00  0.00    +0.000 C 
ATOM     14  C   UNL     1       3.785  -1.311   0.434  0.00  0.00    +0.000 C 
ENDBRANCH  12  13
ENDBRANCH  10  12
ENDBRANCH   1  10
BRANCH   1  15
ATOM     15  C   UNL     1      -0.168   1.292  -1.216  0.00  0.00    +0.044 C 
BRANCH  15  17
ATOM     16  C   UNL     1      -0.378   3.658  -0.805  0.00  0.00    -0.005 C 
ATOM     17  C   UNL     1      -0.538   2.527  -0.461  0.00  0.00    -0.025 C 
ENDBRANCH  15  17
ENDBRANCH   1  15
TORSDOF 5
