REMARK  Name = 
REMARK  14 active torsions:
REMARK  status: ('A' for Active; 'I' for Inactive)
REMARK    1  A    between atoms: C_2  and  O_4
REMARK    2  A    between atoms: O_4  and  C_5
REMARK    3  A    between atoms: C_5  and  C_7
REMARK    4  A    between atoms: C_7  and  C_8
REMARK    5  A    between atoms: C_8  and  C_9
REMARK    6  A    between atoms: C_9  and  C_10
REMARK    7  A    between atoms: C_11  and  C_12
REMARK    8  A    between atoms: C_12  and  C_13
REMARK    9  A    between atoms: C_14  and  C_15
REMARK   10  A    between atoms: C_16  and  C_17
REMARK   11  A    between atoms: C_17  and  C_19
REMARK   12  A    between atoms: C_19  and  O_20
REMARK   13  A    between atoms: O_20  and  C_21
REMARK   14  A    between atoms: C_25  and  C_26
REMARK                            x       y       z     vdW  Elec       q    Type
REMARK                         _______ _______ _______ _____ _____    ______ ____
ROOT
ATOM      1  C   UNL     1      -1.676   0.967   0.233  0.00  0.00    +0.041 C 
ATOM      2  C   UNL     1      -1.393   1.738   1.723  0.00  0.00    +0.155 C 
ATOM      3  O   UNL     1      -0.781   0.547   2.454  0.00  0.00    -0.223 OA
ATOM      4  C   UNL     1      -0.079   2.406   1.071  0.00  0.00    +0.066 C 
ATOM      5  C   UNL     1       0.827   1.218   0.491  0.00  0.00    +0.159 C 
ATOM      6  O   UNL     1       1.335   0.826   1.877  0.00  0.00    -0.223 OA
ATOM      7  C   UNL     1      -0.346  -0.007   0.382  0.00  0.00    +0.055 C 
ENDROOT
BRANCH   7   8
ATOM      8  C   UNL     1      -0.131  -0.005  -1.199  0.00  0.00    -0.026 C 
ATOM      9  C   UNL     1       0.319  -0.968  -1.833  0.00  0.00    +0.005 C 
BRANCH   9  10
ATOM     10  C   UNL     1       1.520  -0.866  -2.921  0.00  0.00    +0.217 C 
ATOM     11  O   UNL     1       2.201   0.344  -2.283  0.00  0.00    -0.214 OA
BRANCH  10  12
ATOM     12  C   UNL     1       2.404  -1.998  -2.093  0.00  0.00    +0.243 C 
BRANCH  12  13
ATOM     13  O   UNL     1       3.230  -1.441  -1.234  0.00  0.00    -0.472 OA
BRANCH  13  14
ATOM     14  C   UNL     1       4.458  -1.495  -0.719  0.00  0.00    +0.139 A 
ATOM     15  C   UNL     1       5.279  -0.371  -0.787  0.00  0.00    +0.041 A 
ATOM     16  C   UNL     1       6.506  -0.368  -0.148  0.00  0.00    +0.074 A 
ATOM     17  C   UNL     1       6.932  -1.523   0.442  0.00  0.00    +0.004 A 
ATOM     18  C   UNL     1       6.087  -2.616   0.605  0.00  0.00    +0.003 A 
ATOM     19  C   UNL     1       4.762  -2.397   0.277  0.00  0.00    +0.037 A 
BRANCH  16  20
ATOM     20  C   UNL     1       7.300   0.876  -0.295  0.00  0.00    +0.419 C 
ATOM     21  F   UNL     1       7.447   1.218  -1.622  0.00  0.00    -0.166 F 
ATOM     22  F   UNL     1       8.543   0.805   0.284  0.00  0.00    -0.166 F 
ATOM     23  F   UNL     1       6.578   1.881   0.309  0.00  0.00    -0.166 F 
ENDBRANCH  16  20
ENDBRANCH  13  14
ENDBRANCH  12  13
ENDBRANCH  10  12
ENDBRANCH   9  10
ENDBRANCH   7   8
BRANCH   1  24
ATOM     24  C   UNL     1      -2.644  -0.062   1.013  0.00  0.00    +0.029 C 
BRANCH  24  26
ATOM     25  C   UNL     1      -3.641  -1.634  -0.432  0.00  0.00    -0.031 C 
ATOM     26  C   UNL     1      -2.603  -1.362   0.370  0.00  0.00    -0.031 C 
BRANCH  25  27
ATOM     27  C   UNL     1      -4.805  -0.696  -0.313  0.00  0.00    +0.026 C 
BRANCH  27  28
ATOM     28  C   UNL     1      -4.996  -0.509   1.190  0.00  0.00    +0.016 C 
BRANCH  28  29
ATOM     29  C   UNL     1      -6.404  -1.037   1.470  0.00  0.00    +0.110 C 
BRANCH  29  30
ATOM     30  C   UNL     1      -7.280  -0.327   0.501  0.00  0.00    +0.317 C 
ATOM     31  O   UNL     1      -7.271  -0.680  -0.696  0.00  0.00    -0.250 OA
BRANCH  30  32
ATOM     32  O   UNL     1      -7.866   0.878   0.834  0.00  0.00    -0.452 OA
BRANCH  32  34
ATOM     33  C   UNL     1      -8.359   1.872  -0.279  0.00  0.00    +0.047 C 
ATOM     34  C   UNL     1      -8.219   1.804  -0.179  0.00  0.00    +0.169 C 
ATOM     35  C   UNL     1      -7.236   2.982  -0.263  0.00  0.00    +0.047 C 
ENDBRANCH  32  34
ENDBRANCH  30  32
ENDBRANCH  29  30
ENDBRANCH  28  29
ENDBRANCH  27  28
ENDBRANCH  25  27
ENDBRANCH  24  26
ENDBRANCH   1  24
TORSDOF 14
