REMARK  Name = 
REMARK  6 active torsions:
REMARK  status: ('A' for Active; 'I' for Inactive)
REMARK    1  A    between atoms: C_2  and  C_3
REMARK    2  A    between atoms: C_3  and  C_4
REMARK    3  A    between atoms: C_4  and  O_5
REMARK    4  A    between atoms: O_5  and  C_6
REMARK    5  A    between atoms: C_6  and  C_7
REMARK    6  A    between atoms: C_12  and  O_13
REMARK                            x       y       z     vdW  Elec       q    Type
REMARK                         _______ _______ _______ _____ _____    ______ ____
ROOT
ATOM      1  C   UNL     1      -0.177  -0.123  -0.619  0.00  0.00    +0.010 A 
ATOM      2  C   UNL     1      -1.198  -0.717   0.091  0.00  0.00    +0.038 A 
ATOM      3  C   UNL     1      -2.385  -0.032   0.311  0.00  0.00    +0.177 A 
ATOM      4  C   UNL     1      -2.584   1.266  -0.143  0.00  0.00    +0.229 A 
ATOM      5  O   UNL     1      -3.216   2.178   0.710  0.00  0.00    -0.283 OA
ATOM      6  C   UNL     1      -1.690   1.720  -1.105  0.00  0.00    +0.045 A 
ATOM      7  C   UNL     1      -0.535   0.993  -1.368  0.00  0.00    +0.002 A 
ENDROOT
BRANCH   3   8
ATOM      8  O   UNL     1      -3.470  -0.613   0.972  0.00  0.00    -0.468 OA
ATOM      9  C   UNL     1      -4.762  -0.583   0.411  0.00  0.00    +0.253 C 
ENDBRANCH   3   8
BRANCH   1  10
ATOM     10  C   UNL     1       1.256  -0.357  -0.374  0.00  0.00    +0.169 C 
BRANCH  10  11
ATOM     11  O   UNL     1       1.563  -1.641   0.023  0.00  0.00    -0.349 OA
BRANCH  11  12
ATOM     12  C   UNL     1       2.956  -1.775  -0.020  0.00  0.00    +0.143 C 
BRANCH  12  13
ATOM     13  C   UNL     1       3.639  -0.638   0.731  0.00  0.00    +0.032 C 
BRANCH  13  15
ATOM     14  C   UNL     1       5.513   0.882   0.087  0.00  0.00    +0.000 C 
ATOM     15  C   UNL     1       5.090  -0.560   0.316  0.00  0.00    +0.003 C 
ENDBRANCH  13  15
ENDBRANCH  12  13
ENDBRANCH  11  12
ENDBRANCH  10  11
ENDBRANCH   1  10
TORSDOF 6
