REMARK  Name = 
REMARK  11 active torsions:
REMARK  status: ('A' for Active; 'I' for Inactive)
REMARK    1  A    between atoms: C_2  and  C_3
REMARK    2  A    between atoms: C_3  and  C_4
REMARK    3  A    between atoms: C_4  and  C_5
REMARK    4  A    between atoms: C_4  and  C_18
REMARK    5  A    between atoms: C_5  and  C_6
REMARK    6  A    between atoms: C_21  and  C_22
REMARK    7  A    between atoms: N_24  and  CA_25
REMARK    8  A    between atoms: CA_25  and  CB_26
REMARK    9  A    between atoms: CA_25  and  C_31
REMARK   10  A    between atoms: CB_26  and  CG_27
REMARK   11  A    between atoms: CG_27  and  CD_28
REMARK                            x       y       z     vdW  Elec       q    Type
REMARK                         _______ _______ _______ _____ _____    ______ ____
ROOT
ATOM      1  C   UNK A   0      -0.621   1.594  -0.532  0.00  0.00    -0.021 A 
ATOM      2  C   UNK A   0       0.535   2.252  -0.954  0.00  0.00    -0.004 A 
ATOM      3  C   UNK A   0       1.805   1.725  -0.756  0.00  0.00    +0.004 A 
ATOM      4  C   UNK A   0       1.952   0.493  -0.174  0.00  0.00    +0.055 A 
ATOM      5  C   UNK A   0       0.804  -0.258   0.004  0.00  0.00    +0.004 A 
ATOM      6  C   UNK A   0      -0.389   0.444   0.136  0.00  0.00    -0.004 A 
ENDROOT
BRANCH   4   7
ATOM      7  C   UNK A   0       3.233   0.043   0.386  0.00  0.00    +0.265 C 
ATOM      8  N   GLU A   1       4.214   1.011   0.619  0.00  0.00    -0.192 NA
ATOM      9  O   UNK A   0       3.301  -1.055   0.970  0.00  0.00    -0.268 OA
BRANCH   8  10
ATOM     10  CA  GLU A   1       5.635   0.481   1.090  0.00  0.00    +0.199 C 
BRANCH  10  11
ATOM     11  C   GLU A   1       6.407   1.560   0.145  0.00  0.00    +0.384 C 
ATOM     12  OXT GLU A   1       6.269   2.789   0.810  0.00  0.00    -0.244 OA
ATOM     13  O   GLU A   1       6.036   1.595  -1.045  0.00  0.00    -0.244 OA
ENDBRANCH  10  11
BRANCH  10  14
ATOM     14  CB  GLU A   1       5.705  -0.720  -0.057  0.00  0.00    +0.045 C 
BRANCH  14  15
ATOM     15  CG  GLU A   1       6.329  -1.810   0.798  0.00  0.00    +0.116 C 
BRANCH  15  16
ATOM     16  CD  GLU A   1       6.292  -3.136   0.168  0.00  0.00    +0.365 C 
ATOM     17  OE2 GLU A   1       7.442  -3.920   0.309  0.00  0.00    -0.246 OA
ATOM     18  OE1 GLU A   1       5.219  -3.763  -0.078  0.00  0.00    -0.246 OA
ENDBRANCH  15  16
ENDBRANCH  14  15
ENDBRANCH  10  14
ENDBRANCH   8  10
ENDBRANCH   4   7
BRANCH   1  19
ATOM     19  C   UNK A   0      -1.563   2.726   0.140  0.00  0.00    +0.041 C 
BRANCH  19  20
ATOM     20  C   UNK A   0      -2.286   1.737   1.249  0.00  0.00    +0.082 C 
BRANCH  20  22
ATOM     21  C   UNK A   0      -0.918   1.881   3.146  0.00  0.00    -0.014 C 
ATOM     22  C   UNK A   0      -1.366   1.830   2.396  0.00  0.00    -0.078 C 
ENDBRANCH  20  22
ENDBRANCH  19  20
BRANCH  19  23
ATOM     23  C   UNK A   0      -2.737   2.527  -0.998  0.00  0.00    +0.053 C 
BRANCH  23  24
ATOM     24  C   UNK A   0      -3.297   1.191  -0.862  0.00  0.00    +0.079 A 
ATOM     25  N   UNK A   0      -4.447   1.078  -0.147  0.00  0.00    -0.242 NA
ATOM     26  C   UNK A   0      -4.941  -0.145   0.110  0.00  0.00    +0.151 A 
ATOM     27  C   UNK A   0      -4.392  -1.206  -0.599  0.00  0.00    +0.186 A 
ATOM     28  N   UNK A   0      -4.865  -2.427  -0.330  0.00  0.00    -0.190 NA
ATOM     29  C   UNK A   0      -6.064  -2.656   0.240  0.00  0.00    +0.259 A 
ATOM     30  N   UNK A   0      -6.686  -1.584   0.778  0.00  0.00    -0.191 NA
ATOM     31  N   UNK A   0      -6.622  -3.964   0.372  0.00  0.00    -0.086 NA
ATOM     32  N   UNK A   0      -3.545  -1.002  -1.639  0.00  0.00    -0.222 NA
ATOM     33  C   UNK A   0      -6.183  -0.340   0.702  0.00  0.00    +0.193 A 
ATOM     34  N   UNK A   0      -7.055   0.752   0.904  0.00  0.00    -0.105 NA
ATOM     35  C   UNK A   0      -3.203   0.280  -1.907  0.00  0.00    +0.115 A 
ENDBRANCH  23  24
ENDBRANCH  19  23
ENDBRANCH   1  19
TORSDOF 11
