REMARK  Name = 
REMARK  5 active torsions:
REMARK  status: ('A' for Active; 'I' for Inactive)
REMARK    1  A    between atoms: O_2  and  C_3
REMARK    2  A    between atoms: N_26  and  C_27
REMARK    3  A    between atoms: C_27  and  C_28
REMARK    4  A    between atoms: C_53  and  O_54
REMARK    5  A    between atoms: O_54  and  C_55
REMARK                            x       y       z     vdW  Elec       q    Type
REMARK                         _______ _______ _______ _____ _____    ______ ____
ROOT
ATOM      1  C   UNL     1      -4.288  -2.553   0.560  0.00  0.00    +0.144 C 
ATOM      2  C   UNL     1      -3.652  -0.980   0.806  0.00  0.00    +0.072 C 
ATOM      3  C   UNL     1      -2.819  -0.849  -0.559  0.00  0.00    +0.007 C 
ATOM      4  C   UNL     1      -4.983  -0.152   0.175  0.00  0.00    +0.174 C 
ATOM      5  C   UNL     1      -4.912   1.128   1.275  0.00  0.00    +0.071 C 
ATOM      6  C   UNL     1      -6.177   1.818   0.574  0.00  0.00    +0.006 C 
ATOM      7  C   UNL     1      -3.707   2.019   0.483  0.00  0.00    +0.158 C 
ATOM      8  O   UNL     1      -2.882   1.874   1.728  0.00  0.00    -0.223 OA
ATOM      9  C   UNL     1      -4.427   3.472   0.938  0.00  0.00    +0.061 C 
ATOM     10  C   UNL     1      -4.833   3.792  -0.593  0.00  0.00    +0.005 C 
ATOM     11  C   UNL     1      -3.145   4.570   0.869  0.00  0.00    +0.158 C 
ATOM     12  O   UNL     1      -2.546   4.073   2.161  0.00  0.00    -0.223 OA
ATOM     13  C   UNL     1      -2.113   3.681  -0.118  0.00  0.00    +0.053 C 
ATOM     14  C   UNL     1      -2.432   4.476  -1.490  0.00  0.00    +0.007 C 
ATOM     15  C   UNL     1      -0.803   4.620   0.165  0.00  0.00    -0.024 C 
ATOM     16  C   UNL     1      -0.151   3.772   0.800  0.00  0.00    -0.005 C 
ATOM     17  C   UNL     1       0.027   3.021  -0.502  0.00  0.00    -0.000 C 
ATOM     18  C   UNL     1       0.946   2.885  -1.269  0.00  0.00    +0.033 C 
ATOM     19  C   UNL     1       1.139   3.070  -2.752  0.00  0.00    +0.036 C 
ATOM     20  C   UNL     1       1.751   3.681  -0.316  0.00  0.00    +0.265 C 
ATOM     21  O   UNL     1       2.771   4.294  -0.849  0.00  0.00    -0.268 OA
ATOM     22  N   UNL     1       2.196   2.760   0.710  0.00  0.00    -0.171 NA
ATOM     23  C   UNL     1       1.869   1.356   0.661  0.00  0.00    +0.129 C 
ATOM     24  C   UNL     1       2.859   0.426   0.684  0.00  0.00    +0.103 C 
ATOM     25  C   UNL     1       2.742  -0.815  -0.115  0.00  0.00    +0.094 C 
ATOM     26  C   UNL     1       1.420  -1.449  -0.288  0.00  0.00    +0.031 A 
ATOM     27  C   UNL     1       0.432  -0.457  -0.362  0.00  0.00    +0.081 A 
ATOM     28  C   UNL     1      -0.630  -0.538  -1.268  0.00  0.00    +0.198 A 
ATOM     29  C   UNL     1      -0.516  -1.643  -2.114  0.00  0.00    +0.051 A 
ATOM     30  C   UNL     1       0.022  -2.791  -1.520  0.00  0.00    +0.145 A 
ATOM     31  O   UNL     1      -0.636  -4.022  -1.375  0.00  0.00    -0.443 OA
ATOM     32  C   UNL     1      -0.413  -4.596  -0.168  0.00  0.00    +0.326 C 
ATOM     33  C   UNL     1       0.866  -3.908   0.222  0.00  0.00    +0.251 C 
ATOM     34  O   UNL     1       1.686  -4.707   0.786  0.00  0.00    -0.284 OA
ATOM     35  C   UNL     1      -0.165  -6.061  -0.547  0.00  0.00    +0.100 C 
ATOM     36  O   UNL     1      -1.244  -4.589   0.882  0.00  0.00    -0.440 OA
ATOM     37  C   UNL     1      -2.517  -4.141   1.059  0.00  0.00    +0.174 C 
ATOM     38  C   UNL     1      -1.543  -1.698  -3.177  0.00  0.00    +0.038 C 
ATOM     39  O   UNL     1      -1.779   0.229  -1.155  0.00  0.00    -0.287 OA
ATOM     40  C   UNL     1       1.096  -2.719  -0.616  0.00  0.00    +0.077 A 
ATOM     41  N   UNL     1       3.881  -1.244  -0.470  0.00  0.00    -0.253 NA
ATOM     42  C   UNL     1       4.914  -0.574   0.266  0.00  0.00    +0.162 C 
ATOM     43  C   UNL     1       5.471  -1.400   1.402  0.00  0.00    +0.060 C 
ATOM     44  C   UNL     1       6.612  -0.582   1.994  0.00  0.00    +0.076 C 
ATOM     45  N   UNL     1       7.662  -0.344   1.012  0.00  0.00    -0.272 NA
ATOM     46  C   UNL     1       7.243  -1.032  -0.209  0.00  0.00    +0.076 C 
ATOM     47  C   UNL     1       6.026  -0.246  -0.687  0.00  0.00    +0.060 C 
ATOM     48  N   UNL     1       4.282   0.573   0.842  0.00  0.00    -0.216 NA
ATOM     49  C   UNL     1       0.583   0.808   0.410  0.00  0.00    +0.215 C 
ATOM     50  O   UNL     1      -0.288   0.565   1.373  0.00  0.00    -0.285 OA
ATOM     51  C   UNL     1      -2.863  -3.212   0.206  0.00  0.00    +0.043 C 
ENDROOT
BRANCH   1  53
ATOM     52  C   UNL     1      -4.509  -3.090  -1.316  0.00  0.00    +0.174 C 
ATOM     53  O   UNL     1      -4.634  -2.340  -0.901  0.00  0.00    -0.349 OA
ENDBRANCH   1  53
BRANCH   4  54
ATOM     54  O   UNL     1      -5.953  -0.892   1.083  0.00  0.00    -0.452 OA
BRANCH  54  55
ATOM     55  C   UNL     1      -7.154  -1.291   0.575  0.00  0.00    +0.317 C 
ATOM     56  O   UNL     1      -7.695  -0.652  -0.346  0.00  0.00    -0.250 OA
ATOM     57  C   UNL     1      -7.896  -2.401   1.254  0.00  0.00    +0.121 C 
ENDBRANCH  54  55
ENDBRANCH   4  54
BRANCH  45  58
ATOM     58  C   UNL     1       7.654   1.073   0.654  0.00  0.00    +0.072 C 
BRANCH  58  59
ATOM     59  C   UNL     1       8.865   1.477  -0.130  0.00  0.00    +0.016 C 
ATOM     60  C   UNL     1       9.300   0.472  -1.153  0.00  0.00    +0.001 C 
ATOM     61  C   UNL     1       9.988   1.982   0.732  0.00  0.00    +0.001 C 
ENDBRANCH  58  59
ENDBRANCH  45  58
TORSDOF 5
