REMARK  Name = 
REMARK  9 active torsions:
REMARK  status: ('A' for Active; 'I' for Inactive)
REMARK    1  A    between atoms: N_2  and  C_3
REMARK    2  A    between atoms: C_8  and  C_9
REMARK    3  A    between atoms: C_12  and  O_13
REMARK    4  A    between atoms: O_13  and  C_14
REMARK    5  A    between atoms: C_15  and  O_16
REMARK    6  A    between atoms: O_16  and  C_17
REMARK    7  A    between atoms: C_22  and  N_23
REMARK    8  A    between atoms: C_29  and  N_30
REMARK    9  A    between atoms: C_37  and  C_39
REMARK                            x       y       z     vdW  Elec       q    Type
REMARK                         _______ _______ _______ _____ _____    ______ ____
ROOT
ATOM      1  C   UNL     1      -1.497  -0.581  -0.460  0.00  0.00    +0.211 C 
ATOM      2  C   UNL     1      -1.821  -2.172  -0.492  0.00  0.00    +0.238 C 
ATOM      3  O   UNL     1      -2.292  -2.617   0.656  0.00  0.00    -0.212 OA
ATOM      4  C   UNL     1      -0.316  -2.818  -0.753  0.00  0.00    +0.155 C 
ATOM      5  C   UNL     1       0.014  -2.966   0.894  0.00  0.00    +0.035 C 
ATOM      6  O   UNL     1       0.416  -1.474  -0.949  0.00  0.00    -0.328 OA
ATOM      7  C   UNL     1      -0.026  -0.970   0.444  0.00  0.00    +0.267 C 
ENDROOT
BRANCH   2   8
ATOM      8  C   UNL     1      -2.446  -2.546  -1.738  0.00  0.00    +0.242 C 
ATOM      9  O   UNL     1      -3.612  -2.505  -2.049  0.00  0.00    -0.285 OA
ENDBRANCH   2   8
BRANCH   1  10
ATOM     10  O   UNL     1      -2.337  -0.305   0.781  0.00  0.00    -0.324 OA
BRANCH  10  12
ATOM     11  C   UNL     1      -4.727  -0.191   1.208  0.00  0.00    +0.162 C 
ATOM     12  C   UNL     1      -3.581  -0.021  -0.107  0.00  0.00    +0.255 C 
ATOM     13  O   UNL     1      -3.411   1.505   0.060  0.00  0.00    -0.326 OA
ATOM     14  C   UNL     1      -4.289   2.001  -1.095  0.00  0.00    +0.183 C 
ATOM     15  C   UNL     1      -5.697   1.126  -0.570  0.00  0.00    +0.213 C 
ATOM     16  O   UNL     1      -6.525   2.382  -0.622  0.00  0.00    -0.218 OA
ATOM     17  C   UNL     1      -5.332   1.405   1.089  0.00  0.00    +0.205 C 
ATOM     18  O   UNL     1      -6.721   0.978   1.507  0.00  0.00    -0.219 OA
BRANCH  14  19
ATOM     19  C   UNL     1      -3.812   0.846  -2.183  0.00  0.00    +0.214 C 
ATOM     20  O   UNL     1      -4.872   0.134  -2.554  0.00  0.00    -0.218 OA
ENDBRANCH  14  19
BRANCH  11  22
ATOM     21  C   UNL     1      -4.373   0.343   3.073  0.00  0.00    +0.108 C 
ATOM     22  N   UNL     1      -3.790   0.250   2.356  0.00  0.00    -0.210 NA
ENDBRANCH  11  22
ENDBRANCH  10  12
ENDBRANCH   1  10
BRANCH   7  23
ATOM     23  O   UNL     1       0.549   0.437   0.331  0.00  0.00    -0.325 OA
BRANCH  23  24
ATOM     24  C   UNL     1       1.775   0.442  -0.521  0.00  0.00    +0.193 C 
ATOM     25  C   UNL     1       2.869  -0.296   0.596  0.00  0.00    +0.244 C 
ATOM     26  C   UNL     1       4.241   0.181  -0.331  0.00  0.00    +0.236 C 
ATOM     27  O   UNL     1       5.179  -0.573   0.587  0.00  0.00    -0.215 OA
ATOM     28  C   UNL     1       4.432   1.657   0.514  0.00  0.00    +0.247 C 
ATOM     29  C   UNL     1       3.469   2.317  -0.749  0.00  0.00    +0.227 C 
ATOM     30  O   UNL     1       3.567   3.698  -0.142  0.00  0.00    -0.216 OA
ATOM     31  C   UNL     1       2.061   2.009   0.182  0.00  0.00    +0.216 C 
ATOM     32  O   UNL     1       1.188   2.683  -0.843  0.00  0.00    -0.218 OA
BRANCH  28  33
ATOM     33  N   UNL     1       5.761   1.955  -0.240  0.00  0.00    -0.085 NA
ATOM     34  C   UNL     1       6.930   1.594   0.490  0.00  0.00    +0.535 C 
ATOM     35  N   UNL     1       8.128   1.126  -0.124  0.00  0.00    +0.135 NA
ATOM     36  N   UNL     1       7.025   2.061   1.678  0.00  0.00    +0.135 NA
ENDBRANCH  28  33
BRANCH  25  37
ATOM     37  N   UNL     1       3.026  -1.593  -0.240  0.00  0.00    -0.085 NA
ATOM     38  C   UNL     1       3.663  -2.704   0.271  0.00  0.00    +0.535 C 
ATOM     39  N   UNL     1       3.699  -3.839  -0.599  0.00  0.00    +0.135 NA
ATOM     40  N   UNL     1       3.488  -2.959   1.502  0.00  0.00    +0.135 NA
ENDBRANCH  25  37
ENDBRANCH  23  24
ENDBRANCH   7  23
TORSDOF 9
