REMARK  Name = 
REMARK  2 active torsions:
REMARK  status: ('A' for Active; 'I' for Inactive)
REMARK    1  A    between atoms: C_2  and  C_3
REMARK    2  A    between atoms: C_3  and  S_4
REMARK                            x       y       z     vdW  Elec       q    Type
REMARK                         _______ _______ _______ _____ _____    ______ ____
ROOT
ATOM      1  S   UNL     1      -0.920   0.015  -0.024  0.00  0.00    -0.106 S 
ATOM      2  O   UNL     1      -1.569   1.520  -0.447  0.00  0.00    -0.291 OA
ATOM      3  O   UNL     1      -1.804  -1.088  -0.497  0.00  0.00    -0.371 OA
ATOM      4  O   UNL     1      -0.896  -0.009   1.465  0.00  0.00    -0.371 OA
ENDROOT
BRANCH   1   5
ATOM      5  C   UNL     1       0.662  -0.111  -0.775  0.00  0.00    +0.146 C 
BRANCH   5   7
ATOM      6  N   UNL     1       2.796   0.336   0.168  0.00  0.00    -0.130 NA
ATOM      7  C   UNL     1       1.730  -0.663   0.111  0.00  0.00    +0.132 C 
ENDBRANCH   5   7
ENDBRANCH   1   5
TORSDOF 2
