REMARK  Name = 
REMARK  8 active torsions:
REMARK  status: ('A' for Active; 'I' for Inactive)
REMARK    1  A    between atoms: C_2  and  C_3
REMARK    2  A    between atoms: C_9  and  O_10
REMARK    3  A    between atoms: O_10  and  C_11
REMARK    4  A    between atoms: C_13  and  O_15
REMARK    5  A    between atoms: C_24  and  O_25
REMARK    6  A    between atoms: O_25  and  C_26
REMARK    7  A    between atoms: C_31  and  N_32
REMARK    8  A    between atoms: C_37  and  O_39
REMARK                            x       y       z     vdW  Elec       q    Type
REMARK                         _______ _______ _______ _____ _____    ______ ____
ROOT
ATOM      1  C   UNL     1      -2.172   3.637  -0.072  0.00  0.00    +0.199 C 
ATOM      2  C   UNL     1      -1.709   4.976   0.716  0.00  0.00    +0.191 C 
ATOM      3  O   UNL     1      -2.659   4.887   1.752  0.00  0.00    -0.219 OA
ATOM      4  C   UNL     1      -1.654   6.140  -0.091  0.00  0.00    +0.039 C 
ATOM      5  C   UNL     1      -0.389   4.696   1.597  0.00  0.00    +0.190 C 
ATOM      6  O   UNL     1      -0.331   6.157   1.984  0.00  0.00    -0.220 OA
ATOM      7  C   UNL     1       0.711   4.752   0.278  0.00  0.00    +0.091 C 
ATOM      8  C   UNL     1       1.547   6.071   0.713  0.00  0.00    +0.010 C 
ATOM      9  C   UNL     1       1.708   3.771   1.012  0.00  0.00    +0.152 C 
ATOM     10  O   UNL     1       1.984   3.924   2.148  0.00  0.00    -0.296 OA
ATOM     11  C   UNL     1       2.643   2.824   0.133  0.00  0.00    +0.060 C 
ATOM     12  C   UNL     1       2.431   3.608  -1.283  0.00  0.00    +0.008 C 
ATOM     13  C   UNL     1       1.464   1.723  -0.104  0.00  0.00    +0.037 C 
ATOM     14  C   UNL     1       1.927   0.505  -0.647  0.00  0.00    +0.118 C 
ATOM     15  C   UNL     1       1.698   0.460  -2.118  0.00  0.00    +0.032 C 
ATOM     16  C   UNL     1       1.304  -0.869  -0.001  0.00  0.00    +0.145 C 
ATOM     17  C   UNL     1      -0.014  -1.022  -1.058  0.00  0.00    +0.057 C 
ATOM     18  C   UNL     1      -0.119  -2.608  -0.779  0.00  0.00    +0.005 C 
ATOM     19  C   UNL     1      -1.313  -0.769  -0.007  0.00  0.00    +0.131 C 
ATOM     20  C   UNL     1      -1.544   0.824  -0.588  0.00  0.00    +0.126 C 
ATOM     21  C   UNL     1      -3.143   0.778  -0.857  0.00  0.00    +0.014 C 
ATOM     22  C   UNL     1      -1.782   1.511   0.839  0.00  0.00    +0.319 C 
ATOM     23  O   UNL     1      -1.175   1.007   1.837  0.00  0.00    -0.250 OA
ATOM     24  O   UNL     1      -1.104   2.724   0.548  0.00  0.00    -0.450 OA
ENDROOT
BRANCH   1  26
ATOM     25  C   UNL     1      -1.329   4.467  -1.828  0.00  0.00    +0.004 C 
ATOM     26  C   UNL     1      -1.267   4.012  -1.399  0.00  0.00    +0.046 C 
ENDBRANCH   1  26
BRANCH  14  27
ATOM     27  O   UNL     1       3.264   0.425  -0.269  0.00  0.00    -0.353 OA
ATOM     28  C   UNL     1       3.458   0.807   1.076  0.00  0.00    +0.174 C 
ENDBRANCH  14  27
BRANCH  16  29
ATOM     29  O   UNL     1       2.109  -1.685  -0.978  0.00  0.00    -0.329 OA
BRANCH  29  30
ATOM     30  C   UNL     1       2.627  -2.927  -0.280  0.00  0.00    +0.268 C 
ATOM     31  C   UNL     1       4.197  -2.530  -0.889  0.00  0.00    +0.222 C 
ATOM     32  O   UNL     1       3.804  -3.106  -2.216  0.00  0.00    -0.216 OA
ATOM     33  C   UNL     1       4.919  -4.024  -0.498  0.00  0.00    +0.096 C 
ATOM     34  C   UNL     1       4.191  -4.261   0.873  0.00  0.00    +0.048 C 
ATOM     35  C   UNL     1       3.732  -3.084   1.867  0.00  0.00    +0.119 C 
ATOM     36  C   UNL     1       5.001  -2.010   1.667  0.00  0.00    +0.032 C 
ATOM     37  O   UNL     1       2.873  -2.201   0.991  0.00  0.00    -0.331 OA
BRANCH  33  38
ATOM     38  N   UNL     1       6.267  -3.423   0.077  0.00  0.00    -0.269 NA
ATOM     39  C   UNL     1       6.781  -4.523   0.908  0.00  0.00    +0.090 C 
ATOM     40  C   UNL     1       7.199  -3.500  -1.043  0.00  0.00    +0.090 C 
ENDBRANCH  33  38
ENDBRANCH  29  30
ENDBRANCH  16  29
BRANCH  19  41
ATOM     41  O   UNL     1      -2.190  -1.324  -1.068  0.00  0.00    -0.332 OA
BRANCH  41  42
ATOM     42  C   UNL     1      -2.827  -2.588  -0.521  0.00  0.00    +0.238 C 
ATOM     43  O   UNL     1      -3.889  -2.402  -1.593  0.00  0.00    -0.330 OA
ATOM     44  C   UNL     1      -4.638  -3.687  -1.672  0.00  0.00    +0.150 C 
ATOM     45  C   UNL     1      -3.298  -4.627  -1.550  0.00  0.00    +0.035 C 
ATOM     46  C   UNL     1      -4.983  -3.892   0.004  0.00  0.00    +0.204 C 
ATOM     47  O   UNL     1      -6.452  -4.045  -0.327  0.00  0.00    -0.218 OA
ATOM     48  C   UNL     1      -5.149  -2.314   0.385  0.00  0.00    +0.128 C 
ATOM     49  C   UNL     1      -5.890  -2.502   1.689  0.00  0.00    +0.033 C 
ATOM     50  C   UNL     1      -3.777  -1.792   0.592  0.00  0.00    +0.091 C 
BRANCH  48  51
ATOM     51  O   UNL     1      -5.900  -1.707  -0.561  0.00  0.00    -0.353 OA
ATOM     52  C   UNL     1      -7.140  -1.263  -0.112  0.00  0.00    +0.174 C 
ENDBRANCH  48  51
ENDBRANCH  41  42
ENDBRANCH  19  41
TORSDOF 8
