REMARK  Name = 
REMARK  1 active torsions:
REMARK  status: ('A' for Active; 'I' for Inactive)
REMARK    1  A    between atoms: C_6  and  C_7
REMARK                            x       y       z     vdW  Elec       q    Type
REMARK                         _______ _______ _______ _____ _____    ______ ____
ROOT
ATOM      1  C   UNL     1      -3.662  -1.041  -0.337  0.00  0.00    +0.160 C 
ATOM      2  N   UNL     1      -2.273  -0.758  -0.071  0.00  0.00    -0.182 N 
ATOM      3  C   UNL     1      -1.853   0.530  -0.049  0.00  0.00    +0.355 A 
ATOM      4  O   UNL     1      -2.648   1.461   0.268  0.00  0.00    -0.244 OA
ATOM      5  N   UNL     1      -0.564   0.852  -0.202  0.00  0.00    -0.222 N 
ATOM      6  C   UNL     1       0.336  -0.160  -0.254  0.00  0.00    +0.198 A 
ATOM      7  C   UNL     1       1.593   0.428  -0.193  0.00  0.00    +0.176 A 
ATOM      8  N   UNL     1       1.383   1.762  -0.293  0.00  0.00    -0.217 NA
ATOM      9  N   UNL     1      -0.109  -1.394   0.003  0.00  0.00    -0.110 NA
ATOM     10  C   UNL     1       0.091   2.018  -0.027  0.00  0.00    +0.188 A 
ATOM     11  N   UNL     1      -1.385  -1.677   0.261  0.00  0.00    -0.059 NA
ENDROOT
BRANCH   7  12
ATOM     12  C   UNL     1       2.845  -0.250   0.165  0.00  0.00    +0.305 C 
ATOM     13  O   UNL     1       3.044  -0.419   1.405  0.00  0.00    -0.265 OA
ATOM     14  N   UNL     1       3.202  -1.352  -0.677  0.00  0.00    -0.082 NA
ENDBRANCH   7  12
TORSDOF 1
