REMARK  Name = 
REMARK  8 active torsions:
REMARK  status: ('A' for Active; 'I' for Inactive)
REMARK    1  A    between atoms: CA_2  and  C_3
REMARK    2  A    between atoms: CA_2  and  C_17
REMARK    3  A    between atoms: C_3  and  C_4
REMARK    4  A    between atoms: C_7  and  N_8
REMARK    5  A    between atoms: N_8  and  C_9
REMARK    6  A    between atoms: N_8  and  C_12
REMARK    7  A    between atoms: C_9  and  C_10
REMARK    8  A    between atoms: C_12  and  C_13
REMARK                            x       y       z     vdW  Elec       q    Type
REMARK                         _______ _______ _______ _____ _____    ______ ____
ROOT
ATOM      1  C   UNL     1       1.131  -0.020  -0.206  0.00  0.00    -0.020 A 
ATOM      2  C   UNL     1       0.514  -0.104   1.035  0.00  0.00    -0.003 A 
ATOM      3  C   UNL     1      -0.870  -0.103   1.135  0.00  0.00    +0.014 A 
ATOM      4  C   UNL     1      -1.641  -0.189  -0.015  0.00  0.00    +0.048 A 
ATOM      5  C   UNL     1      -1.001  -0.518  -1.190  0.00  0.00    +0.014 A 
ATOM      6  C   UNL     1       0.384  -0.411  -1.284  0.00  0.00    -0.003 A 
ENDROOT
BRANCH   1   7
ATOM      7  C   UNL     1       2.443   0.623  -0.233  0.00  0.00    +0.057 C 
BRANCH   7   9
ATOM      8  N   UNL     1       2.862  -1.678   0.158  0.00  0.00    -0.120 NA
ATOM      9  CA  UNL     1       3.515  -0.543  -0.771  0.00  0.00    +0.199 C 
BRANCH   9  10
ATOM     10  C   UNL     1       4.587  -0.144   0.409  0.00  0.00    +0.382 C 
ATOM     11  OXT UNL     1       5.365  -1.209   0.820  0.00  0.00    -0.244 OA
ATOM     12  O   UNL     1       5.120   0.965   0.202  0.00  0.00    -0.244 OA
ENDBRANCH   9  10
ENDBRANCH   7   9
ENDBRANCH   1   7
BRANCH   4  13
ATOM     13  N   UNL     1      -2.947   0.370   0.015  0.00  0.00    -0.305 N 
BRANCH  13  14
ATOM     14  C   UNL     1      -3.178   1.640  -0.674  0.00  0.00    +0.108 C 
BRANCH  14  15
ATOM     15  C   UNL     1      -2.035   2.588  -0.361  0.00  0.00    +0.116 C 
ATOM     16 CL   UNL     1      -2.688   4.080   0.395  0.00  0.00    -0.112 Cl
ENDBRANCH  14  15
ENDBRANCH  13  14
BRANCH  13  17
ATOM     17  C   UNL     1      -4.117  -0.484   0.158  0.00  0.00    +0.108 C 
BRANCH  17  18
ATOM     18  C   UNL     1      -3.695  -1.895   0.540  0.00  0.00    +0.116 C 
ATOM     19 CL   UNL     1      -3.748  -2.969  -0.889  0.00  0.00    -0.112 Cl
ENDBRANCH  17  18
ENDBRANCH  13  17
ENDBRANCH   4  13
TORSDOF 8
