REMARK  Name = 
REMARK  10 active torsions:
REMARK  status: ('A' for Active; 'I' for Inactive)
REMARK    1  A    between atoms: C_2  and  C_3
REMARK    2  A    between atoms: C_3  and  C_4
REMARK    3  A    between atoms: C_4  and  C_6
REMARK    4  A    between atoms: N_8  and  C_9
REMARK    5  A    between atoms: C_13  and  O_14
REMARK    6  A    between atoms: O_14  and  C_15
REMARK    7  A    between atoms: C_17  and  C_18
REMARK    8  A    between atoms: C_28  and  O_29
REMARK    9  A    between atoms: O_29  and  C_30
REMARK   10  A    between atoms: C_32  and  C_33
REMARK                            x       y       z     vdW  Elec       q    Type
REMARK                         _______ _______ _______ _____ _____    ______ ____
ROOT
ATOM      1  C   UNL     1      -0.867   1.349   0.128  0.00  0.00    +0.127 C 
ATOM      2  C   UNL     1      -0.877  -0.247  -0.467  0.00  0.00    +0.170 C 
ATOM      3  C   UNL     1       0.652  -0.494   0.249  0.00  0.00    +0.209 C 
ATOM      4  O   UNL     1       0.858  -1.842  -0.374  0.00  0.00    -0.218 OA
ATOM      5  C   UNL     1       1.516   0.107  -1.082  0.00  0.00    +0.168 C 
ATOM      6  C   UNL     1       1.270   1.745  -0.669  0.00  0.00    +0.123 C 
ATOM      7  N   UNL     1       1.881   2.274  -1.999  0.00  0.00    -0.130 NA
ATOM      8  C   UNL     1      -0.231   1.832  -1.294  0.00  0.00    +0.046 C 
ENDROOT
BRANCH   1  10
ATOM      9  C   UNL     1      -2.337   3.175  -0.276  0.00  0.00    +0.272 C 
ATOM     10  N   UNL     1      -2.324   1.781  -0.245  0.00  0.00    -0.202 NA
ATOM     11  O   UNL     1      -1.509   3.765  -0.885  0.00  0.00    -0.271 OA
BRANCH   9  12
ATOM     12  C   UNL     1      -3.226   3.950   0.834  0.00  0.00    +0.231 C 
ATOM     13  O   UNL     1      -2.528   5.294   0.681  0.00  0.00    -0.213 OA
BRANCH  12  14
ATOM     14  C   UNL     1      -4.391   4.390  -0.247  0.00  0.00    +0.063 C 
BRANCH  14  16
ATOM     15  N   UNL     1      -3.427   6.229  -1.400  0.00  0.00    -0.131 NA
ATOM     16  C   UNL     1      -3.686   4.893  -1.468  0.00  0.00    +0.112 C 
ENDBRANCH  14  16
ENDBRANCH  12  14
ENDBRANCH   9  12
ENDBRANCH   1  10
BRANCH   5  17
ATOM     17  O   UNL     1       2.879   0.098  -0.488  0.00  0.00    -0.327 OA
BRANCH  17  18
ATOM     18  C   UNL     1       2.898  -0.783   0.744  0.00  0.00    +0.269 C 
ATOM     19  C   UNL     1       4.012   0.129   1.708  0.00  0.00    +0.241 C 
ATOM     20  O   UNL     1       2.811   0.995   1.897  0.00  0.00    -0.215 OA
ATOM     21  C   UNL     1       4.546   1.131   0.462  0.00  0.00    +0.220 C 
ATOM     22  O   UNL     1       5.717   1.744   1.254  0.00  0.00    -0.217 OA
ATOM     23  C   UNL     1       5.728   0.200  -0.277  0.00  0.00    +0.213 C 
ATOM     24  O   UNL     1       5.147   0.285  -1.731  0.00  0.00    -0.218 OA
ATOM     25  C   UNL     1       5.330  -1.452  -0.113  0.00  0.00    +0.170 C 
ATOM     26  O   UNL     1       4.023  -1.688   0.479  0.00  0.00    -0.327 OA
BRANCH  25  27
ATOM     27  C   UNL     1       6.286  -1.598   1.286  0.00  0.00    +0.142 C 
ATOM     28  N   UNL     1       7.414  -1.401   0.494  0.00  0.00    -0.129 NA
ENDBRANCH  25  27
ENDBRANCH  17  18
ENDBRANCH   5  17
BRANCH   2  29
ATOM     29  O   UNL     1      -1.510  -0.733   0.783  0.00  0.00    -0.327 OA
BRANCH  29  30
ATOM     30  C   UNL     1      -2.712  -1.510   0.258  0.00  0.00    +0.268 C 
ATOM     31  C   UNL     1      -2.855  -2.155   1.854  0.00  0.00    +0.228 C 
ATOM     32  O   UNL     1      -1.728  -3.137   1.795  0.00  0.00    -0.216 OA
ATOM     33  C   UNL     1      -4.110  -3.246   1.514  0.00  0.00    +0.160 C 
ATOM     34  N   UNL     1      -5.163  -2.134   1.775  0.00  0.00    -0.127 NA
ATOM     35  C   UNL     1      -4.179  -2.988  -0.151  0.00  0.00    +0.202 C 
ATOM     36  O   UNL     1      -4.955  -4.249  -0.340  0.00  0.00    -0.219 OA
ATOM     37  C   UNL     1      -2.705  -3.829  -0.314  0.00  0.00    +0.182 C 
ATOM     38  O   UNL     1      -1.864  -2.590  -0.373  0.00  0.00    -0.326 OA
BRANCH  37  39
ATOM     39  C   UNL     1      -2.855  -3.943  -1.940  0.00  0.00    +0.214 C 
ATOM     40  O   UNL     1      -2.929  -5.345  -2.061  0.00  0.00    -0.218 OA
ENDBRANCH  37  39
ENDBRANCH  29  30
ENDBRANCH   2  29
TORSDOF 10
