REMARK  Name = 
REMARK  5 active torsions:
REMARK  status: ('A' for Active; 'I' for Inactive)
REMARK    1  A    between atoms: C_2  and  C_3
REMARK    2  A    between atoms: CA_4  and  C_5
REMARK    3  A    between atoms: CA_11  and  N_12
REMARK    4  A    between atoms: C_13  and  C_15
REMARK    5  A    between atoms: C_15  and  C_18
REMARK                            x       y       z     vdW  Elec       q    Type
REMARK                         _______ _______ _______ _____ _____    ______ ____
ROOT
ATOM      1  C   UNL     1       4.097  -0.616  -0.921  0.00  0.00    +0.009 C 
ATOM      2  C   UNL     1       3.629   0.514  -1.788  0.00  0.00    +0.087 C 
ATOM      3  S   UNL     1       1.816   0.692  -1.679  0.00  0.00    -0.114 S 
ATOM      4  C   UNL     1       1.335  -0.924  -0.779  0.00  0.00    +0.157 C 
ATOM      5  N   UNL     1       2.105  -0.502   0.466  0.00  0.00    -0.242 N 
ATOM      6  C   UNL     1       1.167   0.533   0.851  0.00  0.00    +0.253 C 
ATOM      7  O   UNL     1       0.954   0.885   2.055  0.00  0.00    -0.273 OA
ATOM      8  CA  UNL     1       0.039  -0.446   0.203  0.00  0.00    +0.201 C 
ATOM      9  CA  UNL     1       3.518  -0.665   0.280  0.00  0.00    +0.132 C 
ENDROOT
BRANCH   8  10
ATOM     10  N   UNL     1      -0.543   0.640  -0.817  0.00  0.00    -0.190 NA
ATOM     11  C   UNL     1      -1.742   1.253  -0.393  0.00  0.00    +0.288 C 
ATOM     12  O   UNL     1      -1.659   1.773   0.762  0.00  0.00    -0.267 OA
BRANCH  11  13
ATOM     13  C   UNL     1      -3.051   1.062  -1.034  0.00  0.00    +0.197 C 
ATOM     14  N   UNL     1      -3.627   2.155  -1.442  0.00  0.00    -0.023 NA
ATOM     15  O   UNL     1      -2.933   3.327  -1.661  0.00  0.00    -0.143 OA
BRANCH  13  16
ATOM     16  C   UNL     1      -3.972  -0.009  -0.592  0.00  0.00    +0.115 A 
ATOM     17  N   UNL     1      -4.856   0.275   0.384  0.00  0.00    -0.220 NA
ATOM     18  C   UNL     1      -5.751  -0.726   0.559  0.00  0.00    +0.201 A 
ATOM     19  N   UNL     1      -7.066  -0.645   1.128  0.00  0.00    -0.100 NA
ATOM     20  S   UNL     1      -4.672  -2.063   0.491  0.00  0.00    -0.048 S 
ATOM     21  C   UNL     1      -3.430  -1.281  -0.403  0.00  0.00    +0.059 A 
ENDBRANCH  13  16
ENDBRANCH  11  13
ENDBRANCH   8  10
BRANCH   9  22
ATOM     22  C   UNL     1       4.225  -1.083   1.490  0.00  0.00    +0.401 C 
ATOM     23  OXT UNL     1       4.248  -2.427   1.878  0.00  0.00    -0.239 OA
ATOM     24  O   UNL     1       4.322  -0.261   2.449  0.00  0.00    -0.239 OA
ENDBRANCH   9  22
BRANCH   1  26
ATOM     25  C   UNL     1       6.367  -0.414  -0.427  0.00  0.00    -0.000 C 
ATOM     26  C   UNL     1       5.478  -1.049  -1.063  0.00  0.00    -0.002 C 
ENDBRANCH   1  26
TORSDOF 5
