REMARK  Name = 
REMARK  4 active torsions:
REMARK  status: ('A' for Active; 'I' for Inactive)
REMARK    1  A    between atoms: C_2  and  C_3
REMARK    2  A    between atoms: C_2  and  C_6
REMARK    3  A    between atoms: C_10  and  O_11
REMARK    4  A    between atoms: O_11  and  C_12
REMARK                            x       y       z     vdW  Elec       q    Type
REMARK                         _______ _______ _______ _____ _____    ______ ____
ROOT
ATOM      1  C   UNL     1       2.030  -0.050  -0.080  0.00  0.00    -0.009 A 
ATOM      2  C   UNL     1       0.972   0.621   0.494  0.00  0.00    +0.034 A 
ATOM      3  C   UNL     1      -0.300   0.352   0.032  0.00  0.00    +0.145 A 
ATOM      4  C   UNL     1      -0.482  -0.510  -1.042  0.00  0.00    +0.037 A 
ATOM      5  C   UNL     1       0.653  -0.896  -1.743  0.00  0.00    +0.003 A 
ATOM      6  C   UNL     1       1.807  -1.007  -0.980  0.00  0.00    -0.004 A 
ENDROOT
BRANCH   1   8
ATOM      7  C   UNL     1       3.525  -1.794   0.744  0.00  0.00    +0.017 C 
ATOM      8  C   UNL     1       3.347  -0.134   0.882  0.00  0.00    +0.126 C 
BRANCH   8   9
ATOM      9  C   UNL     1       4.373   0.165  -0.358  0.00  0.00    +0.368 C 
ATOM     10  O   UNL     1       5.042   1.366  -0.248  0.00  0.00    -0.245 OA
ATOM     11  O   UNL     1       4.242  -0.523  -1.362  0.00  0.00    -0.245 OA
ENDBRANCH   8   9
ENDBRANCH   1   8
BRANCH   3  12
ATOM     12  O   UNL     1      -1.357   0.844   0.769  0.00  0.00    -0.454 OA
BRANCH  12  13
ATOM     13  C   UNL     1      -2.655   0.489   0.425  0.00  0.00    +0.145 A 
ATOM     14  C   UNL     1      -3.214   0.999  -0.733  0.00  0.00    +0.037 A 
ATOM     15  C   UNL     1      -4.550   0.767  -0.978  0.00  0.00    +0.003 A 
ATOM     16  C   UNL     1      -5.318   0.215   0.011  0.00  0.00    +0.000 A 
ATOM     17  C   UNL     1      -4.731  -0.547   0.985  0.00  0.00    +0.003 A 
ATOM     18  C   UNL     1      -3.385  -0.357   1.245  0.00  0.00    +0.037 A 
ENDBRANCH  12  13
ENDBRANCH   3  12
TORSDOF 4
