REMARK  Name = 
REMARK  2 active torsions:
REMARK  status: ('A' for Active; 'I' for Inactive)
REMARK    1  A    between atoms: N_5  and  C1*_6
REMARK    2  A    between atoms: C4*_10  and  C5*_11
REMARK                            x       y       z     vdW  Elec       q    Type
REMARK                         _______ _______ _______ _____ _____    ______ ____
ROOT
ATOM      1  N   UNL     1       4.601   0.643   0.069  0.00  0.00    -0.086 NA
ATOM      2  C   UNL     1       3.435  -0.155   0.285  0.00  0.00    +0.262 A 
ATOM      3  N   UNL     1       2.667  -0.657  -0.716  0.00  0.00    -0.156 NA
ATOM      4  C   UNL     1       1.303  -0.707  -0.606  0.00  0.00    +0.355 A 
ATOM      5  O   UNL     1       0.546  -0.986  -1.560  0.00  0.00    -0.244 OA
ATOM      6  N   UNL     1       0.859   0.196   0.182  0.00  0.00    -0.239 N 
ATOM      7  C   UNL     1       1.436   0.190   1.421  0.00  0.00    +0.187 A 
ATOM      8  N   UNL     1       2.781   0.022   1.461  0.00  0.00    -0.190 NA
ENDROOT
BRANCH   6   9
ATOM      9  C1* UNL     1      -0.644   0.477   0.534  0.00  0.00    +0.212 C 
ATOM     10  O4* UNL     1      -1.279  -0.773  -0.097  0.00  0.00    -0.332 OA
ATOM     11  C4* UNL     1      -2.403  -0.093   0.675  0.00  0.00    +0.180 C 
ATOM     12  C3* UNL     1      -2.632   1.097  -0.552  0.00  0.00    +0.186 C 
ATOM     13  O3* UNL     1      -2.584   2.185   0.493  0.00  0.00    -0.220 OA
ATOM     14  C2* UNL     1      -1.029   1.263  -0.867  0.00  0.00    +0.090 C 
BRANCH  11  15
ATOM     15  C5* UNL     1      -3.660  -1.002   0.173  0.00  0.00    +0.214 C 
ATOM     16  O5* UNL     1      -3.397  -1.700  -0.896  0.00  0.00    -0.218 OA
ENDBRANCH  11  15
ENDBRANCH   6   9
TORSDOF 2
