REMARK  Name = 
REMARK  26 active torsions:
REMARK  status: ('A' for Active; 'I' for Inactive)
REMARK    1  A    between atoms: O_2  and  C_3
REMARK    2  A    between atoms: C_6  and  C_7
REMARK    3  A    between atoms: C_7  and  C_8
REMARK    4  A    between atoms: C_11  and  O_12
REMARK    5  A    between atoms: C_14  and  O_15
REMARK    6  A    between atoms: N_21  and  C_23
REMARK    7  A    between atoms: C_23  and  C_24
REMARK    8  A    between atoms: C_24  and  C_25
REMARK    9  A    between atoms: C_25  and  O_27
REMARK   10  A    between atoms: O_27  and  C_28
REMARK   11  A    between atoms: C_28  and  C_29
REMARK   12  A    between atoms: C_29  and  C_30
REMARK   13  A    between atoms: C_30  and  C_31
REMARK   14  A    between atoms: C_31  and  C_32
REMARK   15  A    between atoms: C_32  and  O_33
REMARK   16  A    between atoms: O_33  and  C_34
REMARK   17  A    between atoms: C_34  and  C_36
REMARK   18  A    between atoms: C_36  and  C_37
REMARK   19  A    between atoms: C_37  and  N_38
REMARK   20  A    between atoms: C_44  and  O_45
REMARK   21  A    between atoms: C_47  and  O_48
REMARK   22  A    between atoms: C_52  and  C_53
REMARK   23  A    between atoms: C_53  and  C_54
REMARK   24  A    between atoms: C_57  and  O_58
REMARK   25  A    between atoms: C_60  and  O_61
REMARK   26  A    between atoms: C_65  and  O_66
REMARK                            x       y       z     vdW  Elec       q    Type
REMARK                         _______ _______ _______ _____ _____    ______ ____
ROOT
ATOM      1  C   UNL     1       0.966   0.380   1.065  0.00  0.00    +0.008 C 
ENDROOT
BRANCH   1   2
ATOM      2  C   UNL     1       0.059   1.174   0.131  0.00  0.00    +0.048 C 
BRANCH   2   3
ATOM      3  C   UNL     1      -1.254   0.462   0.134  0.00  0.00    +0.208 C 
BRANCH   3   4
ATOM      4  O   UNL     1      -1.829   0.325  -1.158  0.00  0.00    -0.448 OA
BRANCH   4   5
ATOM      5  C   UNL     1      -3.016   1.008  -1.442  0.00  0.00    +0.323 C 
ATOM      6  O   UNL     1      -2.983   2.242  -1.146  0.00  0.00    -0.250 OA
BRANCH   5   7
ATOM      7  C   UNL     1      -4.203   0.360  -2.053  0.00  0.00    +0.170 C 
BRANCH   7   8
ATOM      8  C   UNL     1      -4.924  -0.556  -1.075  0.00  0.00    +0.121 C 
BRANCH   8   9
ATOM      9  N   UNL     1      -5.621   0.273  -0.120  0.00  0.00    +0.301 N 
ATOM     10  C   UNL     1      -6.999  -0.491   0.146  0.00  0.00    +0.086 C 
ATOM     11  C   UNL     1      -7.716   0.857   0.713  0.00  0.00    +0.027 A 
ATOM     12  C   UNL     1      -7.187   1.284   1.915  0.00  0.00    -0.012 A 
ATOM     13  C   UNL     1      -7.564   2.516   2.386  0.00  0.00    +0.036 A 
ATOM     14  C   UNL     1      -8.490   3.258   1.663  0.00  0.00    +0.172 A 
ATOM     15  C   UNL     1      -8.855   2.845   0.387  0.00  0.00    +0.172 A 
ATOM     16  C   UNL     1      -5.924   0.601   2.308  0.00  0.00    +0.087 C 
ATOM     17  C   UNL     1      -8.586   1.541  -0.022  0.00  0.00    +0.041 A 
ATOM     18  C   UNL     1      -5.001   0.355   1.158  0.00  0.00    +0.114 C 
ATOM     19  C   UNL     1      -5.958   1.503  -0.745  0.00  0.00    +0.171 C 
BRANCH  14  20
ATOM     20  O   UNL     1      -8.543   4.622   1.965  0.00  0.00    -0.468 OA
ATOM     21  C   UNL     1      -8.320   5.022   3.297  0.00  0.00    +0.253 C 
ENDBRANCH  14  20
BRANCH  15  22
ATOM     22  O   UNL     1      -9.120   3.832  -0.570  0.00  0.00    -0.468 OA
ATOM     23  C   UNL     1     -10.419   4.317  -0.793  0.00  0.00    +0.253 C 
ENDBRANCH  15  22
BRANCH  10  24
ATOM     24  C   UNL     1      -7.483  -0.284  -1.441  0.00  0.00    +0.086 C 
BRANCH  24  25
ATOM     25  C   UNL     1      -8.577  -1.308  -1.509  0.00  0.00    -0.013 A 
ATOM     26  C   UNL     1      -8.395  -2.604  -1.037  0.00  0.00    +0.036 A 
ATOM     27  C   UNL     1      -9.465  -3.385  -0.608  0.00  0.00    +0.172 A 
ATOM     28  C   UNL     1     -10.572  -2.681  -0.147  0.00  0.00    +0.172 A 
ATOM     29  C   UNL     1     -10.868  -1.531  -0.868  0.00  0.00    +0.040 A 
ATOM     30  C   UNL     1      -9.909  -0.962  -1.700  0.00  0.00    -0.001 A 
BRANCH  28  31
ATOM     31  O   UNL     1     -11.248  -3.012   1.023  0.00  0.00    -0.468 OA
ATOM     32  C   UNL     1     -10.992  -2.310   2.223  0.00  0.00    +0.253 C 
ENDBRANCH  28  31
BRANCH  27  33
ATOM     33  O   UNL     1      -9.248  -4.644  -0.036  0.00  0.00    -0.468 OA
ATOM     34  C   UNL     1     -10.299  -5.589  -0.038  0.00  0.00    +0.253 C 
ENDBRANCH  27  33
ENDBRANCH  24  25
ENDBRANCH  10  24
ENDBRANCH   8   9
ENDBRANCH   7   8
ENDBRANCH   5   7
ENDBRANCH   4   5
ENDBRANCH   3   4
ENDBRANCH   2   3
ENDBRANCH   1   2
BRANCH   1  35
ATOM     35  C   UNL     1       0.487  -1.031   1.263  0.00  0.00    +0.048 C 
BRANCH  35  36
ATOM     36  C   UNL     1       0.386  -1.815  -0.021  0.00  0.00    +0.208 C 
BRANCH  36  37
ATOM     37  O   UNL     1       1.595  -2.403  -0.418  0.00  0.00    -0.448 OA
BRANCH  37  38
ATOM     38  C   UNL     1       2.721  -2.421   0.398  0.00  0.00    +0.323 C 
ATOM     39  O   UNL     1       2.490  -2.635   1.627  0.00  0.00    -0.250 OA
BRANCH  38  40
ATOM     40  C   UNL     1       4.101  -2.215  -0.112  0.00  0.00    +0.170 C 
BRANCH  40  41
ATOM     41  C   UNL     1       4.531  -0.770   0.117  0.00  0.00    +0.121 C 
BRANCH  41  43
ATOM     42  C   UNL     1       6.491  -0.100  -1.199  0.00  0.00    +0.086 C 
ATOM     43  N   UNL     1       4.907  -0.109  -1.050  0.00  0.00    +0.301 N 
ATOM     44  C   UNL     1       4.525  -0.780  -2.294  0.00  0.00    +0.171 C 
ATOM     45  C   UNL     1       4.454   1.226  -1.133  0.00  0.00    +0.114 C 
ATOM     46  C   UNL     1       5.399   2.224  -1.717  0.00  0.00    +0.087 C 
ATOM     47  C   UNL     1       6.539   2.264  -0.745  0.00  0.00    -0.012 A 
ATOM     48  C   UNL     1       7.218   3.409  -0.418  0.00  0.00    +0.036 A 
ATOM     49  C   UNL     1       8.523   3.233   0.026  0.00  0.00    +0.172 A 
ATOM     50  C   UNL     1       8.824   2.024   0.640  0.00  0.00    +0.172 A 
ATOM     51  C   UNL     1       7.941   0.962   0.566  0.00  0.00    +0.041 A 
ATOM     52  C   UNL     1       6.696   1.060  -0.055  0.00  0.00    +0.027 A 
BRANCH  50  53
ATOM     53  O   UNL     1      10.141   1.877   1.089  0.00  0.00    -0.468 OA
ATOM     54  C   UNL     1      10.504   2.361   2.380  0.00  0.00    +0.253 C 
ENDBRANCH  50  53
BRANCH  49  55
ATOM     55  O   UNL     1       9.537   4.133  -0.326  0.00  0.00    -0.468 OA
ATOM     56  C   UNL     1      10.457   3.817  -1.369  0.00  0.00    +0.253 C 
ENDBRANCH  49  55
BRANCH  42  57
ATOM     57  C   UNL     1       6.737  -1.325  -0.093  0.00  0.00    +0.086 C 
BRANCH  57  61
ATOM     58  C   UNL     1      10.817  -2.413  -0.270  0.00  0.00    +0.172 A 
ATOM     59  C   UNL     1      10.141  -2.411   0.936  0.00  0.00    +0.172 A 
ATOM     60  C   UNL     1       8.768  -2.223   0.902  0.00  0.00    +0.036 A 
ATOM     61  C   UNL     1       8.172  -1.644  -0.199  0.00  0.00    -0.013 A 
ATOM     62  C   UNL     1       8.828  -1.665  -1.399  0.00  0.00    -0.001 A 
ATOM     63  C   UNL     1      10.184  -1.890  -1.391  0.00  0.00    +0.040 A 
BRANCH  58  65
ATOM     64  C   UNL     1      12.576  -3.515   0.631  0.00  0.00    +0.253 C 
ATOM     65  O   UNL     1      12.071  -2.988  -0.312  0.00  0.00    -0.468 OA
ENDBRANCH  58  65
BRANCH  59  66
ATOM     66  O   UNL     1      10.850  -2.427   2.122  0.00  0.00    -0.468 OA
ATOM     67  C   UNL     1      10.934  -1.237   2.891  0.00  0.00    +0.253 C 
ENDBRANCH  59  66
ENDBRANCH  57  61
ENDBRANCH  42  57
ENDBRANCH  41  43
ENDBRANCH  40  41
ENDBRANCH  38  40
ENDBRANCH  37  38
ENDBRANCH  36  37
ENDBRANCH  35  36
ENDBRANCH   1  35
TORSDOF 26
