REMARK  Name = 
REMARK  7 active torsions:
REMARK  status: ('A' for Active; 'I' for Inactive)
REMARK    1  A    between atoms: C_2  and  O_4
REMARK    2  A    between atoms: O_4  and  C_5
REMARK    3  A    between atoms: C_5  and  C_6
REMARK    4  A    between atoms: C_6  and  C_7
REMARK    5  A    between atoms: C_6  and  C_12
REMARK    6  A    between atoms: C_7  and  O_8
REMARK    7  A    between atoms: O_8  and  C_9
REMARK                            x       y       z     vdW  Elec       q    Type
REMARK                         _______ _______ _______ _____ _____    ______ ____
ROOT
ATOM      1  C   UNL     1      -0.138  -0.168   0.497  0.00  0.00    +0.110 C 
ENDROOT
BRANCH   1   2
ATOM      2  C   UNL     1      -1.398  -0.835   0.110  0.00  0.00    -0.015 A 
ATOM      3  C   UNL     1      -1.726  -2.059   0.683  0.00  0.00    -0.004 A 
ATOM      4  C   UNL     1      -3.033  -2.365   1.045  0.00  0.00    -0.000 A 
ATOM      5  C   UNL     1      -4.071  -1.532   0.644  0.00  0.00    -0.000 A 
ATOM      6  C   UNL     1      -3.745  -0.594  -0.328  0.00  0.00    -0.000 A 
ATOM      7  C   UNL     1      -2.432  -0.210  -0.557  0.00  0.00    -0.004 A 
ENDBRANCH   1   2
BRANCH   1   8
ATOM      8  C   UNL     1       0.188   0.974  -0.415  0.00  0.00    +0.218 C 
BRANCH   8   9
ATOM      9  O   UNL     1       0.401   2.122   0.406  0.00  0.00    -0.432 OA
BRANCH   9  11
ATOM     10  N   UNL     1       1.472   4.337   0.175  0.00  0.00    -0.048 NA
ATOM     11  C   UNL     1       0.486   3.370  -0.209  0.00  0.00    +0.441 C 
ATOM     12  O   UNL     1      -0.196   3.554  -1.262  0.00  0.00    -0.223 OA
ENDBRANCH   9  11
ENDBRANCH   8   9
ENDBRANCH   1   8
BRANCH   1  13
ATOM     13  C   UNL     1       0.947  -1.216   0.484  0.00  0.00    +0.218 C 
BRANCH  13  14
ATOM     14  O   UNL     1       2.248  -0.648   0.553  0.00  0.00    -0.432 OA
BRANCH  14  15
ATOM     15  C   UNL     1       3.343  -1.394   0.109  0.00  0.00    +0.441 C 
ATOM     16  O   UNL     1       3.107  -2.551  -0.340  0.00  0.00    -0.223 OA
ATOM     17  N   UNL     1       4.546  -0.785  -0.340  0.00  0.00    -0.048 NA
ENDBRANCH  14  15
ENDBRANCH  13  14
ENDBRANCH   1  13
TORSDOF 7
