REMARK  Name = 
REMARK  5 active torsions:
REMARK  status: ('A' for Active; 'I' for Inactive)
REMARK    1  A    between atoms: C_2  and  C_3
REMARK    2  A    between atoms: C_3  and  O_5
REMARK    3  A    between atoms: O_5  and  C_6
REMARK    4  A    between atoms: C_6  and  C_7
REMARK    5  A    between atoms: C_7  and  C_9
REMARK                            x       y       z     vdW  Elec       q    Type
REMARK                         _______ _______ _______ _____ _____    ______ ____
ROOT
ATOM      1  C   UNL     1      -2.306   0.536  -0.063  0.00  0.00    +0.187 C 
ATOM      2  C   UNL     1      -0.919   0.413   0.100  0.00  0.00    +0.043 C 
ATOM      3  C   UNL     1      -0.481  -0.591  -1.090  0.00  0.00    +0.007 C 
ATOM      4  C   UNL     1       1.090   0.024  -0.987  0.00  0.00    +0.034 C 
ATOM      5  C   UNL     1       1.644  -1.185  -0.077  0.00  0.00    +0.168 C 
ATOM      6  C   UNL     1       0.452  -1.514   0.984  0.00  0.00    +0.182 C 
ATOM      7  O   UNL     1       1.353  -1.412   2.202  0.00  0.00    -0.220 OA
ATOM      8  F   UNL     1       1.682  -2.340  -0.748  0.00  0.00    -0.237 F 
ATOM      9  C   UNL     1       2.831  -0.640   0.420  0.00  0.00    +0.064 C 
ATOM     10  C   UNL     1       3.518  -0.129  -0.826  0.00  0.00    -0.035 C 
ATOM     11  C   UNL     1       4.602   0.639  -0.700  0.00  0.00    +0.034 C 
ATOM     12  C   UNL     1       5.246   0.563   0.624  0.00  0.00    +0.195 C 
ATOM     13  C   UNL     1       5.042  -0.768   1.227  0.00  0.00    +0.038 C 
ATOM     14  O   UNL     1       5.971   1.450   1.092  0.00  0.00    -0.287 OA
ATOM     15  C   UNL     1       3.109  -0.721  -2.136  0.00  0.00    +0.023 C 
ATOM     16  C   UNL     1       2.749   0.499   1.426  0.00  0.00    +0.011 C 
ATOM     17  C   UNL     1       3.941  -1.487   0.952  0.00  0.00    -0.017 C 
ATOM     18  C   UNL     1       1.605  -0.616  -2.381  0.00  0.00    +0.007 C 
ATOM     19  C   UNL     1      -1.012   0.522  -2.123  0.00  0.00    +0.004 C 
ATOM     20  C   UNL     1      -0.424   1.820  -0.281  0.00  0.00    +0.004 C 
ATOM     21  C   UNL     1      -0.097   0.030   1.181  0.00  0.00    +0.039 C 
ATOM     22  C   UNL     1      -2.579   0.548  -1.667  0.00  0.00    +0.044 C 
ATOM     23  C   UNL     1      -2.672   2.172  -1.836  0.00  0.00    +0.004 C 
ENDROOT
BRANCH   1  24
ATOM     24  C   UNL     1      -2.789   1.849   0.500  0.00  0.00    +0.203 C 
ATOM     25  O   UNL     1      -2.235   2.095   1.581  0.00  0.00    -0.291 OA
BRANCH  24  26
ATOM     26  C   UNL     1      -4.233   2.238   0.423  0.00  0.00    +0.163 C 
ATOM     27 CL   UNL     1      -4.483   3.713   1.381  0.00  0.00    -0.105 Cl
ENDBRANCH  24  26
ENDBRANCH   1  24
BRANCH   1  28
ATOM     28  O   UNL     1      -3.276  -0.292   0.461  0.00  0.00    -0.449 OA
BRANCH  28  29
ATOM     29  C   UNL     1      -3.723  -1.369  -0.319  0.00  0.00    +0.317 C 
ATOM     30  O   UNL     1      -2.830  -2.266  -0.204  0.00  0.00    -0.250 OA
BRANCH  29  32
ATOM     31  C   UNL     1      -5.653  -1.886   0.054  0.00  0.00    +0.012 C 
ATOM     32  C   UNL     1      -5.124  -1.895  -0.217  0.00  0.00    +0.110 C 
ENDBRANCH  29  32
ENDBRANCH  28  29
ENDBRANCH   1  28
TORSDOF 5
