REMARK  Name = 
REMARK  6 active torsions:
REMARK  status: ('A' for Active; 'I' for Inactive)
REMARK    1  A    between atoms: C_2  and  N_4
REMARK    2  A    between atoms: C_2  and  C_32
REMARK    3  A    between atoms: C_5  and  C_7
REMARK    4  A    between atoms: N_21  and  C_22
REMARK    5  A    between atoms: C_22  and  C_23
REMARK    6  A    between atoms: C_34  and  C_35
REMARK                            x       y       z     vdW  Elec       q    Type
REMARK                         _______ _______ _______ _____ _____    ______ ____
ROOT
ATOM      1  C   UNL     1      -0.718  -0.811  -0.405  0.00  0.00    +0.074 C 
ATOM      2  C   UNL     1      -1.760  -0.048  -1.178  0.00  0.00    +0.066 C 
ATOM      3  C   UNL     1      -2.433   0.619  -0.010  0.00  0.00    +0.152 C 
ATOM      4  C   UNL     1      -3.469   1.581  -0.830  0.00  0.00    +0.091 C 
ATOM      5  N   UNL     1      -3.739   2.456   0.445  0.00  0.00    -0.271 NA
ATOM      6  C   UNL     1      -4.516   1.780   1.347  0.00  0.00    +0.073 C 
ATOM      7  C   UNL     1      -3.831   0.585   1.985  0.00  0.00    +0.028 C 
ATOM      8  C   UNL     1      -4.836   0.669  -0.680  0.00  0.00    +0.045 C 
ATOM      9  C   UNL     1      -4.390  -0.740  -0.958  0.00  0.00    -0.021 A 
ATOM     10  C   UNL     1      -5.182  -1.690  -1.593  0.00  0.00    -0.001 A 
ATOM     11  C   UNL     1      -5.015  -3.035  -1.244  0.00  0.00    +0.045 A 
ATOM     12  C   UNL     1      -4.194  -3.402  -0.178  0.00  0.00    +0.229 A 
ATOM     13  C   UNL     1      -3.464  -2.450   0.524  0.00  0.00    +0.174 A 
ATOM     14  O   UNL     1      -2.964  -2.327   1.834  0.00  0.00    -0.468 OA
ATOM     15  C   UNL     1      -2.010  -1.100   1.706  0.00  0.00    +0.232 C 
ATOM     16  O   UNL     1      -4.171  -4.703   0.333  0.00  0.00    -0.283 OA
ATOM     17  C   UNL     1      -3.883  -1.202   0.241  0.00  0.00    +0.017 A 
ATOM     18  O   UNL     1      -1.495   1.520   0.519  0.00  0.00    -0.223 OA
ATOM     19  C   UNL     1      -3.141  -0.187   0.936  0.00  0.00    +0.094 C 
ATOM     20  C   UNL     1      -1.310  -1.694   0.358  0.00  0.00    +0.214 C 
ATOM     21  O   UNL     1      -0.519  -2.796   0.712  0.00  0.00    -0.288 OA
ENDROOT
BRANCH   1  23
ATOM     22  N   UNL     1       1.718  -0.478   0.213  0.00  0.00    -0.196 NA
ATOM     23  C   UNL     1       0.672  -0.682  -0.739  0.00  0.00    +0.264 C 
ATOM     24  O   UNL     1       0.956  -0.134  -1.854  0.00  0.00    -0.269 OA
BRANCH  22  26
ATOM     25  C   UNL     1       3.026  -0.976  -0.955  0.00  0.00    +0.031 C 
ATOM     26  C   UNL     1       3.074  -0.761  -0.073  0.00  0.00    +0.150 C 
ATOM     27  C   UNL     1       3.486  -1.912   0.831  0.00  0.00    +0.031 C 
BRANCH  26  28
ATOM     28  C   UNL     1       3.955   0.401   0.223  0.00  0.00    +0.254 A 
ATOM     29  O   UNL     1       4.114   1.431  -0.590  0.00  0.00    -0.335 OA
ATOM     30  N   UNL     1       5.339   1.889  -0.493  0.00  0.00    -0.056 NA
ATOM     31  C   UNL     1       5.985   1.226   0.499  0.00  0.00    +0.203 A 
ATOM     32  N   UNL     1       4.982   0.524   1.087  0.00  0.00    -0.189 NA
BRANCH  31  33
ATOM     33  C   UNL     1       7.431   0.942   0.563  0.00  0.00    +0.039 A 
ATOM     34  C   UNL     1       7.898   0.248   1.672  0.00  0.00    +0.003 A 
ATOM     35  C   UNL     1       8.975  -0.627   1.590  0.00  0.00    +0.000 A 
ATOM     36  C   UNL     1       9.291  -1.185   0.357  0.00  0.00    +0.000 A 
ATOM     37  C   UNL     1       8.948  -0.415  -0.745  0.00  0.00    +0.000 A 
ATOM     38  C   UNL     1       8.151   0.711  -0.603  0.00  0.00    +0.003 A 
ENDBRANCH  31  33
ENDBRANCH  26  28
ENDBRANCH  22  26
ENDBRANCH   1  23
BRANCH   5  39
ATOM     39  C   UNL     1      -3.914   3.780   0.087  0.00  0.00    +0.072 C 
BRANCH  39  40
ATOM     40  C   UNL     1      -4.865   4.048  -1.062  0.00  0.00    +0.016 C 
ATOM     41  C   UNL     1      -6.331   3.746  -0.641  0.00  0.00    +0.001 C 
ATOM     42  C   UNL     1      -5.851   5.199  -0.754  0.00  0.00    +0.001 C 
ENDBRANCH  39  40
ENDBRANCH   5  39
TORSDOF 6
