REMARK  Name = 
REMARK  1 active torsions:
REMARK  status: ('A' for Active; 'I' for Inactive)
REMARK    1  A    between atoms: C_2  and  C_4
REMARK                            x       y       z     vdW  Elec       q    Type
REMARK                         _______ _______ _______ _____ _____    ______ ____
ROOT
ATOM      1  C   UNL     1       0.303   0.056  -0.330  0.00  0.00    +0.160 A 
ATOM      2  N   UNL     1      -0.423   1.187  -0.147  0.00  0.00    -0.236 NA
ATOM      3  C   UNL     1      -1.675   1.106   0.364  0.00  0.00    +0.120 A 
ATOM      4  C   UNL     1      -2.321  -0.119   0.481  0.00  0.00    +0.120 A 
ATOM      5  N   UNL     1      -1.783  -1.129  -0.249  0.00  0.00    -0.239 NA
ATOM      6  C   UNL     1      -0.468  -1.074  -0.545  0.00  0.00    +0.123 A 
ENDROOT
BRANCH   1   8
ATOM      7  N   UNL     1       2.595   0.447  -0.829  0.00  0.00    -0.101 NA
ATOM      8  C   UNL     1       1.717   0.001  -0.008  0.00  0.00    +0.316 C 
ATOM      9  O   UNL     1       2.054  -0.475   1.262  0.00  0.00    -0.262 OA
ENDBRANCH   1   8
TORSDOF 1
