REMARK  Name = 
REMARK  2 active torsions:
REMARK  status: ('A' for Active; 'I' for Inactive)
REMARK    1  A    between atoms: C_23  and  C_24
REMARK    2  A    between atoms: C_24  and  C_26
REMARK                            x       y       z     vdW  Elec       q    Type
REMARK                         _______ _______ _______ _____ _____    ______ ____
ROOT
ATOM      1  C   UNL     1       2.600  -2.931  -1.282  0.00  0.00    +0.000 C 
ATOM      2  C   UNL     1       3.151  -2.131   0.020  0.00  0.00    +0.007 C 
ATOM      3  C   UNL     1       3.008  -0.647  -0.789  0.00  0.00    +0.060 C 
ATOM      4  C   UNL     1       1.887  -0.036   0.167  0.00  0.00    +0.009 C 
ATOM      5  C   UNL     1       0.919  -1.241  -0.318  0.00  0.00    +0.003 C 
ATOM      6  C   UNL     1      -0.217  -0.624   0.772  0.00  0.00    +0.033 C 
ATOM      7  C   UNL     1      -1.049   0.031  -0.435  0.00  0.00    +0.168 C 
ATOM      8  C   UNL     1       0.049   0.743  -1.407  0.00  0.00    +0.182 C 
ATOM      9  O   UNL     1      -0.552   2.135  -1.289  0.00  0.00    -0.220 OA
ATOM     10  F   UNL     1      -1.527  -0.932  -1.260  0.00  0.00    -0.237 F 
ATOM     11  C   UNL     1      -1.986   0.879   0.212  0.00  0.00    +0.064 C 
ATOM     12  C   UNL     1      -2.736  -0.070   1.098  0.00  0.00    -0.035 C 
ATOM     13  C   UNL     1      -4.035   0.204   1.245  0.00  0.00    +0.034 C 
ATOM     14  C   UNL     1      -4.849   0.703   0.127  0.00  0.00    +0.195 C 
ATOM     15  C   UNL     1      -4.051   1.193  -1.007  0.00  0.00    +0.038 C 
ATOM     16  O   UNL     1      -6.096   0.559   0.065  0.00  0.00    -0.287 OA
ATOM     17  C   UNL     1      -2.259  -1.351   1.619  0.00  0.00    +0.023 C 
ATOM     18  C   UNL     1      -1.284   1.863   1.142  0.00  0.00    +0.011 C 
ATOM     19  C   UNL     1      -2.893   1.698  -0.615  0.00  0.00    -0.017 C 
ATOM     20  C   UNL     1      -1.112  -1.973   0.840  0.00  0.00    +0.007 C 
ATOM     21  C   UNL     1       2.232  -0.123   1.569  0.00  0.00    +0.001 C 
ATOM     22  C   UNL     1       1.185   1.105  -0.264  0.00  0.00    +0.036 C 
ATOM     23  C   UNL     1       1.704  -2.170   0.727  0.00  0.00    +0.001 C 
ENDROOT
BRANCH   3  24
ATOM     24  C   UNL     1       4.214   0.003   0.048  0.00  0.00    +0.183 C 
ATOM     25  O   UNL     1       5.255  -0.654   0.044  0.00  0.00    -0.293 OA
BRANCH  24  26
ATOM     26  C   UNL     1       4.454   1.429  -0.358  0.00  0.00    +0.246 C 
ATOM     27  O   UNL     1       3.985   2.337   0.565  0.00  0.00    -0.212 OA
ENDBRANCH  24  26
ENDBRANCH   3  24
TORSDOF 2
