REMARK  Name = 
REMARK  6 active torsions:
REMARK  status: ('A' for Active; 'I' for Inactive)
REMARK    1  A    between atoms: N_2  and  C_4
REMARK    2  A    between atoms: C_4  and  C_5
REMARK    3  A    between atoms: C_5  and  O_6
REMARK    4  A    between atoms: O_6  and  C_7
REMARK    5  A    between atoms: C_7  and  C_9
REMARK    6  A    between atoms: C_7  and  C_15
REMARK                            x       y       z     vdW  Elec       q    Type
REMARK                         _______ _______ _______ _____ _____    ______ ____
ROOT
ATOM      1  C   UNL     1      -0.234  -0.264  -0.791  0.00  0.00    +0.146 C 
ATOM      2  C   UNL     1      -0.061  -0.593  -2.249  0.00  0.00    +0.040 C 
ENDROOT
BRANCH   1   3
ATOM      3  C   UNL     1      -0.143   1.194  -0.541  0.00  0.00    +0.007 A 
ATOM      4  C   UNL     1      -1.082   2.000  -1.147  0.00  0.00    -0.002 A 
ATOM      5  C   UNL     1      -1.176   3.300  -0.668  0.00  0.00    -0.000 A 
ATOM      6  C   UNL     1      -0.655   3.651   0.564  0.00  0.00    -0.000 A 
ATOM      7  C   UNL     1       0.249   2.816   1.198  0.00  0.00    -0.000 A 
ATOM      8  C   UNL     1       0.553   1.627   0.552  0.00  0.00    -0.002 A 
ENDBRANCH   1   3
BRANCH   1   9
ATOM      9  C   UNL     1      -1.601  -0.679  -0.356  0.00  0.00    +0.087 A 
ATOM     10  N   UNL     1      -2.080  -1.889  -0.673  0.00  0.00    -0.246 NA
ATOM     11  C   UNL     1      -3.002  -2.493   0.115  0.00  0.00    +0.099 A 
ATOM     12  C   UNL     1      -3.197  -2.078   1.424  0.00  0.00    +0.021 A 
ATOM     13  C   UNL     1      -2.860  -0.779   1.720  0.00  0.00    +0.003 A 
ATOM     14  C   UNL     1      -2.112  -0.093   0.794  0.00  0.00    +0.017 A 
ENDBRANCH   1   9
BRANCH   1  15
ATOM     15  O   UNL     1       0.670  -0.985  -0.021  0.00  0.00    -0.347 OA
BRANCH  15  16
ATOM     16  C   UNL     1       1.789  -1.215  -0.836  0.00  0.00    +0.160 C 
BRANCH  16  17
ATOM     17  C   UNL     1       2.862  -1.902  -0.026  0.00  0.00    +0.105 C 
BRANCH  17  19
ATOM     18  C   UNL     1       4.166  -0.659   1.525  0.00  0.00    +0.090 C 
ATOM     19  N   UNL     1       4.015  -1.054   0.147  0.00  0.00    -0.268 NA
ATOM     20  C   UNL     1       3.898   0.096  -0.732  0.00  0.00    +0.090 C 
ENDBRANCH  17  19
ENDBRANCH  16  17
ENDBRANCH  15  16
ENDBRANCH   1  15
TORSDOF 6
