REMARK  Name = 
REMARK  7 active torsions:
REMARK  status: ('A' for Active; 'I' for Inactive)
REMARK    1  A    between atoms: C_2  and  C_3
REMARK    2  A    between atoms: C_3  and  C_4
REMARK    3  A    between atoms: C_6  and  C_7
REMARK    4  A    between atoms: N_9  and  C_10
REMARK    5  A    between atoms: C_10  and  C_11
REMARK    6  A    between atoms: C_10  and  C_14
REMARK    7  A    between atoms: C_16  and  S_17
REMARK                            x       y       z     vdW  Elec       q    Type
REMARK                         _______ _______ _______ _____ _____    ______ ____
ROOT
ATOM      1  C   UNL     1      -1.336  -1.453   0.526  0.00  0.00    +0.140 C 
ENDROOT
BRANCH   1   2
ATOM      2  C   UNL     1      -1.285   0.109  -0.142  0.00  0.00    +0.170 C 
ATOM      3  C   UNL     1      -1.582   0.934   1.342  0.00  0.00    +0.213 C 
ATOM      4  O   UNL     1      -2.483  -0.049   2.000  0.00  0.00    -0.218 OA
ATOM      5  C   UNL     1      -2.725   1.949   0.585  0.00  0.00    +0.218 C 
ATOM      6  O   UNL     1      -2.871   2.767   1.835  0.00  0.00    -0.217 OA
ATOM      7  C   UNL     1      -4.130   1.040   0.912  0.00  0.00    +0.222 C 
ATOM      8  O   UNL     1      -4.823   1.748  -0.220  0.00  0.00    -0.217 OA
ATOM      9  C   UNL     1      -3.654  -0.366   0.076  0.00  0.00    +0.195 C 
ATOM     10  O   UNL     1      -2.620   0.176  -0.763  0.00  0.00    -0.341 OA
BRANCH   9  11
ATOM     11  S   UNL     1      -4.999  -0.397  -1.296  0.00  0.00    -0.108 S 
ATOM     12  C   UNL     1      -4.563   0.744  -2.617  0.00  0.00    +0.072 C 
ENDBRANCH   9  11
ENDBRANCH   1   2
BRANCH   1  13
ATOM     13  C   UNL     1      -0.832  -2.150  -0.884  0.00  0.00    +0.102 C 
ATOM     14 CL   UNL     1       0.029  -3.602  -0.116  0.00  0.00    -0.113 Cl
ATOM     15  C   UNL     1      -2.148  -2.963  -1.169  0.00  0.00    +0.019 C 
ENDBRANCH   1  13
BRANCH   1  17
ATOM     16  C   UNL     1       1.037  -0.476   0.621  0.00  0.00    +0.256 C 
ATOM     17  N   UNL     1       0.111  -1.375   1.091  0.00  0.00    -0.202 NA
ATOM     18  O   UNL     1       0.638   0.338  -0.207  0.00  0.00    -0.272 OA
BRANCH  16  23
ATOM     19  C   UNL     1       4.331   0.959   0.084  0.00  0.00    +0.018 C 
ATOM     20  C   UNL     1       4.248  -0.459  -0.717  0.00  0.00    +0.073 C 
ATOM     21  N   UNL     1       2.808  -0.409  -0.965  0.00  0.00    -0.265 NA
ATOM     22  C   UNL     1       2.552   0.965  -1.196  0.00  0.00    +0.090 C 
ATOM     23  C   UNL     1       2.611  -0.780   0.558  0.00  0.00    +0.137 C 
ATOM     24  C   UNL     1       3.015   0.739   1.015  0.00  0.00    +0.027 C 
BRANCH  19  25
ATOM     25  C   UNL     1       5.350   0.351   1.204  0.00  0.00    +0.001 C 
BRANCH  25  27
ATOM     26  C   UNL     1       6.655   1.002  -0.085  0.00  0.00    +0.000 C 
ATOM     27  C   UNL     1       6.667   0.656   0.490  0.00  0.00    +0.000 C 
ENDBRANCH  25  27
ENDBRANCH  19  25
ENDBRANCH  16  23
ENDBRANCH   1  17
TORSDOF 7
