REMARK  Name = 
REMARK  10 active torsions:
REMARK  status: ('A' for Active; 'I' for Inactive)
REMARK    1  A    between atoms: C_2  and  C_3
REMARK    2  A    between atoms: C_3  and  C_4
REMARK    3  A    between atoms: C_4  and  C_5
REMARK    4  A    between atoms: C_8  and  C_9
REMARK    5  A    between atoms: C_10  and  C_11
REMARK    6  A    between atoms: C_10  and  C_17
REMARK    7  A    between atoms: C_11  and  C_12
REMARK    8  A    between atoms: N_20  and  C_21
REMARK    9  A    between atoms: C_21  and  C_22
REMARK   10  A    between atoms: C_25  and  C_26
REMARK                            x       y       z     vdW  Elec       q    Type
REMARK                         _______ _______ _______ _____ _____    ______ ____
ROOT
ATOM      1  C   UNL     1       0.589   2.195  -0.262  0.00  0.00    +0.121 A 
ATOM      2  N   UNL     1       0.275   1.000  -0.818  0.00  0.00    -0.311 N 
ATOM      3  C   UNL     1      -1.074   0.883  -0.870  0.00  0.00    +0.080 A 
ATOM      4  C   UNL     1      -1.599   2.104  -0.468  0.00  0.00    +0.117 A 
ATOM      5  N   UNL     1      -0.580   2.776   0.101  0.00  0.00    -0.229 NA
ENDROOT
BRANCH   3   6
ATOM      6  C   UNL     1      -1.772  -0.312  -1.330  0.00  0.00    +0.021 C 
ATOM      7  C   UNL     1      -3.034  -0.583  -0.992  0.00  0.00    +0.064 C 
BRANCH   7   8
ATOM      8  C   UNL     1      -4.010  -1.061  -1.982  0.00  0.00    +0.384 C 
ATOM      9  O   UNL     1      -4.912  -0.093  -2.437  0.00  0.00    -0.241 OA
ATOM     10  O   UNL     1      -3.533  -1.812  -2.886  0.00  0.00    -0.241 OA
ENDBRANCH   7   8
BRANCH   7  11
ATOM     11  C   UNL     1      -3.582   0.233   0.131  0.00  0.00    +0.066 C 
BRANCH  11  12
ATOM     12  C   UNL     1      -3.643  -0.580   1.372  0.00  0.00    +0.012 A 
ATOM     13  S   UNL     1      -2.858  -2.033   1.835  0.00  0.00    -0.090 S 
ATOM     14  C   UNL     1      -3.565  -2.237   3.386  0.00  0.00    +0.035 A 
ATOM     15  C   UNL     1      -4.171  -0.996   3.545  0.00  0.00    +0.007 A 
ATOM     16  C   UNL     1      -4.643  -0.527   2.337  0.00  0.00    +0.003 A 
ENDBRANCH  11  12
ENDBRANCH   7  11
ENDBRANCH   3   6
BRANCH   2  17
ATOM     17  C   UNL     1       1.204   0.312  -1.706  0.00  0.00    +0.134 C 
BRANCH  17  18
ATOM     18  C   UNL     1       2.165  -0.534  -0.971  0.00  0.00    +0.000 A 
ATOM     19  C   UNL     1       3.392  -0.758  -1.584  0.00  0.00    -0.002 A 
ATOM     20  C   UNL     1       4.416  -1.396  -0.896  0.00  0.00    +0.006 A 
ATOM     21  C   UNL     1       4.046  -2.207   0.162  0.00  0.00    +0.080 A 
ATOM     22  C   UNL     1       2.699  -2.409   0.435  0.00  0.00    +0.006 A 
ATOM     23  C   UNL     1       1.784  -1.463  -0.011  0.00  0.00    -0.002 A 
BRANCH  21  24
ATOM     24  C   UNL     1       5.036  -2.683   1.135  0.00  0.00    +0.388 C 
ATOM     25  O   UNL     1       5.413  -1.821   2.166  0.00  0.00    -0.241 OA
ATOM     26  O   UNL     1       5.031  -3.906   1.393  0.00  0.00    -0.241 OA
ENDBRANCH  21  24
ENDBRANCH  17  18
ENDBRANCH   2  17
BRANCH   1  27
ATOM     27  C   UNL     1       1.822   3.015  -0.476  0.00  0.00    +0.064 C 
BRANCH  27  28
ATOM     28  C   UNL     1       1.872   3.992   0.694  0.00  0.00    +0.008 C 
BRANCH  28  30
ATOM     29  C   UNL     1       1.462   5.476  -1.246  0.00  0.00    +0.000 C 
ATOM     30  C   UNL     1       1.769   5.422   0.244  0.00  0.00    +0.000 C 
ENDBRANCH  28  30
ENDBRANCH  27  28
ENDBRANCH   1  27
TORSDOF 10
