REMARK  Name = 
REMARK  2 active torsions:
REMARK  status: ('A' for Active; 'I' for Inactive)
REMARK    1  A    between atoms: O_2  and  C_3
REMARK    2  A    between atoms: C_3  and  C_5
REMARK                            x       y       z     vdW  Elec       q    Type
REMARK                         _______ _______ _______ _____ _____    ______ ____
ROOT
ATOM      1  C   UNL     1      -0.109   0.049   0.529  0.00  0.00    +0.114 A 
ATOM      2  C   UNL     1      -0.748   0.859  -0.393  0.00  0.00    +0.202 A 
ATOM      3  O   UNL     1      -0.020   1.913  -0.930  0.00  0.00    -0.286 OA
ATOM      4  C   UNL     1      -1.967   0.496  -0.949  0.00  0.00    +0.042 A 
ATOM      5  C   UNL     1      -2.606  -0.648  -0.490  0.00  0.00    +0.003 A 
ATOM      6  C   UNL     1      -2.198  -1.100   0.757  0.00  0.00    +0.000 A 
ATOM      7  C   UNL     1      -0.932  -0.806   1.247  0.00  0.00    +0.010 A 
ENDROOT
BRANCH   1   8
ATOM      8  C   UNL     1       1.351  -0.104   0.548  0.00  0.00    +0.344 C 
ATOM      9  O   UNL     1       1.853  -1.111   1.125  0.00  0.00    -0.245 OA
BRANCH   8  11
ATOM     10  C   UNL     1       3.245  -0.059  -1.040  0.00  0.00    +0.256 C 
ATOM     11  O   UNL     1       2.131   0.510  -0.405  0.00  0.00    -0.441 OA
ENDBRANCH   8  11
ENDBRANCH   1   8
TORSDOF 2
