REMARK  Name = 
REMARK  6 active torsions:
REMARK  status: ('A' for Active; 'I' for Inactive)
REMARK    1  A    between atoms: O_2  and  C_3
REMARK    2  A    between atoms: C_3  and  C_4
REMARK    3  A    between atoms: C_4  and  N_5
REMARK    4  A    between atoms: C_4  and  C_9
REMARK    5  A    between atoms: N_11  and  C_12
REMARK    6  A    between atoms: C_12  and  C_13
REMARK                            x       y       z     vdW  Elec       q    Type
REMARK                         _______ _______ _______ _____ _____    ______ ____
ROOT
ATOM      1  C   UNL     1      -0.660  -0.280  -0.430  0.00  0.00    +0.264 C 
ATOM      2  N   UNL     1       0.263   0.721  -0.208  0.00  0.00    -0.199 NA
ATOM      3  O   UNL     1      -0.236  -1.361  -0.895  0.00  0.00    -0.271 OA
ENDROOT
BRANCH   1   4
ATOM      4  C   UNL     1      -2.182   0.062  -0.908  0.00  0.00    +0.202 C 
BRANCH   4   5
ATOM      5  N   UNL     1      -2.197   1.529  -0.272  0.00  0.00    -0.195 NA
ATOM      6  C   UNL     1      -3.502   1.974   0.031  0.00  0.00    +0.242 C 
ATOM      7  O   UNL     1      -4.520   1.325  -0.280  0.00  0.00    -0.273 OA
ATOM      8  C   UNL     1      -3.629   3.319   0.677  0.00  0.00    +0.096 C 
ENDBRANCH   4   5
BRANCH   4   9
ATOM      9  C   UNL     1      -2.813  -0.598   0.489  0.00  0.00    +0.173 C 
BRANCH   9  11
ATOM     10  C   UNL     1      -2.958  -2.765   1.226  0.00  0.00    +0.174 C 
ATOM     11  O   UNL     1      -2.253  -1.871   0.520  0.00  0.00    -0.349 OA
ENDBRANCH   9  11
ENDBRANCH   4   9
ENDBRANCH   1   4
BRANCH   2  12
ATOM     12  C   UNL     1       1.335   0.369   0.730  0.00  0.00    +0.142 C 
BRANCH  12  13
ATOM     13  C   UNL     1       2.643   0.232   0.082  0.00  0.00    -0.001 A 
ATOM     14  C   UNL     1       3.772   0.634   0.785  0.00  0.00    -0.003 A 
ATOM     15  C   UNL     1       4.989  -0.005   0.578  0.00  0.00    -0.000 A 
ATOM     16  C   UNL     1       5.072  -1.172  -0.172  0.00  0.00    -0.000 A 
ATOM     17  C   UNL     1       4.029  -1.416  -1.037  0.00  0.00    -0.000 A 
ATOM     18  C   UNL     1       2.848  -0.695  -0.915  0.00  0.00    -0.003 A 
ENDBRANCH  12  13
ENDBRANCH   2  12
TORSDOF 6
