REMARK  Name = 
REMARK  6 active torsions:
REMARK  status: ('A' for Active; 'I' for Inactive)
REMARK    1  A    between atoms: C_5  and  C_6
REMARK    2  A    between atoms: C_6  and  O_7
REMARK    3  A    between atoms: O_7  and  C_8
REMARK    4  A    between atoms: C_8  and  C_9
REMARK    5  A    between atoms: C_8  and  C_15
REMARK    6  A    between atoms: C_9  and  N_10
REMARK                            x       y       z     vdW  Elec       q    Type
REMARK                         _______ _______ _______ _____ _____    ______ ____
ROOT
ATOM      1  C   UNL     1      -1.142  -0.062  -0.672  0.00  0.00    +0.161 C 
ENDROOT
BRANCH   1   2
ATOM      2  C   UNL     1      -0.542   1.419  -0.414  0.00  0.00    +0.017 A 
ATOM      3  C   UNL     1      -0.644   2.187  -1.550  0.00  0.00    +0.057 A 
ATOM      4 CL   UNL     1      -0.025   1.532  -3.043  0.00  0.00    -0.082 Cl
ATOM      5  C   UNL     1      -0.781   3.554  -1.390  0.00  0.00    +0.023 A 
ATOM      6  C   UNL     1      -0.747   4.086  -0.108  0.00  0.00    +0.058 A 
ATOM      7 CL   UNL     1      -1.469   5.664   0.210  0.00  0.00    -0.082 Cl
ATOM      8  C   UNL     1      -0.393   3.301   0.985  0.00  0.00    +0.011 A 
ATOM      9  C   UNL     1      -0.619   1.938   0.824  0.00  0.00    -0.000 A 
ENDBRANCH   1   2
BRANCH   1  10
ATOM     10  O   UNL     1      -0.517  -0.612   0.608  0.00  0.00    -0.345 OA
BRANCH  10  11
ATOM     11  C   UNL     1       0.467  -1.328   0.043  0.00  0.00    +0.170 C 
BRANCH  11  17
ATOM     12 CL   UNL     1       6.199  -0.780   0.299  0.00  0.00    -0.082 Cl
ATOM     13  C   UNL     1       4.586  -0.992   0.340  0.00  0.00    +0.058 A 
ATOM     14  C   UNL     1       3.972  -2.090  -0.230  0.00  0.00    +0.023 A 
ATOM     15  C   UNL     1       2.630  -2.320   0.032  0.00  0.00    +0.057 A 
ATOM     16 CL   UNL     1       1.909  -3.683  -0.823  0.00  0.00    -0.082 Cl
ATOM     17  C   UNL     1       1.801  -1.345   0.588  0.00  0.00    +0.018 A 
ATOM     18  C   UNL     1       2.447  -0.389   1.326  0.00  0.00    -0.000 A 
ATOM     19  C   UNL     1       3.820  -0.204   1.192  0.00  0.00    +0.011 A 
ENDBRANCH  11  17
ENDBRANCH  10  11
ENDBRANCH   1  10
BRANCH   1  20
ATOM     20  C   UNL     1      -2.570   0.275   0.088  0.00  0.00    +0.142 C 
BRANCH  20  21
ATOM     21  N   UNL     1      -3.096  -1.048   0.269  0.00  0.00    -0.305 N 
ATOM     22  C   UNL     1      -3.331  -1.751   1.378  0.00  0.00    +0.179 A 
ATOM     23  N   UNL     1      -4.265  -2.680   1.065  0.00  0.00    -0.222 NA
ATOM     24  C   UNL     1      -4.271  -2.822  -0.264  0.00  0.00    +0.119 A 
ATOM     25  C   UNL     1      -3.420  -1.852  -0.755  0.00  0.00    +0.098 A 
ENDBRANCH  20  21
ENDBRANCH   1  20
TORSDOF 6
