REMARK  Name = 
REMARK  11 active torsions:
REMARK  status: ('A' for Active; 'I' for Inactive)
REMARK    1  A    between atoms: N_4  and  C_5
REMARK    2  A    between atoms: N_4  and  C_10
REMARK    3  A    between atoms: C_5  and  C_6
REMARK    4  A    between atoms: C_6  and  C_8
REMARK    5  A    between atoms: C_13  and  C_14
REMARK    6  A    between atoms: N_16  and  C_17
REMARK    7  A    between atoms: C_17  and  C_18
REMARK    8  A    between atoms: C_22  and  C_23
REMARK    9  A    between atoms: N_25  and  C_26
REMARK   10  A    between atoms: C_26  and  C_27
REMARK   11  A    between atoms: C_27  and  C_29
REMARK                            x       y       z     vdW  Elec       q    Type
REMARK                         _______ _______ _______ _____ _____    ______ ____
ROOT
ATOM      1  C   UNL     1      -0.876  -0.925  -0.430  0.00  0.00    +0.065 A 
ATOM      2  C   UNL     1       0.478  -1.037  -0.145  0.00  0.00    +0.049 A 
ATOM      3  I   UNL     1       1.436  -2.795  -0.807  0.00  0.00    -0.041 I 
ATOM      4  C   UNL     1       1.283   0.036   0.159  0.00  0.00    +0.067 A 
ATOM      5  C   UNL     1       0.727   1.308   0.171  0.00  0.00    +0.040 A 
ATOM      6  I   UNL     1       1.828   2.915   0.997  0.00  0.00    -0.042 I 
ATOM      7  C   UNL     1      -0.610   1.450  -0.180  0.00  0.00    +0.067 A 
ATOM      8  C   UNL     1      -1.412   0.340  -0.356  0.00  0.00    +0.049 A 
ATOM      9  I   UNL     1      -3.314   0.644  -1.183  0.00  0.00    -0.041 I 
ENDROOT
BRANCH   1  12
ATOM     10  C   UNL     1      -1.261  -3.671  -0.407  0.00  0.00    +0.095 C 
ATOM     11  C   UNL     1      -1.180  -3.307   0.019  0.00  0.00    +0.230 C 
ATOM     12  N   UNL     1      -1.727  -2.071  -0.326  0.00  0.00    -0.255 N 
ATOM     13  O   UNL     1      -0.974  -3.495   1.247  0.00  0.00    -0.275 OA
BRANCH  12  14
ATOM     14  C   UNL     1      -3.114  -1.933   0.108  0.00  0.00    +0.134 C 
BRANCH  14  15
ATOM     15  C   UNL     1      -3.901  -3.151  -0.684  0.00  0.00    +0.205 C 
ATOM     16  O   UNL     1      -3.659  -4.126   0.459  0.00  0.00    -0.218 OA
BRANCH  15  17
ATOM     17  C   UNL     1      -5.364  -2.701  -0.069  0.00  0.00    +0.217 C 
ATOM     18  O   UNL     1      -6.095  -2.275  -1.184  0.00  0.00    -0.218 OA
ENDBRANCH  15  17
ENDBRANCH  14  15
ENDBRANCH  12  14
ENDBRANCH   1  12
BRANCH   4  19
ATOM     19  C   UNL     1       2.690  -0.195   0.521  0.00  0.00    +0.266 C 
ATOM     20  N   UNL     1       3.703  -0.340  -0.478  0.00  0.00    -0.199 NA
ATOM     21  O   UNL     1       2.991  -0.510   1.689  0.00  0.00    -0.268 OA
BRANCH  20  22
ATOM     22  C   UNL     1       5.074  -0.737  -0.171  0.00  0.00    +0.151 C 
BRANCH  22  23
ATOM     23  C   UNL     1       5.879   0.625  -0.648  0.00  0.00    +0.206 C 
ATOM     24  O   UNL     1       7.243  -0.039  -0.513  0.00  0.00    -0.218 OA
BRANCH  23  25
ATOM     25  C   UNL     1       5.922   1.244   0.884  0.00  0.00    +0.217 C 
ATOM     26  O   UNL     1       6.344   0.207   1.679  0.00  0.00    -0.218 OA
ENDBRANCH  23  25
ENDBRANCH  22  23
ENDBRANCH  20  22
ENDBRANCH   4  19
BRANCH   7  27
ATOM     27  C   UNL     1      -0.997   2.797  -0.593  0.00  0.00    +0.266 C 
ATOM     28  N   UNL     1      -0.754   3.923   0.227  0.00  0.00    -0.199 NA
ATOM     29  O   UNL     1      -1.884   2.918  -1.489  0.00  0.00    -0.268 OA
BRANCH  28  30
ATOM     30  C   UNL     1      -1.752   4.955   0.359  0.00  0.00    +0.151 C 
BRANCH  30  31
ATOM     31  C   UNL     1      -2.705   4.916  -0.822  0.00  0.00    +0.205 C 
ATOM     32  O   UNL     1      -4.019   5.031  -0.349  0.00  0.00    -0.218 OA
ENDBRANCH  30  31
ENDBRANCH  28  30
ENDBRANCH   7  27
TORSDOF 11
