REMARK  Name = 
REMARK  10 active torsions:
REMARK  status: ('A' for Active; 'I' for Inactive)
REMARK    1  A    between atoms: C_2  and  C_3
REMARK    2  A    between atoms: C_3  and  C_4
REMARK    3  A    between atoms: C_4  and  O_6
REMARK    4  A    between atoms: O_6  and  C_7
REMARK    5  A    between atoms: C_7  and  O_8
REMARK    6  A    between atoms: O_8  and  C_9
REMARK    7  A    between atoms: C_9  and  C_11
REMARK    8  A    between atoms: C_17  and  C_18
REMARK    9  A    between atoms: C_18  and  O_20
REMARK   10  A    between atoms: C_22  and  C_23
REMARK                            x       y       z     vdW  Elec       q    Type
REMARK                         _______ _______ _______ _____ _____    ______ ____
ROOT
ATOM      1  C   UNL     1       0.013   0.614   0.008  0.00  0.00    +0.073 C 
ATOM      2  C   UNL     1      -1.071  -0.062  -1.029  0.00  0.00    +0.082 C 
ATOM      3  C   UNL     1      -2.063   1.238  -0.913  0.00  0.00    +0.073 C 
ATOM      4  C   UNL     1      -1.533   2.226  -1.645  0.00  0.00    +0.051 C 
ATOM      5  C   UNL     1      -2.519   3.327  -1.886  0.00  0.00    +0.049 C 
ATOM      6  N   UNL     1      -0.115   2.458  -1.581  0.00  0.00    -0.221 NA
ATOM      7  C   UNL     1       0.502   1.763  -0.483  0.00  0.00    +0.051 C 
ATOM      8  C   UNL     1       1.735   2.295   0.182  0.00  0.00    +0.049 C 
ENDROOT
BRANCH   2   9
ATOM      9  C   UNL     1      -1.861  -0.909   0.141  0.00  0.00    -0.002 A 
ATOM     10  C   UNL     1      -3.037  -1.466  -0.360  0.00  0.00    +0.065 A 
ATOM     11 CL   UNL     1      -3.630  -1.110  -1.983  0.00  0.00    -0.082 Cl
ATOM     12  C   UNL     1      -3.527  -2.643   0.195  0.00  0.00    +0.068 A 
ATOM     13 CL   UNL     1      -5.218  -3.032  -0.102  0.00  0.00    -0.081 Cl
ATOM     14  C   UNL     1      -2.777  -3.408   1.079  0.00  0.00    +0.012 A 
ATOM     15  C   UNL     1      -1.531  -2.919   1.448  0.00  0.00    +0.001 A 
ATOM     16  C   UNL     1      -1.066  -1.775   0.841  0.00  0.00    -0.003 A 
ENDBRANCH   2   9
BRANCH   3  17
ATOM     17  C   UNL     1      -2.832   1.442   0.262  0.00  0.00    +0.339 C 
ATOM     18  O   UNL     1      -2.459   1.191   1.450  0.00  0.00    -0.245 OA
BRANCH  17  19
ATOM     19  O   UNL     1      -4.188   1.774   0.163  0.00  0.00    -0.442 OA
ATOM     20  C   UNL     1      -4.780   2.499   1.238  0.00  0.00    +0.256 C 
ENDBRANCH  17  19
ENDBRANCH   3  17
BRANCH   1  21
ATOM     21  C   UNL     1       1.104  -0.345   0.285  0.00  0.00    +0.341 C 
ATOM     22  O   UNL     1       1.565  -1.101  -0.624  0.00  0.00    -0.245 OA
BRANCH  21  23
ATOM     23  O   UNL     1       1.987   0.011   1.279  0.00  0.00    -0.405 OA
BRANCH  23  24
ATOM     24  C   UNL     1       3.245  -0.632   1.467  0.00  0.00    +0.433 C 
BRANCH  24  25
ATOM     25  O   UNL     1       4.014  -0.545   0.273  0.00  0.00    -0.408 OA
BRANCH  25  26
ATOM     26  C   UNL     1       5.081   0.340   0.130  0.00  0.00    +0.320 C 
ATOM     27  O   UNL     1       5.184   1.298   0.946  0.00  0.00    -0.250 OA
BRANCH  26  28
ATOM     28  C   UNL     1       6.117   0.075  -0.917  0.00  0.00    +0.110 C 
BRANCH  28  30
ATOM     29  C   UNL     1       6.626  -1.601   0.332  0.00  0.00    +0.001 C 
ATOM     30  C   UNL     1       7.032  -1.002  -0.345  0.00  0.00    +0.012 C 
ENDBRANCH  28  30
ENDBRANCH  26  28
ENDBRANCH  25  26
ENDBRANCH  24  25
ENDBRANCH  23  24
ENDBRANCH  21  23
ENDBRANCH   1  21
TORSDOF 10
