REMARK  Name = 
REMARK  7 active torsions:
REMARK  status: ('A' for Active; 'I' for Inactive)
REMARK    1  A    between atoms: C_2  and  C_3
REMARK    2  A    between atoms: C_3  and  C_5
REMARK    3  A    between atoms: C_5  and  C_6
REMARK    4  A    between atoms: C_5  and  C_12
REMARK    5  A    between atoms: C_5  and  C_18
REMARK    6  A    between atoms: C_6  and  C_7
REMARK    7  A    between atoms: C_7  and  N_9
REMARK                            x       y       z     vdW  Elec       q    Type
REMARK                         _______ _______ _______ _____ _____    ______ ____
ROOT
ATOM      1  C   UNL     1      -0.023  -0.113   0.438  0.00  0.00    +0.090 C 
ENDROOT
BRANCH   1   2
ATOM      2  C   UNL     1      -1.032  -1.076  -0.115  0.00  0.00    -0.012 A 
ATOM      3  C   UNL     1      -1.474  -0.925  -1.400  0.00  0.00    -0.004 A 
ATOM      4  C   UNL     1      -2.428  -1.765  -1.961  0.00  0.00    -0.000 A 
ATOM      5  C   UNL     1      -2.977  -2.713  -1.133  0.00  0.00    -0.000 A 
ATOM      6  C   UNL     1      -2.469  -2.962   0.127  0.00  0.00    -0.000 A 
ATOM      7  C   UNL     1      -1.581  -2.062   0.658  0.00  0.00    -0.004 A 
ENDBRANCH   1   2
BRANCH   1   8
ATOM      8  C   UNL     1      -0.267   1.163  -0.197  0.00  0.00    -0.012 A 
ATOM      9  C   UNL     1      -1.533   1.693   0.064  0.00  0.00    -0.004 A 
ATOM     10  C   UNL     1      -2.097   2.679  -0.704  0.00  0.00    -0.000 A 
ATOM     11  C   UNL     1      -1.219   3.555  -1.326  0.00  0.00    -0.000 A 
ATOM     12  C   UNL     1      -0.033   2.972  -1.760  0.00  0.00    -0.000 A 
ATOM     13  C   UNL     1       0.334   1.714  -1.294  0.00  0.00    -0.004 A 
ENDBRANCH   1   8
BRANCH   1  14
ATOM     14  C   UNL     1      -0.416   0.062   1.882  0.00  0.00    +0.157 C 
ATOM     15  O   UNL     1      -1.609   0.086   2.167  0.00  0.00    -0.295 OA
BRANCH  14  17
ATOM     16  C   UNL     1       0.580   0.827   3.746  0.00  0.00    +0.008 C 
ATOM     17  C   UNL     1       0.608   0.737   2.733  0.00  0.00    +0.065 C 
ENDBRANCH  14  17
ENDBRANCH   1  14
BRANCH   1  18
ATOM     18  C   UNL     1       1.280  -0.746   0.418  0.00  0.00    +0.031 C 
BRANCH  18  19
ATOM     19  C   UNL     1       2.376   0.244  -0.346  0.00  0.00    +0.059 C 
ATOM     20  C   UNL     1       3.477   0.077   0.899  0.00  0.00    +0.017 C 
BRANCH  19  21
ATOM     21  N   UNL     1       3.020  -0.982  -1.148  0.00  0.00    -0.272 NA
ATOM     22  C   UNL     1       4.295  -0.431  -1.551  0.00  0.00    +0.090 C 
ATOM     23  C   UNL     1       3.187  -2.033  -0.196  0.00  0.00    +0.090 C 
ENDBRANCH  19  21
ENDBRANCH  18  19
ENDBRANCH   1  18
TORSDOF 7
