REMARK  Name = 
REMARK  4 active torsions:
REMARK  status: ('A' for Active; 'I' for Inactive)
REMARK    1  A    between atoms: C_2  and  C_3
REMARK    2  A    between atoms: C_3  and  N_4
REMARK    3  A    between atoms: C_9  and  C_10
REMARK    4  A    between atoms: N_12  and  C_13
REMARK                            x       y       z     vdW  Elec       q    Type
REMARK                         _______ _______ _______ _____ _____    ______ ____
ROOT
ATOM      1  C   UNL     1       0.313  -1.006  -0.044  0.00  0.00    +0.260 C 
ATOM      2  N   UNL     1      -0.420   0.082   0.465  0.00  0.00    -0.179 NA
ATOM      3  O   UNL     1      -0.363  -2.049  -0.296  0.00  0.00    -0.272 OA
ENDROOT
BRANCH   2   4
ATOM      4  C   UNL     1      -1.827   0.280   0.349  0.00  0.00    +0.065 A 
ATOM      5  C   UNL     1      -2.273   1.464  -0.228  0.00  0.00    -0.007 A 
ATOM      6  C   UNL     1      -1.250   2.422  -0.719  0.00  0.00    +0.032 C 
ATOM      7  C   UNL     1      -3.622   1.786  -0.301  0.00  0.00    -0.003 A 
ATOM      8  C   UNL     1      -4.506   0.752  -0.143  0.00  0.00    -0.001 A 
ATOM      9  C   UNL     1      -4.082  -0.447   0.415  0.00  0.00    -0.003 A 
ATOM     10  C   UNL     1      -2.756  -0.639   0.778  0.00  0.00    -0.007 A 
ATOM     11  C   UNL     1      -2.377  -1.456   1.964  0.00  0.00    +0.032 C 
ENDBRANCH   2   4
BRANCH   1  13
ATOM     12  N   UNL     1       2.490  -0.044  -0.432  0.00  0.00    -0.267 NA
ATOM     13  C   UNL     1       1.290  -0.622  -1.319  0.00  0.00    +0.137 C 
ATOM     14  C   UNL     1       2.001  -2.136  -1.390  0.00  0.00    +0.025 C 
ATOM     15  C   UNL     1       2.099  -2.662  -0.029  0.00  0.00    +0.003 C 
ATOM     16  C   UNL     1       2.942  -1.891   0.937  0.00  0.00    +0.017 C 
ATOM     17  C   UNL     1       2.370  -0.477   0.879  0.00  0.00    +0.072 C 
BRANCH  12  18
ATOM     18  C   UNL     1       2.462   1.372  -0.678  0.00  0.00    +0.072 C 
BRANCH  18  20
ATOM     19  C   UNL     1       3.970   3.299  -0.368  0.00  0.00    +0.001 C 
ATOM     20  C   UNL     1       3.540   1.973   0.162  0.00  0.00    +0.017 C 
ENDBRANCH  18  20
ENDBRANCH  12  18
ENDBRANCH   1  13
TORSDOF 4
