REMARK  Name = 
REMARK  3 active torsions:
REMARK  status: ('A' for Active; 'I' for Inactive)
REMARK    1  A    between atoms: C_2  and  C_3
REMARK    2  A    between atoms: C_2  and  C_5
REMARK    3  A    between atoms: C_11  and  C_12
REMARK                            x       y       z     vdW  Elec       q    Type
REMARK                         _______ _______ _______ _____ _____    ______ ____
ROOT
ATOM      1  C   UNL     1       0.757  -0.305   0.400  0.00  0.00    +0.226 C 
ATOM      2  N   UNL     1      -0.332  -1.000  -0.074  0.00  0.00    -0.271 N 
ATOM      3  C   UNL     1      -1.804  -0.505  -0.337  0.00  0.00    +0.179 C 
ATOM      4  C   UNL     1      -2.067  -0.367   1.288  0.00  0.00    +0.033 C 
ATOM      5  C   UNL     1      -1.660  -1.759   1.632  0.00  0.00    +0.024 C 
ATOM      6  C   UNL     1      -0.810  -2.280   0.475  0.00  0.00    +0.094 C 
ATOM      7  O   UNL     1       1.341  -0.795   1.421  0.00  0.00    -0.275 OA
ENDROOT
BRANCH   3   8
ATOM      8  C   UNL     1      -1.565   1.072  -0.502  0.00  0.00    +0.382 C 
ATOM      9  O   UNL     1      -2.773   1.746  -0.516  0.00  0.00    -0.244 OA
ATOM     10  O   UNL     1      -0.572   1.652  -0.612  0.00  0.00    -0.244 OA
ENDBRANCH   3   8
BRANCH   1  12
ATOM     11  C   UNL     1       2.604  -1.212  -0.800  0.00  0.00    +0.011 C 
ATOM     12  C   UNL     1       1.767   0.187  -0.756  0.00  0.00    +0.088 C 
BRANCH  12  13
ATOM     13  C   UNL     1       2.815   0.907   0.272  0.00  0.00    +0.078 C 
ATOM     14  S   UNL     1       2.299   2.659   0.380  0.00  0.00    -0.082 S 
ENDBRANCH  12  13
ENDBRANCH   1  12
TORSDOF 3
