REMARK  Name = 
REMARK  5 active torsions:
REMARK  status: ('A' for Active; 'I' for Inactive)
REMARK    1  A    between atoms: C_2  and  C_3
REMARK    2  A    between atoms: C_3  and  C_4
REMARK    3  A    between atoms: C_3  and  C_11
REMARK    4  A    between atoms: C_11  and  C_13
REMARK    5  A    between atoms: C_13  and  N_14
REMARK                            x       y       z     vdW  Elec       q    Type
REMARK                         _______ _______ _______ _____ _____    ______ ____
ROOT
ATOM      1  C   UNL     1       0.226  -0.668  -1.283  0.00  0.00    +0.024 C 
ENDROOT
BRANCH   1   2
ATOM      2  C   UNL     1      -1.114  -0.366  -0.486  0.00  0.00    -0.019 A 
ATOM      3  C   UNL     1      -1.762   0.818  -0.807  0.00  0.00    +0.038 A 
ATOM      4  C   UNL     1      -2.626   1.367   0.132  0.00  0.00    +0.195 A 
ATOM      5  O   UNL     1      -2.696   2.745   0.362  0.00  0.00    -0.287 OA
ATOM      6  C   UNL     1      -3.161   0.509   1.085  0.00  0.00    +0.042 A 
ATOM      7  C   UNL     1      -2.651  -0.776   1.220  0.00  0.00    +0.003 A 
ATOM      8  C   UNL     1      -1.454  -1.103   0.591  0.00  0.00    -0.004 A 
ENDBRANCH   1   2
BRANCH   1  10
ATOM      9  C   UNL     1       0.132  -2.767  -0.395  0.00  0.00    +0.000 C 
ATOM     10  C   UNL     1      -0.022  -2.272  -1.331  0.00  0.00    +0.004 C 
ENDBRANCH   1  10
BRANCH   1  11
ATOM     11  C   UNL     1       1.147  -0.785   0.136  0.00  0.00    +0.020 C 
ATOM     12  C   UNL     1       2.433  -1.338  -0.676  0.00  0.00    +0.002 C 
BRANCH  11  13
ATOM     13  C   UNL     1       1.589   0.765   0.023  0.00  0.00    +0.072 C 
BRANCH  13  14
ATOM     14  N   UNL     1       2.980   0.861   0.334  0.00  0.00    -0.270 NA
ATOM     15  C   UNL     1       3.717   1.718  -0.583  0.00  0.00    +0.090 C 
ATOM     16  C   UNL     1       3.262   1.292   1.677  0.00  0.00    +0.090 C 
ENDBRANCH  13  14
ENDBRANCH  11  13
ENDBRANCH   1  11
TORSDOF 5
