REMARK  Name = 
REMARK  5 active torsions:
REMARK  status: ('A' for Active; 'I' for Inactive)
REMARK    1  A    between atoms: P_2  and  N_3
REMARK    2  A    between atoms: N_3  and  C_4
REMARK    3  A    between atoms: C_4  and  C_5
REMARK    4  A    between atoms: N_11  and  C_12
REMARK    5  A    between atoms: C_12  and  C_13
REMARK                            x       y       z     vdW  Elec       q    Type
REMARK                         _______ _______ _______ _____ _____    ______ ____
ROOT
ATOM      1  O   UNL     1       1.073  -1.390  -1.197  0.00  0.00    -0.253 OA
ATOM      2  P   UNL     1       0.418  -0.773  -0.130  0.00  0.00    +0.365 P 
ATOM      3  N   UNL     1      -0.934   0.131  -0.791  0.00  0.00    -0.196 NA
ATOM      4  C   UNL     1      -2.110  -0.712  -0.651  0.00  0.00    +0.084 C 
ATOM      5  C   UNL     1      -1.698  -2.131  -0.961  0.00  0.00    +0.050 C 
ATOM      6  C   UNL     1      -1.165  -2.745   0.304  0.00  0.00    +0.153 C 
ATOM      7  O   UNL     1      -0.179  -1.978   0.908  0.00  0.00    -0.291 OA
ENDROOT
BRANCH   3   8
ATOM      8  C   UNL     1      -1.081   1.407  -0.140  0.00  0.00    +0.099 C 
BRANCH   8   9
ATOM      9  C   UNL     1      -2.523   1.853  -0.158  0.00  0.00    +0.113 C 
ATOM     10 CL   UNL     1      -2.739   3.112   1.084  0.00  0.00    -0.112 Cl
ENDBRANCH   8   9
ENDBRANCH   3   8
BRANCH   2  11
ATOM     11  N   UNL     1       1.486   0.229   0.805  0.00  0.00    -0.132 NA
BRANCH  11  12
ATOM     12  C   UNL     1       1.926   1.409   0.114  0.00  0.00    +0.117 C 
BRANCH  12  13
ATOM     13  C   UNL     1       3.060   1.175  -0.837  0.00  0.00    +0.114 C 
ATOM     14 CL   UNL     1       4.465   0.414  -0.090  0.00  0.00    -0.112 Cl
ENDBRANCH  12  13
ENDBRANCH  11  12
ENDBRANCH   2  11
TORSDOF 5
