REMARK  Name = 
REMARK  1 active torsions:
REMARK  status: ('A' for Active; 'I' for Inactive)
REMARK    1  A    between atoms: N_10  and  C_11
REMARK                            x       y       z     vdW  Elec       q    Type
REMARK                         _______ _______ _______ _____ _____    ______ ____
ROOT
ATOM      1  N   UNL     1      -3.481  -1.400   1.964  0.00  0.00    -0.128 NA
ATOM      2  C   UNL     1      -3.353  -0.547   1.087  0.00  0.00    +0.094 A 
ATOM      3  C   UNL     1      -2.111  -0.325   0.502  0.00  0.00    +0.075 A 
ATOM      4  C   UNL     1      -0.738  -0.726   0.843  0.00  0.00    +0.257 C 
ATOM      5  N   UNL     1       0.179  -0.236  -0.147  0.00  0.00    -0.216 N 
ATOM      6  C   UNL     1      -0.612   0.744  -0.845  0.00  0.00    +0.255 C 
ATOM      7  O   UNL     1      -0.164   1.676  -1.584  0.00  0.00    -0.269 OA
ATOM      8  O   UNL     1      -0.503  -1.087   2.038  0.00  0.00    -0.269 OA
ATOM      9  C   UNL     1      -2.011   0.615  -0.516  0.00  0.00    +0.060 A 
ATOM     10  C   UNL     1      -3.130   1.314  -0.956  0.00  0.00    +0.005 A 
ATOM     11  C   UNL     1      -4.276   1.301  -0.169  0.00  0.00    +0.002 A 
ATOM     12  C   UNL     1      -4.399   0.310   0.761  0.00  0.00    +0.018 A 
ENDROOT
BRANCH   5  13
ATOM     13  C   UNL     1       1.615   0.253   0.295  0.00  0.00    +0.162 C 
ATOM     14  C   UNL     1       2.314  -1.193   0.184  0.00  0.00    +0.266 C 
ATOM     15  O   UNL     1       1.703  -2.181   0.559  0.00  0.00    -0.271 OA
ATOM     16  N   UNL     1       3.727  -1.014   0.368  0.00  0.00    -0.143 NA
ATOM     17  C   UNL     1       4.275   0.194  -0.174  0.00  0.00    +0.248 C 
ATOM     18  O   UNL     1       5.364   0.690   0.245  0.00  0.00    -0.273 OA
ATOM     19  C   UNL     1       3.523   0.998  -1.176  0.00  0.00    +0.089 C 
ATOM     20  C   UNL     1       2.077   0.612  -1.243  0.00  0.00    +0.039 C 
ENDBRANCH   5  13
TORSDOF 1
