REMARK  Name = 
REMARK  5 active torsions:
REMARK  status: ('A' for Active; 'I' for Inactive)
REMARK    1  A    between atoms: C_2  and  N_3
REMARK    2  A    between atoms: N_3  and  C_4
REMARK    3  A    between atoms: N_3  and  C_6
REMARK    4  A    between atoms: C_6  and  C_8
REMARK    5  A    between atoms: C_8  and  C_10
REMARK                            x       y       z     vdW  Elec       q    Type
REMARK                         _______ _______ _______ _____ _____    ______ ____
ROOT
ATOM      1  C   UNL     1      -0.042  -0.708   0.337  0.00  0.00    +0.187 C 
ATOM      2  O   UNL     1       0.035  -1.938   0.610  0.00  0.00    -0.290 OA
ENDROOT
BRANCH   1   3
ATOM      3  C   UNL     1      -1.368  -0.117   0.327  0.00  0.00    +0.036 A 
ATOM      4  C   UNL     1      -2.440  -0.925  -0.033  0.00  0.00    +0.003 A 
ATOM      5  C   UNL     1      -3.720  -0.465  -0.166  0.00  0.00    +0.000 A 
ATOM      6  C   UNL     1      -3.946   0.880   0.034  0.00  0.00    +0.000 A 
ATOM      7  C   UNL     1      -2.889   1.677   0.455  0.00  0.00    +0.000 A 
ATOM      8  C   UNL     1      -1.662   1.132   0.812  0.00  0.00    +0.003 A 
ENDBRANCH   1   3
BRANCH   1   9
ATOM      9  C   UNL     1       0.794  -0.357  -1.001  0.00  0.00    +0.120 C 
ATOM     10  C   UNL     1       0.905   1.230  -0.579  0.00  0.00    +0.026 C 
BRANCH   9  11
ATOM     11  N   UNL     1       2.200  -0.693  -0.388  0.00  0.00    -0.268 NA
BRANCH  11  13
ATOM     12  C   UNL     1       3.361   0.877  -0.427  0.00  0.00    +0.019 C 
ATOM     13  C   UNL     1       3.108   0.325  -0.911  0.00  0.00    +0.072 C 
ENDBRANCH  11  13
BRANCH  11  14
ATOM     14  C   UNL     1       2.167  -0.585   1.007  0.00  0.00    +0.072 C 
ATOM     15  C   UNL     1       3.498  -0.336   1.610  0.00  0.00    +0.019 C 
ENDBRANCH  11  14
ENDBRANCH   9  11
ENDBRANCH   1   9
TORSDOF 5
