REMARK  Name = 
REMARK  2 active torsions:
REMARK  status: ('A' for Active; 'I' for Inactive)
REMARK    1  A    between atoms: N_2  and  C_3
REMARK    2  A    between atoms: C_3  and  C_4
REMARK                            x       y       z     vdW  Elec       q    Type
REMARK                         _______ _______ _______ _____ _____    ______ ____
ROOT
ATOM      1  C   UNL     1       0.614  -0.676   0.272  0.00  0.00    +0.130 C 
ATOM      2  C   UNL     1       1.772  -0.581  -0.674  0.00  0.00    +0.168 C 
ATOM      3  O   UNL     1       2.743  -1.257  -0.335  0.00  0.00    -0.294 OA
ATOM      4  C   UNL     1       2.109   0.821  -1.087  0.00  0.00    +0.066 C 
ATOM      5  C   UNL     1       2.397   1.591   0.171  0.00  0.00    +0.008 C 
ATOM      6  C   UNL     1       1.356   1.425   1.238  0.00  0.00    +0.003 C 
ATOM      7  C   UNL     1       1.072  -0.036   1.558  0.00  0.00    +0.027 C 
ENDROOT
BRANCH   1   8
ATOM      8  C   UNL     1      -0.564   0.092  -0.196  0.00  0.00    +0.009 A 
ATOM      9  C   UNL     1      -1.540   0.322   0.769  0.00  0.00    +0.055 A 
ATOM     10 CL   UNL     1      -1.300  -0.177   2.442  0.00  0.00    -0.083 Cl
ATOM     11  C   UNL     1      -2.692   0.999   0.478  0.00  0.00    +0.011 A 
ATOM     12  C   UNL     1      -3.015   1.204  -0.837  0.00  0.00    +0.001 A 
ATOM     13  C   UNL     1      -2.135   0.804  -1.813  0.00  0.00    -0.000 A 
ATOM     14  C   UNL     1      -1.010   0.070  -1.505  0.00  0.00    -0.002 A 
ENDBRANCH   1   8
BRANCH   1  16
ATOM     15  C   UNL     1      -0.035  -2.550  -0.885  0.00  0.00    +0.108 C 
ATOM     16  N   UNL     1       0.229  -2.050   0.403  0.00  0.00    -0.208 NA
ENDBRANCH   1  16
TORSDOF 2
