REMARK  Name = 
REMARK  9 active torsions:
REMARK  status: ('A' for Active; 'I' for Inactive)
REMARK    1  A    between atoms: C_2  and  C_3
REMARK    2  A    between atoms: C_3  and  C_4
REMARK    3  A    between atoms: C_4  and  N_5
REMARK    4  A    between atoms: N_5  and  C_6
REMARK    5  A    between atoms: C_9  and  C_10
REMARK    6  A    between atoms: C_10  and  O_12
REMARK    7  A    between atoms: O_12  and  C_13
REMARK    8  A    between atoms: C_13  and  C_14
REMARK    9  A    between atoms: C_14  and  N_15
REMARK                            x       y       z     vdW  Elec       q    Type
REMARK                         _______ _______ _______ _____ _____    ______ ____
ROOT
ATOM      1  C   UNL     1      -2.431  -1.958  -0.300  0.00  0.00    +0.065 A 
ATOM      2  C   UNL     1      -1.663  -2.452  -1.348  0.00  0.00    +0.016 A 
ATOM      3  C   UNL     1      -0.275  -2.398  -1.305  0.00  0.00    +0.008 A 
ATOM      4  C   UNL     1       0.387  -1.838  -0.217  0.00  0.00    +0.076 A 
ATOM      5  C   UNL     1      -0.356  -1.822   0.959  0.00  0.00    +0.008 A 
ATOM      6  C   UNL     1      -1.745  -1.814   0.901  0.00  0.00    +0.016 A 
ENDROOT
BRANCH   4   7
ATOM      7  C   UNL     1       1.535  -0.937  -0.403  0.00  0.00    +0.341 C 
ATOM      8  O   UNL     1       2.720  -1.366  -0.483  0.00  0.00    -0.245 OA
BRANCH   7   9
ATOM      9  O   UNL     1       1.347   0.342  -0.937  0.00  0.00    -0.444 OA
BRANCH   9  10
ATOM     10  C   UNL     1       2.163   1.368  -0.393  0.00  0.00    +0.226 C 
BRANCH  10  11
ATOM     11  C   UNL     1       3.572   1.158  -0.925  0.00  0.00    +0.120 C 
BRANCH  11  12
ATOM     12  N   UNL     1       4.473   1.624   0.128  0.00  0.00    -0.267 NA
ATOM     13  C   UNL     1       4.423   3.072   0.131  0.00  0.00    +0.090 C 
ATOM     14  C   UNL     1       5.805   1.155  -0.242  0.00  0.00    +0.090 C 
ENDBRANCH  11  12
ENDBRANCH  10  11
ENDBRANCH   9  10
ENDBRANCH   7   9
ENDBRANCH   4   7
BRANCH   1  15
ATOM     15  N   UNL     1      -3.632  -1.228  -0.576  0.00  0.00    -0.238 NA
BRANCH  15  16
ATOM     16  C   UNL     1      -3.979  -0.023   0.161  0.00  0.00    +0.112 C 
BRANCH  16  17
ATOM     17  C   UNL     1      -4.309   1.135  -0.751  0.00  0.00    +0.023 C 
BRANCH  17  19
ATOM     18  C   UNL     1      -3.718   3.576  -0.662  0.00  0.00    +0.000 C 
ATOM     19  C   UNL     1      -4.316   2.407   0.071  0.00  0.00    +0.002 C 
ENDBRANCH  17  19
ENDBRANCH  16  17
ENDBRANCH  15  16
ENDBRANCH   1  15
TORSDOF 9
