REMARK  Name = 
REMARK  11 active torsions:
REMARK  status: ('A' for Active; 'I' for Inactive)
REMARK    1  A    between atoms: C_2  and  C_3
REMARK    2  A    between atoms: C_3  and  N_4
REMARK    3  A    between atoms: N_4  and  C_5
REMARK    4  A    between atoms: C_5  and  C_6
REMARK    5  A    between atoms: C_6  and  C_8
REMARK    6  A    between atoms: C_8  and  O_9
REMARK    7  A    between atoms: O_9  and  C_10
REMARK    8  A    between atoms: C_15  and  C_16
REMARK    9  A    between atoms: C_16  and  C_18
REMARK   10  A    between atoms: C_18  and  C_19
REMARK   11  A    between atoms: C_19  and  C_20
REMARK                            x       y       z     vdW  Elec       q    Type
REMARK                         _______ _______ _______ _____ _____    ______ ____
ROOT
ATOM      1  C   UNL     1       0.497  -2.223   0.027  0.00  0.00    +0.141 A 
ATOM      2  C   UNL     1      -0.637  -1.437  -0.044  0.00  0.00    +0.069 A 
ATOM      3  C   UNL     1      -1.647  -1.720   0.841  0.00  0.00    +0.006 A 
ATOM      4  C   UNL     1      -1.598  -2.851   1.648  0.00  0.00    +0.000 A 
ATOM      5  C   UNL     1      -0.662  -3.821   1.328  0.00  0.00    +0.003 A 
ATOM      6  C   UNL     1       0.504  -3.450   0.679  0.00  0.00    +0.037 A 
ENDROOT
BRANCH   2   7
ATOM      7  C   UNL     1      -0.718  -0.453  -1.104  0.00  0.00    +0.176 C 
ATOM      8  O   UNL     1      -0.051  -0.615  -2.171  0.00  0.00    -0.291 OA
BRANCH   7   9
ATOM      9  C   UNL     1      -1.787   0.586  -1.179  0.00  0.00    +0.074 C 
BRANCH   9  10
ATOM     10  C   UNL     1      -3.157  -0.016  -1.316  0.00  0.00    +0.034 C 
BRANCH  10  11
ATOM     11  C   UNL     1      -4.078   0.749  -0.434  0.00  0.00    -0.022 A 
ATOM     12  C   UNL     1      -3.607   1.619   0.541  0.00  0.00    -0.004 A 
ATOM     13  C   UNL     1      -4.543   2.049   1.470  0.00  0.00    -0.000 A 
ATOM     14  C   UNL     1      -5.802   2.402   1.000  0.00  0.00    -0.000 A 
ATOM     15  C   UNL     1      -6.220   1.764  -0.159  0.00  0.00    -0.000 A 
ATOM     16  C   UNL     1      -5.334   1.048  -0.947  0.00  0.00    -0.004 A 
ENDBRANCH  10  11
ENDBRANCH   9  10
ENDBRANCH   7   9
ENDBRANCH   2   7
BRANCH   1  17
ATOM     17  O   UNL     1       1.664  -1.686  -0.525  0.00  0.00    -0.473 OA
BRANCH  17  18
ATOM     18  C   UNL     1       2.807  -1.479   0.276  0.00  0.00    +0.240 C 
BRANCH  18  19
ATOM     19  C   UNL     1       3.041   0.182   0.167  0.00  0.00    +0.213 C 
ATOM     20  O   UNL     1       3.182   0.095  -1.371  0.00  0.00    -0.218 OA
BRANCH  19  21
ATOM     21  C   UNL     1       4.701  -0.002   0.362  0.00  0.00    +0.125 C 
BRANCH  21  22
ATOM     22  N   UNL     1       5.016   1.220   1.096  0.00  0.00    -0.215 NA
BRANCH  22  23
ATOM     23  C   UNL     1       5.013   2.324   0.146  0.00  0.00    +0.089 C 
BRANCH  23  25
ATOM     24  C   UNL     1       6.976   3.071   0.031  0.00  0.00    +0.002 C 
ATOM     25  C   UNL     1       6.440   2.646  -0.250  0.00  0.00    +0.019 C 
ENDBRANCH  23  25
ENDBRANCH  22  23
ENDBRANCH  21  22
ENDBRANCH  19  21
ENDBRANCH  18  19
ENDBRANCH  17  18
ENDBRANCH   1  17
TORSDOF 11
