REMARK  Name = 
REMARK  1 active torsions:
REMARK  status: ('A' for Active; 'I' for Inactive)
REMARK    1  A    between atoms: C_2  and  C_4
REMARK                            x       y       z     vdW  Elec       q    Type
REMARK                         _______ _______ _______ _____ _____    ______ ____
ROOT
ATOM      1  O   UNL     1      -1.001  -1.082  -0.299  0.00  0.00    -0.243 OA
ATOM      2  C   UNL     1      -0.540  -0.070   0.311  0.00  0.00    +0.398 C 
ATOM      3  O   UNL     1      -1.044   1.160  -0.122  0.00  0.00    -0.243 OA
ENDROOT
BRANCH   2   4
ATOM      4  C   UNL     1       0.920  -0.143   0.635  0.00  0.00    +0.295 C 
ATOM      5  O   UNL     1       1.664   0.135  -0.525  0.00  0.00    -0.207 OA
ENDBRANCH   2   4
TORSDOF 1
