REMARK  Name = 
REMARK  4 active torsions:
REMARK  status: ('A' for Active; 'I' for Inactive)
REMARK    1  A    between atoms: C_5  and  C_6
REMARK    2  A    between atoms: C_6  and  C_14
REMARK    3  A    between atoms: C_7  and  C_8
REMARK    4  A    between atoms: C_8  and  N_9
REMARK                            x       y       z     vdW  Elec       q    Type
REMARK                         _______ _______ _______ _____ _____    ______ ____
ROOT
ATOM      1  C   UNL     1      -0.102   0.345  -0.950  0.00  0.00    +0.015 C 
ATOM      2  C   UNL     1       1.184  -0.006  -1.003  0.00  0.00    -0.007 C 
ENDROOT
BRANCH   1   7
ATOM      3  C   UNL     1      -3.778  -3.110   1.470  0.00  0.00    +0.031 C 
ATOM      4  C   UNL     1      -2.854  -2.335   0.597  0.00  0.00    -0.022 A 
ATOM      5  C   UNL     1      -1.548  -2.754   0.373  0.00  0.00    -0.004 A 
ATOM      6  C   UNL     1      -0.691  -1.990  -0.379  0.00  0.00    -0.000 A 
ATOM      7  C   UNL     1      -1.068  -0.760  -0.901  0.00  0.00    +0.001 A 
ATOM      8  C   UNL     1      -2.430  -0.489  -0.863  0.00  0.00    -0.000 A 
ATOM      9  C   UNL     1      -3.327  -1.389  -0.302  0.00  0.00    -0.004 A 
ENDBRANCH   1   7
BRANCH   1  10
ATOM     10  C   UNL     1      -0.476   1.688  -0.485  0.00  0.00    +0.081 A 
ATOM     11  N   UNL     1      -0.531   1.948   0.844  0.00  0.00    -0.244 NA
ATOM     12  C   UNL     1      -0.473   3.259   1.184  0.00  0.00    +0.099 A 
ATOM     13  C   UNL     1      -1.166   4.114   0.336  0.00  0.00    +0.021 A 
ATOM     14  C   UNL     1      -1.515   3.746  -0.955  0.00  0.00    +0.003 A 
ATOM     15  C   UNL     1      -1.394   2.395  -1.254  0.00  0.00    +0.019 A 
ENDBRANCH   1  10
BRANCH   2  16
ATOM     16  C   UNL     1       1.584  -1.384  -0.574  0.00  0.00    +0.099 C 
BRANCH  16  17
ATOM     17  N   UNL     1       2.701  -1.279   0.335  0.00  0.00    -0.269 NA
ATOM     18  C   UNL     1       3.924  -1.286  -0.464  0.00  0.00    +0.072 C 
ATOM     19  C   UNL     1       4.976  -0.662   0.436  0.00  0.00    +0.019 C 
ATOM     20  C   UNL     1       4.192  -0.056   1.575  0.00  0.00    +0.019 C 
ATOM     21  C   UNL     1       2.790   0.005   0.981  0.00  0.00    +0.072 C 
ENDBRANCH  16  17
ENDBRANCH   2  16
TORSDOF 4
