REMARK  Name = 
REMARK  10 active torsions:
REMARK  status: ('A' for Active; 'I' for Inactive)
REMARK    1  A    between atoms: N_2  and  C_3
REMARK    2  A    between atoms: C_3  and  N_8
REMARK    3  A    between atoms: C_4  and  N_5
REMARK    4  A    between atoms: N_8  and  C_9
REMARK    5  A    between atoms: C_9  and  C_10
REMARK    6  A    between atoms: C_10  and  S_11
REMARK    7  A    between atoms: S_11  and  C_12
REMARK    8  A    between atoms: C_12  and  C_13
REMARK    9  A    between atoms: C_16  and  C_17
REMARK   10  A    between atoms: C_17  and  N_18
REMARK                            x       y       z     vdW  Elec       q    Type
REMARK                         _______ _______ _______ _____ _____    ______ ____
ROOT
ATOM      1  S   UNL     1      -0.177  -1.767  -0.593  0.00  0.00    -0.129 S 
ENDROOT
BRANCH   1   2
ATOM      2  C   UNL     1       0.993  -1.758   0.805  0.00  0.00    +0.104 C 
BRANCH   2   3
ATOM      3  C   UNL     1       1.958  -0.642   0.534  0.00  0.00    +0.077 A 
ATOM      4  N   UNL     1       2.949  -0.815  -0.361  0.00  0.00    -0.245 NA
ATOM      5  C   UNL     1       3.936   0.093  -0.184  0.00  0.00    +0.104 A 
ATOM      6  S   UNL     1       3.001   1.481   0.201  0.00  0.00    -0.069 S 
ATOM      7  C   UNL     1       1.516   0.678   0.523  0.00  0.00    +0.052 A 
BRANCH   5   8
ATOM      8  C   UNL     1       5.388  -0.031  -0.527  0.00  0.00    +0.126 C 
BRANCH   8   9
ATOM      9  N   UNL     1       6.093   0.067   0.750  0.00  0.00    -0.265 NA
ATOM     10  C   UNL     1       5.384   0.986   1.634  0.00  0.00    +0.090 C 
ATOM     11  C   UNL     1       7.431   0.594   0.573  0.00  0.00    +0.090 C 
ENDBRANCH   8   9
ENDBRANCH   5   8
ENDBRANCH   2   3
ENDBRANCH   1   2
BRANCH   1  12
ATOM     12  C   UNL     1      -0.772  -0.069  -0.877  0.00  0.00    +0.113 C 
BRANCH  12  13
ATOM     13  C   UNL     1      -1.883   0.196   0.130  0.00  0.00    +0.263 C 
BRANCH  13  14
ATOM     14  N   UNL     1      -2.983  -0.696  -0.181  0.00  0.00    -0.027 NA
BRANCH  14  15
ATOM     15  C   UNL     1      -4.208  -0.600   0.538  0.00  0.00    +0.424 C 
ATOM     16  C   UNL     1      -4.671   0.609   0.856  0.00  0.00    +0.447 C 
BRANCH  16  17
ATOM     17  N   UNL     1      -4.480   1.673  -0.076  0.00  0.00    +0.096 N 
ATOM     18  O   UNL     1      -5.548   1.947  -0.914  0.00  0.00    -0.576 OA
ATOM     19  O   UNL     1      -3.812   2.654   0.306  0.00  0.00    +0.042 OA
ENDBRANCH  16  17
BRANCH  15  21
ATOM     20  C   UNL     1      -5.202  -2.802  -0.151  0.00  0.00    +0.306 C 
ATOM     21  N   UNL     1      -4.913  -1.799   0.846  0.00  0.00    -0.023 NA
ENDBRANCH  15  21
ENDBRANCH  14  15
ENDBRANCH  13  14
ENDBRANCH  12  13
ENDBRANCH   1  12
TORSDOF 10
