REMARK  Name = 
REMARK  5 active torsions:
REMARK  status: ('A' for Active; 'I' for Inactive)
REMARK    1  A    between atoms: C_2  and  O_3
REMARK    2  A    between atoms: C_2  and  C_16
REMARK    3  A    between atoms: O_3  and  C_4
REMARK    4  A    between atoms: C_16  and  C_18
REMARK    5  A    between atoms: C_16  and  C_24
REMARK                            x       y       z     vdW  Elec       q    Type
REMARK                         _______ _______ _______ _____ _____    ______ ____
ROOT
ATOM      1  O   UNL     1      -0.536  -1.087   0.705  0.00  0.00    -0.247 OA
ATOM      2  C   UNL     1      -0.622  -0.783   0.659  0.00  0.00    +0.353 C 
ENDROOT
BRANCH   2   3
ATOM      3  C   UNL     1      -1.992  -0.285   0.883  0.00  0.00    +0.252 C 
ATOM      4  O   UNL     1      -2.242  -0.286   2.266  0.00  0.00    -0.205 OA
BRANCH   3   5
ATOM      5  C   UNL     1      -2.898  -1.227   0.197  0.00  0.00    +0.019 A 
ATOM      6  C   UNL     1      -3.581  -2.237   0.816  0.00  0.00    -0.001 A 
ATOM      7  C   UNL     1      -4.500  -2.983   0.112  0.00  0.00    -0.000 A 
ATOM      8  C   UNL     1      -4.426  -2.944  -1.265  0.00  0.00    -0.000 A 
ATOM      9  C   UNL     1      -3.756  -1.928  -1.936  0.00  0.00    -0.000 A 
ATOM     10  C   UNL     1      -2.926  -1.159  -1.174  0.00  0.00    -0.001 A 
ENDBRANCH   3   5
BRANCH   3  11
ATOM     11  C   UNL     1      -2.267   1.059   0.403  0.00  0.00    +0.019 A 
ATOM     12  C   UNL     1      -2.858   2.048   1.192  0.00  0.00    -0.001 A 
ATOM     13  C   UNL     1      -3.509   3.104   0.577  0.00  0.00    -0.000 A 
ATOM     14  C   UNL     1      -3.517   3.248  -0.802  0.00  0.00    -0.000 A 
ATOM     15  C   UNL     1      -2.809   2.352  -1.587  0.00  0.00    -0.000 A 
ATOM     16  C   UNL     1      -2.080   1.398  -0.929  0.00  0.00    -0.001 A 
ENDBRANCH   3  11
ENDBRANCH   2   3
BRANCH   2  17
ATOM     17  O   UNL     1       0.242  -0.551  -0.353  0.00  0.00    -0.450 OA
BRANCH  17  18
ATOM     18  C   UNL     1       1.740  -0.815  -0.073  0.00  0.00    +0.180 C 
ATOM     19  C   UNL     1       1.756   0.220   1.186  0.00  0.00    +0.099 C 
ATOM     20  C   UNL     1       3.199   1.006   1.157  0.00  0.00    +0.062 C 
ATOM     21  N   UNL     1       3.995   0.009   0.301  0.00  0.00    +0.289 N 
ATOM     22  C   UNL     1       3.753   0.314  -1.179  0.00  0.00    +0.062 C 
ATOM     23  C   UNL     1       3.871   1.936  -0.904  0.00  0.00    +0.061 C 
ATOM     24  C   UNL     1       5.336   0.604   0.446  0.00  0.00    +0.108 C 
ATOM     25  C   UNL     1       6.237  -0.445  -0.182  0.00  0.00    +0.067 C 
ATOM     26  C   UNL     1       5.404  -1.699  -0.013  0.00  0.00    +0.067 C 
ATOM     27  C   UNL     1       4.154  -1.234   0.714  0.00  0.00    +0.108 C 
ATOM     28  C   UNL     1       2.722   2.045  -0.028  0.00  0.00    +0.061 C 
ATOM     29  C   UNL     1       2.111   0.321  -1.190  0.00  0.00    +0.099 C 
ENDBRANCH  17  18
ENDBRANCH   2  17
TORSDOF 5
