REMARK  Name = 
REMARK  4 active torsions:
REMARK  status: ('A' for Active; 'I' for Inactive)
REMARK    1  A    between atoms: C_2  and  C_3
REMARK    2  A    between atoms: C_10  and  N_11
REMARK    3  A    between atoms: N_11  and  C_12
REMARK    4  A    between atoms: C_22  and  C_24
REMARK                            x       y       z     vdW  Elec       q    Type
REMARK                         _______ _______ _______ _____ _____    ______ ____
ROOT
ATOM      1  C   UNL     1      -0.309  -1.056  -0.903  0.00  0.00    +0.071 A 
ATOM      2  C   UNL     1      -1.701  -1.098  -0.932  0.00  0.00    +0.105 A 
ATOM      3  C   UNL     1      -2.220  -1.812  -2.009  0.00  0.00    +0.183 A 
ATOM      4  F   UNL     1      -3.439  -1.452  -2.437  0.00  0.00    -0.200 F 
ATOM      5  C   UNL     1      -1.485  -2.677  -2.776  0.00  0.00    +0.169 A 
ATOM      6  F   UNL     1      -2.056  -3.562  -3.645  0.00  0.00    -0.202 F 
ATOM      7  C   UNL     1      -0.110  -2.729  -2.587  0.00  0.00    +0.032 A 
ATOM      8  C   UNL     1       0.472  -1.959  -1.594  0.00  0.00    +0.008 A 
ENDROOT
BRANCH   1  10
ATOM      9  O   UNL     1       0.117  -0.372   0.621  0.00  0.00    -0.270 OA
ATOM     10  C   UNL     1       0.308  -0.374   0.246  0.00  0.00    +0.250 C 
ATOM     11  N   UNL     1       1.673   0.042   0.062  0.00  0.00    -0.271 N 
ATOM     12  C   UNL     1       2.458   0.858  -0.819  0.00  0.00    +0.127 C 
ATOM     13  C   UNL     1       3.135   1.440   0.363  0.00  0.00    +0.177 C 
ATOM     14  O   UNL     1       2.740   2.671   0.817  0.00  0.00    -0.221 OA
ATOM     15  C   UNL     1       2.704   0.232   1.087  0.00  0.00    +0.127 C 
BRANCH  13  16
ATOM     16  C   UNL     1       4.758   1.442   0.151  0.00  0.00    +0.104 C 
ATOM     17  N   UNL     1       5.030   1.064   1.655  0.00  0.00    -0.217 NA
ATOM     18  C   UNL     1       6.461   0.963   1.775  0.00  0.00    +0.089 C 
ATOM     19  C   UNL     1       7.060   0.590   0.426  0.00  0.00    +0.019 C 
ATOM     20  C   UNL     1       6.256  -0.494  -0.240  0.00  0.00    +0.003 C 
ATOM     21  C   UNL     1       4.793  -0.130  -0.323  0.00  0.00    +0.020 C 
ENDBRANCH  13  16
ENDBRANCH   1  10
BRANCH   2  22
ATOM     22  N   UNL     1      -2.510  -1.020   0.218  0.00  0.00    -0.208 NA
BRANCH  22  23
ATOM     23  C   UNL     1      -3.191   0.087   0.729  0.00  0.00    +0.098 A 
ATOM     24  C   UNL     1      -4.569   0.146   0.549  0.00  0.00    +0.156 A 
ATOM     25  F   UNL     1      -5.337  -0.965   0.347  0.00  0.00    -0.203 F 
ATOM     26  C   UNL     1      -5.222   1.258   1.069  0.00  0.00    +0.037 A 
ATOM     27  C   UNL     1      -4.573   2.180   1.880  0.00  0.00    +0.032 A 
ATOM     28  I   UNL     1      -5.157   4.214   1.937  0.00  0.00    -0.042 I 
ATOM     29  C   UNL     1      -3.378   1.781   2.465  0.00  0.00    +0.007 A 
ATOM     30  C   UNL     1      -2.708   0.733   1.865  0.00  0.00    +0.019 A 
ENDBRANCH  22  23
ENDBRANCH   2  22
TORSDOF 4
