REMARK  Name = 
REMARK  9 active torsions:
REMARK  status: ('A' for Active; 'I' for Inactive)
REMARK    1  A    between atoms: C_2  and  C_3
REMARK    2  A    between atoms: C_9  and  C_10
REMARK    3  A    between atoms: C_33  and  O_34
REMARK    4  A    between atoms: C_41  and  C_42
REMARK    5  A    between atoms: N_44  and  C_45
REMARK    6  A    between atoms: C_45  and  C_46
REMARK    7  A    between atoms: N_48  and  S_49
REMARK    8  A    between atoms: S_49  and  C_52
REMARK    9  A    between atoms: C_57  and  C_58
REMARK                            x       y       z     vdW  Elec       q    Type
REMARK                         _______ _______ _______ _____ _____    ______ ____
ROOT
ATOM      1  C   UNL     1      -0.011  -1.342   0.941  0.00  0.00    +0.069 C 
ATOM      2  C   UNL     1       0.885   0.097   1.076  0.00  0.00    +0.157 C 
ATOM      3  N   UNL     1      -0.090   0.916   0.160  0.00  0.00    -0.268 N 
ATOM      4  C   UNL     1       0.175   2.045  -0.485  0.00  0.00    +0.246 C 
ATOM      5  C   UNL     1      -0.697   3.384  -0.384  0.00  0.00    +0.174 C 
ATOM      6  N   UNL     1      -0.792   3.493   1.183  0.00  0.00    -0.161 NA
ATOM      7  C   UNL     1      -1.564   4.631   1.578  0.00  0.00    +0.421 C 
ATOM      8  O   UNL     1      -2.248   5.426   0.703  0.00  0.00    -0.437 OA
ATOM      9  C   UNL     1      -2.696   4.727  -0.611  0.00  0.00    +0.171 C 
ATOM     10  C   UNL     1      -4.209   4.342   0.084  0.00  0.00    +0.044 C 
ATOM     11  C   UNL     1      -4.668   3.592  -1.302  0.00  0.00    +0.004 C 
ATOM     12  C   UNL     1      -5.663   2.562  -0.913  0.00  0.00    +0.000 C 
ATOM     13  C   UNL     1      -4.920   1.298  -0.839  0.00  0.00    +0.006 C 
ATOM     14  C   UNL     1      -4.005   0.920  -1.986  0.00  0.00    +0.073 C 
ATOM     15  C   UNL     1      -3.269  -0.402  -1.606  0.00  0.00    +0.303 C 
ATOM     16  C   UNL     1      -3.875  -0.905  -0.394  0.00  0.00    +0.172 A 
ATOM     17  C   UNL     1      -3.180  -1.626   0.606  0.00  0.00    +0.244 A 
ATOM     18  O   UNL     1      -1.953  -1.838   0.215  0.00  0.00    -0.461 OA
ATOM     19  N   UNL     1      -3.748  -2.715   1.202  0.00  0.00    -0.209 NA
ATOM     20  C   UNL     1      -5.018  -3.081   0.890  0.00  0.00    +0.105 A 
ATOM     21  C   UNL     1      -5.825  -1.998   0.554  0.00  0.00    +0.099 A 
ATOM     22  C   UNL     1      -7.169  -2.147   0.726  0.00  0.00    +0.024 A 
ATOM     23  C   UNL     1      -7.641  -3.318   1.324  0.00  0.00    +0.039 A 
ATOM     24  C   UNL     1      -6.873  -4.471   1.132  0.00  0.00    +0.140 A 
ATOM     25  C   UNL     1      -5.504  -4.365   0.965  0.00  0.00    +0.058 A 
ATOM     26  N   UNL     1      -5.222  -1.137  -0.285  0.00  0.00    -0.238 NA
ATOM     27  F   UNL     1      -4.204  -1.153  -2.419  0.00  0.00    -0.198 F 
ATOM     28  F   UNL     1      -2.428  -0.908  -2.460  0.00  0.00    -0.198 F 
ATOM     29  C   UNL     1      -4.003   5.821  -0.760  0.00  0.00    +0.047 C 
ATOM     30  O   UNL     1      -1.344   5.184   2.700  0.00  0.00    -0.225 OA
ATOM     31  O   UNL     1       0.994   2.003  -1.435  0.00  0.00    -0.273 OA
ATOM     32  C   UNL     1      -1.378   0.511   0.611  0.00  0.00    +0.137 C 
ATOM     33  C   UNL     1      -0.991  -0.798  -0.342  0.00  0.00    +0.189 C 
ENDROOT
BRANCH   5  34
ATOM     34  C   UNL     1       0.666   4.321  -0.466  0.00  0.00    +0.027 C 
ATOM     35  C   UNL     1       0.614   5.536   0.256  0.00  0.00    +0.002 C 
ATOM     36  C   UNL     1       0.976   4.463  -1.901  0.00  0.00    +0.002 C 
ATOM     37  C   UNL     1       1.722   3.610   0.349  0.00  0.00    +0.002 C 
ENDBRANCH   5  34
BRANCH   2  38
ATOM     38  C   UNL     1       2.002  -0.177  -0.030  0.00  0.00    +0.260 C 
ATOM     39  N   UNL     1       3.155  -0.475   0.758  0.00  0.00    -0.198 NA
ATOM     40  O   UNL     1       1.943  -0.445  -1.121  0.00  0.00    -0.272 OA
BRANCH  39  41
ATOM     41  C   UNL     1       4.456  -0.155   0.237  0.00  0.00    +0.155 C 
ATOM     42  C   UNL     1       4.661   1.420  -0.151  0.00  0.00    +0.096 C 
ATOM     43  C   UNL     1       5.001   0.891   1.392  0.00  0.00    +0.037 C 
BRANCH  42  44
ATOM     44  C   UNL     1       6.237   1.420  -0.643  0.00  0.00    +0.321 C 
ATOM     45  F   UNL     1       6.497   2.606  -1.202  0.00  0.00    -0.198 F 
ATOM     46  F   UNL     1       6.772   0.387  -1.012  0.00  0.00    -0.198 F 
ENDBRANCH  42  44
BRANCH  41  47
ATOM     47  C   UNL     1       5.238  -1.201  -0.139  0.00  0.00    +0.280 C 
ATOM     48  N   UNL     1       5.621  -2.172   0.849  0.00  0.00    -0.062 NA
ATOM     49  O   UNL     1       5.007  -1.763  -1.255  0.00  0.00    -0.270 OA
BRANCH  48  50
ATOM     50  S   UNL     1       6.928  -3.257   0.468  0.00  0.00    +0.072 S 
ATOM     51  O   UNL     1       6.811  -4.559   1.189  0.00  0.00    -0.153 OA
ATOM     52  O   UNL     1       6.836  -3.552  -1.008  0.00  0.00    -0.153 OA
BRANCH  50  53
ATOM     53  C   UNL     1       8.408  -2.370   0.839  0.00  0.00    +0.131 C 
ATOM     54  C   UNL     1       8.336  -1.502   2.087  0.00  0.00    +0.026 C 
ATOM     55  C   UNL     1       8.364  -0.859   0.685  0.00  0.00    +0.026 C 
ATOM     56  C   UNL     1       9.735  -2.968   0.475  0.00  0.00    +0.026 C 
ENDBRANCH  50  53
ENDBRANCH  48  50
ENDBRANCH  41  47
ENDBRANCH  39  41
ENDBRANCH   2  38
BRANCH  24  57
ATOM     57  O   UNL     1      -7.419  -5.723   0.963  0.00  0.00    -0.471 OA
ATOM     58  C   UNL     1      -7.398  -6.448  -0.236  0.00  0.00    +0.252 C 
ENDBRANCH  24  57
BRANCH   1  60
ATOM     59  C   UNL     1       1.009  -3.528   0.546  0.00  0.00    +0.000 C 
ATOM     60  C   UNL     1       0.960  -2.248   0.046  0.00  0.00    +0.006 C 
ENDBRANCH   1  60
TORSDOF 9
