REMARK  Name = 
REMARK  1 active torsions:
REMARK  status: ('A' for Active; 'I' for Inactive)
REMARK    1  A    between atoms: C_10  and  C_11
REMARK                            x       y       z     vdW  Elec       q    Type
REMARK                         _______ _______ _______ _____ _____    ______ ____
ROOT
ATOM      1  C   UNL     1      -3.797  -1.087   0.518  0.00  0.00    +0.120 C 
ATOM      2  N   UNL     1      -2.386  -1.049   0.229  0.00  0.00    -0.253 N 
ATOM      3  C   UNL     1      -1.861  -2.041  -0.623  0.00  0.00    +0.284 C 
ATOM      4  O   UNL     1      -2.584  -3.084  -0.624  0.00  0.00    -0.270 OA
ATOM      5  C   UNL     1      -0.366  -2.700  -0.462  0.00  0.00    +0.331 C 
ATOM      6  O   UNL     1      -0.217  -2.397   1.045  0.00  0.00    -0.186 OA
ATOM      7  N   UNL     1       0.459  -1.432  -0.985  0.00  0.00    -0.233 NA
ATOM      8  C   UNL     1       0.664  -0.370  -0.372  0.00  0.00    +0.080 C 
ATOM      9  C   UNL     1      -0.436   0.516  -0.035  0.00  0.00    +0.032 A 
ATOM     10  C   UNL     1      -0.194   1.843  -0.401  0.00  0.00    +0.014 A 
ATOM     11  C   UNL     1      -1.239   2.764  -0.454  0.00  0.00    +0.058 A 
ATOM     12 CL   UNL     1      -1.382   3.955  -1.707  0.00  0.00    -0.082 Cl
ATOM     13  C   UNL     1      -2.210   2.519   0.502  0.00  0.00    +0.013 A 
ATOM     14  C   UNL     1      -2.560   1.195   0.757  0.00  0.00    +0.016 A 
ATOM     15  C   UNL     1      -1.660   0.157   0.538  0.00  0.00    +0.055 A 
ENDROOT
BRANCH   8  16
ATOM     16  C   UNL     1       1.951   0.285  -0.132  0.00  0.00    +0.017 A 
ATOM     17  C   UNL     1       2.296   0.354   1.224  0.00  0.00    +0.001 A 
ATOM     18  C   UNL     1       3.544  -0.076   1.671  0.00  0.00    +0.000 A 
ATOM     19  C   UNL     1       4.597  -0.002   0.781  0.00  0.00    +0.000 A 
ATOM     20  C   UNL     1       4.346   0.410  -0.519  0.00  0.00    +0.000 A 
ATOM     21  C   UNL     1       3.037   0.239  -0.952  0.00  0.00    +0.001 A 
ENDBRANCH   8  16
TORSDOF 1
