REMARK  Name = 
REMARK  4 active torsions:
REMARK  status: ('A' for Active; 'I' for Inactive)
REMARK    1  A    between atoms: O_2  and  C_3
REMARK    2  A    between atoms: C_19  and  C_20
REMARK    3  A    between atoms: C_20  and  O_21
REMARK    4  A    between atoms: O_21  and  C_22
REMARK                            x       y       z     vdW  Elec       q    Type
REMARK                         _______ _______ _______ _____ _____    ______ ____
ROOT
ATOM      1  C   UNL     1       0.832   1.401   0.116  0.00  0.00    +0.177 C 
ATOM      2  C   UNL     1       1.107  -0.163   0.059  0.00  0.00    +0.115 C 
ATOM      3  C   UNL     1      -0.408  -0.532  -0.344  0.00  0.00    +0.042 C 
ATOM      4  C   UNL     1      -1.000  -1.895  -0.031  0.00  0.00    +0.210 C 
ATOM      5  C   UNL     1      -2.449  -2.074   0.088  0.00  0.00    +0.127 C 
ATOM      6  C   UNL     1      -3.183  -1.052   0.491  0.00  0.00    +0.038 C 
ATOM      7  C   UNL     1      -2.464   0.222   0.701  0.00  0.00    +0.206 C 
ATOM      8  O   UNL     1      -3.112   1.140   1.229  0.00  0.00    -0.286 OA
ATOM      9  C   UNL     1      -4.652  -1.171   0.544  0.00  0.00    +0.036 C 
ATOM     10  N   UNL     1      -3.035  -3.240  -0.500  0.00  0.00    -0.125 NA
ATOM     11  O   UNL     1      -0.345  -2.909  -0.237  0.00  0.00    -0.285 OA
ATOM     12  C   UNL     1      -1.187   0.474  -0.012  0.00  0.00    +0.088 C 
ATOM     13  N   UNL     1      -0.457   1.640  -0.327  0.00  0.00    -0.284 N 
ATOM     14  C   UNL     1      -0.386   3.027   0.080  0.00  0.00    +0.112 C 
ATOM     15  C   UNL     1       0.910   3.617  -0.725  0.00  0.00    +0.113 C 
ATOM     16  N   UNL     1       0.649   2.635  -2.076  0.00  0.00    -0.212 NA
ATOM     17  C   UNL     1       1.795   2.193  -0.902  0.00  0.00    +0.133 C 
ENDROOT
BRANCH   1  19
ATOM     18  C   UNL     1       1.849   1.944   1.807  0.00  0.00    +0.176 C 
ATOM     19  O   UNL     1       1.142   1.820   1.413  0.00  0.00    -0.337 OA
ENDBRANCH   1  19
BRANCH   2  20
ATOM     20  C   UNL     1       1.658  -0.190  -1.486  0.00  0.00    +0.219 C 
BRANCH  20  21
ATOM     21  O   UNL     1       2.483  -1.362  -1.462  0.00  0.00    -0.432 OA
BRANCH  21  22
ATOM     22  C   UNL     1       3.250  -1.530  -0.286  0.00  0.00    +0.441 C 
ATOM     23  O   UNL     1       2.520  -1.776   0.737  0.00  0.00    -0.223 OA
ATOM     24  N   UNL     1       4.483  -2.221  -0.259  0.00  0.00    -0.048 NA
ENDBRANCH  21  22
ENDBRANCH  20  21
ENDBRANCH   2  20
TORSDOF 4
