REMARK  Name = 
REMARK  5 active torsions:
REMARK  status: ('A' for Active; 'I' for Inactive)
REMARK    1  A    between atoms: O_2  and  C_3
REMARK    2  A    between atoms: C_15  and  C_16
REMARK    3  A    between atoms: N_17  and  N_18
REMARK    4  A    between atoms: C_51  and  O_52
REMARK    5  A    between atoms: O_52  and  C_53
REMARK                            x       y       z     vdW  Elec       q    Type
REMARK                         _______ _______ _______ _____ _____    ______ ____
ROOT
ATOM      1  C   UNL     1      -4.650  -2.015   0.255  0.00  0.00    +0.144 C 
ATOM      2  C   UNL     1      -4.564  -0.583  -0.667  0.00  0.00    +0.072 C 
ATOM      3  C   UNL     1      -4.779  -1.201  -2.133  0.00  0.00    +0.007 C 
ATOM      4  C   UNL     1      -6.168  -0.144  -0.418  0.00  0.00    +0.174 C 
ATOM      5  C   UNL     1      -5.939   1.527  -0.612  0.00  0.00    +0.071 C 
ATOM      6  C   UNL     1      -5.088   1.423  -1.967  0.00  0.00    +0.006 C 
ATOM      7  C   UNL     1      -4.701   1.750   0.532  0.00  0.00    +0.158 C 
ATOM      8  O   UNL     1      -4.947   3.233   0.458  0.00  0.00    -0.223 OA
ATOM      9  C   UNL     1      -3.377   1.757  -0.501  0.00  0.00    +0.061 C 
ATOM     10  C   UNL     1      -2.445   1.036   0.621  0.00  0.00    +0.005 C 
ATOM     11  C   UNL     1      -2.630   3.201  -0.048  0.00  0.00    +0.158 C 
ATOM     12  O   UNL     1      -1.428   2.634  -0.754  0.00  0.00    -0.223 OA
ATOM     13  C   UNL     1      -3.192   4.119  -1.373  0.00  0.00    +0.053 C 
ATOM     14  C   UNL     1      -3.195   5.488  -0.489  0.00  0.00    +0.007 C 
ATOM     15  C   UNL     1      -1.795   4.481  -2.040  0.00  0.00    -0.024 C 
ATOM     16  C   UNL     1      -0.803   4.924  -1.378  0.00  0.00    -0.005 C 
ATOM     17  C   UNL     1       0.567   4.784  -1.381  0.00  0.00    -0.000 C 
ATOM     18  C   UNL     1       1.516   4.084  -0.776  0.00  0.00    +0.033 C 
ATOM     19  C   UNL     1       1.776   4.301   0.704  0.00  0.00    +0.036 C 
ATOM     20  C   UNL     1       2.464   3.210  -1.514  0.00  0.00    +0.265 C 
ATOM     21  O   UNL     1       3.506   3.811  -1.958  0.00  0.00    -0.268 OA
ATOM     22  N   UNL     1       2.348   1.835  -1.705  0.00  0.00    -0.172 NA
ATOM     23  C   UNL     1       2.958   0.735  -0.979  0.00  0.00    +0.117 A 
ATOM     24  C   UNL     1       2.895  -0.545  -1.554  0.00  0.00    +0.214 A 
ATOM     25  C   UNL     1       2.415  -1.634  -0.810  0.00  0.00    +0.082 A 
ATOM     26  C   UNL     1       1.542  -1.334   0.262  0.00  0.00    +0.051 A 
ATOM     27  C   UNL     1       1.812  -0.132   0.908  0.00  0.00    +0.199 A 
ATOM     28  O   UNL     1       0.997   0.634   1.757  0.00  0.00    -0.286 OA
ATOM     29  C   UNL     1       0.992  -2.482   0.826  0.00  0.00    +0.079 A 
ATOM     30  C   UNL     1      -0.397  -2.747   1.180  0.00  0.00    +0.251 C 
ATOM     31  C   UNL     1      -0.777  -4.154   0.820  0.00  0.00    +0.326 C 
ATOM     32  O   UNL     1       0.471  -4.703   0.595  0.00  0.00    -0.443 OA
ATOM     33  C   UNL     1      -1.375  -4.924   1.961  0.00  0.00    +0.100 C 
ATOM     34  O   UNL     1      -1.658  -4.183  -0.259  0.00  0.00    -0.440 OA
ATOM     35  C   UNL     1      -2.969  -3.785  -0.187  0.00  0.00    +0.174 C 
ATOM     36  O   UNL     1      -1.159  -2.225   2.059  0.00  0.00    -0.284 OA
ATOM     37  C   UNL     1       1.437  -3.750   0.445  0.00  0.00    +0.145 A 
ATOM     38  C   UNL     1       2.699  -3.932  -0.115  0.00  0.00    +0.051 A 
ATOM     39  C   UNL     1       3.578  -5.014   0.351  0.00  0.00    +0.038 C 
ATOM     40  C   UNL     1       3.131  -2.837  -0.852  0.00  0.00    +0.198 A 
ATOM     41  O   UNL     1       4.469  -2.898  -1.262  0.00  0.00    -0.287 OA
ATOM     42  O   UNL     1       3.602  -0.956  -2.696  0.00  0.00    -0.285 OA
ATOM     43  C   UNL     1       2.848   0.696   0.427  0.00  0.00    +0.078 A 
ATOM     44  C   UNL     1      -3.276  -2.542  -0.410  0.00  0.00    +0.043 C 
ENDROOT
BRANCH   1  46
ATOM     45  C   UNL     1      -5.286  -3.259  -0.846  0.00  0.00    +0.174 C 
ATOM     46  O   UNL     1      -5.495  -2.821  -0.708  0.00  0.00    -0.349 OA
ENDBRANCH   1  46
BRANCH  43  47
ATOM     47  C   UNL     1       3.917   1.107   1.370  0.00  0.00    +0.122 C 
ATOM     48  N   UNL     1       4.855   0.360   1.788  0.00  0.00    -0.180 NA
BRANCH  48  49
ATOM     49  N   UNL     1       6.214   0.474   1.494  0.00  0.00    -0.230 N 
ATOM     50  C   UNL     1       6.757  -0.457   0.509  0.00  0.00    +0.128 C 
ATOM     51  C   UNL     1       8.236  -0.360   0.352  0.00  0.00    +0.096 C 
ATOM     52  N   UNL     1       8.744   0.982   0.288  0.00  0.00    -0.268 NA
ATOM     53  C   UNL     1       9.649   1.168   1.396  0.00  0.00    +0.090 C 
ATOM     54  C   UNL     1       7.665   1.941   0.309  0.00  0.00    +0.096 C 
ATOM     55  C   UNL     1       6.936   1.733   1.631  0.00  0.00    +0.128 C 
ENDBRANCH  48  49
ENDBRANCH  43  47
BRANCH   4  56
ATOM     56  O   UNL     1      -6.059  -0.099   1.098  0.00  0.00    -0.452 OA
BRANCH  56  57
ATOM     57  C   UNL     1      -7.198  -0.493   1.798  0.00  0.00    +0.317 C 
ATOM     58  O   UNL     1      -7.712  -1.568   1.440  0.00  0.00    -0.250 OA
ATOM     59  C   UNL     1      -7.935   0.348   2.760  0.00  0.00    +0.121 C 
ENDBRANCH  56  57
ENDBRANCH   4  56
TORSDOF 5
