REMARK  Name = 
REMARK  7 active torsions:
REMARK  status: ('A' for Active; 'I' for Inactive)
REMARK    1  A    between atoms: C_10  and  C_11
REMARK    2  A    between atoms: C_11  and  C_12
REMARK    3  A    between atoms: C_12  and  N_13
REMARK    4  A    between atoms: N_13  and  C_14
REMARK    5  A    between atoms: C_14  and  C_15
REMARK    6  A    between atoms: C_18  and  C_19
REMARK    7  A    between atoms: C_20  and  C_21
REMARK                            x       y       z     vdW  Elec       q    Type
REMARK                         _______ _______ _______ _____ _____    ______ ____
ROOT
ATOM      1  N   UNL     1      -0.930   1.553   1.036  0.00  0.00    -0.213 NA
ENDROOT
BRANCH   1   2
ATOM      2  C   UNL     1      -1.311   1.435  -0.351  0.00  0.00    +0.094 C 
BRANCH   2   3
ATOM      3  C   UNL     1      -2.074   0.172  -0.648  0.00  0.00    +0.046 C 
BRANCH   3   6
ATOM      4  C   UNL     1      -1.973  -1.328   2.162  0.00  0.00    +0.052 C 
ATOM      5  C   UNL     1      -3.087  -0.526   1.570  0.00  0.00    +0.055 A 
ATOM      6  C   UNL     1      -3.214  -0.039   0.285  0.00  0.00    -0.006 A 
ATOM      7  C   UNL     1      -4.558   0.080  -0.048  0.00  0.00    +0.015 A 
ATOM      8  C   UNL     1      -5.227  -0.173   1.142  0.00  0.00    +0.081 A 
ATOM      9  C   UNL     1      -6.606  -0.319   1.065  0.00  0.00    +0.019 A 
ATOM     10  C   UNL     1      -7.163  -0.742  -0.132  0.00  0.00    +0.002 A 
ATOM     11  C   UNL     1      -6.530  -0.473  -1.339  0.00  0.00    +0.000 A 
ATOM     12  C   UNL     1      -5.257   0.071  -1.248  0.00  0.00    +0.001 A 
ATOM     13  N   UNL     1      -4.312  -0.360   2.124  0.00  0.00    -0.250 NA
ENDBRANCH   3   6
ENDBRANCH   2   3
ENDBRANCH   1   2
BRANCH   1  14
ATOM     14  C   UNL     1       0.518   1.499   1.170  0.00  0.00    +0.115 C 
BRANCH  14  15
ATOM     15  C   UNL     1       1.040   0.573   0.117  0.00  0.00    -0.005 A 
ATOM     16  C   UNL     1       1.623  -0.639   0.465  0.00  0.00    -0.003 A 
ATOM     17  C   UNL     1       2.601  -1.177  -0.362  0.00  0.00    -0.000 A 
ATOM     18  C   UNL     1       3.174  -0.447  -1.396  0.00  0.00    +0.000 A 
ATOM     19  C   UNL     1       2.477   0.653  -1.838  0.00  0.00    -0.000 A 
ATOM     20  C   UNL     1       1.385   1.109  -1.113  0.00  0.00    -0.003 A 
BRANCH  18  21
ATOM     21  C   UNL     1       4.622  -0.573  -1.607  0.00  0.00    +0.002 C 
ATOM     22  C   UNL     1       5.475   0.353  -1.220  0.00  0.00    +0.025 C 
BRANCH  22  23
ATOM     23  C   UNL     1       6.728   0.095  -0.545  0.00  0.00    +0.110 C 
ATOM     24  N   UNL     1       7.059  -1.107   0.117  0.00  0.00    -0.198 NA
ATOM     25  O   UNL     1       7.943  -1.118   1.153  0.00  0.00    -0.402 OA
ATOM     26  O   UNL     1       7.597   1.011  -0.559  0.00  0.00    -0.536 OA
ENDBRANCH  22  23
ENDBRANCH  18  21
ENDBRANCH  14  15
ENDBRANCH   1  14
TORSDOF 7
