REMARK  Name = 
REMARK  6 active torsions:
REMARK  status: ('A' for Active; 'I' for Inactive)
REMARK    1  A    between atoms: O_2  and  C_3
REMARK    2  A    between atoms: C_5  and  N_6
REMARK    3  A    between atoms: C_9  and  N_10
REMARK    4  A    between atoms: C_21  and  N_22
REMARK    5  A    between atoms: N_29  and  C_30
REMARK    6  A    between atoms: C_35  and  P_36
REMARK                            x       y       z     vdW  Elec       q    Type
REMARK                         _______ _______ _______ _____ _____    ______ ____
ROOT
ATOM      1  C   UNL     1       0.883   0.847  -1.321  0.00  0.00    +0.155 A 
ATOM      2  C   UNL     1      -0.173   0.911  -0.424  0.00  0.00    +0.107 A 
ATOM      3  C   UNL     1       0.045   1.134   0.929  0.00  0.00    +0.021 A 
ATOM      4  C   UNL     1       1.327   1.401   1.342  0.00  0.00    +0.016 A 
ATOM      5  C   UNL     1       2.387   1.540   0.454  0.00  0.00    +0.051 A 
ATOM      6  C   UNL     1       2.138   1.227  -0.864  0.00  0.00    +0.053 A 
ENDROOT
BRANCH   2   7
ATOM      7  N   UNL     1      -1.411   0.337  -0.851  0.00  0.00    -0.175 NA
ATOM      8  C   UNL     1      -1.998  -0.738  -0.114  0.00  0.00    +0.242 A 
ATOM      9  N   UNL     1      -3.300  -1.022  -0.258  0.00  0.00    -0.194 NA
ATOM     10  C   UNL     1      -4.060  -1.538   0.728  0.00  0.00    +0.167 A 
ATOM     11  N   UNL     1      -5.486  -1.421   0.725  0.00  0.00    -0.193 NA
ATOM     12  C   UNL     1      -3.429  -1.905   1.894  0.00  0.00    +0.110 A 
ATOM     13 CL   UNL     1      -4.297  -1.918   3.425  0.00  0.00    -0.078 Cl
ATOM     14  C   UNL     1      -2.045  -1.988   1.844  0.00  0.00    +0.116 A 
ATOM     15  N   UNL     1      -1.349  -1.279   0.930  0.00  0.00    -0.210 NA
BRANCH  11  16
ATOM     16  C   UNL     1      -6.019  -0.129   0.417  0.00  0.00    +0.075 A 
ATOM     17  C   UNL     1      -7.017  -0.059  -0.547  0.00  0.00    +0.045 A 
ATOM     18  C   UNL     1      -7.490   1.187  -0.936  0.00  0.00    +0.004 A 
ATOM     19  C   UNL     1      -6.961   2.333  -0.354  0.00  0.00    +0.000 A 
ATOM     20  C   UNL     1      -5.806   2.267   0.412  0.00  0.00    +0.001 A 
ATOM     21  C   UNL     1      -5.262   1.016   0.611  0.00  0.00    +0.017 A 
BRANCH  17  22
ATOM     22  P   UNL     1      -8.035  -1.501  -0.871  0.00  0.00    +0.137 P 
ATOM     23  O   UNL     1      -8.077  -1.719  -2.373  0.00  0.00    -0.315 OA
ATOM     24  C   UNL     1      -9.725  -1.173  -0.276  0.00  0.00    +0.072 C 
ATOM     25  C   UNL     1      -7.324  -2.950  -0.055  0.00  0.00    +0.072 C 
ENDBRANCH  17  22
ENDBRANCH  11  16
ENDBRANCH   2   7
BRANCH   5  26
ATOM     26  N   UNL     1       3.736   1.523   0.930  0.00  0.00    -0.307 N 
ATOM     27  C   UNL     1       4.418   0.319   1.332  0.00  0.00    +0.092 C 
ATOM     28  C   UNL     1       5.609  -0.015   0.496  0.00  0.00    +0.037 C 
ATOM     29  C   UNL     1       6.345   1.133  -0.076  0.00  0.00    +0.061 C 
ATOM     30  C   UNL     1       5.577   2.384  -0.290  0.00  0.00    +0.037 C 
ATOM     31  C   UNL     1       4.580   2.706   0.783  0.00  0.00    +0.092 C 
BRANCH  29  32
ATOM     32  N   UNL     1       7.689   1.305   0.383  0.00  0.00    -0.272 NA
ATOM     33  C   UNL     1       8.614   0.886  -0.637  0.00  0.00    +0.090 C 
ATOM     34  C   UNL     1       9.537  -0.216  -0.178  0.00  0.00    +0.090 C 
ATOM     35  N   UNL     1       8.739  -1.249   0.450  0.00  0.00    -0.269 NA
ATOM     36  C   UNL     1       9.597  -2.391   0.742  0.00  0.00    +0.090 C 
ATOM     37  C   UNL     1       8.094  -0.761   1.647  0.00  0.00    +0.090 C 
ATOM     38  C   UNL     1       7.955   0.738   1.676  0.00  0.00    +0.090 C 
ENDBRANCH  29  32
ENDBRANCH   5  26
BRANCH   1  40
ATOM     39  C   UNL     1       1.226  -1.282  -2.364  0.00  0.00    +0.253 C 
ATOM     40  O   UNL     1       0.767   0.061  -2.471  0.00  0.00    -0.470 OA
ENDBRANCH   1  40
TORSDOF 6
