REMARK  Name = 
REMARK  6 active torsions:
REMARK  status: ('A' for Active; 'I' for Inactive)
REMARK    1  A    between atoms: O_2  and  C_3
REMARK    2  A    between atoms: C_4  and  C_5
REMARK    3  A    between atoms: C_10  and  N_11
REMARK    4  A    between atoms: N_11  and  S_12
REMARK    5  A    between atoms: C_21  and  N_22
REMARK    6  A    between atoms: C_31  and  C_32
REMARK                            x       y       z     vdW  Elec       q    Type
REMARK                         _______ _______ _______ _____ _____    ______ ____
ROOT
ATOM      1  C   UNL     1      -1.549  -1.651  -0.808  0.00  0.00    +0.135 A 
ATOM      2  C   UNL     1      -2.915  -1.733  -1.044  0.00  0.00    +0.013 A 
ATOM      3  C   UNL     1      -3.627  -0.571  -0.809  0.00  0.00    +0.016 A 
ATOM      4  C   UNL     1      -3.002   0.592  -0.377  0.00  0.00    +0.068 A 
ATOM      5  C   UNL     1      -1.750   0.458   0.210  0.00  0.00    +0.021 A 
ATOM      6  C   UNL     1      -0.997  -0.681   0.015  0.00  0.00    +0.035 A 
ENDROOT
BRANCH   6   7
ATOM      7  C   UNL     1       0.224  -0.961   0.780  0.00  0.00    +0.003 A 
ATOM      8  C   UNL     1       1.107   0.023   1.154  0.00  0.00    +0.000 A 
ATOM      9  C   UNL     1       2.436  -0.297   1.400  0.00  0.00    +0.000 A 
ATOM     10  C   UNL     1       2.943  -1.565   1.143  0.00  0.00    +0.001 A 
ATOM     11  C   UNL     1       4.201  -1.706   0.571  0.00  0.00    +0.018 A 
ATOM     12  C   UNL     1       5.038  -0.603   0.451  0.00  0.00    +0.091 A 
ATOM     13  C   UNL     1       4.679   0.497   1.220  0.00  0.00    +0.018 A 
ATOM     14  C   UNL     1       2.000  -2.583   1.080  0.00  0.00    +0.000 A 
ATOM     15  C   UNL     1       3.385   0.670   1.695  0.00  0.00    +0.001 A 
ATOM     16  C   UNL     1       0.651  -2.272   0.960  0.00  0.00    +0.000 A 
BRANCH  12  17
ATOM     17  N   UNL     1       6.046  -0.524  -0.544  0.00  0.00    -0.101 NA
BRANCH  17  18
ATOM     18  S   UNL     1       6.822   0.982  -0.832  0.00  0.00    +0.075 S 
ATOM     19  O   UNL     1       5.788   1.968  -1.308  0.00  0.00    -0.153 OA
ATOM     20  O   UNL     1       7.397   1.559   0.442  0.00  0.00    -0.153 OA
ATOM     21  C   UNL     1       8.059   0.834  -2.081  0.00  0.00    +0.202 C 
ENDBRANCH  17  18
ENDBRANCH  12  17
ENDBRANCH   6   7
BRANCH   4  22
ATOM     22  N   UNL     1      -3.648   1.860  -0.486  0.00  0.00    -0.257 N 
ATOM     23  C   UNL     1      -4.524   2.289   0.455  0.00  0.00    +0.357 A 
ATOM     24  O   UNL     1      -5.121   1.387   1.114  0.00  0.00    -0.244 OA
ATOM     25  N   UNL     1      -4.573   3.589   0.834  0.00  0.00    -0.153 NA
ATOM     26  C   UNL     1      -3.774   4.512   0.244  0.00  0.00    +0.285 A 
ATOM     27  O   UNL     1      -3.250   5.433   0.940  0.00  0.00    -0.265 OA
ATOM     28  C   UNL     1      -3.261   4.145  -0.994  0.00  0.00    +0.082 A 
ATOM     29  C   UNL     1      -3.203   2.808  -1.345  0.00  0.00    +0.089 A 
ENDBRANCH   4  22
BRANCH   2  30
ATOM     30  C   UNL     1      -3.583  -3.049  -1.284  0.00  0.00    +0.022 C 
ATOM     31  C   UNL     1      -4.516  -3.372  -0.123  0.00  0.00    +0.004 C 
ATOM     32  C   UNL     1      -2.497  -4.107  -1.351  0.00  0.00    +0.004 C 
ATOM     33  C   UNL     1      -4.301  -3.057  -2.606  0.00  0.00    +0.004 C 
ENDBRANCH   2  30
BRANCH   1  35
ATOM     34  C   UNL     1       0.050  -2.244  -2.471  0.00  0.00    +0.252 C 
ATOM     35  O   UNL     1      -0.734  -2.629  -1.344  0.00  0.00    -0.472 OA
ENDBRANCH   1  35
TORSDOF 6
