REMARK  Name = 
REMARK  5 active torsions:
REMARK  status: ('A' for Active; 'I' for Inactive)
REMARK    1  A    between atoms: C_2  and  C_4
REMARK    2  A    between atoms: C_4  and  C_6
REMARK    3  A    between atoms: C_6  and  C_8
REMARK    4  A    between atoms: C_8  and  C_10
REMARK    5  A    between atoms: C_10  and  C_12
REMARK                            x       y       z     vdW  Elec       q    Type
REMARK                         _______ _______ _______ _____ _____    ______ ____
ROOT
ATOM      1  C   UNL     1       0.529   0.328  -0.719  0.00  0.00    +0.226 C 
ATOM      2  O   UNL     1      -0.199  -0.829  -1.328  0.00  0.00    -0.217 OA
ENDROOT
BRANCH   1   3
ATOM      3  C   UNL     1       1.392  -0.513   0.511  0.00  0.00    +0.287 C 
ATOM      4  O   UNL     1       1.212  -1.914  -0.032  0.00  0.00    -0.208 OA
BRANCH   3   6
ATOM      5  O   UNL     1       3.022  -0.763  -0.675  0.00  0.00    -0.243 OA
ATOM      6  C   UNL     1       2.780  -0.316  -0.304  0.00  0.00    +0.397 C 
ATOM      7  O   UNL     1       3.155   1.028  -0.455  0.00  0.00    -0.243 OA
ENDBRANCH   3   6
ENDBRANCH   1   3
BRANCH   1   8
ATOM      8  C   UNL     1      -0.683   0.748   0.418  0.00  0.00    +0.218 C 
ATOM      9  O   UNL     1      -1.084  -0.664   0.729  0.00  0.00    -0.217 OA
BRANCH   8  10
ATOM     10  C   UNL     1      -1.827   1.025  -0.832  0.00  0.00    +0.218 C 
ATOM     11  O   UNL     1      -2.143   2.397  -0.278  0.00  0.00    -0.217 OA
BRANCH  10  12
ATOM     12  C   UNL     1      -3.087   0.363  -0.012  0.00  0.00    +0.217 C 
ATOM     13  O   UNL     1      -3.066  -0.888  -0.654  0.00  0.00    -0.217 OA
ENDBRANCH  10  12
ENDBRANCH   8  10
ENDBRANCH   1   8
TORSDOF 5
