REMARK  Name = 
REMARK  12 active torsions:
REMARK  status: ('A' for Active; 'I' for Inactive)
REMARK    1  A    between atoms: C_2  and  N_5
REMARK    2  A    between atoms: C_6  and  C_8
REMARK    3  A    between atoms: N_10  and  C_11
REMARK    4  A    between atoms: C_11  and  C_12
REMARK    5  A    between atoms: N_20  and  C_21
REMARK    6  A    between atoms: C_21  and  C_22
REMARK    7  A    between atoms: C_22  and  C_24
REMARK    8  A    between atoms: C_24  and  C_25
REMARK    9  A    between atoms: C_25  and  C_26
REMARK   10  A    between atoms: C_25  and  C_33
REMARK   11  A    between atoms: C_26  and  C_27
REMARK   12  A    between atoms: N_35  and  C_36
REMARK                            x       y       z     vdW  Elec       q    Type
REMARK                         _______ _______ _______ _____ _____    ______ ____
ROOT
ATOM      1  C   UNL     1       0.563  -1.905  -1.343  0.00  0.00    +0.168 C 
ATOM      2  O   UNL     1       0.264  -2.831  -0.141  0.00  0.00    -0.222 OA
ENDROOT
BRANCH   1   3
ATOM      3  C   UNL     1       1.907  -1.300  -0.556  0.00  0.00    +0.106 C 
BRANCH   3   5
ATOM      4  C   UNL     1       3.005   0.849  -0.443  0.00  0.00    +0.153 C 
ATOM      5  N   UNL     1       1.669   0.014  -0.196  0.00  0.00    -0.262 NA
ATOM      6  C   UNL     1       1.509   0.284   1.222  0.00  0.00    +0.090 C 
ATOM      7  C   UNL     1       2.413  -0.670   1.995  0.00  0.00    +0.090 C 
ATOM      8  N   UNL     1       3.752  -0.330   1.589  0.00  0.00    -0.266 NA
ATOM      9  C   UNL     1       3.963  -0.376   0.172  0.00  0.00    +0.098 C 
BRANCH   4  11
ATOM     10  N   UNL     1       4.552   0.376  -2.326  0.00  0.00    -0.208 NA
ATOM     11  C   UNL     1       3.163   0.278  -1.973  0.00  0.00    +0.257 C 
ATOM     12  O   UNL     1       2.451   1.079  -2.653  0.00  0.00    -0.272 OA
BRANCH  10  14
ATOM     13  C   UNL     1       4.457   0.960  -4.519  0.00  0.00    +0.022 C 
ATOM     14  C   UNL     1       4.876   0.049  -3.712  0.00  0.00    +0.079 C 
ATOM     15  C   UNL     1       4.185  -1.285  -3.960  0.00  0.00    +0.022 C 
ATOM     16  C   UNL     1       6.378  -0.144  -3.788  0.00  0.00    +0.022 C 
ENDBRANCH  10  14
ENDBRANCH   4  11
BRANCH   8  17
ATOM     17  C   UNL     1       4.273   0.846   2.215  0.00  0.00    +0.101 C 
BRANCH  17  18
ATOM     18  C   UNL     1       5.764   0.742   2.237  0.00  0.00    +0.013 A 
ATOM     19  C   UNL     1       6.443   0.058   1.236  0.00  0.00    +0.096 A 
ATOM     20  N   UNL     1       7.686  -0.410   1.372  0.00  0.00    -0.243 NA
ATOM     21  C   UNL     1       8.303  -0.294   2.570  0.00  0.00    +0.099 A 
ATOM     22  C   UNL     1       7.780   0.609   3.451  0.00  0.00    +0.020 A 
ATOM     23  C   UNL     1       6.529   1.177   3.297  0.00  0.00    +0.000 A 
ENDBRANCH  17  18
ENDBRANCH   8  17
ENDBRANCH   3   5
ENDBRANCH   1   3
BRANCH   1  24
ATOM     24  C   UNL     1      -0.510  -0.751  -0.749  0.00  0.00    +0.044 C 
BRANCH  24  25
ATOM     25  C   UNL     1      -1.891  -1.665  -0.916  0.00  0.00    +0.085 C 
BRANCH  25  26
ATOM     26  C   UNL     1      -2.866  -0.363  -0.994  0.00  0.00    +0.242 C 
ATOM     27  N   UNL     1      -4.181  -0.517  -0.427  0.00  0.00    -0.200 NA
ATOM     28  O   UNL     1      -2.888  -0.185  -2.258  0.00  0.00    -0.273 OA
BRANCH  27  29
ATOM     29  C   UNL     1      -4.957   0.778  -0.930  0.00  0.00    +0.148 C 
ATOM     30  C   UNL     1      -5.489   1.295   0.652  0.00  0.00    +0.180 C 
ATOM     31  O   UNL     1      -4.076   1.196   1.233  0.00  0.00    -0.221 OA
ATOM     32  C   UNL     1      -5.859  -0.254   1.101  0.00  0.00    +0.061 C 
ATOM     33  C   UNL     1      -6.748  -0.516  -0.020  0.00  0.00    -0.022 A 
ATOM     34  C   UNL     1      -8.048  -1.011   0.017  0.00  0.00    -0.004 A 
ATOM     35  C   UNL     1      -8.911  -0.899  -1.045  0.00  0.00    -0.000 A 
ATOM     36  C   UNL     1      -8.519  -0.045  -2.070  0.00  0.00    -0.000 A 
ATOM     37  C   UNL     1      -7.257   0.538  -2.061  0.00  0.00    -0.003 A 
ATOM     38  C   UNL     1      -6.334  -0.026  -1.190  0.00  0.00    -0.004 A 
ENDBRANCH  27  29
ENDBRANCH  25  26
BRANCH  25  39
ATOM     39  C   UNL     1      -2.049  -1.879   0.710  0.00  0.00    +0.036 C 
BRANCH  39  40
ATOM     40  C   UNL     1      -2.225  -0.641   1.384  0.00  0.00    -0.022 A 
ATOM     41  C   UNL     1      -2.905  -0.762   2.599  0.00  0.00    -0.004 A 
ATOM     42  C   UNL     1      -3.392   0.340   3.280  0.00  0.00    -0.000 A 
ATOM     43  C   UNL     1      -3.095   1.602   2.780  0.00  0.00    -0.000 A 
ATOM     44  C   UNL     1      -1.997   1.715   1.935  0.00  0.00    -0.000 A 
ATOM     45  C   UNL     1      -1.690   0.592   1.222  0.00  0.00    -0.004 A 
ENDBRANCH  39  40
ENDBRANCH  25  39
ENDBRANCH  24  25
ENDBRANCH   1  24
TORSDOF 12
