REMARK  Name = 
REMARK  5 active torsions:
REMARK  status: ('A' for Active; 'I' for Inactive)
REMARK    1  A    between atoms: C_2  and  C_3
REMARK    2  A    between atoms: C_3  and  C_4
REMARK    3  A    between atoms: C_4  and  C_5
REMARK    4  A    between atoms: C_5  and  C_7
REMARK    5  A    between atoms: C_8  and  C_9
REMARK                            x       y       z     vdW  Elec       q    Type
REMARK                         _______ _______ _______ _____ _____    ______ ____
ROOT
ATOM      1  C   UNL     1      -0.378  -0.440  -0.211  0.00  0.00    +0.155 C 
ATOM      2  C   UNL     1      -0.362   0.674  -1.182  0.00  0.00    +0.241 C 
ATOM      3  O   UNL     1       0.083   0.426  -2.338  0.00  0.00    -0.274 OA
ATOM      4  N   UNL     1      -1.352   1.703  -1.075  0.00  0.00    -0.210 N 
ATOM      5  C   UNL     1      -1.529   2.630  -2.189  0.00  0.00    +0.124 C 
ATOM      6  C   UNL     1      -1.971   1.913   0.180  0.00  0.00    +0.336 C 
ATOM      7  O   UNL     1      -2.422   3.056   0.465  0.00  0.00    -0.250 OA
ATOM      8  N   UNL     1      -2.089   0.810   1.084  0.00  0.00    -0.127 NA
ATOM      9  C   UNL     1      -1.604  -0.441   0.617  0.00  0.00    +0.258 C 
ATOM     10  O   UNL     1      -1.911  -1.484   1.224  0.00  0.00    -0.272 OA
ENDROOT
BRANCH   1  11
ATOM     11  C   UNL     1       0.842  -0.066   0.861  0.00  0.00    +0.081 C 
ATOM     12  C   UNL     1       0.788  -1.584   1.547  0.00  0.00    +0.015 C 
BRANCH  11  13
ATOM     13  C   UNL     1       1.992  -0.518  -0.173  0.00  0.00    -0.091 C 
ATOM     14  C   UNL     1       3.132  -0.276  -0.526  0.00  0.00    -0.091 C 
BRANCH  14  15
ATOM     15  C   UNL     1       4.544  -0.095  -0.833  0.00  0.00    +0.076 C 
ATOM     16  C   UNL     1       4.920   1.309  -0.395  0.00  0.00    +0.015 C 
ENDBRANCH  14  15
ENDBRANCH  11  13
ENDBRANCH   1  11
BRANCH   1  17
ATOM     17  C   UNL     1      -0.025  -1.763  -0.790  0.00  0.00    +0.044 C 
BRANCH  17  19
ATOM     18  C   UNL     1      -1.502  -3.148  -1.068  0.00  0.00    -0.005 C 
ATOM     19  C   UNL     1      -1.157  -2.705  -0.935  0.00  0.00    -0.025 C 
ENDBRANCH  17  19
ENDBRANCH   1  17
TORSDOF 5
