REMARK  Name = 
REMARK  6 active torsions:
REMARK  status: ('A' for Active; 'I' for Inactive)
REMARK    1  A    between atoms: C_2  and  C_3
REMARK    2  A    between atoms: C_2  and  C_19
REMARK    3  A    between atoms: C_3  and  N_4
REMARK    4  A    between atoms: N_4  and  C_5
REMARK    5  A    between atoms: C_5  and  C_6
REMARK    6  A    between atoms: C_6  and  C_8
REMARK                            x       y       z     vdW  Elec       q    Type
REMARK                         _______ _______ _______ _____ _____    ______ ____
ROOT
ATOM      1  N   UNL     1       0.198   0.894   0.540  0.00  0.00    -0.212 NA
ENDROOT
BRANCH   1   2
ATOM      2  C   UNL     1      -1.262   1.006   0.531  0.00  0.00    +0.125 C 
BRANCH   2   4
ATOM      3  O   UNL     1      -1.266  -0.924   1.744  0.00  0.00    -0.218 OA
ATOM      4  C   UNL     1      -1.579  -0.606   0.282  0.00  0.00    +0.209 C 
BRANCH   4   5
ATOM      5  C   UNL     1      -3.277  -0.417   0.650  0.00  0.00    +0.198 C 
ATOM      6  O   UNL     1      -3.602   0.181  -0.743  0.00  0.00    -0.477 OA
ATOM      7  C   UNL     1      -4.986   0.299  -0.850  0.00  0.00    +0.135 A 
ATOM      8  C   UNL     1      -5.712  -0.709  -0.229  0.00  0.00    +0.014 A 
ATOM      9  C   UNL     1      -6.896  -0.407   0.435  0.00  0.00    +0.028 A 
ATOM     10  C   UNL     1      -7.521   0.774   0.052  0.00  0.00    +0.140 A 
ATOM     11  C   UNL     1      -7.042   1.505  -1.029  0.00  0.00    +0.033 A 
ATOM     12  F   UNL     1      -8.816   0.862   0.474  0.00  0.00    -0.204 F 
ATOM     13  C   UNL     1      -5.062  -2.031  -0.107  0.00  0.00    +0.033 C 
ATOM     14  C   UNL     1      -5.668   1.415  -1.249  0.00  0.00    +0.039 A 
ATOM     15  C   UNL     1      -3.581  -1.954   0.128  0.00  0.00    +0.051 C 
ENDBRANCH   4   5
ENDBRANCH   2   4
ENDBRANCH   1   2
BRANCH   1  16
ATOM     16  C   UNL     1       0.624   0.083  -0.605  0.00  0.00    +0.125 C 
BRANCH  16  17
ATOM     17  C   UNL     1       1.752   1.158  -1.177  0.00  0.00    +0.209 C 
ATOM     18  O   UNL     1       2.260   0.183  -2.237  0.00  0.00    -0.218 OA
BRANCH  17  19
ATOM     19  C   UNL     1       2.922   0.664   0.035  0.00  0.00    +0.198 C 
ATOM     20  O   UNL     1       4.112   0.928  -0.922  0.00  0.00    -0.477 OA
ATOM     21  C   UNL     1       5.287   0.590  -0.284  0.00  0.00    +0.135 A 
ATOM     22  C   UNL     1       5.293  -0.718   0.191  0.00  0.00    +0.014 A 
ATOM     23  C   UNL     1       6.529  -1.257   0.447  0.00  0.00    +0.028 A 
ATOM     24  C   UNL     1       7.621  -0.413   0.590  0.00  0.00    +0.140 A 
ATOM     25  C   UNL     1       7.495   0.970   0.591  0.00  0.00    +0.033 A 
ATOM     26  F   UNL     1       8.808  -1.033   0.713  0.00  0.00    -0.204 F 
ATOM     27  C   UNL     1       4.160  -1.543  -0.176  0.00  0.00    +0.033 C 
ATOM     28  C   UNL     1       6.360   1.444  -0.062  0.00  0.00    +0.039 A 
ATOM     29  C   UNL     1       2.851  -0.943  -0.330  0.00  0.00    +0.051 C 
ENDBRANCH  17  19
ENDBRANCH  16  17
ENDBRANCH   1  16
TORSDOF 6
