REMARK  Name = 
REMARK  8 active torsions:
REMARK  status: ('A' for Active; 'I' for Inactive)
REMARK    1  A    between atoms: C_2  and  C_4
REMARK    2  A    between atoms: C_9  and  O_10
REMARK    3  A    between atoms: O_10  and  C_11
REMARK    4  A    between atoms: C_11  and  C_12
REMARK    5  A    between atoms: C_12  and  C_14
REMARK    6  A    between atoms: C_14  and  O_15
REMARK    7  A    between atoms: O_15  and  C_16
REMARK    8  A    between atoms: C_22  and  C_23
REMARK                            x       y       z     vdW  Elec       q    Type
REMARK                         _______ _______ _______ _____ _____    ______ ____
ROOT
ATOM      1  C   UNL     1       0.204  -1.238  -0.770  0.00  0.00    +0.239 C 
ATOM      2  O   UNL     1       0.323  -1.631  -2.087  0.00  0.00    -0.215 OA
ENDROOT
BRANCH   1   3
ATOM      3  C   UNL     1      -1.191  -0.950  -0.330  0.00  0.00    +0.242 C 
BRANCH   3   4
ATOM      4  O   UNL     1      -1.761  -1.988   0.460  0.00  0.00    -0.472 OA
BRANCH   4   9
ATOM      5  C   UNL     1      -5.256   1.046   0.510  0.00  0.00    +0.228 A 
ATOM      6  O   UNL     1      -5.853   0.041  -0.107  0.00  0.00    -0.446 OA
ATOM      7  C   UNL     1      -5.244  -1.134  -0.127  0.00  0.00    +0.152 A 
ATOM      8  C   UNL     1      -4.099  -1.367   0.619  0.00  0.00    +0.107 A 
ATOM      9  C   UNL     1      -3.112  -2.256   0.210  0.00  0.00    +0.145 A 
ATOM     10  C   UNL     1      -3.498  -3.288  -0.636  0.00  0.00    +0.037 A 
ATOM     11  C   UNL     1      -4.699  -3.145  -1.316  0.00  0.00    +0.006 A 
ATOM     12  C   UNL     1      -3.817  -0.464   1.635  0.00  0.00    +0.205 A 
ATOM     13  O   UNL     1      -2.783  -0.677   2.297  0.00  0.00    -0.286 OA
ATOM     14  C   UNL     1      -5.503  -2.044  -1.145  0.00  0.00    +0.038 A 
ATOM     15  C   UNL     1      -4.500   0.745   1.630  0.00  0.00    +0.087 A 
BRANCH   5  17
ATOM     16  O   UNL     1      -4.668   3.337   0.372  0.00  0.00    -0.237 OA
ATOM     17  C   UNL     1      -5.479   2.432   0.084  0.00  0.00    +0.422 C 
ATOM     18  O   UNL     1      -6.534   2.747  -0.752  0.00  0.00    -0.237 OA
ENDBRANCH   5  17
ENDBRANCH   4   9
ENDBRANCH   3   4
ENDBRANCH   1   3
BRANCH   1  19
ATOM     19  C   UNL     1       1.005  -2.061   0.191  0.00  0.00    +0.242 C 
BRANCH  19  20
ATOM     20  O   UNL     1       1.796  -1.156   0.957  0.00  0.00    -0.472 OA
BRANCH  20  21
ATOM     21  C   UNL     1       2.240   0.057   0.486  0.00  0.00    +0.145 A 
ATOM     22  C   UNL     1       3.578   0.191   0.142  0.00  0.00    +0.107 A 
ATOM     23  C   UNL     1       3.997   1.077  -0.837  0.00  0.00    +0.152 A 
ATOM     24  O   UNL     1       5.276   1.341  -0.912  0.00  0.00    -0.446 OA
ATOM     25  C   UNL     1       6.152   0.949  -0.004  0.00  0.00    +0.228 A 
ATOM     26  C   UNL     1       5.854  -0.059   0.901  0.00  0.00    +0.087 A 
ATOM     27  C   UNL     1       3.045   1.806  -1.538  0.00  0.00    +0.038 A 
ATOM     28  C   UNL     1       1.778   1.906  -0.997  0.00  0.00    +0.006 A 
ATOM     29  C   UNL     1       4.524  -0.466   0.917  0.00  0.00    +0.205 A 
ATOM     30  O   UNL     1       4.112  -1.333   1.745  0.00  0.00    -0.286 OA
ATOM     31  C   UNL     1       1.403   1.073   0.050  0.00  0.00    +0.037 A 
BRANCH  25  32
ATOM     32  C   UNL     1       7.346   1.773   0.211  0.00  0.00    +0.422 C 
ATOM     33  O   UNL     1       8.168   1.984  -0.898  0.00  0.00    -0.237 OA
ATOM     34  O   UNL     1       7.198   2.754   0.999  0.00  0.00    -0.237 OA
ENDBRANCH  25  32
ENDBRANCH  20  21
ENDBRANCH  19  20
ENDBRANCH   1  19
TORSDOF 8
