REMARK  Name = 
REMARK  8 active torsions:
REMARK  status: ('A' for Active; 'I' for Inactive)
REMARK    1  A    between atoms: C_2  and  C_3
REMARK    2  A    between atoms: C_3  and  C_4
REMARK    3  A    between atoms: C_3  and  C_21
REMARK    4  A    between atoms: C_3  and  C_27
REMARK    5  A    between atoms: C_4  and  C_5
REMARK    6  A    between atoms: C_5  and  N_6
REMARK    7  A    between atoms: C_9  and  C_10
REMARK    8  A    between atoms: C_9  and  C_13
REMARK                            x       y       z     vdW  Elec       q    Type
REMARK                         _______ _______ _______ _____ _____    ______ ____
ROOT
ATOM      1  C   UNL     1      -1.430   0.942  -0.760  0.00  0.00    +0.040 C 
ENDROOT
BRANCH   1   2
ATOM      2  C   UNL     1      -0.074   1.038  -0.070  0.00  0.00    +0.074 C 
BRANCH   2   3
ATOM      3  N   UNL     1       0.507  -0.279  -0.124  0.00  0.00    -0.273 NA
ATOM      4  C   UNL     1       1.212  -0.551  -1.346  0.00  0.00    +0.073 C 
ATOM      5  C   UNL     1       2.589   0.073  -1.393  0.00  0.00    +0.032 C 
ATOM      6  C   UNL     1       3.351  -0.473  -0.192  0.00  0.00    +0.115 C 
ATOM      7  C   UNL     1       2.641  -0.183   1.104  0.00  0.00    +0.032 C 
ATOM      8  C   UNL     1       1.216  -0.653   1.065  0.00  0.00    +0.073 C 
BRANCH   6   9
ATOM      9  C   UNL     1       4.679   0.209  -0.172  0.00  0.00    -0.013 A 
ATOM     10  C   UNL     1       5.137   0.921   0.913  0.00  0.00    -0.004 A 
ATOM     11  C   UNL     1       6.509   0.947   1.128  0.00  0.00    -0.000 A 
ATOM     12  C   UNL     1       7.389   0.395   0.205  0.00  0.00    -0.000 A 
ATOM     13  C   UNL     1       6.879   0.235  -1.077  0.00  0.00    -0.000 A 
ATOM     14  C   UNL     1       5.506   0.205  -1.286  0.00  0.00    -0.004 A 
ENDBRANCH   6   9
BRANCH   6  15
ATOM     15  C   UNL     1       3.559  -1.945  -0.345  0.00  0.00    +0.368 C 
ATOM     16  O   UNL     1       4.843  -2.463  -0.364  0.00  0.00    -0.245 OA
ATOM     17  O   UNL     1       2.546  -2.655  -0.518  0.00  0.00    -0.245 OA
ENDBRANCH   6  15
ENDBRANCH   2   3
ENDBRANCH   1   2
BRANCH   1  18
ATOM     18  C   UNL     1      -2.555   0.766   0.224  0.00  0.00    +0.118 C 
BRANCH  18  19
ATOM     19  C   UNL     1      -2.941  -0.670   0.381  0.00  0.00    -0.006 A 
ATOM     20  C   UNL     1      -2.432  -1.648  -0.435  0.00  0.00    -0.003 A 
ATOM     21  C   UNL     1      -3.041  -2.876  -0.558  0.00  0.00    -0.000 A 
ATOM     22  C   UNL     1      -4.261  -3.044   0.086  0.00  0.00    -0.000 A 
ATOM     23  C   UNL     1      -4.580  -2.180   1.125  0.00  0.00    -0.000 A 
ATOM     24  C   UNL     1      -3.958  -0.948   1.262  0.00  0.00    -0.003 A 
ENDBRANCH  18  19
BRANCH  18  25
ATOM     25  C   UNL     1      -3.731   1.491  -0.314  0.00  0.00    -0.006 A 
ATOM     26  C   UNL     1      -4.121   1.161  -1.606  0.00  0.00    -0.003 A 
ATOM     27  C   UNL     1      -5.247   1.665  -2.200  0.00  0.00    -0.000 A 
ATOM     28  C   UNL     1      -6.073   2.456  -1.413  0.00  0.00    -0.000 A 
ATOM     29  C   UNL     1      -5.599   2.943  -0.203  0.00  0.00    -0.000 A 
ATOM     30  C   UNL     1      -4.581   2.252   0.444  0.00  0.00    -0.003 A 
ENDBRANCH  18  25
BRANCH  18  32
ATOM     31  N   UNL     1      -1.770   1.599   2.555  0.00  0.00    -0.195 NA
ATOM     32  C   UNL     1      -2.168   1.269   1.532  0.00  0.00    +0.079 C 
ENDBRANCH  18  32
ENDBRANCH   1  18
TORSDOF 8
