REMARK  Name = 
REMARK  2 active torsions:
REMARK  status: ('A' for Active; 'I' for Inactive)
REMARK    1  A    between atoms: C_4  and  C_5
REMARK    2  A    between atoms: C_5  and  C_7
REMARK                            x       y       z     vdW  Elec       q    Type
REMARK                         _______ _______ _______ _____ _____    ______ ____
ROOT
ATOM      1  O   UNL     1       2.147  -2.047   0.137  0.00  0.00    -0.241 OA
ATOM      2  C   UNL     1       1.430  -1.206   0.111  0.00  0.00    +0.384 C 
ATOM      3  C   UNL     1       1.765   0.221   0.195  0.00  0.00    +0.308 C 
ATOM      4  O   UNL     1       3.017   0.843   0.150  0.00  0.00    -0.276 OA
ATOM      5  C   UNL     1       0.675   0.957   0.225  0.00  0.00    +0.261 C 
ATOM      6  O   UNL     1       0.458   2.301   0.354  0.00  0.00    -0.284 OA
ATOM      7  C   UNL     1      -0.527  -0.095   0.478  0.00  0.00    +0.266 C 
ATOM      8  O   UNL     1       0.154  -1.156  -0.411  0.00  0.00    -0.436 OA
ENDROOT
BRANCH   7   9
ATOM      9  C   UNL     1      -1.449   0.574  -0.841  0.00  0.00    +0.232 C 
ATOM     10  O   UNL     1      -1.942  -0.779  -1.330  0.00  0.00    -0.216 OA
BRANCH   9  11
ATOM     11  C   UNL     1      -2.796   0.760   0.094  0.00  0.00    +0.219 C 
ATOM     12  O   UNL     1      -2.933  -0.371   0.839  0.00  0.00    -0.217 OA
ENDBRANCH   9  11
ENDBRANCH   7   9
TORSDOF 2
