REMARK  Name = 
REMARK  11 active torsions:
REMARK  status: ('A' for Active; 'I' for Inactive)
REMARK    1  A    between atoms: C_2  and  C_3
REMARK    2  A    between atoms: C_13  and  O_14
REMARK    3  A    between atoms: O_14  and  C_15
REMARK    4  A    between atoms: C_20  and  N_21
REMARK    5  A    between atoms: C_26  and  O_28
REMARK    6  A    between atoms: N_38  and  C_39
REMARK    7  A    between atoms: C_39  and  C_40
REMARK    8  A    between atoms: C_40  and  C_41
REMARK    9  A    between atoms: C_41  and  C_42
REMARK   10  A    between atoms: C_42  and  N_43
REMARK   11  A    between atoms: C_46  and  C_47
REMARK                            x       y       z     vdW  Elec       q    Type
REMARK                         _______ _______ _______ _____ _____    ______ ____
ROOT
ATOM      1  C   UNL     1       0.517  -2.901  -0.147  0.00  0.00    +0.207 C 
ATOM      2  C   UNL     1       1.492  -1.685   0.366  0.00  0.00    +0.191 C 
ATOM      3  C   UNL     1       1.186  -0.372  -0.515  0.00  0.00    +0.125 C 
ATOM      4  N   UNL     1       2.727  -0.115  -0.672  0.00  0.00    -0.244 N 
ATOM      5  C   UNL     1       3.024  -1.386  -1.277  0.00  0.00    +0.405 C 
ATOM      6  O   UNL     1       3.903  -1.666  -2.146  0.00  0.00    -0.226 OA
ATOM      7  C   UNL     1       1.091   0.746   0.778  0.00  0.00    +0.079 C 
ATOM      8  C   UNL     1       1.201   2.051  -0.187  0.00  0.00    +0.010 C 
ATOM      9  C   UNL     1      -0.478   0.894   0.880  0.00  0.00    +0.152 C 
ATOM     10  O   UNL     1      -0.800   1.191   1.952  0.00  0.00    -0.296 OA
ATOM     11  C   UNL     1      -1.394   0.837  -0.408  0.00  0.00    +0.060 C 
ATOM     12  C   UNL     1      -1.194   2.403  -0.883  0.00  0.00    +0.008 C 
ATOM     13  C   UNL     1      -2.761   1.271   0.347  0.00  0.00    +0.037 C 
ATOM     14  C   UNL     1      -3.568   0.262   0.912  0.00  0.00    +0.119 C 
ATOM     15  C   UNL     1      -3.039  -0.805   1.783  0.00  0.00    +0.032 C 
ATOM     16  C   UNL     1      -4.604  -0.410  -0.173  0.00  0.00    +0.149 C 
ATOM     17  C   UNL     1      -3.994  -2.007  -0.088  0.00  0.00    +0.088 C 
ATOM     18  C   UNL     1      -5.236  -2.589  -0.956  0.00  0.00    +0.010 C 
ATOM     19  C   UNL     1      -3.020  -1.874  -1.341  0.00  0.00    +0.163 C 
ATOM     20  O   UNL     1      -3.389  -1.429  -2.354  0.00  0.00    -0.295 OA
ATOM     21  C   UNL     1      -2.189  -3.253  -1.283  0.00  0.00    +0.156 C 
ATOM     22  C   UNL     1      -2.931  -3.907  -2.595  0.00  0.00    +0.020 C 
ATOM     23  C   UNL     1      -0.960  -2.692  -2.150  0.00  0.00    +0.324 C 
ATOM     24  O   UNL     1      -1.217  -2.074  -3.195  0.00  0.00    -0.250 OA
ATOM     25  C   UNL     1       1.443  -1.493   1.767  0.00  0.00    +0.049 C 
ATOM     26  O   UNL     1       2.644  -2.229  -0.228  0.00  0.00    -0.436 OA
ATOM     27  O   UNL     1      -0.154  -2.087  -1.252  0.00  0.00    -0.448 OA
ENDROOT
BRANCH  14  28
ATOM     28  O   UNL     1      -4.395   1.022   1.774  0.00  0.00    -0.353 OA
ATOM     29  C   UNL     1      -4.106   2.361   1.841  0.00  0.00    +0.174 C 
ENDBRANCH  14  28
BRANCH   1  31
ATOM     30  C   UNL     1      -0.564  -2.652   1.462  0.00  0.00    +0.004 C 
ATOM     31  C   UNL     1      -0.618  -2.582   1.004  0.00  0.00    +0.047 C 
ENDBRANCH   1  31
BRANCH  16  32
ATOM     32  O   UNL     1      -5.603  -0.779   0.891  0.00  0.00    -0.328 OA
BRANCH  32  33
ATOM     33  C   UNL     1      -6.944  -0.469   0.244  0.00  0.00    +0.268 C 
ATOM     34  C   UNL     1      -7.390   0.425   1.640  0.00  0.00    +0.222 C 
ATOM     35  O   UNL     1      -8.335  -0.648   2.074  0.00  0.00    -0.216 OA
ATOM     36  C   UNL     1      -8.646   1.339   0.923  0.00  0.00    +0.096 C 
ATOM     37  C   UNL     1      -8.779   0.634  -0.501  0.00  0.00    +0.048 C 
ATOM     38  C   UNL     1      -7.493   0.575  -1.472  0.00  0.00    +0.119 C 
ATOM     39  C   UNL     1      -7.556   2.165  -1.929  0.00  0.00    +0.032 C 
ATOM     40  O   UNL     1      -6.447   0.827  -0.397  0.00  0.00    -0.331 OA
BRANCH  36  41
ATOM     41  N   UNL     1      -7.709   2.564   0.583  0.00  0.00    -0.269 NA
ATOM     42  C   UNL     1      -8.719   3.632   0.677  0.00  0.00    +0.090 C 
ATOM     43  C   UNL     1      -6.957   2.808   1.821  0.00  0.00    +0.090 C 
ENDBRANCH  36  41
ENDBRANCH  32  33
ENDBRANCH  16  32
BRANCH   4  44
ATOM     44  C   UNL     1       3.301   1.053  -1.302  0.00  0.00    +0.097 C 
BRANCH  44  45
ATOM     45  C   UNL     1       4.292   1.689  -0.286  0.00  0.00    +0.024 C 
BRANCH  45  46
ATOM     46  C   UNL     1       4.921   2.767  -1.170  0.00  0.00    +0.026 C 
BRANCH  46  47
ATOM     47  C   UNL     1       5.974   1.948  -1.919  0.00  0.00    +0.108 C 
BRANCH  47  48
ATOM     48  N   UNL     1       6.718   1.325  -0.823  0.00  0.00    -0.308 N 
ATOM     49  C   UNL     1       7.477   0.201  -0.889  0.00  0.00    +0.096 A 
ATOM     50  C   UNL     1       8.368   0.215   0.181  0.00  0.00    +0.102 A 
ATOM     51  N   UNL     1       7.680   0.950   1.090  0.00  0.00    -0.224 NA
ATOM     52  C   UNL     1       6.904   1.839   0.420  0.00  0.00    +0.179 A 
BRANCH  50  53
ATOM     53  C   UNL     1       9.817  -0.052   0.151  0.00  0.00    +0.038 A 
ATOM     54  C   UNL     1      10.738   0.778   0.785  0.00  0.00    +0.100 A 
ATOM     55  N   UNL     1      11.710   1.425   0.094  0.00  0.00    -0.242 NA
ATOM     56  C   UNL     1      12.123   0.928  -1.098  0.00  0.00    +0.099 A 
ATOM     57  C   UNL     1      11.602  -0.312  -1.453  0.00  0.00    +0.021 A 
ATOM     58  C   UNL     1      10.336  -0.656  -0.990  0.00  0.00    +0.005 A 
ENDBRANCH  50  53
ENDBRANCH  47  48
ENDBRANCH  46  47
ENDBRANCH  45  46
ENDBRANCH  44  45
ENDBRANCH   4  44
TORSDOF 11
