REMARK  Name = 
REMARK  0 active torsions:
REMARK  status: ('A' for Active; 'I' for Inactive)
REMARK                            x       y       z     vdW  Elec       q    Type
REMARK                         _______ _______ _______ _____ _____    ______ ____
ROOT
ATOM      1  N   UNL     1      -1.549  -0.567   0.692  0.00  0.00    -0.101 NA
ATOM      2  C   UNL     1      -0.512   0.001  -0.116  0.00  0.00    +0.206 C 
ATOM      3  N   UNL     1       0.779  -0.555   0.121  0.00  0.00    -0.181 NA
ATOM      4  O   UNL     1       1.829  -0.036  -0.544  0.00  0.00    -0.401 OA
ATOM      5  O   UNL     1      -0.547   1.157  -0.589  0.00  0.00    -0.523 OA
ENDROOT
TORSDOF 0
