REMARK  Name = 
REMARK  12 active torsions:
REMARK  status: ('A' for Active; 'I' for Inactive)
REMARK    1  A    between atoms: C_2  and  C_3
REMARK    2  A    between atoms: N_5  and  C_6
REMARK    3  A    between atoms: N_5  and  C_9
REMARK    4  A    between atoms: C_6  and  C_7
REMARK    5  A    between atoms: C_12  and  C_13
REMARK    6  A    between atoms: N_15  and  C_16
REMARK    7  A    between atoms: C_16  and  C_17
REMARK    8  A    between atoms: C_17  and  C_19
REMARK    9  A    between atoms: C_23  and  C_24
REMARK   10  A    between atoms: N_26  and  C_27
REMARK   11  A    between atoms: C_27  and  C_28
REMARK   12  A    between atoms: C_28  and  C_30
REMARK                            x       y       z     vdW  Elec       q    Type
REMARK                         _______ _______ _______ _____ _____    ______ ____
ROOT
ATOM      1  C   UNL     1      -0.287   1.824  -0.445  0.00  0.00    +0.065 A 
ATOM      2  C   UNL     1      -1.389   1.018  -0.194  0.00  0.00    +0.049 A 
ATOM      3  I   UNL     1      -3.244   1.929   0.173  0.00  0.00    -0.041 I 
ATOM      4  C   UNL     1      -1.289  -0.341  -0.065  0.00  0.00    +0.067 A 
ATOM      5  C   UNL     1      -0.021  -0.878   0.104  0.00  0.00    +0.040 A 
ATOM      6  I   UNL     1       0.228  -2.879   0.675  0.00  0.00    -0.042 I 
ATOM      7  C   UNL     1       1.039  -0.217  -0.490  0.00  0.00    +0.067 A 
ATOM      8  C   UNL     1       0.880   1.127  -0.734  0.00  0.00    +0.049 A 
ATOM      9  I   UNL     1       2.516   2.287  -1.367  0.00  0.00    -0.041 I 
ENDROOT
BRANCH   1  12
ATOM     10  O   UNL     1      -1.621   4.006  -0.941  0.00  0.00    -0.272 OA
ATOM     11  C   UNL     1      -1.076   4.176  -0.730  0.00  0.00    +0.263 C 
ATOM     12  N   UNL     1      -0.238   3.207  -0.085  0.00  0.00    -0.253 N 
BRANCH  11  13
ATOM     13  C   UNL     1      -0.660   5.604  -0.919  0.00  0.00    +0.267 C 
ATOM     14  O   UNL     1       0.694   5.793  -0.802  0.00  0.00    -0.210 OA
ENDBRANCH  11  13
BRANCH  12  15
ATOM     15  C   UNL     1       0.895   3.727   0.640  0.00  0.00    +0.134 C 
BRANCH  15  16
ATOM     16  C   UNL     1       0.672   3.529   2.101  0.00  0.00    +0.204 C 
ATOM     17  O   UNL     1      -0.666   3.736   2.383  0.00  0.00    -0.218 OA
ENDBRANCH  15  16
ENDBRANCH  12  15
ENDBRANCH   1  12
BRANCH   4  18
ATOM     18  C   UNL     1      -2.423  -1.228   0.213  0.00  0.00    +0.266 C 
ATOM     19  N   UNL     1      -2.972  -2.099  -0.773  0.00  0.00    -0.199 NA
ATOM     20  O   UNL     1      -2.534  -1.607   1.418  0.00  0.00    -0.268 OA
BRANCH  19  21
ATOM     21  C   UNL     1      -3.254  -3.498  -0.553  0.00  0.00    +0.151 C 
BRANCH  21  22
ATOM     22  C   UNL     1      -4.193  -3.530   0.803  0.00  0.00    +0.206 C 
ATOM     23  O   UNL     1      -4.605  -4.969   0.550  0.00  0.00    -0.218 OA
BRANCH  22  24
ATOM     24  C   UNL     1      -5.500  -2.954  -0.023  0.00  0.00    +0.217 C 
ATOM     25  O   UNL     1      -5.902  -1.903   0.798  0.00  0.00    -0.218 OA
ENDBRANCH  22  24
ENDBRANCH  21  22
ENDBRANCH  19  21
ENDBRANCH   4  18
BRANCH   7  26
ATOM     26  C   UNL     1       2.372  -0.741  -0.162  0.00  0.00    +0.266 C 
ATOM     27  N   UNL     1       2.587  -1.999   0.438  0.00  0.00    -0.199 NA
ATOM     28  O   UNL     1       3.388   0.013  -0.257  0.00  0.00    -0.268 OA
BRANCH  27  29
ATOM     29  C   UNL     1       3.810  -2.331   1.127  0.00  0.00    +0.151 C 
BRANCH  29  30
ATOM     30  C   UNL     1       4.958  -1.931   0.012  0.00  0.00    +0.206 C 
ATOM     31  O   UNL     1       4.631  -3.149  -0.835  0.00  0.00    -0.218 OA
BRANCH  30  32
ATOM     32  C   UNL     1       6.129  -2.750   0.836  0.00  0.00    +0.217 C 
ATOM     33  O   UNL     1       7.076  -2.970  -0.158  0.00  0.00    -0.218 OA
ENDBRANCH  30  32
ENDBRANCH  29  30
ENDBRANCH  27  29
ENDBRANCH   7  26
TORSDOF 12
