REMARK  Name = 
REMARK  3 active torsions:
REMARK  status: ('A' for Active; 'I' for Inactive)
REMARK    1  A    between atoms: N_2  and  C_4
REMARK    2  A    between atoms: C_6  and  N_7
REMARK    3  A    between atoms: C_12  and  N_13
REMARK                            x       y       z     vdW  Elec       q    Type
REMARK                         _______ _______ _______ _____ _____    ______ ____
ROOT
ATOM      1  C   UNL     1       1.574  -0.035  -0.394  0.00  0.00    +0.303 A 
ATOM      2  C   UNL     1       0.927   1.195  -0.407  0.00  0.00    +0.154 A 
ATOM      3  C   UNL     1      -0.448   1.248  -0.209  0.00  0.00    +0.341 A 
ATOM      4  C   UNL     1      -1.136   0.083  -0.511  0.00  0.00    +0.333 A 
ATOM      5  O   UNL     1      -2.511   0.176  -0.580  0.00  0.00    -0.273 OA
ATOM      6  C   UNL     1      -0.518  -1.159  -0.564  0.00  0.00    +0.341 A 
ATOM      7  C   UNL     1       0.842  -1.211  -0.282  0.00  0.00    +0.154 A 
ENDROOT
BRANCH   1   9
ATOM      8  O   UNL     1       3.104   0.023   1.266  0.00  0.00    +0.041 OA
ATOM      9  N   UNL     1       2.941  -0.139   0.029  0.00  0.00    +0.081 N 
ATOM     10  O   UNL     1       3.849  -0.822  -0.725  0.00  0.00    -0.576 OA
ENDBRANCH   1   9
BRANCH   3  11
ATOM     11  N   UNL     1      -1.070   2.347   0.468  0.00  0.00    +0.085 N 
ATOM     12  O   UNL     1      -1.329   2.202   1.820  0.00  0.00    -0.576 OA
ATOM     13  O   UNL     1      -1.219   3.434  -0.112  0.00  0.00    +0.042 OA
ENDBRANCH   3  11
BRANCH   6  14
ATOM     14  N   UNL     1      -1.296  -2.299  -0.171  0.00  0.00    +0.085 N 
ATOM     15  O   UNL     1      -1.381  -2.496   1.198  0.00  0.00    -0.576 OA
ATOM     16  O   UNL     1      -2.329  -2.546  -0.826  0.00  0.00    +0.042 OA
ENDBRANCH   6  14
TORSDOF 3
