REMARK  Name = 
REMARK  4 active torsions:
REMARK  status: ('A' for Active; 'I' for Inactive)
REMARK    1  A    between atoms: CA_6  and  N_7
REMARK    2  A    between atoms: C_8  and  CA_10
REMARK    3  A    between atoms: CA_10  and  C_12
REMARK    4  A    between atoms: CA_21  and  C_22
REMARK                            x       y       z     vdW  Elec       q    Type
REMARK                         _______ _______ _______ _____ _____    ______ ____
ROOT
ATOM      1  C   UNL     1      -3.941   2.163  -1.166  0.00  0.00    +0.013 C 
ATOM      2  C   UNL     1      -3.228   1.525  -0.053  0.00  0.00    +0.068 C 
ATOM      3  CA  UNL     1      -3.201  -0.038  -0.606  0.00  0.00    +0.189 C 
ATOM      4  N   UNL     1      -2.322  -0.643   0.559  0.00  0.00    -0.259 N 
ATOM      5  C   UNL     1      -1.456   0.395   1.198  0.00  0.00    +0.153 C 
ATOM      6  CA  UNL     1      -0.164  -0.635   0.809  0.00  0.00    +0.200 C 
ATOM      7  C   UNL     1      -1.335  -1.644   0.333  0.00  0.00    +0.249 C 
ATOM      8  O   UNL     1      -1.155  -2.876   0.441  0.00  0.00    -0.273 OA
ATOM      9  S   UNL     1      -1.462   1.680  -0.224  0.00  0.00    -0.118 S 
ATOM     10  C   UNL     1      -3.833   1.609   1.240  0.00  0.00    +0.013 C 
ENDROOT
BRANCH   3  11
ATOM     11  C   UNL     1      -4.630  -0.416   0.105  0.00  0.00    +0.383 C 
ATOM     12  OXT UNL     1      -5.460  -1.161  -0.746  0.00  0.00    -0.244 OA
ATOM     13  O   UNL     1      -4.613  -0.775   1.276  0.00  0.00    -0.244 OA
ENDBRANCH   3  11
BRANCH   6  14
ATOM     14  N   UNL     1       0.108  -0.093  -0.668  0.00  0.00    -0.194 NA
ATOM     15  C   UNL     1       1.468  -0.245  -0.875  0.00  0.00    +0.264 C 
ATOM     16  O   UNL     1       1.969  -1.339  -0.940  0.00  0.00    -0.271 OA
BRANCH  15  17
ATOM     17  CA  UNL     1       2.372   1.066  -1.219  0.00  0.00    +0.191 C 
ATOM     18  N   UNL     1       2.877   0.423  -2.601  0.00  0.00    -0.118 NA
BRANCH  17  19
ATOM     19  C   UNL     1       3.640   0.528  -0.339  0.00  0.00    +0.004 A 
ATOM     20  C   UNL     1       4.350  -0.515  -0.772  0.00  0.00    -0.002 A 
ATOM     21  C   UNL     1       5.456  -0.859  -0.004  0.00  0.00    -0.000 A 
ATOM     22  C   UNL     1       5.870  -0.050   1.044  0.00  0.00    -0.000 A 
ATOM     23  C   UNL     1       4.906   0.767   1.620  0.00  0.00    -0.000 A 
ATOM     24  C   UNL     1       3.786   1.135   0.881  0.00  0.00    -0.002 A 
ENDBRANCH  17  19
ENDBRANCH  15  17
ENDBRANCH   6  14
TORSDOF 4
