REMARK  Name = 
REMARK  6 active torsions:
REMARK  status: ('A' for Active; 'I' for Inactive)
REMARK    1  A    between atoms: C_2  and  N_3
REMARK    2  A    between atoms: N_3  and  C_4
REMARK    3  A    between atoms: N_3  and  C_6
REMARK    4  A    between atoms: C_6  and  C_7
REMARK    5  A    between atoms: C_7  and  N_8
REMARK    6  A    between atoms: C_16  and  C_17
REMARK                            x       y       z     vdW  Elec       q    Type
REMARK                         _______ _______ _______ _____ _____    ______ ____
ROOT
ATOM      1  N   UNL     1       1.431  -0.095   0.177  0.00  0.00    -0.256 N 
ATOM      2  C   UNL     1       1.322   1.310   0.428  0.00  0.00    +0.254 C 
ATOM      3  O   UNL     1       2.211   1.849   1.126  0.00  0.00    -0.272 OA
ATOM      4  C   UNL     1       0.238   2.170  -0.140  0.00  0.00    +0.210 C 
ATOM      5  N   UNL     1      -1.075   1.743   0.330  0.00  0.00    -0.260 NA
ATOM      6  C   UNL     1      -1.665   0.602   0.137  0.00  0.00    +0.080 C 
ATOM      7  C   UNL     1      -1.040  -0.723   0.028  0.00  0.00    +0.032 A 
ATOM      8  C   UNL     1      -1.953  -1.684   0.447  0.00  0.00    +0.014 A 
ATOM      9  C   UNL     1      -1.502  -2.971   0.704  0.00  0.00    +0.058 A 
ATOM     10 CL   UNL     1      -2.348  -4.016   1.834  0.00  0.00    -0.082 Cl
ATOM     11  C   UNL     1      -0.231  -3.277   0.233  0.00  0.00    +0.013 A 
ATOM     12  C   UNL     1       0.741  -2.298   0.063  0.00  0.00    +0.016 A 
ATOM     13  C   UNL     1       0.324  -0.988   0.010  0.00  0.00    +0.055 A 
ENDROOT
BRANCH   6  14
ATOM     14  C   UNL     1      -3.119   0.655   0.258  0.00  0.00    +0.045 A 
ATOM     15  C   UNL     1      -3.879  -0.085  -0.638  0.00  0.00    +0.142 A 
ATOM     16  F   UNL     1      -3.432  -0.275  -1.915  0.00  0.00    -0.204 F 
ATOM     17  C   UNL     1      -5.228  -0.194  -0.322  0.00  0.00    +0.030 A 
ATOM     18  C   UNL     1      -5.868   0.737   0.487  0.00  0.00    +0.002 A 
ATOM     19  C   UNL     1      -5.105   1.673   1.174  0.00  0.00    +0.000 A 
ATOM     20  C   UNL     1      -3.739   1.427   1.232  0.00  0.00    +0.004 A 
ENDBRANCH   6  14
BRANCH   1  21
ATOM     21  C   UNL     1       2.749  -0.643   0.354  0.00  0.00    +0.116 C 
BRANCH  21  22
ATOM     22  C   UNL     1       3.731  -0.203  -0.696  0.00  0.00    +0.094 C 
BRANCH  22  23
ATOM     23  N   UNL     1       4.670   0.780  -0.231  0.00  0.00    -0.271 NA
BRANCH  23  24
ATOM     24  C   UNL     1       5.030   1.760  -1.221  0.00  0.00    +0.072 C 
ATOM     25  C   UNL     1       5.231   3.106  -0.548  0.00  0.00    +0.019 C 
ENDBRANCH  23  24
BRANCH  23  27
ATOM     26  C   UNL     1       6.705  -0.595  -0.408  0.00  0.00    +0.019 C 
ATOM     27  C   UNL     1       5.799   0.233   0.469  0.00  0.00    +0.072 C 
ENDBRANCH  23  27
ENDBRANCH  22  23
ENDBRANCH  21  22
ENDBRANCH   1  21
TORSDOF 6
