REMARK  Name = 
REMARK  2 active torsions:
REMARK  status: ('A' for Active; 'I' for Inactive)
REMARK    1  A    between atoms: N_2  and  C_3
REMARK    2  A    between atoms: C_6  and  C_7
REMARK                            x       y       z     vdW  Elec       q    Type
REMARK                         _______ _______ _______ _____ _____    ______ ____
ROOT
ATOM      1  C   UNL     1      -0.290  -0.903   0.489  0.00  0.00    +0.111 A 
ATOM      2  S   UNL     1      -1.236  -0.086   1.671  0.00  0.00    -0.066 S 
ATOM      3  C   UNL     1      -2.628   0.221   0.711  0.00  0.00    +0.052 A 
ATOM      4  C   UNL     1      -2.300  -0.534  -0.410  0.00  0.00    +0.088 A 
ATOM      5  C   UNL     1      -3.322  -0.705  -1.339  0.00  0.00    +0.023 A 
ATOM      6  C   UNL     1      -4.371   0.205  -1.367  0.00  0.00    +0.044 A 
ATOM      7  C   UNL     1      -4.640   1.052  -0.299  0.00  0.00    +0.196 A 
ATOM      8  O   UNL     1      -5.303   2.266  -0.507  0.00  0.00    -0.287 OA
ATOM      9  C   UNL     1      -3.864   0.841   0.835  0.00  0.00    +0.050 A 
ATOM     10  N   UNL     1      -0.983  -0.551  -0.623  0.00  0.00    -0.238 NA
ENDROOT
BRANCH   1  15
ATOM     11  C   UNL     1       3.634  -0.320  -0.630  0.00  0.00    +0.093 A 
ATOM     12  C   UNL     1       3.172   0.266   0.543  0.00  0.00    +0.155 A 
ATOM     13  F   UNL     1       3.850   1.363   0.965  0.00  0.00    -0.203 F 
ATOM     14  C   UNL     1       2.008  -0.174   1.139  0.00  0.00    +0.033 A 
ATOM     15  C   UNL     1       1.171  -1.070   0.484  0.00  0.00    +0.026 A 
ATOM     16  C   UNL     1       1.724  -1.684  -0.631  0.00  0.00    +0.003 A 
ATOM     17  C   UNL     1       3.075  -1.556  -0.931  0.00  0.00    +0.018 A 
BRANCH  11  19
ATOM     18  C   UNL     1       5.392   1.355  -0.885  0.00  0.00    +0.136 C 
ATOM     19  N   UNL     1       4.911   0.014  -1.182  0.00  0.00    -0.233 NA
ENDBRANCH  11  19
ENDBRANCH   1  15
TORSDOF 2
