REMARK  Name = 
REMARK  7 active torsions:
REMARK  status: ('A' for Active; 'I' for Inactive)
REMARK    1  A    between atoms: C_7  and  C_8
REMARK    2  A    between atoms: C_8  and  C_9
REMARK    3  A    between atoms: C_8  and  C_18
REMARK    4  A    between atoms: C_9  and  C_10
REMARK    5  A    between atoms: C_10  and  N_11
REMARK    6  A    between atoms: N_11  and  C_12
REMARK    7  A    between atoms: N_11  and  C_15
REMARK                            x       y       z     vdW  Elec       q    Type
REMARK                         _______ _______ _______ _____ _____    ______ ____
ROOT
ATOM      1  C   UNL     1      -0.752   0.344  -0.724  0.00  0.00    +0.049 C 
ENDROOT
BRANCH   1   5
ATOM      2  C   UNL     1      -4.181  -2.240   1.583  0.00  0.00    +0.031 C 
ATOM      3  C   UNL     1      -3.087  -2.261   0.800  0.00  0.00    -0.022 A 
ATOM      4  C   UNL     1      -2.501  -1.087   0.414  0.00  0.00    -0.005 A 
ATOM      5  C   UNL     1      -1.160  -1.025   0.072  0.00  0.00    +0.020 A 
ATOM      6  C   UNL     1      -0.667  -2.149  -0.583  0.00  0.00    +0.192 A 
ATOM      7  O   UNL     1       0.066  -2.075  -1.766  0.00  0.00    -0.287 OA
ATOM      8  C   UNL     1      -1.213  -3.372  -0.211  0.00  0.00    +0.041 A 
ATOM      9  C   UNL     1      -2.349  -3.419   0.588  0.00  0.00    -0.001 A 
ENDBRANCH   1   5
BRANCH   1  10
ATOM     10  C   UNL     1      -1.397   1.308   0.435  0.00  0.00    -0.018 A 
ATOM     11  C   UNL     1      -2.706   1.579   0.032  0.00  0.00    -0.004 A 
ATOM     12  C   UNL     1      -3.431   2.564   0.692  0.00  0.00    -0.000 A 
ATOM     13  C   UNL     1      -2.704   3.606   1.252  0.00  0.00    -0.000 A 
ATOM     14  C   UNL     1      -1.320   3.609   1.120  0.00  0.00    -0.000 A 
ATOM     15  C   UNL     1      -0.677   2.490   0.605  0.00  0.00    -0.004 A 
ENDBRANCH   1  10
BRANCH   1  16
ATOM     16  C   UNL     1       0.746   0.360   0.012  0.00  0.00    +0.026 C 
BRANCH  16  17
ATOM     17  C   UNL     1       1.718   0.472  -1.131  0.00  0.00    +0.073 C 
BRANCH  17  18
ATOM     18  N   UNL     1       2.963  -0.173  -0.820  0.00  0.00    -0.275 NA
BRANCH  18  19
ATOM     19  C   UNL     1       4.026   0.698  -1.316  0.00  0.00    +0.058 C 
ATOM     20  C   UNL     1       3.922   0.777  -2.835  0.00  0.00    +0.017 C 
ATOM     21  C   UNL     1       3.780   2.109  -0.812  0.00  0.00    +0.017 C 
ENDBRANCH  18  19
BRANCH  18  22
ATOM     22  C   UNL     1       3.153  -0.443   0.579  0.00  0.00    +0.058 C 
ATOM     23  C   UNL     1       3.372  -1.933   0.800  0.00  0.00    +0.017 C 
ATOM     24  C   UNL     1       4.398   0.260   1.104  0.00  0.00    +0.017 C 
ENDBRANCH  18  22
ENDBRANCH  17  18
ENDBRANCH  16  17
ENDBRANCH   1  16
TORSDOF 7
