REMARK  Name = 
REMARK  5 active torsions:
REMARK  status: ('A' for Active; 'I' for Inactive)
REMARK    1  A    between atoms: C_2  and  N_5
REMARK    2  A    between atoms: N_5  and  C_6
REMARK    3  A    between atoms: C_6  and  C_7
REMARK    4  A    between atoms: C_7  and  C_9
REMARK    5  A    between atoms: C_14  and  C_15
REMARK                            x       y       z     vdW  Elec       q    Type
REMARK                         _______ _______ _______ _____ _____    ______ ____
ROOT
ATOM      1  C   UNL     1       0.479   0.132  -0.075  0.00  0.00    +0.009 A 
ATOM      2  C   UNL     1       1.586   0.663  -0.735  0.00  0.00    -0.000 A 
ATOM      3  C   UNL     1       2.854   0.099  -0.645  0.00  0.00    +0.049 A 
ATOM      4  C   UNL     1       3.024  -1.054   0.107  0.00  0.00    +0.194 A 
ATOM      5  O   UNL     1       4.113  -1.913  -0.067  0.00  0.00    -0.287 OA
ATOM      6  C   UNL     1       1.992  -1.343   0.992  0.00  0.00    +0.042 A 
ATOM      7  C   UNL     1       0.712  -1.064   0.532  0.00  0.00    +0.001 A 
ENDROOT
BRANCH   1   8
ATOM      8  C   UNL     1      -0.781   0.189  -1.111  0.00  0.00    +0.192 C 
ATOM      9  O   UNL     1      -1.517  -1.034  -0.559  0.00  0.00    -0.217 OA
BRANCH   8  10
ATOM     10  C   UNL     1      -1.640   1.206  -0.129  0.00  0.00    +0.126 C 
BRANCH  10  11
ATOM     11  N   UNL     1      -2.981   0.927  -0.549  0.00  0.00    -0.218 NA
BRANCH  11  13
ATOM     12  C   UNL     1      -4.200   0.813   0.505  0.00  0.00    +0.017 C 
ATOM     13  C   UNL     1      -3.861   0.371   0.371  0.00  0.00    +0.060 C 
ATOM     14  C   UNL     1      -3.352   0.015   1.715  0.00  0.00    +0.017 C 
ATOM     15  C   UNL     1      -4.790  -0.696  -0.160  0.00  0.00    +0.017 C 
ENDBRANCH  11  13
ENDBRANCH  10  11
ENDBRANCH   8  10
ENDBRANCH   1   8
BRANCH   3  16
ATOM     16  C   UNL     1       4.063   0.692  -1.257  0.00  0.00    +0.212 C 
ATOM     17  O   UNL     1       4.300   1.997  -0.880  0.00  0.00    -0.215 OA
ENDBRANCH   3  16
TORSDOF 5
