REMARK  Name = 
REMARK  4 active torsions:
REMARK  status: ('A' for Active; 'I' for Inactive)
REMARK    1  A    between atoms: C_20  and  C_21
REMARK    2  A    between atoms: N_23  and  C_24
REMARK    3  A    between atoms: C_26  and  C_27
REMARK    4  A    between atoms: C_33  and  C_34
REMARK                            x       y       z     vdW  Elec       q    Type
REMARK                         _______ _______ _______ _____ _____    ______ ____
ROOT
ATOM      1  C   UNL     1      -0.036   0.483   0.000  0.00  0.00    +0.000 C 
ATOM      2  C   UNL     1       1.086  -0.512   0.000  0.00  0.00    +0.008 C 
ATOM      3  C   UNL     1      -0.279  -1.133   0.000  0.00  0.00    +0.079 C 
ATOM      4  C   UNL     1      -0.111  -2.623   0.000  0.00  0.00    +0.009 C 
ATOM      5  C   UNL     1       1.358  -2.924   0.000  0.00  0.00    +0.001 C 
ATOM      6  C   UNL     1       2.098  -1.620   0.000  0.00  0.00    +0.000 C 
ATOM      7  C   UNL     1       3.563  -1.297   0.000  0.00  0.00    +0.000 C 
ATOM      8  C   UNL     1       4.575  -2.404   0.000  0.00  0.00    +0.002 C 
ATOM      9  C   UNL     1       6.040  -2.081   0.000  0.00  0.00    +0.022 C 
ATOM     10  C   UNL     1       6.493  -0.651   0.000  0.00  0.00    +0.099 C 
ATOM     11  C   UNL     1       5.481   0.456   0.000  0.00  0.00    +0.037 C 
ATOM     12  C   UNL     1       4.469   1.563   0.000  0.00  0.00    +0.006 C 
ATOM     13  C   UNL     1       5.934   1.886   0.000  0.00  0.00    -0.020 C 
ATOM     14  C   UNL     1       7.398   2.209   0.000  0.00  0.00    +0.055 C 
ATOM     15  C   UNL     1       8.411   1.102   0.000  0.00  0.00    +0.265 C 
ATOM     16  O   UNL     1       9.875   1.425   0.000  0.00  0.00    -0.268 OA
ATOM     17  N   UNL     1       7.958  -0.328   0.000  0.00  0.00    -0.203 NA
ATOM     18  C   UNL     1       4.016   0.133   0.000  0.00  0.00    +0.005 C 
ATOM     19  C   UNL     1       3.004   1.240   0.000  0.00  0.00    +0.000 C 
ATOM     20  C   UNL     1       1.539   0.918   0.000  0.00  0.00    +0.000 C 
ENDROOT
BRANCH   3  21
ATOM     21  C   UNL     1      -1.584  -0.393   0.000  0.00  0.00    +0.245 C 
ATOM     22  N   UNL     1      -2.877  -1.152   0.000  0.00  0.00    -0.179 NA
ATOM     23  O   UNL     1      -1.595   1.107   0.000  0.00  0.00    -0.273 OA
BRANCH  22  24
ATOM     24  C   UNL     1      -4.182  -0.412   0.000  0.00  0.00    +0.077 A 
ATOM     25  C   UNL     1      -5.475  -1.172   0.000  0.00  0.00    +0.087 A 
ATOM     26  C   UNL     1      -6.780  -0.432   0.000  0.00  0.00    +0.005 A 
ATOM     27  C   UNL     1      -6.791   1.068   0.000  0.00  0.00    +0.004 A 
ATOM     28  C   UNL     1      -5.498   1.828   0.000  0.00  0.00    +0.073 A 
ATOM     29  C   UNL     1      -4.193   1.088   0.000  0.00  0.00    +0.020 A 
BRANCH  25  30
ATOM     30  C   UNL     1      -5.464  -2.672   0.000  0.00  0.00    +0.420 C 
ATOM     31  F   UNL     1      -3.964  -2.660   0.000  0.00  0.00    -0.166 F 
ATOM     32  F   UNL     1      -6.964  -2.683   0.000  0.00  0.00    -0.166 F 
ATOM     33  F   UNL     1      -5.453  -4.172   0.000  0.00  0.00    -0.166 F 
ENDBRANCH  25  30
BRANCH  28  34
ATOM     34  C   UNL     1      -5.509   3.328   0.000  0.00  0.00    +0.419 C 
ATOM     35  F   UNL     1      -7.009   3.317   0.000  0.00  0.00    -0.166 F 
ATOM     36  F   UNL     1      -4.009   3.339   0.000  0.00  0.00    -0.166 F 
ATOM     37  F   UNL     1      -5.521   4.828   0.000  0.00  0.00    -0.166 F 
ENDBRANCH  28  34
ENDBRANCH  22  24
ENDBRANCH   3  21
TORSDOF 4
