REMARK  Name = 
REMARK  9 active torsions:
REMARK  status: ('A' for Active; 'I' for Inactive)
REMARK    1  A    between atoms: C_2  and  C_4
REMARK    2  A    between atoms: C_4  and  C_6
REMARK    3  A    between atoms: C_6  and  O_8
REMARK    4  A    between atoms: O_8  and  C_9
REMARK    5  A    between atoms: C_9  and  C_10
REMARK    6  A    between atoms: C_10  and  C_11
REMARK    7  A    between atoms: C_10  and  O_13
REMARK    8  A    between atoms: O_13  and  C_14
REMARK    9  A    between atoms: C_14  and  N_15
REMARK                            x       y       z     vdW  Elec       q    Type
REMARK                         _______ _______ _______ _____ _____    ______ ____
ROOT
ATOM      1  O   UNL     1       0.005  -0.734  -1.928  0.00  0.00    -0.328 OA
ENDROOT
BRANCH   1   2
ATOM      2  C   UNL     1      -0.569   0.135  -1.083  0.00  0.00    +0.258 C 
BRANCH   2   3
ATOM      3  N   UNL     1      -1.749  -0.334  -0.408  0.00  0.00    -0.268 N 
ATOM      4  C   UNL     1      -2.997   0.132  -0.440  0.00  0.00    +0.172 A 
ATOM      5  N   UNL     1      -3.476   1.339  -0.794  0.00  0.00    -0.192 NA
ATOM      6  C   UNL     1      -4.713   1.700  -0.379  0.00  0.00    +0.261 A 
ATOM      7  N   UNL     1      -5.455   0.926   0.450  0.00  0.00    -0.171 NA
ATOM      8  C   UNL     1      -4.976  -0.276   0.845  0.00  0.00    +0.302 A 
ATOM      9  O   UNL     1      -5.614  -1.053   1.595  0.00  0.00    -0.263 OA
ATOM     10  N   UNL     1      -5.230   2.964  -0.736  0.00  0.00    -0.086 NA
ATOM     11  C   UNL     1      -3.734  -0.687   0.375  0.00  0.00    +0.175 A 
ATOM     12  N   UNL     1      -2.924  -1.706   0.724  0.00  0.00    -0.217 NA
ATOM     13  C   UNL     1      -1.689  -1.212   0.624  0.00  0.00    +0.182 A 
ENDBRANCH   2   3
ENDBRANCH   1   2
BRANCH   1  14
ATOM     14  C   UNL     1       1.494  -0.852  -1.679  0.00  0.00    +0.194 C 
BRANCH  14  15
ATOM     15  C   UNL     1       1.260  -1.685  -0.273  0.00  0.00    +0.215 C 
ATOM     16  O   UNL     1       1.367  -3.025  -0.635  0.00  0.00    -0.218 OA
ENDBRANCH  14  15
BRANCH  14  17
ATOM     17  C   UNL     1       1.599   0.598  -0.899  0.00  0.00    +0.241 C 
BRANCH  17  18
ATOM     18  O   UNL     1       2.514   0.407   0.146  0.00  0.00    -0.445 OA
BRANCH  18  19
ATOM     19  C   UNL     1       3.670  -0.366  -0.019  0.00  0.00    +0.335 C 
ATOM     20  O   UNL     1       3.987  -0.826  -1.136  0.00  0.00    -0.248 OA
BRANCH  19  21
ATOM     21  C   UNL     1       4.836   0.316   0.860  0.00  0.00    +0.190 C 
ATOM     22  N   UNL     1       5.830  -0.883   0.618  0.00  0.00    -0.121 NA
BRANCH  21  24
ATOM     23  C   UNL     1       4.489   2.164  -0.665  0.00  0.00    +0.002 C 
ATOM     24  C   UNL     1       5.433   1.163  -0.418  0.00  0.00    +0.029 C 
ATOM     25  C   UNL     1       6.643   1.796   0.191  0.00  0.00    +0.002 C 
ENDBRANCH  21  24
ENDBRANCH  19  21
ENDBRANCH  18  19
ENDBRANCH  17  18
ENDBRANCH  14  17
ENDBRANCH   1  14
TORSDOF 9
