REMARK  Name = 
REMARK  7 active torsions:
REMARK  status: ('A' for Active; 'I' for Inactive)
REMARK    1  A    between atoms: C_5  and  C_6
REMARK    2  A    between atoms: C_6  and  C_7
REMARK    3  A    between atoms: C_7  and  C_8
REMARK    4  A    between atoms: C_8  and  C_9
REMARK    5  A    between atoms: C_8  and  S_15
REMARK    6  A    between atoms: C_9  and  N_10
REMARK    7  A    between atoms: S_15  and  C_16
REMARK                            x       y       z     vdW  Elec       q    Type
REMARK                         _______ _______ _______ _____ _____    ______ ____
ROOT
ATOM      1  C   UNL     1      -0.565   1.120  -1.168  0.00  0.00    +0.075 C 
ENDROOT
BRANCH   1   2
ATOM      2  C   UNL     1       0.300  -0.199  -0.940  0.00  0.00    +0.018 C 
BRANCH   2   3
ATOM      3  C   UNL     1       1.598   0.119  -1.635  0.00  0.00    +0.027 C 
BRANCH   3   8
ATOM      4 CL   UNL     1       6.145  -1.659   1.613  0.00  0.00    -0.082 Cl
ATOM      5  C   UNL     1       4.967  -0.885   0.758  0.00  0.00    +0.058 A 
ATOM      6  C   UNL     1       5.080  -0.728  -0.617  0.00  0.00    +0.011 A 
ATOM      7  C   UNL     1       3.959  -0.444  -1.373  0.00  0.00    -0.003 A 
ATOM      8  C   UNL     1       2.781  -0.067  -0.773  0.00  0.00    -0.022 A 
ATOM      9  C   UNL     1       2.769   0.017   0.593  0.00  0.00    -0.003 A 
ATOM     10  C   UNL     1       3.897  -0.228   1.353  0.00  0.00    +0.011 A 
ENDBRANCH   3   8
ENDBRANCH   2   3
ENDBRANCH   1   2
BRANCH   1  11
ATOM     11  C   UNL     1      -0.035   1.827   0.160  0.00  0.00    +0.119 C 
BRANCH  11  12
ATOM     12  N   UNL     1      -1.002   2.841   0.530  0.00  0.00    -0.307 N 
ATOM     13  C   UNL     1      -0.665   4.150   0.602  0.00  0.00    +0.179 A 
ATOM     14  N   UNL     1      -1.364   4.734   1.605  0.00  0.00    -0.222 NA
ATOM     15  C   UNL     1      -2.296   3.873   2.021  0.00  0.00    +0.119 A 
ATOM     16  C   UNL     1      -2.122   2.729   1.259  0.00  0.00    +0.098 A 
ENDBRANCH  11  12
ENDBRANCH   1  11
BRANCH   1  17
ATOM     17  S   UNL     1      -2.174   0.487  -0.361  0.00  0.00    -0.111 S 
BRANCH  17  18
ATOM     18  C   UNL     1      -2.314  -1.253  -0.562  0.00  0.00    +0.046 A 
ATOM     19  C   UNL     1      -1.900  -2.082   0.473  0.00  0.00    +0.064 A 
ATOM     20 CL   UNL     1      -1.088  -1.351   1.854  0.00  0.00    -0.082 Cl
ATOM     21  C   UNL     1      -2.501  -3.313   0.710  0.00  0.00    +0.012 A 
ATOM     22  C   UNL     1      -3.440  -3.791  -0.171  0.00  0.00    +0.002 A 
ATOM     23  C   UNL     1      -3.640  -3.114  -1.365  0.00  0.00    +0.012 A 
ATOM     24  C   UNL     1      -3.059  -1.869  -1.560  0.00  0.00    +0.064 A 
ATOM     25 CL   UNL     1      -3.332  -0.915  -3.004  0.00  0.00    -0.082 Cl
ENDBRANCH  17  18
ENDBRANCH   1  17
TORSDOF 7
