REMARK  Name = 
REMARK  8 active torsions:
REMARK  status: ('A' for Active; 'I' for Inactive)
REMARK    1  A    between atoms: C_2  and  C_4
REMARK    2  A    between atoms: C_4  and  O_5
REMARK    3  A    between atoms: O_5  and  C_6
REMARK    4  A    between atoms: C_6  and  C_7
REMARK    5  A    between atoms: C_7  and  N_8
REMARK    6  A    between atoms: N_11  and  C_12
REMARK    7  A    between atoms: C_12  and  C_13
REMARK    8  A    between atoms: C_12  and  C_19
REMARK                            x       y       z     vdW  Elec       q    Type
REMARK                         _______ _______ _______ _____ _____    ______ ____
ROOT
ATOM      1  C   UNL     1      -1.729  -0.290   0.908  0.00  0.00    +0.103 C 
ENDROOT
BRANCH   1   2
ATOM      2  C   UNL     1      -2.998   0.577   0.403  0.00  0.00    -0.004 A 
ATOM      3  C   UNL     1      -3.839   1.002   1.414  0.00  0.00    -0.002 A 
ATOM      4  C   UNL     1      -4.596   2.149   1.206  0.00  0.00    +0.011 A 
ATOM      5  C   UNL     1      -4.410   2.896   0.049  0.00  0.00    +0.058 A 
ATOM      6 CL   UNL     1      -4.645   4.641   0.087  0.00  0.00    -0.082 Cl
ATOM      7  C   UNL     1      -3.822   2.244  -1.022  0.00  0.00    +0.011 A 
ATOM      8  C   UNL     1      -2.904   1.229  -0.773  0.00  0.00    -0.002 A 
ENDBRANCH   1   2
BRANCH   1   9
ATOM      9  C   UNL     1      -1.881  -1.421  -0.265  0.00  0.00    -0.004 A 
ATOM     10  C   UNL     1      -3.179  -1.915  -0.359  0.00  0.00    -0.003 A 
ATOM     11  C   UNL     1      -3.459  -3.266  -0.485  0.00  0.00    -0.000 A 
ATOM     12  C   UNL     1      -2.460  -4.199  -0.266  0.00  0.00    -0.000 A 
ATOM     13  C   UNL     1      -1.177  -3.759  -0.131  0.00  0.00    -0.000 A 
ATOM     14  C   UNL     1      -0.996  -2.431   0.117  0.00  0.00    -0.003 A 
ENDBRANCH   1   9
BRANCH   1  18
ATOM     15  N   UNL     1       2.055  -0.253   0.138  0.00  0.00    -0.268 NA
ATOM     16  C   UNL     1       1.342  -0.075   1.359  0.00  0.00    +0.090 C 
ATOM     17  C   UNL     1       0.241   0.944   1.259  0.00  0.00    +0.090 C 
ATOM     18  N   UNL     1      -0.643   0.603   0.175  0.00  0.00    -0.264 NA
ATOM     19  C   UNL     1      -0.085  -0.104  -0.888  0.00  0.00    +0.090 C 
ATOM     20  C   UNL     1       1.386   0.202  -1.038  0.00  0.00    +0.090 C 
BRANCH  15  21
ATOM     21  C   UNL     1       3.458  -0.016   0.191  0.00  0.00    +0.105 C 
BRANCH  21  22
ATOM     22  C   UNL     1       4.129  -1.313  -0.241  0.00  0.00    +0.160 C 
BRANCH  22  23
ATOM     23  O   UNL     1       5.509  -1.198  -0.035  0.00  0.00    -0.341 OA
BRANCH  23  24
ATOM     24  C   UNL     1       5.686  -0.221   0.951  0.00  0.00    +0.257 C 
BRANCH  24  26
ATOM     25  O   UNL     1       6.679   0.831   0.057  0.00  0.00    -0.243 OA
ATOM     26  C   UNL     1       6.347   0.919   0.309  0.00  0.00    +0.394 C 
ATOM     27  O   UNL     1       5.992   2.225   0.428  0.00  0.00    -0.243 OA
ENDBRANCH  24  26
ENDBRANCH  23  24
ENDBRANCH  22  23
ENDBRANCH  21  22
ENDBRANCH  15  21
ENDBRANCH   1  18
TORSDOF 8
