REMARK  Name = 
REMARK  7 active torsions:
REMARK  status: ('A' for Active; 'I' for Inactive)
REMARK    1  A    between atoms: C_4  and  C_5
REMARK    2  A    between atoms: C_5  and  O_7
REMARK    3  A    between atoms: O_7  and  C_8
REMARK    4  A    between atoms: C_8  and  C_9
REMARK    5  A    between atoms: C_13  and  O_14
REMARK    6  A    between atoms: O_14  and  C_15
REMARK    7  A    between atoms: C_22  and  C_23
REMARK                            x       y       z     vdW  Elec       q    Type
REMARK                         _______ _______ _______ _____ _____    ______ ____
ROOT
ATOM      1  C   UNL     1       0.106   0.154  -0.175  0.00  0.00    +0.235 C 
ENDROOT
BRANCH   1   2
ATOM      2  C   UNL     1      -0.979  -0.823  -0.280  0.00  0.00    +0.024 A 
ATOM      3  C   UNL     1      -1.815  -1.024   0.790  0.00  0.00    +0.037 A 
ATOM      4  C   UNL     1      -3.105  -1.522   0.664  0.00  0.00    +0.145 A 
ATOM      5  C   UNL     1      -3.440  -1.977  -0.605  0.00  0.00    +0.037 A 
ATOM      6  C   UNL     1      -2.533  -1.978  -1.645  0.00  0.00    +0.003 A 
ATOM      7  C   UNL     1      -1.431  -1.166  -1.541  0.00  0.00    -0.000 A 
BRANCH   4   8
ATOM      8  O   UNL     1      -4.137  -1.071   1.493  0.00  0.00    -0.454 OA
BRANCH   8   9
ATOM      9  C   UNL     1      -5.067  -0.174   0.958  0.00  0.00    +0.145 A 
ATOM     10  C   UNL     1      -4.539   1.014   0.468  0.00  0.00    +0.037 A 
ATOM     11  C   UNL     1      -5.172   1.738  -0.529  0.00  0.00    +0.003 A 
ATOM     12  C   UNL     1      -6.033   1.082  -1.369  0.00  0.00    +0.000 A 
ATOM     13  C   UNL     1      -6.603  -0.098  -0.923  0.00  0.00    +0.003 A 
ATOM     14  C   UNL     1      -6.081  -0.731   0.189  0.00  0.00    +0.037 A 
ENDBRANCH   8   9
ENDBRANCH   4   8
ENDBRANCH   1   2
BRANCH   1  15
ATOM     15  O   UNL     1       1.363  -0.518  -0.286  0.00  0.00    -0.443 OA
BRANCH  15  16
ATOM     16  C   UNL     1       2.155  -0.448   0.786  0.00  0.00    +0.317 C 
ATOM     17  O   UNL     1       1.736  -0.648   1.955  0.00  0.00    -0.250 OA
BRANCH  16  21
ATOM     18  C   UNL     1       4.133   0.406  -0.701  0.00  0.00    +0.001 C 
ATOM     19  C   UNL     1       4.104   0.417  -0.545  0.00  0.00    +0.015 C 
ATOM     20  C   UNL     1       4.216   0.808   1.130  0.00  0.00    +0.035 C 
ATOM     21  C   UNL     1       3.735  -0.769   0.631  0.00  0.00    +0.103 C 
ATOM     22  C   UNL     1       3.016   1.173  -1.137  0.00  0.00    +0.001 C 
BRANCH  20  23
ATOM     23  C   UNL     1       5.798   0.438   1.209  0.00  0.00    -0.003 C 
ATOM     24  C   UNL     1       6.502   1.480   0.784  0.00  0.00    +0.111 C 
ATOM     25 CL   UNL     1       5.894   3.098   0.582  0.00  0.00    -0.070 Cl
ATOM     26 CL   UNL     1       8.178   1.138   0.348  0.00  0.00    -0.070 Cl
ENDBRANCH  20  23
ENDBRANCH  16  21
ENDBRANCH  15  16
ENDBRANCH   1  15
TORSDOF 7
