REMARK  Name = 
REMARK  3 active torsions:
REMARK  status: ('A' for Active; 'I' for Inactive)
REMARK    1  A    between atoms: CA_2  and  CB_3
REMARK    2  A    between atoms: CA_2  and  C_10
REMARK    3  A    between atoms: CB_3  and  CG_4
REMARK                            x       y       z     vdW  Elec       q    Type
REMARK                         _______ _______ _______ _____ _____    ______ ____
ROOT
ATOM      1  CB  PHE A   1      -0.560   0.796   0.511  0.00  0.00    +0.057 C 
ENDROOT
BRANCH   1   2
ATOM      2  CG  PHE A   1       0.744   0.127   0.197  0.00  0.00    -0.020 A 
ATOM      3  CD2 PHE A   1       1.732   0.921  -0.357  0.00  0.00    -0.004 A 
ATOM      4  CE2 PHE A   1       2.989   0.419  -0.631  0.00  0.00    -0.000 A 
ATOM      5  CZ  PHE A   1       3.406  -0.717   0.044  0.00  0.00    -0.000 A 
ATOM      6  CE1 PHE A   1       2.446  -1.463   0.714  0.00  0.00    -0.000 A 
ATOM      7  CD1 PHE A   1       1.160  -0.981   0.923  0.00  0.00    -0.004 A 
ENDBRANCH   1   2
BRANCH   1   9
ATOM      8  N   PHE A   1      -2.204   1.976  -0.709  0.00  0.00    -0.120 NA
ATOM      9  CA  PHE A   1      -1.427   0.584  -0.909  0.00  0.00    +0.199 C 
BRANCH   9  10
ATOM     10  C   PHE A   1      -2.607  -0.269  -0.151  0.00  0.00    +0.382 C 
ATOM     11  OXT PHE A   1      -2.659  -1.595  -0.538  0.00  0.00    -0.244 OA
ATOM     12  O   PHE A   1      -3.019   0.201   0.907  0.00  0.00    -0.244 OA
ENDBRANCH   9  10
ENDBRANCH   1   9
TORSDOF 3
