REMARK  Name = 
REMARK  7 active torsions:
REMARK  status: ('A' for Active; 'I' for Inactive)
REMARK    1  A    between atoms: C_10  and  C_11
REMARK    2  A    between atoms: C_11  and  C_12
REMARK    3  A    between atoms: C_12  and  N_13
REMARK    4  A    between atoms: N_13  and  C_14
REMARK    5  A    between atoms: C_14  and  C_15
REMARK    6  A    between atoms: C_18  and  C_19
REMARK    7  A    between atoms: C_20  and  C_21
REMARK                            x       y       z     vdW  Elec       q    Type
REMARK                         _______ _______ _______ _____ _____    ______ ____
ROOT
ATOM      1  N   UNL     1       0.775   0.008   0.334  0.00  0.00    -0.213 NA
ENDROOT
BRANCH   1   2
ATOM      2  C   UNL     1       1.334  -1.234  -0.190  0.00  0.00    +0.094 C 
BRANCH   2   3
ATOM      3  C   UNL     1       2.111  -1.872   0.954  0.00  0.00    +0.046 C 
BRANCH   3   6
ATOM      4  C   UNL     1       1.998   0.109   3.394  0.00  0.00    +0.052 C 
ATOM      5  C   UNL     1       2.894   0.193   2.218  0.00  0.00    +0.055 A 
ATOM      6  C   UNL     1       3.141  -0.874   1.378  0.00  0.00    -0.006 A 
ATOM      7  C   UNL     1       4.181  -0.489   0.569  0.00  0.00    +0.015 A 
ATOM      8  C   UNL     1       4.742   0.660   1.093  0.00  0.00    +0.081 A 
ATOM      9  C   UNL     1       5.564   1.453   0.302  0.00  0.00    +0.019 A 
ATOM     10  C   UNL     1       5.772   1.142  -1.015  0.00  0.00    +0.002 A 
ATOM     11  C   UNL     1       5.530  -0.162  -1.424  0.00  0.00    +0.000 A 
ATOM     12  C   UNL     1       4.675  -0.929  -0.644  0.00  0.00    +0.001 A 
ATOM     13  N   UNL     1       4.024   0.932   2.196  0.00  0.00    -0.250 NA
ENDBRANCH   3   6
ENDBRANCH   2   3
ENDBRANCH   1   2
BRANCH   1  14
ATOM     14  C   UNL     1       0.547   0.899  -0.795  0.00  0.00    +0.115 C 
BRANCH  14  15
ATOM     15  C   UNL     1      -0.897   0.967  -1.148  0.00  0.00    -0.005 A 
ATOM     16  C   UNL     1      -1.871   0.879  -0.172  0.00  0.00    -0.003 A 
ATOM     17  C   UNL     1      -3.119   0.321  -0.410  0.00  0.00    -0.000 A 
ATOM     18  C   UNL     1      -3.490   0.010  -1.691  0.00  0.00    +0.000 A 
ATOM     19  C   UNL     1      -2.529   0.092  -2.691  0.00  0.00    -0.000 A 
ATOM     20  C   UNL     1      -1.254   0.523  -2.411  0.00  0.00    -0.003 A 
BRANCH  18  21
ATOM     21  C   UNL     1      -4.842  -0.291  -2.111  0.00  0.00    +0.002 C 
ATOM     22  C   UNL     1      -5.714  -0.767  -1.254  0.00  0.00    +0.025 C 
BRANCH  22  23
ATOM     23  C   UNL     1      -5.637  -0.319   0.141  0.00  0.00    +0.110 C 
ATOM     24  N   UNL     1      -6.462   0.750   0.622  0.00  0.00    -0.198 NA
ATOM     25  O   UNL     1      -6.062   1.356   1.772  0.00  0.00    -0.402 OA
ATOM     26  O   UNL     1      -5.409  -1.237   0.986  0.00  0.00    -0.536 OA
ENDBRANCH  22  23
ENDBRANCH  18  21
ENDBRANCH  14  15
ENDBRANCH   1  14
TORSDOF 7
