REMARK  Name = 
REMARK  11 active torsions:
REMARK  status: ('A' for Active; 'I' for Inactive)
REMARK    1  A    between atoms: P_2  and  C_5
REMARK    2  A    between atoms: C_5  and  N_6
REMARK    3  A    between atoms: N_6  and  C_7
REMARK    4  A    between atoms: N_6  and  C_20
REMARK    5  A    between atoms: C_7  and  C_8
REMARK    6  A    between atoms: C_8  and  N_9
REMARK    7  A    between atoms: N_9  and  C_10
REMARK    8  A    between atoms: N_9  and  C_15
REMARK    9  A    between atoms: C_10  and  P_11
REMARK   10  A    between atoms: C_15  and  P_16
REMARK   11  A    between atoms: C_20  and  P_21
REMARK                            x       y       z     vdW  Elec       q    Type
REMARK                         _______ _______ _______ _____ _____    ______ ____
ROOT
ATOM      1  C   UNL     1      -0.445   0.627   0.821  0.00  0.00    +0.090 C 
ENDROOT
BRANCH   1   2
ATOM      2  N   UNL     1      -1.848   0.490   0.580  0.00  0.00    -0.259 NA
BRANCH   2   3
ATOM      3  C   UNL     1      -2.568  -0.226   1.584  0.00  0.00    +0.132 C 
BRANCH   3   4
ATOM      4  P   UNL     1      -2.820  -1.967   1.224  0.00  0.00    +0.133 P 
ATOM      5  O   UNL     1      -3.846  -2.571   2.440  0.00  0.00    -0.356 OA
ATOM      6  O   UNL     1      -1.406  -2.870   1.283  0.00  0.00    -0.356 OA
ATOM      7  O   UNL     1      -3.543  -2.116  -0.089  0.00  0.00    -0.459 OA
ENDBRANCH   3   4
ENDBRANCH   2   3
BRANCH   2   8
ATOM      8  C   UNL     1      -2.212   0.190  -0.768  0.00  0.00    +0.132 C 
BRANCH   8  10
ATOM      9  O   UNL     1      -2.404   2.866  -1.428  0.00  0.00    -0.459 OA
ATOM     10  P   UNL     1      -3.188   1.584  -1.424  0.00  0.00    +0.133 P 
ATOM     11  O   UNL     1      -3.648   1.240  -3.022  0.00  0.00    -0.356 OA
ATOM     12  O   UNL     1      -4.591   1.838  -0.531  0.00  0.00    -0.356 OA
ENDBRANCH   8  10
ENDBRANCH   2   8
ENDBRANCH   1   2
BRANCH   1  13
ATOM     13  C   UNL     1       0.432   0.165  -0.302  0.00  0.00    +0.090 C 
BRANCH  13  14
ATOM     14  N   UNL     1       1.734  -0.129   0.266  0.00  0.00    -0.259 NA
BRANCH  14  15
ATOM     15  C   UNL     1       1.944   0.605   1.479  0.00  0.00    +0.132 C 
BRANCH  15  16
ATOM     16  P   UNL     1       3.306   1.772   1.416  0.00  0.00    +0.133 P 
ATOM     17  O   UNL     1       3.209   2.840   0.124  0.00  0.00    -0.356 OA
ATOM     18  O   UNL     1       4.774   0.951   1.465  0.00  0.00    -0.356 OA
ATOM     19  O   UNL     1       3.234   2.615   2.681  0.00  0.00    -0.459 OA
ENDBRANCH  15  16
ENDBRANCH  14  15
BRANCH  14  20
ATOM     20  C   UNL     1       2.806  -0.035  -0.683  0.00  0.00    +0.132 C 
BRANCH  20  21
ATOM     21  P   UNL     1       2.844  -1.605  -1.606  0.00  0.00    +0.133 P 
ATOM     22  O   UNL     1       1.613  -1.545  -2.767  0.00  0.00    -0.356 OA
ATOM     23  O   UNL     1       2.435  -2.853  -0.528  0.00  0.00    -0.356 OA
ATOM     24  O   UNL     1       4.189  -1.868  -2.215  0.00  0.00    -0.459 OA
ENDBRANCH  20  21
ENDBRANCH  14  20
ENDBRANCH  13  14
ENDBRANCH   1  13
TORSDOF 11
