REMARK  Name = 
REMARK  6 active torsions:
REMARK  status: ('A' for Active; 'I' for Inactive)
REMARK    1  A    between atoms: C_3  and  C_4
REMARK    2  A    between atoms: C_4  and  C_5
REMARK    3  A    between atoms: C_5  and  C_6
REMARK    4  A    between atoms: C_6  and  C_8
REMARK    5  A    between atoms: C_15  and  C_16
REMARK    6  A    between atoms: N_23  and  C_24
REMARK                            x       y       z     vdW  Elec       q    Type
REMARK                         _______ _______ _______ _____ _____    ______ ____
ROOT
ATOM      1  O   UNL     1      -0.606  -0.165  -2.019  0.00  0.00    -0.274 OA
ATOM      2  C   UNL     1      -0.641  -0.168  -0.996  0.00  0.00    +0.231 C 
ATOM      3  N   UNL     1      -1.538  -0.544  -0.004  0.00  0.00    -0.256 N 
ATOM      4  C   UNL     1      -1.095   0.516   1.063  0.00  0.00    +0.111 C 
ATOM      5  C   UNL     1       0.220   0.744  -0.011  0.00  0.00    +0.100 C 
ENDROOT
BRANCH   3   6
ATOM      6  C   UNL     1      -2.646  -1.366   0.159  0.00  0.00    +0.054 A 
ATOM      7  C   UNL     1      -3.766  -1.065  -0.596  0.00  0.00    +0.017 A 
ATOM      8  C   UNL     1      -4.895  -1.830  -0.469  0.00  0.00    +0.031 A 
ATOM      9  C   UNL     1      -4.916  -2.750   0.559  0.00  0.00    +0.140 A 
ATOM     10  F   UNL     1      -6.109  -3.261   0.929  0.00  0.00    -0.204 F 
ATOM     11  C   UNL     1      -3.790  -3.133   1.260  0.00  0.00    +0.031 A 
ATOM     12  C   UNL     1      -2.647  -2.351   1.125  0.00  0.00    +0.017 A 
ENDBRANCH   3   6
BRANCH   4  13
ATOM     13  C   UNL     1      -2.050   1.681   0.473  0.00  0.00    -0.003 A 
ATOM     14  C   UNL     1      -2.489   2.555   1.465  0.00  0.00    +0.001 A 
ATOM     15  C   UNL     1      -2.503   3.924   1.220  0.00  0.00    +0.042 A 
ATOM     16  C   UNL     1      -2.139   4.358  -0.048  0.00  0.00    +0.196 A 
ATOM     17  O   UNL     1      -1.454   5.557  -0.263  0.00  0.00    -0.287 OA
ATOM     18  C   UNL     1      -2.373   3.432  -1.057  0.00  0.00    +0.042 A 
ATOM     19  C   UNL     1      -1.935   2.140  -0.761  0.00  0.00    +0.001 A 
ENDBRANCH   4  13
BRANCH   5  20
ATOM     20  C   UNL     1       1.016  -0.523   0.635  0.00  0.00    +0.014 C 
BRANCH  20  21
ATOM     21  C   UNL     1       1.647  -1.165  -0.523  0.00  0.00    +0.038 C 
BRANCH  21  22
ATOM     22  C   UNL     1       2.991  -1.981   0.016  0.00  0.00    +0.174 C 
ATOM     23  O   UNL     1       2.498  -2.098   1.466  0.00  0.00    -0.218 OA
BRANCH  22  24
ATOM     24  C   UNL     1       3.811  -0.591   0.307  0.00  0.00    +0.008 A 
ATOM     25  C   UNL     1       4.509  -0.190  -0.830  0.00  0.00    +0.000 A 
ATOM     26  C   UNL     1       5.887  -0.006  -0.839  0.00  0.00    +0.029 A 
ATOM     27  C   UNL     1       6.627  -0.233   0.316  0.00  0.00    +0.140 A 
ATOM     28  F   UNL     1       7.899  -0.722   0.283  0.00  0.00    -0.204 F 
ATOM     29  C   UNL     1       5.894  -0.147   1.487  0.00  0.00    +0.029 A 
ATOM     30  C   UNL     1       4.590  -0.621   1.442  0.00  0.00    +0.000 A 
ENDBRANCH  22  24
ENDBRANCH  21  22
ENDBRANCH  20  21
ENDBRANCH   5  20
TORSDOF 6
