REMARK  Name = 
REMARK  2 active torsions:
REMARK  status: ('A' for Active; 'I' for Inactive)
REMARK    1  A    between atoms: C_2  and  C_3
REMARK    2  A    between atoms: C_3  and  C_4
REMARK                            x       y       z     vdW  Elec       q    Type
REMARK                         _______ _______ _______ _____ _____    ______ ____
ROOT
ATOM      1  C   UNL     1      -0.642   0.337  -0.332  0.00  0.00    +0.159 C 
ATOM      2  C   UNL     1      -1.280  -0.595  -1.281  0.00  0.00    +0.254 C 
ATOM      3  O   UNL     1      -0.957  -0.489  -2.491  0.00  0.00    -0.272 OA
ATOM      4  N   UNL     1      -1.996  -1.705  -0.801  0.00  0.00    -0.181 NA
ATOM      5  C   UNL     1      -2.592  -1.723   0.504  0.00  0.00    +0.229 C 
ATOM      6  N   UNL     1      -1.989  -0.824   1.443  0.00  0.00    -0.181 NA
ATOM      7  C   UNL     1      -1.234   0.292   1.019  0.00  0.00    +0.254 C 
ATOM      8  O   UNL     1      -0.672   0.975   1.914  0.00  0.00    -0.272 OA
ENDROOT
BRANCH   1   9
ATOM      9  C   UNL     1       0.828   0.078  -0.227  0.00  0.00    -0.006 A 
ATOM     10  C   UNL     1       1.668   1.150   0.049  0.00  0.00    -0.003 A 
ATOM     11  C   UNL     1       2.834   0.897   0.762  0.00  0.00    -0.000 A 
ATOM     12  C   UNL     1       3.453  -0.315   0.483  0.00  0.00    -0.000 A 
ATOM     13  C   UNL     1       2.683  -1.363  -0.001  0.00  0.00    -0.000 A 
ATOM     14  C   UNL     1       1.320  -1.215  -0.190  0.00  0.00    -0.003 A 
ENDBRANCH   1   9
BRANCH   1  16
ATOM     15  C   UNL     1      -0.656   2.778   0.104  0.00  0.00    +0.001 C 
ATOM     16  C   UNL     1      -0.768   1.724  -0.957  0.00  0.00    +0.022 C 
ENDBRANCH   1  16
TORSDOF 2
