REMARK  Name = 
REMARK  7 active torsions:
REMARK  status: ('A' for Active; 'I' for Inactive)
REMARK    1  A    between atoms: N_2  and  C_3
REMARK    2  A    between atoms: C_3  and  C_5
REMARK    3  A    between atoms: C_10  and  O_11
REMARK    4  A    between atoms: O_11  and  C_12
REMARK    5  A    between atoms: C_18  and  O_19
REMARK    6  A    between atoms: O_19  and  C_20
REMARK    7  A    between atoms: C_26  and  N_27
REMARK                            x       y       z     vdW  Elec       q    Type
REMARK                         _______ _______ _______ _____ _____    ______ ____
ROOT
ATOM      1  C   UNL     1       1.272  -0.319   0.751  0.00  0.00    +0.168 C 
ATOM      2  C   UNL     1      -0.088   0.163  -0.174  0.00  0.00    +0.209 C 
ATOM      3  O   UNL     1      -0.313   1.366   0.693  0.00  0.00    -0.218 OA
ATOM      4  C   UNL     1      -1.261  -0.731   0.682  0.00  0.00    +0.168 C 
ATOM      5  C   UNL     1      -1.298  -2.087  -0.360  0.00  0.00    +0.123 C 
ATOM      6  N   UNL     1      -0.944  -1.321  -1.669  0.00  0.00    -0.130 NA
ATOM      7  C   UNL     1       0.248  -2.478  -0.061  0.00  0.00    +0.043 C 
ATOM      8  C   UNL     1       0.533  -1.745   1.362  0.00  0.00    +0.123 C 
ATOM      9  N   UNL     1       1.870  -2.497   1.632  0.00  0.00    -0.130 NA
ENDROOT
BRANCH   1  10
ATOM     10  O   UNL     1       1.890  -0.862  -0.493  0.00  0.00    -0.328 OA
BRANCH  10  13
ATOM     11  C   UNL     1       5.296  -0.446   0.243  0.00  0.00    +0.134 C 
ATOM     12  O   UNL     1       3.903   0.126   0.030  0.00  0.00    -0.331 OA
ATOM     13  C   UNL     1       3.276  -1.268  -0.030  0.00  0.00    +0.253 C 
ATOM     14  C   UNL     1       3.901  -1.678  -1.592  0.00  0.00    +0.148 C 
ATOM     15  N   UNL     1       2.632  -1.398  -2.445  0.00  0.00    -0.128 NA
ATOM     16  C   UNL     1       4.470  -0.223  -2.047  0.00  0.00    +0.027 C 
ATOM     17  C   UNL     1       5.754  -0.116  -1.295  0.00  0.00    +0.033 C 
BRANCH  11  18
ATOM     18  C   UNL     1       5.890   0.999   0.966  0.00  0.00    +0.100 C 
ATOM     19  C   UNL     1       6.986   0.130   1.809  0.00  0.00    +0.021 C 
BRANCH  18  21
ATOM     20  C   UNL     1       6.315   2.466  -0.775  0.00  0.00    +0.107 C 
ATOM     21  N   UNL     1       6.961   1.365  -0.110  0.00  0.00    -0.215 NA
ENDBRANCH  18  21
ENDBRANCH  11  18
ENDBRANCH  10  13
ENDBRANCH   1  10
BRANCH   4  22
ATOM     22  O   UNL     1      -2.424  -0.061   0.031  0.00  0.00    -0.327 OA
BRANCH  22  23
ATOM     23  C   UNL     1      -3.351   0.161   1.238  0.00  0.00    +0.268 C 
ATOM     24  C   UNL     1      -3.598   1.825   0.870  0.00  0.00    +0.226 C 
ATOM     25  O   UNL     1      -4.579   2.069   1.979  0.00  0.00    -0.216 OA
ATOM     26  C   UNL     1      -4.784   1.838  -0.343  0.00  0.00    +0.138 C 
ATOM     27  C   UNL     1      -6.037   1.084   0.366  0.00  0.00    +0.171 C 
ATOM     28  O   UNL     1      -6.685   0.596  -0.795  0.00  0.00    -0.222 OA
ATOM     29  C   UNL     1      -6.926   2.200   0.834  0.00  0.00    +0.037 C 
ATOM     30  C   UNL     1      -5.668   0.042   1.173  0.00  0.00    +0.176 C 
ATOM     31  O   UNL     1      -4.580  -0.448   0.617  0.00  0.00    -0.326 OA
BRANCH  26  32
ATOM     32  N   UNL     1      -4.215   0.585  -1.056  0.00  0.00    -0.213 NA
ATOM     33  C   UNL     1      -4.447   0.663  -2.455  0.00  0.00    +0.108 C 
ENDBRANCH  26  32
ENDBRANCH  22  23
ENDBRANCH   4  22
TORSDOF 7
