REMARK  Name = 
REMARK  7 active torsions:
REMARK  status: ('A' for Active; 'I' for Inactive)
REMARK    1  A    between atoms: C_2  and  C_3
REMARK    2  A    between atoms: C_9  and  O_10
REMARK    3  A    between atoms: O_10  and  C_11
REMARK    4  A    between atoms: C_13  and  O_15
REMARK    5  A    between atoms: C_24  and  O_25
REMARK    6  A    between atoms: O_25  and  C_26
REMARK    7  A    between atoms: C_31  and  N_32
REMARK                            x       y       z     vdW  Elec       q    Type
REMARK                         _______ _______ _______ _____ _____    ______ ____
ROOT
ATOM      1  C   UNL     1      -2.539  -2.636  -0.493  0.00  0.00    +0.199 C 
ATOM      2  C   UNL     1      -3.621  -3.440   0.427  0.00  0.00    +0.192 C 
ATOM      3  O   UNL     1      -4.859  -3.309  -0.097  0.00  0.00    -0.219 OA
ATOM      4  C   UNL     1      -3.397  -3.183   1.842  0.00  0.00    +0.039 C 
ATOM      5  C   UNL     1      -2.987  -4.894   0.038  0.00  0.00    +0.198 C 
ATOM      6  O   UNL     1      -3.689  -5.558   1.192  0.00  0.00    -0.219 OA
ATOM      7  C   UNL     1      -1.576  -4.621   0.975  0.00  0.00    +0.091 C 
ATOM      8  C   UNL     1      -1.337  -6.213   1.191  0.00  0.00    +0.020 C 
ATOM      9  N   UNL     1      -0.688  -4.500  -0.288  0.00  0.00    -0.270 NA
ATOM     10  C   UNL     1      -0.250  -5.737  -0.799  0.00  0.00    +0.090 C 
ATOM     11  C   UNL     1       0.542  -3.812   0.134  0.00  0.00    +0.072 C 
ATOM     12  C   UNL     1       0.915  -3.305  -1.383  0.00  0.00    +0.019 C 
ATOM     13  C   UNL     1       2.488  -3.728  -1.235  0.00  0.00    +0.002 C 
ATOM     14  C   UNL     1       1.090  -1.745  -0.988  0.00  0.00    +0.034 C 
ATOM     15  C   UNL     1       1.442  -1.381   0.312  0.00  0.00    +0.152 C 
ATOM     16  O   UNL     1       2.661  -2.038   0.555  0.00  0.00    -0.223 OA
ATOM     17  C   UNL     1       0.805  -1.591   1.599  0.00  0.00    +0.035 C 
ATOM     18  C   UNL     1       1.756   0.217   0.035  0.00  0.00    +0.148 C 
ATOM     19  C   UNL     1       0.630   0.862   1.143  0.00  0.00    +0.058 C 
ATOM     20  C   UNL     1       1.219   2.338   0.938  0.00  0.00    +0.005 C 
ATOM     21  C   UNL     1      -0.608   1.228   0.056  0.00  0.00    +0.131 C 
ATOM     22  C   UNL     1      -1.468  -0.186   0.494  0.00  0.00    +0.126 C 
ATOM     23  C   UNL     1      -2.525   0.430   1.558  0.00  0.00    +0.014 C 
ATOM     24  C   UNL     1      -2.506  -0.176  -0.719  0.00  0.00    +0.319 C 
ATOM     25  O   UNL     1      -2.106   0.295  -1.824  0.00  0.00    -0.250 OA
ATOM     26  O   UNL     1      -3.325  -1.310  -0.595  0.00  0.00    -0.450 OA
ENDROOT
BRANCH   1  28
ATOM     27  C   UNL     1      -3.615  -3.411  -1.969  0.00  0.00    +0.004 C 
ATOM     28  C   UNL     1      -3.195  -3.225  -1.887  0.00  0.00    +0.046 C 
ENDBRANCH   1  28
BRANCH  21  29
ATOM     29  O   UNL     1      -1.286   2.220   0.962  0.00  0.00    -0.332 OA
BRANCH  29  30
ATOM     30  C   UNL     1      -2.560   2.470   0.141  0.00  0.00    +0.238 C 
ATOM     31  O   UNL     1      -1.960   3.654  -0.589  0.00  0.00    -0.330 OA
ATOM     32  C   UNL     1      -3.026   4.014  -1.587  0.00  0.00    +0.150 C 
ATOM     33  C   UNL     1      -4.210   2.945  -1.200  0.00  0.00    +0.035 C 
ATOM     34  C   UNL     1      -3.844   5.193  -0.622  0.00  0.00    +0.204 C 
ATOM     35  O   UNL     1      -2.797   6.217  -1.011  0.00  0.00    -0.218 OA
ATOM     36  C   UNL     1      -3.207   4.840   0.823  0.00  0.00    +0.128 C 
ATOM     37  C   UNL     1      -4.273   5.558   1.655  0.00  0.00    +0.033 C 
ATOM     38  C   UNL     1      -3.257   3.470   1.268  0.00  0.00    +0.091 C 
BRANCH  36  39
ATOM     39  O   UNL     1      -2.027   5.424   1.017  0.00  0.00    -0.353 OA
ATOM     40  C   UNL     1      -2.225   6.705   1.525  0.00  0.00    +0.174 C 
ENDBRANCH  36  39
ENDBRANCH  29  30
ENDBRANCH  21  29
BRANCH  18  41
ATOM     41  O   UNL     1       2.871   0.195   1.027  0.00  0.00    -0.328 OA
BRANCH  41  42
ATOM     42  C   UNL     1       3.873   1.265   0.680  0.00  0.00    +0.268 C 
ATOM     43  C   UNL     1       5.143   0.182   0.201  0.00  0.00    +0.222 C 
ATOM     44  O   UNL     1       5.226  -0.614   1.459  0.00  0.00    -0.216 OA
ATOM     45  C   UNL     1       6.103   1.438   0.849  0.00  0.00    +0.096 C 
ATOM     46  C   UNL     1       5.657   2.548  -0.173  0.00  0.00    +0.048 C 
ATOM     47  C   UNL     1       4.489   2.469  -1.260  0.00  0.00    +0.119 C 
ATOM     48  C   UNL     1       5.370   1.511  -2.303  0.00  0.00    +0.032 C 
ATOM     49  O   UNL     1       3.610   1.315  -0.806  0.00  0.00    -0.331 OA
BRANCH  45  50
ATOM     50  N   UNL     1       7.447   1.040   0.122  0.00  0.00    -0.269 NA
ATOM     51  C   UNL     1       8.372   0.771   1.238  0.00  0.00    +0.090 C 
ATOM     52  C   UNL     1       7.258  -0.202  -0.536  0.00  0.00    +0.090 C 
ENDBRANCH  45  50
ENDBRANCH  41  42
ENDBRANCH  18  41
TORSDOF 7
