REMARK  Name = 
REMARK  2 active torsions:
REMARK  status: ('A' for Active; 'I' for Inactive)
REMARK    1  A    between atoms: C_10  and  C_11
REMARK    2  A    between atoms: C_11  and  C_12
REMARK                            x       y       z     vdW  Elec       q    Type
REMARK                         _______ _______ _______ _____ _____    ______ ____
ROOT
ATOM      1  C   UNL     1      -0.058  -0.064  -1.050  0.00  0.00    +0.061 C 
ENDROOT
BRANCH   1   4
ATOM      2  O   UNL     1      -1.634  -2.343  -0.484  0.00  0.00    -0.286 OA
ATOM      3  C   UNL     1      -2.084  -1.080  -0.103  0.00  0.00    +0.203 A 
ATOM      4  C   UNL     1      -1.194  -0.012  -0.094  0.00  0.00    +0.033 A 
ATOM      5  C   UNL     1      -1.777   1.238   0.082  0.00  0.00    +0.068 A 
ATOM      6 CL   UNL     1      -0.989   2.712  -0.434  0.00  0.00    -0.082 Cl
ATOM      7  C   UNL     1      -3.028   1.366   0.656  0.00  0.00    +0.069 A 
ATOM      8 CL   UNL     1      -3.454   2.803   1.573  0.00  0.00    -0.081 Cl
ATOM      9  C   UNL     1      -3.870   0.264   0.670  0.00  0.00    +0.027 A 
ATOM     10  C   UNL     1      -3.417  -0.948   0.186  0.00  0.00    +0.097 A 
ATOM     11 CL   UNL     1      -4.642  -2.103  -0.306  0.00  0.00    -0.079 Cl
ENDBRANCH   1   4
BRANCH   1  12
ATOM     12  C   UNL     1       1.254   0.132  -0.403  0.00  0.00    +0.033 A 
ATOM     13  C   UNL     1       2.324   0.464  -1.224  0.00  0.00    +0.068 A 
ATOM     14 CL   UNL     1       2.054   1.355  -2.716  0.00  0.00    -0.082 Cl
ATOM     15  C   UNL     1       3.634   0.222  -0.832  0.00  0.00    +0.069 A 
ATOM     16 CL   UNL     1       4.926   1.287  -1.376  0.00  0.00    -0.081 Cl
ATOM     17  C   UNL     1       3.872  -0.782   0.100  0.00  0.00    +0.027 A 
ATOM     18  C   UNL     1       2.822  -1.162   0.926  0.00  0.00    +0.097 A 
ATOM     19 CL   UNL     1       3.148  -1.952   2.465  0.00  0.00    -0.079 Cl
ATOM     20  C   UNL     1       1.536  -0.702   0.672  0.00  0.00    +0.203 A 
ATOM     21  O   UNL     1       0.576  -0.696   1.689  0.00  0.00    -0.286 OA
ENDBRANCH   1  12
TORSDOF 2
