REMARK  Name = 
REMARK  7 active torsions:
REMARK  status: ('A' for Active; 'I' for Inactive)
REMARK    1  A    between atoms: C_2  and  C_3
REMARK    2  A    between atoms: C_2  and  C_20
REMARK    3  A    between atoms: C_12  and  C_13
REMARK    4  A    between atoms: C_23  and  O_24
REMARK    5  A    between atoms: O_24  and  C_25
REMARK    6  A    between atoms: C_25  and  C_26
REMARK    7  A    between atoms: C_26  and  N_27
REMARK                            x       y       z     vdW  Elec       q    Type
REMARK                         _______ _______ _______ _____ _____    ______ ____
ROOT
ATOM      1  O   UNL     1      -1.688   2.203  -0.772  0.00  0.00    -0.287 OA
ATOM      2  C   UNL     1      -1.365   1.005  -0.515  0.00  0.00    +0.196 C 
ENDROOT
BRANCH   2   3
ATOM      3  C   UNL     1      -2.353   0.039  -0.011  0.00  0.00    +0.045 A 
ATOM      4  C   UNL     1      -3.654   0.409   0.315  0.00  0.00    +0.033 A 
ATOM      5  S   UNL     1      -4.145  -0.950   1.245  0.00  0.00    -0.087 S 
ATOM      6  C   UNL     1      -2.858  -2.015   0.845  0.00  0.00    +0.033 A 
ATOM      7  C   UNL     1      -2.458  -3.310   1.156  0.00  0.00    +0.048 A 
ATOM      8  C   UNL     1      -1.614  -4.024   0.313  0.00  0.00    +0.196 A 
ATOM      9  O   UNL     1      -1.595  -5.396   0.431  0.00  0.00    -0.287 OA
ATOM     10  C   UNL     1      -1.361  -3.444  -0.924  0.00  0.00    +0.042 A 
ATOM     11  C   UNL     1      -1.378  -2.058  -0.991  0.00  0.00    +0.004 A 
ATOM     12  C   UNL     1      -2.281  -1.333  -0.221  0.00  0.00    +0.010 A 
BRANCH   4  13
ATOM     13  C   UNL     1      -4.355   1.655  -0.017  0.00  0.00    +0.006 A 
ATOM     14  C   UNL     1      -4.303   2.749   0.835  0.00  0.00    +0.004 A 
ATOM     15  C   UNL     1      -5.085   3.852   0.519  0.00  0.00    +0.042 A 
ATOM     16  C   UNL     1      -6.366   3.592   0.054  0.00  0.00    +0.196 A 
ATOM     17  O   UNL     1      -7.440   4.444   0.320  0.00  0.00    -0.287 OA
ATOM     18  C   UNL     1      -6.617   2.367  -0.541  0.00  0.00    +0.042 A 
ATOM     19  C   UNL     1      -5.544   1.502  -0.721  0.00  0.00    +0.004 A 
ENDBRANCH   4  13
ENDBRANCH   2   3
BRANCH   2  20
ATOM     20  C   UNL     1       0.079   0.772  -0.391  0.00  0.00    +0.039 A 
ATOM     21  C   UNL     1       0.928   0.847  -1.488  0.00  0.00    +0.006 A 
ATOM     22  C   UNL     1       2.270   0.579  -1.319  0.00  0.00    +0.037 A 
ATOM     23  C   UNL     1       2.754   0.133  -0.115  0.00  0.00    +0.139 A 
ATOM     24  C   UNL     1       1.830  -0.307   0.811  0.00  0.00    +0.037 A 
ATOM     25  C   UNL     1       0.575   0.259   0.786  0.00  0.00    +0.006 A 
BRANCH  23  26
ATOM     26  O   UNL     1       4.120   0.049   0.150  0.00  0.00    -0.474 OA
BRANCH  26  27
ATOM     27  C   UNL     1       4.842   1.266   0.110  0.00  0.00    +0.223 C 
BRANCH  27  28
ATOM     28  C   UNL     1       5.929   1.209  -0.924  0.00  0.00    +0.120 C 
BRANCH  28  29
ATOM     29  N   UNL     1       6.849   0.117  -0.737  0.00  0.00    -0.270 NA
ATOM     30  C   UNL     1       6.168  -1.175  -0.775  0.00  0.00    +0.072 C 
ATOM     31  C   UNL     1       7.239  -2.240  -0.577  0.00  0.00    +0.017 C 
ATOM     32  C   UNL     1       7.755  -2.209   0.856  0.00  0.00    +0.003 C 
ATOM     33  C   UNL     1       7.464  -0.853   1.438  0.00  0.00    +0.017 C 
ATOM     34  C   UNL     1       7.657   0.267   0.447  0.00  0.00    +0.072 C 
ENDBRANCH  28  29
ENDBRANCH  27  28
ENDBRANCH  26  27
ENDBRANCH  23  26
ENDBRANCH   2  20
TORSDOF 7
