REMARK  Name = 
REMARK  3 active torsions:
REMARK  status: ('A' for Active; 'I' for Inactive)
REMARK    1  A    between atoms: N_2  and  C_4
REMARK    2  A    between atoms: C_15  and  N_16
REMARK    3  A    between atoms: C_21  and  C_22
REMARK                            x       y       z     vdW  Elec       q    Type
REMARK                         _______ _______ _______ _____ _____    ______ ____
ROOT
ATOM      1  C   UNL     1       4.455   0.897  -0.300  0.00  0.00    +0.044 A 
ATOM      2  C   UNL     1       3.373   0.093  -0.634  0.00  0.00    -0.002 A 
ATOM      3  C   UNL     1       2.162   0.660  -1.315  0.00  0.00    +0.032 C 
ATOM      4  C   UNL     1       1.071   0.461  -0.076  0.00  0.00    +0.033 C 
ATOM      5  C   UNL     1       0.875  -1.115  -0.439  0.00  0.00    +0.054 C 
ATOM      6  C   UNL     1       2.071  -1.896  -0.197  0.00  0.00    +0.197 C 
ATOM      7  O   UNL     1       1.948  -3.040   0.280  0.00  0.00    -0.287 OA
ATOM      8  C   UNL     1      -0.349  -1.492  -0.216  0.00  0.00    +0.207 C 
ATOM      9  O   UNL     1      -0.456  -2.869   0.038  0.00  0.00    -0.289 OA
ATOM     10  C   UNL     1      -1.518  -0.758   0.189  0.00  0.00    +0.237 C 
ATOM     11  C   UNL     1      -1.228   0.837   0.276  0.00  0.00    +0.065 C 
ATOM     12  C   UNL     1      -2.581   1.352  -0.690  0.00  0.00    +0.124 C 
ATOM     13  C   UNL     1      -3.667   0.897   0.445  0.00  0.00    +0.195 C 
ATOM     14  C   UNL     1      -3.965  -0.357   0.084  0.00  0.00    +0.130 C 
ATOM     15  O   UNL     1      -4.754   1.751   0.578  0.00  0.00    -0.290 OA
ATOM     16  O   UNL     1      -1.660  -1.011   1.571  0.00  0.00    -0.210 OA
ATOM     17  C   UNL     1      -2.773  -1.044  -0.438  0.00  0.00    +0.215 C 
ATOM     18  O   UNL     1      -2.933  -2.050  -1.150  0.00  0.00    -0.288 OA
ATOM     19  C   UNL     1      -0.233   0.857  -1.033  0.00  0.00    +0.010 C 
ATOM     20  C   UNL     1       3.336  -1.164  -0.081  0.00  0.00    +0.075 A 
ATOM     21  C   UNL     1       4.325  -1.640   0.771  0.00  0.00    +0.199 A 
ATOM     22  O   UNL     1       4.112  -2.764   1.573  0.00  0.00    -0.286 OA
ATOM     23  C   UNL     1       5.333  -0.791   1.201  0.00  0.00    +0.043 A 
ATOM     24  C   UNL     1       5.319   0.510   0.717  0.00  0.00    +0.017 A 
ENDROOT
BRANCH   1  26
ATOM     25  C   UNL     1       4.214   3.230   0.374  0.00  0.00    +0.112 C 
ATOM     26  N   UNL     1       4.495   2.263  -0.676  0.00  0.00    -0.304 N 
ATOM     27  C   UNL     1       4.358   2.653  -2.055  0.00  0.00    +0.112 C 
ENDBRANCH   1  26
BRANCH  14  28
ATOM     28  C   UNL     1      -5.296  -0.919   0.075  0.00  0.00    +0.290 C 
ATOM     29  O   UNL     1      -5.602  -1.849  -0.697  0.00  0.00    -0.266 OA
ATOM     30  N   UNL     1      -6.027  -0.819   1.304  0.00  0.00    -0.084 NA
ENDBRANCH  14  28
BRANCH  12  31
ATOM     31  N   UNL     1      -2.456   2.826  -0.112  0.00  0.00    -0.265 NA
ATOM     32  C   UNL     1      -3.532   3.576  -0.669  0.00  0.00    +0.090 C 
ATOM     33  C   UNL     1      -2.415   2.715   1.300  0.00  0.00    +0.090 C 
ENDBRANCH  12  31
TORSDOF 3
