REMARK  Name = 
REMARK  2 active torsions:
REMARK  status: ('A' for Active; 'I' for Inactive)
REMARK    1  A    between atoms: N_4  and  C_5
REMARK    2  A    between atoms: C_8  and  C_9
REMARK                            x       y       z     vdW  Elec       q    Type
REMARK                         _______ _______ _______ _____ _____    ______ ____
ROOT
ATOM      1  C   UNL     1      -2.490   2.487  -1.444  0.00  0.00    +0.038 C 
ATOM      2  C   UNL     1      -2.196   1.172  -1.017  0.00  0.00    +0.053 A 
ATOM      3  C   UNL     1      -2.891   0.730   0.116  0.00  0.00    +0.280 A 
ATOM      4  O   UNL     1      -3.106   1.587   1.038  0.00  0.00    -0.265 OA
ATOM      5  N   UNL     1      -2.638  -0.574   0.410  0.00  0.00    -0.153 NA
ATOM      6  C   UNL     1      -1.504  -1.201  -0.003  0.00  0.00    +0.355 A 
ATOM      7  O   UNL     1      -1.042  -2.160   0.693  0.00  0.00    -0.244 OA
ATOM      8  N   UNL     1      -0.538  -0.570  -0.728  0.00  0.00    -0.252 N 
ATOM      9  C   UNL     1      -1.029   0.503  -1.399  0.00  0.00    +0.083 A 
ENDROOT
BRANCH   8  10
ATOM     10  C   UNL     1       0.727  -0.228   0.201  0.00  0.00    +0.232 C 
ATOM     11  O   UNL     1       1.696   0.012  -0.972  0.00  0.00    -0.327 OA
ATOM     12  C   UNL     1       2.615   0.126   0.252  0.00  0.00    +0.172 C 
ATOM     13  C   UNL     1       2.564  -1.498   0.409  0.00  0.00    +0.005 C 
ATOM     14  C   UNL     1       1.255  -1.776   0.272  0.00  0.00    +0.025 C 
BRANCH  12  15
ATOM     15  C   UNL     1       3.994   0.109  -0.663  0.00  0.00    +0.216 C 
ATOM     16  O   UNL     1       4.583   1.283  -0.158  0.00  0.00    -0.217 OA
ENDBRANCH  12  15
ENDBRANCH   8  10
TORSDOF 2
