REMARK  Name = 
REMARK  1 active torsions:
REMARK  status: ('A' for Active; 'I' for Inactive)
REMARK    1  A    between atoms: C_8  and  S_9
REMARK                            x       y       z     vdW  Elec       q    Type
REMARK                         _______ _______ _______ _____ _____    ______ ____
ROOT
ATOM      1  C   UNL     1       4.408   1.099  -0.529  0.00  0.00    +0.097 C 
ATOM      2  C   UNL     1       3.533   0.160   0.219  0.00  0.00    +0.248 C 
ATOM      3  N   UNL     1       2.577  -0.690  -0.404  0.00  0.00    -0.153 NA
ATOM      4  C   UNL     1       1.194  -0.701  -0.028  0.00  0.00    +0.209 A 
ATOM      5  S   UNL     1      -0.181  -0.983  -1.021  0.00  0.00    -0.009 S 
ATOM      6  C   UNL     1      -1.339  -0.189  -0.028  0.00  0.00    +0.259 A 
ATOM      7  N   UNL     1      -0.514   0.414   0.834  0.00  0.00    -0.119 NA
ATOM      8  N   UNL     1       0.587  -0.241   1.065  0.00  0.00    -0.122 NA
ATOM      9  O   UNL     1       3.374   0.341   1.447  0.00  0.00    -0.273 OA
ENDROOT
BRANCH   6  10
ATOM     10  S   UNL     1      -3.037   0.131  -0.361  0.00  0.00    +0.118 S 
ATOM     11  O   UNL     1      -3.226   1.026  -1.535  0.00  0.00    -0.148 OA
ATOM     12  O   UNL     1      -3.649  -1.209  -0.692  0.00  0.00    -0.148 OA
ATOM     13  N   UNL     1      -3.727   0.841   1.035  0.00  0.00    +0.041 NA
ENDBRANCH   6  10
TORSDOF 1
