REMARK  Name = 
REMARK  6 active torsions:
REMARK  status: ('A' for Active; 'I' for Inactive)
REMARK    1  A    between atoms: C_5  and  C_6
REMARK    2  A    between atoms: C_6  and  O_7
REMARK    3  A    between atoms: O_7  and  C_8
REMARK    4  A    between atoms: C_8  and  C_9
REMARK    5  A    between atoms: C_8  and  C_15
REMARK    6  A    between atoms: C_9  and  N_10
REMARK                            x       y       z     vdW  Elec       q    Type
REMARK                         _______ _______ _______ _____ _____    ______ ____
ROOT
ATOM      1  C   UNL     1      -0.521   0.314   0.430  0.00  0.00    +0.161 C 
ENDROOT
BRANCH   1   2
ATOM      2  C   UNL     1      -1.822  -0.613   0.165  0.00  0.00    +0.017 A 
ATOM      3  C   UNL     1      -1.750  -1.678  -0.622  0.00  0.00    +0.057 A 
ATOM      4 CL   UNL     1      -0.885  -1.379  -2.127  0.00  0.00    -0.082 Cl
ATOM      5  C   UNL     1      -2.631  -2.737  -0.469  0.00  0.00    +0.023 A 
ATOM      6  C   UNL     1      -3.370  -2.768   0.708  0.00  0.00    +0.058 A 
ATOM      7 CL   UNL     1      -4.589  -4.042   0.760  0.00  0.00    -0.082 Cl
ATOM      8  C   UNL     1      -3.452  -1.661   1.539  0.00  0.00    +0.011 A 
ATOM      9  C   UNL     1      -2.676  -0.547   1.252  0.00  0.00    -0.000 A 
ENDBRANCH   1   2
BRANCH   1  10
ATOM     10  O   UNL     1       0.449  -0.540  -0.383  0.00  0.00    -0.345 OA
BRANCH  10  11
ATOM     11  C   UNL     1       1.478   0.366  -0.411  0.00  0.00    +0.169 C 
BRANCH  11  16
ATOM     12 CL   UNL     1       6.680   0.581  -0.261  0.00  0.00    -0.082 Cl
ATOM     13  C   UNL     1       5.544  -0.008  -0.222  0.00  0.00    +0.058 A 
ATOM     14  C   UNL     1       4.793   0.069   0.946  0.00  0.00    +0.011 A 
ATOM     15  C   UNL     1       3.445  -0.266   0.995  0.00  0.00    -0.001 A 
ATOM     16  C   UNL     1       2.759  -0.333  -0.214  0.00  0.00    +0.007 A 
ATOM     17  C   UNL     1       3.512  -0.886  -1.248  0.00  0.00    -0.001 A 
ATOM     18  C   UNL     1       4.871  -0.596  -1.287  0.00  0.00    +0.011 A 
ENDBRANCH  11  16
ENDBRANCH  10  11
ENDBRANCH   1  10
BRANCH   1  19
ATOM     19  C   UNL     1      -0.841   1.269  -0.884  0.00  0.00    +0.142 C 
BRANCH  19  20
ATOM     20  N   UNL     1      -1.538   2.352  -0.253  0.00  0.00    -0.305 N 
ATOM     21  C   UNL     1      -2.885   2.455  -0.261  0.00  0.00    +0.179 A 
ATOM     22  N   UNL     1      -3.288   3.275   0.728  0.00  0.00    -0.222 NA
ATOM     23  C   UNL     1      -2.175   3.924   1.128  0.00  0.00    +0.119 A 
ATOM     24  C   UNL     1      -1.107   3.449   0.378  0.00  0.00    +0.098 A 
ENDBRANCH  19  20
ENDBRANCH   1  19
TORSDOF 6
