REMARK  Name = 
REMARK  7 active torsions:
REMARK  status: ('A' for Active; 'I' for Inactive)
REMARK    1  A    between atoms: C_2  and  C_3
REMARK    2  A    between atoms: C_3  and  C_4
REMARK    3  A    between atoms: C_3  and  C_6
REMARK    4  A    between atoms: C_6  and  N_7
REMARK    5  A    between atoms: C_6  and  C_11
REMARK    6  A    between atoms: C_12  and  N_13
REMARK    7  A    between atoms: C_18  and  C_19
REMARK                            x       y       z     vdW  Elec       q    Type
REMARK                         _______ _______ _______ _____ _____    ______ ____
ROOT
ATOM      1  C   UNL     1       0.013   0.143   0.588  0.00  0.00    +0.091 C 
ATOM      2  C   UNL     1       0.535   1.724   0.760  0.00  0.00    +0.168 C 
ATOM      3  O   UNL     1      -0.605   2.446   0.094  0.00  0.00    -0.222 OA
ATOM      4  C   UNL     1       1.431   1.778  -0.679  0.00  0.00    +0.137 C 
ATOM      5  C   UNL     1       2.252   0.474  -0.176  0.00  0.00    +0.057 C 
ATOM      6  C   UNL     1       0.902  -0.226  -0.778  0.00  0.00    +0.186 C 
ENDROOT
BRANCH   6   7
ATOM      7  N   UNL     1       1.292  -1.639  -0.239  0.00  0.00    -0.090 NA
ATOM      8  C   UNL     1       2.452  -2.097  -0.526  0.00  0.00    +0.534 C 
ATOM      9  N   UNL     1       3.433  -1.818   0.487  0.00  0.00    +0.135 NA
ATOM     10  N   UNL     1       2.498  -3.455  -0.997  0.00  0.00    +0.135 NA
ENDBRANCH   6   7
BRANCH   4  11
ATOM     11  C   UNL     1       2.503   2.805  -0.113  0.00  0.00    +0.367 C 
ATOM     12  O   UNL     1       2.839   3.758  -1.047  0.00  0.00    -0.246 OA
ATOM     13  O   UNL     1       2.829   2.810   1.069  0.00  0.00    -0.246 OA
ENDBRANCH   4  11
BRANCH   1  14
ATOM     14  C   UNL     1      -1.390   0.395  -0.300  0.00  0.00    +0.101 C 
BRANCH  14  15
ATOM     15  N   UNL     1      -2.292   0.462   0.973  0.00  0.00    -0.207 NA
ATOM     16  C   UNL     1      -2.147  -0.464   1.989  0.00  0.00    +0.242 C 
ATOM     17  O   UNL     1      -1.280  -1.349   1.953  0.00  0.00    -0.273 OA
ATOM     18  C   UNL     1      -3.076  -0.587   3.149  0.00  0.00    +0.096 C 
ENDBRANCH  14  15
BRANCH  14  19
ATOM     19  C   UNL     1      -1.625  -1.204  -0.523  0.00  0.00    +0.020 C 
BRANCH  19  21
ATOM     20  C   UNL     1      -3.787  -0.937  -0.528  0.00  0.00    +0.000 C 
ATOM     21  C   UNL     1      -3.141  -1.382  -0.481  0.00  0.00    +0.002 C 
ENDBRANCH  19  21
BRANCH  19  22
ATOM     22  C   UNL     1      -1.342  -1.323  -2.021  0.00  0.00    +0.002 C 
ATOM     23  C   UNL     1      -2.295  -0.314  -2.655  0.00  0.00    +0.000 C 
ENDBRANCH  19  22
ENDBRANCH  14  19
ENDBRANCH   1  14
TORSDOF 7
