REMARK  Name = 
REMARK  3 active torsions:
REMARK  status: ('A' for Active; 'I' for Inactive)
REMARK    1  A    between atoms: N_7  and  C_8
REMARK    2  A    between atoms: C_15  and  C_16
REMARK    3  A    between atoms: N_20  and  C_21
REMARK                            x       y       z     vdW  Elec       q    Type
REMARK                         _______ _______ _______ _____ _____    ______ ____
ROOT
ATOM      1  C   UNL     1      -1.320   0.115  -0.167  0.00  0.00    +0.088 A 
ATOM      2  C   UNL     1      -0.272  -0.609   0.381  0.00  0.00    +0.089 A 
ATOM      3 CL   UNL     1      -0.596  -2.205   0.983  0.00  0.00    -0.079 Cl
ATOM      4  C   UNL     1       1.050  -0.202   0.255  0.00  0.00    +0.075 A 
ATOM      5  C   UNL     1       1.232   1.128  -0.099  0.00  0.00    +0.058 A 
ATOM      6  C   UNL     1       2.509   1.642  -0.116  0.00  0.00    +0.205 A 
ATOM      7  C   UNL     1       3.538   0.723   0.066  0.00  0.00    +0.136 A 
ATOM      8  C   UNL     1       3.284  -0.628  -0.138  0.00  0.00    +0.086 A 
ATOM      9  O   UNL     1       2.666   2.880   0.110  0.00  0.00    -0.286 OA
ATOM     10  C   UNL     1       0.233   1.878  -0.700  0.00  0.00    +0.036 A 
ATOM     11  N   UNL     1       2.034  -1.105   0.022  0.00  0.00    -0.327 N 
ATOM     12  C   UNL     1      -1.047   1.342  -0.760  0.00  0.00    +0.154 A 
ATOM     13  F   UNL     1      -1.862   1.714  -1.778  0.00  0.00    -0.203 F 
ENDROOT
BRANCH   1  17
ATOM     14  N   UNL     1      -5.352  -2.180  -0.736  0.00  0.00    -0.131 NA
ATOM     15  C   UNL     1      -4.784  -1.155   0.311  0.00  0.00    +0.111 C 
ATOM     16  C   UNL     1      -3.527  -0.754  -0.665  0.00  0.00    +0.110 C 
ATOM     17  N   UNL     1      -2.662  -0.067   0.278  0.00  0.00    -0.304 N 
ATOM     18  C   UNL     1      -2.987   0.771   1.411  0.00  0.00    +0.091 C 
ATOM     19  C   UNL     1      -4.322   1.430   1.317  0.00  0.00    +0.021 C 
ATOM     20  C   UNL     1      -4.995   1.334  -0.007  0.00  0.00    +0.003 C 
ATOM     21  C   UNL     1      -5.718   0.059  -0.273  0.00  0.00    +0.021 C 
ENDBRANCH   1  17
BRANCH   7  22
ATOM     22  C   UNL     1       4.870   1.204   0.436  0.00  0.00    +0.392 C 
ATOM     23  O   UNL     1       5.481   0.550   1.509  0.00  0.00    -0.240 OA
ATOM     24  O   UNL     1       5.653   1.546  -0.502  0.00  0.00    -0.240 OA
ENDBRANCH   7  22
BRANCH  11  25
ATOM     25  C   UNL     1       1.728  -2.502   0.221  0.00  0.00    +0.086 C 
ATOM     26  C   UNL     1       2.930  -3.420   0.489  0.00  0.00    +0.024 C 
ATOM     27  C   UNL     1       2.236  -3.487  -0.868  0.00  0.00    +0.024 C 
ENDBRANCH  11  25
TORSDOF 3
