REMARK  Name = 
REMARK  9 active torsions:
REMARK  status: ('A' for Active; 'I' for Inactive)
REMARK    1  A    between atoms: C_2  and  C_3
REMARK    2  A    between atoms: C_3  and  C_4
REMARK    3  A    between atoms: C_4  and  C_5
REMARK    4  A    between atoms: C_5  and  C_6
REMARK    5  A    between atoms: C_5  and  C_8
REMARK    6  A    between atoms: C_8  and  O_9
REMARK    7  A    between atoms: O_9  and  C_10
REMARK    8  A    between atoms: C_10  and  C_12
REMARK    9  A    between atoms: C_15  and  N_16
REMARK                            x       y       z     vdW  Elec       q    Type
REMARK                         _______ _______ _______ _____ _____    ______ ____
ROOT
ATOM      1  C   UNL     1      -0.102  -0.888  -0.157  0.00  0.00    +0.341 C 
ATOM      2  O   UNL     1      -0.211  -1.708  -1.088  0.00  0.00    -0.245 OA
ENDROOT
BRANCH   1   3
ATOM      3  C   UNL     1      -1.342  -0.243   0.282  0.00  0.00    +0.076 A 
ATOM      4  C   UNL     1      -2.379  -1.010   0.752  0.00  0.00    +0.008 A 
ATOM      5  C   UNL     1      -3.680  -0.545   0.740  0.00  0.00    +0.015 A 
ATOM      6  C   UNL     1      -3.935   0.671   0.134  0.00  0.00    +0.048 A 
ATOM      7  C   UNL     1      -2.899   1.454  -0.331  0.00  0.00    +0.015 A 
ATOM      8  C   UNL     1      -1.612   0.991  -0.296  0.00  0.00    +0.008 A 
BRANCH   6   9
ATOM      9  N   UNL     1      -5.266   1.188   0.196  0.00  0.00    -0.304 N 
ATOM     10  C   UNL     1      -6.427   0.338   0.176  0.00  0.00    +0.112 C 
ATOM     11  C   UNL     1      -5.373   2.586   0.553  0.00  0.00    +0.112 C 
ENDBRANCH   6   9
ENDBRANCH   1   3
BRANCH   1  12
ATOM     12  O   UNL     1       1.103  -0.760   0.491  0.00  0.00    -0.445 OA
BRANCH  12  13
ATOM     13  C   UNL     1       2.230  -1.462   0.005  0.00  0.00    +0.209 C 
BRANCH  13  14
ATOM     14  C   UNL     1       3.474  -0.637   0.708  0.00  0.00    +0.044 C 
BRANCH  14  15
ATOM     15  C   UNL     1       4.264  -2.031   1.101  0.00  0.00    +0.004 C 
ATOM     16  C   UNL     1       3.244  -2.894   1.790  0.00  0.00    +0.000 C 
ENDBRANCH  14  15
BRANCH  14  17
ATOM     17  C   UNL     1       4.277  -0.518  -0.727  0.00  0.00    +0.004 C 
BRANCH  17  18
ATOM     18  C   UNL     1       5.165   0.683  -0.555  0.00  0.00    +0.000 C 
BRANCH  18  20
ATOM     19  C   UNL     1       5.172   2.942   0.287  0.00  0.00    +0.000 C 
ATOM     20  C   UNL     1       4.299   1.843  -0.083  0.00  0.00    +0.000 C 
ENDBRANCH  18  20
ENDBRANCH  17  18
ENDBRANCH  14  17
ENDBRANCH  13  14
ENDBRANCH  12  13
ENDBRANCH   1  12
TORSDOF 9
