REMARK  Name = 
REMARK  7 active torsions:
REMARK  status: ('A' for Active; 'I' for Inactive)
REMARK    1  A    between atoms: C_7  and  O_8
REMARK    2  A    between atoms: O_8  and  C_9
REMARK    3  A    between atoms: C_9  and  C_10
REMARK    4  A    between atoms: C_10  and  C_11
REMARK    5  A    between atoms: C_11  and  C_12
REMARK    6  A    between atoms: C_12  and  C_13
REMARK    7  A    between atoms: N_17  and  C_18
REMARK                            x       y       z     vdW  Elec       q    Type
REMARK                         _______ _______ _______ _____ _____    ______ ____
ROOT
ATOM      1  C   UNL     1       1.049  -2.168   0.744  0.00  0.00    +0.048 C 
ENDROOT
BRANCH   1   2
ATOM      2  C   UNL     1      -0.184  -2.094  -0.112  0.00  0.00    +0.205 C 
BRANCH   2   3
ATOM      3  O   UNL     1      -1.254  -1.617   0.664  0.00  0.00    -0.475 OA
BRANCH   3  10
ATOM      4  O   UNL     1      -5.377   3.128  -1.499  0.00  0.00    -0.273 OA
ATOM      5  C   UNL     1      -5.591   1.964  -1.049  0.00  0.00    +0.246 C 
ATOM      6  N   UNL     1      -5.253   0.786  -1.789  0.00  0.00    -0.180 NA
ATOM      7  C   UNL     1      -4.709  -0.326  -1.069  0.00  0.00    +0.070 A 
ATOM      8  C   UNL     1      -4.484  -0.106   0.285  0.00  0.00    -0.003 A 
ATOM      9  C   UNL     1      -3.511  -0.869   0.918  0.00  0.00    +0.034 A 
ATOM     10  C   UNL     1      -2.580  -1.606   0.219  0.00  0.00    +0.138 A 
ATOM     11  C   UNL     1      -2.926  -1.972  -1.073  0.00  0.00    +0.038 A 
ATOM     12  C   UNL     1      -5.555   0.592   1.030  0.00  0.00    +0.037 C 
ATOM     13  C   UNL     1      -3.989  -1.330  -1.698  0.00  0.00    +0.019 A 
ATOM     14  C   UNL     1      -6.008   1.864   0.373  0.00  0.00    +0.092 C 
ENDBRANCH   3  10
ENDBRANCH   2   3
ENDBRANCH   1   2
BRANCH   1  15
ATOM     15  C   UNL     1       0.954  -1.321   1.988  0.00  0.00    +0.012 C 
BRANCH  15  16
ATOM     16  C   UNL     1       1.937  -0.183   1.980  0.00  0.00    +0.068 C 
BRANCH  16  17
ATOM     17  C   UNL     1       2.202   0.327   0.600  0.00  0.00    +0.161 A 
ATOM     18  N   UNL     1       3.342   0.230  -0.124  0.00  0.00    -0.219 N 
ATOM     19  N   UNL     1       3.330   1.258  -0.960  0.00  0.00    -0.043 NA
ATOM     20  N   UNL     1       2.255   1.995  -0.796  0.00  0.00    -0.023 NA
ATOM     21  N   UNL     1       1.457   1.280  -0.009  0.00  0.00    -0.113 NA
BRANCH  18  22
ATOM     22  C   UNL     1       4.477  -0.546   0.356  0.00  0.00    +0.108 C 
ATOM     23  C   UNL     1       5.361  -1.032  -0.751  0.00  0.00    +0.024 C 
ATOM     24  C   UNL     1       6.459  -0.075  -1.117  0.00  0.00    +0.002 C 
ATOM     25  C   UNL     1       7.210   0.440   0.106  0.00  0.00    +0.000 C 
ATOM     26  C   UNL     1       6.178   1.215   0.918  0.00  0.00    +0.002 C 
ATOM     27  C   UNL     1       5.211   0.167   1.455  0.00  0.00    +0.024 C 
ENDBRANCH  18  22
ENDBRANCH  16  17
ENDBRANCH  15  16
ENDBRANCH   1  15
TORSDOF 7
