REMARK  Name = 
REMARK  3 active torsions:
REMARK  status: ('A' for Active; 'I' for Inactive)
REMARK    1  A    between atoms: N_2  and  C_3
REMARK    2  A    between atoms: C_3  and  C_5
REMARK    3  A    between atoms: C_5  and  C_6
REMARK                            x       y       z     vdW  Elec       q    Type
REMARK                         _______ _______ _______ _____ _____    ______ ____
ROOT
ATOM      1  C   UNL     1      -0.497  -0.353   0.184  0.00  0.00    +0.001 C 
ATOM      2  C   UNL     1      -1.216   0.299   1.310  0.00  0.00    +0.000 C 
ATOM      3  C   UNL     1      -2.431   1.066   0.879  0.00  0.00    +0.000 C 
ATOM      4  C   UNL     1      -3.348   0.105   0.183  0.00  0.00    +0.000 C 
ATOM      5  C   UNL     1      -2.711  -0.412  -1.053  0.00  0.00    +0.000 C 
ATOM      6  C   UNL     1      -1.257  -0.606  -1.048  0.00  0.00    +0.000 C 
ENDROOT
BRANCH   1   7
ATOM      7  C   UNL     1       0.798   0.359  -0.191  0.00  0.00    +0.017 C 
BRANCH   7   8
ATOM      8  C   UNL     1       1.881  -0.851   0.033  0.00  0.00    +0.073 C 
ATOM      9  C   UNL     1       2.036  -1.101  -1.579  0.00  0.00    +0.019 C 
BRANCH   8  11
ATOM     10  C   UNL     1       3.655   0.055   1.224  0.00  0.00    +0.107 C 
ATOM     11  N   UNL     1       3.090   0.151   0.057  0.00  0.00    -0.218 NA
ENDBRANCH   8  11
ENDBRANCH   7   8
ENDBRANCH   1   7
TORSDOF 3
