REMARK  Name = 
REMARK  11 active torsions:
REMARK  status: ('A' for Active; 'I' for Inactive)
REMARK    1  A    between atoms: C_2  and  O_4
REMARK    2  A    between atoms: O_4  and  C_5
REMARK    3  A    between atoms: C_5  and  C_7
REMARK    4  A    between atoms: C_7  and  N_9
REMARK    5  A    between atoms: N_9  and  P_10
REMARK    6  A    between atoms: P_10  and  O_12
REMARK    7  A    between atoms: P_10  and  O_30
REMARK    8  A    between atoms: O_12  and  C_13
REMARK    9  A    between atoms: C_13  and  C_14
REMARK   10  A    between atoms: C_16  and  N_17
REMARK   11  A    between atoms: O_30  and  C_31
REMARK                            x       y       z     vdW  Elec       q    Type
REMARK                         _______ _______ _______ _____ _____    ______ ____
ROOT
ATOM      1  P   UNL     1      -1.722   0.868  -0.309  0.00  0.00    +0.480 P 
ATOM      2  O   UNL     1      -1.044   1.488  -1.524  0.00  0.00    -0.227 OA
ENDROOT
BRANCH   1   3
ATOM      3  N   UNL     1      -3.008  -0.208  -0.803  0.00  0.00    -0.101 NA
BRANCH   3   4
ATOM      4  C   UNL     1      -3.098  -1.178   0.438  0.00  0.00    +0.183 C 
ATOM      5  C   UNL     1      -4.331  -0.321   1.113  0.00  0.00    +0.031 C 
BRANCH   4   6
ATOM      6  C   UNL     1      -4.100  -2.201  -0.304  0.00  0.00    +0.333 C 
ATOM      7  O   UNL     1      -5.037  -1.746  -0.934  0.00  0.00    -0.249 OA
BRANCH   6   8
ATOM      8  O   UNL     1      -4.229  -3.312   0.531  0.00  0.00    -0.451 OA
BRANCH   8  10
ATOM      9  C   UNL     1      -5.440  -4.220  -0.269  0.00  0.00    +0.047 C 
ATOM     10  C   UNL     1      -5.335  -4.179   0.279  0.00  0.00    +0.169 C 
ATOM     11  C   UNL     1      -6.439  -3.760   1.246  0.00  0.00    +0.047 C 
ENDBRANCH   8  10
ENDBRANCH   6   8
ENDBRANCH   4   6
ENDBRANCH   3   4
ENDBRANCH   1   3
BRANCH   1  12
ATOM     12  O   UNL     1      -0.481   0.044   0.500  0.00  0.00    -0.270 OA
BRANCH  12  13
ATOM     13  C   UNL     1      -0.226  -1.095  -0.164  0.00  0.00    +0.186 C 
BRANCH  13  14
ATOM     14  C   UNL     1       1.273  -1.016  -0.822  0.00  0.00    +0.180 C 
ATOM     15  C   UNL     1       1.606  -2.557  -0.132  0.00  0.00    +0.215 C 
ATOM     16  O   UNL     1       2.188  -3.013  -1.452  0.00  0.00    -0.217 OA
ATOM     17  C   UNL     1       3.038  -2.121   0.535  0.00  0.00    +0.209 C 
ATOM     18  F   UNL     1       3.761  -3.117   0.172  0.00  0.00    -0.233 F 
ATOM     19  C   UNL     1       2.789  -1.802   1.921  0.00  0.00    +0.043 C 
ATOM     20  C   UNL     1       3.217  -0.757  -0.346  0.00  0.00    +0.241 C 
ATOM     21  O   UNL     1       1.913  -0.266   0.325  0.00  0.00    -0.331 OA
BRANCH  20  22
ATOM     22  N   UNL     1       4.176   0.012   0.680  0.00  0.00    -0.253 N 
ATOM     23  C   UNL     1       5.433  -0.478   0.560  0.00  0.00    +0.355 A 
ATOM     24  O   UNL     1       5.712  -1.672   0.639  0.00  0.00    -0.244 OA
ATOM     25  N   UNL     1       6.535   0.277   0.334  0.00  0.00    -0.153 NA
ATOM     26  C   UNL     1       6.400   1.470  -0.292  0.00  0.00    +0.285 A 
ATOM     27  O   UNL     1       7.188   1.861  -1.187  0.00  0.00    -0.265 OA
ATOM     28  C   UNL     1       5.230   2.108   0.064  0.00  0.00    +0.081 A 
ATOM     29  C   UNL     1       4.125   1.339   0.392  0.00  0.00    +0.087 A 
ENDBRANCH  20  22
ENDBRANCH  13  14
ENDBRANCH  12  13
ENDBRANCH   1  12
BRANCH   1  30
ATOM     30  O   UNL     1      -2.421   2.079   0.660  0.00  0.00    -0.411 OA
BRANCH  30  31
ATOM     31  C   UNL     1      -2.692   3.324   0.088  0.00  0.00    +0.148 A 
ATOM     32  C   UNL     1      -1.687   4.022  -0.543  0.00  0.00    +0.037 A 
ATOM     33  C   UNL     1      -1.987   5.274  -1.044  0.00  0.00    +0.003 A 
ATOM     34  C   UNL     1      -3.242   5.810  -0.845  0.00  0.00    +0.000 A 
ATOM     35  C   UNL     1      -4.230   5.070  -0.209  0.00  0.00    +0.003 A 
ATOM     36  C   UNL     1      -3.834   3.972   0.545  0.00  0.00    +0.037 A 
ENDBRANCH  30  31
ENDBRANCH   1  30
TORSDOF 11
