REMARK  Name = 
REMARK  5 active torsions:
REMARK  status: ('A' for Active; 'I' for Inactive)
REMARK    1  A    between atoms: N_2  and  C_3
REMARK    2  A    between atoms: N_2  and  C_12
REMARK    3  A    between atoms: C_3  and  C_4
REMARK    4  A    between atoms: C_5  and  C_6
REMARK    5  A    between atoms: C_12  and  C_13
REMARK                            x       y       z     vdW  Elec       q    Type
REMARK                         _______ _______ _______ _____ _____    ______ ____
ROOT
ATOM      1  C   UNL     1       0.214   1.326   1.644  0.00  0.00    +0.090 C 
ATOM      2  N   UNL     1       0.145   1.751   0.270  0.00  0.00    -0.264 NA
ENDROOT
BRANCH   2   3
ATOM      3  C   UNL     1      -0.840   1.053  -0.508  0.00  0.00    +0.099 C 
BRANCH   3   4
ATOM      4  C   UNL     1      -2.171   0.982   0.147  0.00  0.00    -0.006 A 
ATOM      5  C   UNL     1      -2.763  -0.265   0.305  0.00  0.00    -0.003 A 
ATOM      6  C   UNL     1      -4.119  -0.472   0.105  0.00  0.00    -0.000 A 
ATOM      7  C   UNL     1      -4.627  -1.766   0.117  0.00  0.00    -0.000 A 
ATOM      8  C   UNL     1      -3.686  -2.774  -0.057  0.00  0.00    -0.000 A 
ATOM      9  C   UNL     1      -2.401  -2.639   0.446  0.00  0.00    -0.000 A 
ATOM     10  C   UNL     1      -4.953   0.620   0.312  0.00  0.00    -0.000 A 
ATOM     11  C   UNL     1      -4.431   1.865   0.037  0.00  0.00    -0.000 A 
ATOM     12  C   UNL     1      -1.959  -1.335   0.635  0.00  0.00    -0.000 A 
ATOM     13  C   UNL     1      -3.056   2.037  -0.043  0.00  0.00    -0.003 A 
ENDBRANCH   3   4
ENDBRANCH   2   3
BRANCH   2  14
ATOM     14  C   UNL     1       1.436   1.498  -0.368  0.00  0.00    +0.099 C 
BRANCH  14  15
ATOM     15  C   UNL     1       1.381   0.077  -0.837  0.00  0.00    -0.009 C 
ATOM     16  C   UNL     1       2.172  -0.755  -0.156  0.00  0.00    -0.003 C 
BRANCH  16  17
ATOM     17  C   UNL     1       3.590  -0.370  -0.166  0.00  0.00    -0.000 A 
ATOM     18  C   UNL     1       4.404  -0.469   0.929  0.00  0.00    -0.000 A 
ATOM     19  C   UNL     1       5.774  -0.331   0.758  0.00  0.00    -0.000 A 
ATOM     20  C   UNL     1       6.261   0.125  -0.458  0.00  0.00    -0.000 A 
ATOM     21  C   UNL     1       5.456   0.162  -1.577  0.00  0.00    -0.000 A 
ATOM     22  C   UNL     1       4.173  -0.321  -1.427  0.00  0.00    -0.000 A 
ENDBRANCH  16  17
ENDBRANCH  14  15
ENDBRANCH   2  14
TORSDOF 5
