REMARK  Name = 
REMARK  1 active torsions:
REMARK  status: ('A' for Active; 'I' for Inactive)
REMARK    1  A    between atoms: N_10  and  C_11
REMARK                            x       y       z     vdW  Elec       q    Type
REMARK                         _______ _______ _______ _____ _____    ______ ____
ROOT
ATOM      1  C   UNL     1      -3.396  -0.908   1.556  0.00  0.00    +0.120 C 
ATOM      2  N   UNL     1      -2.541  -0.883   0.372  0.00  0.00    -0.255 N 
ATOM      3  C   UNL     1      -2.056  -2.170  -0.022  0.00  0.00    +0.239 C 
ATOM      4  O   UNL     1      -2.596  -3.191   0.493  0.00  0.00    -0.274 OA
ATOM      5  C   UNL     1      -1.097  -2.542  -1.108  0.00  0.00    +0.171 C 
ATOM      6  C   UNL     1       0.211  -1.847  -0.939  0.00  0.00    +0.242 C 
ATOM      7  O   UNL     1       1.196  -2.516  -1.366  0.00  0.00    -0.274 OA
ATOM      8  N   UNL     1       0.465  -0.458  -0.716  0.00  0.00    -0.236 N 
ATOM      9  C   UNL     1      -0.492   0.507  -0.268  0.00  0.00    +0.073 A 
ATOM     10  C   UNL     1       0.065   1.763  -0.270  0.00  0.00    +0.028 A 
ATOM     11  C   UNL     1      -0.811   2.837  -0.196  0.00  0.00    +0.059 A 
ATOM     12 CL   UNL     1      -0.400   4.389  -0.920  0.00  0.00    -0.082 Cl
ATOM     13  C   UNL     1      -2.015   2.639   0.464  0.00  0.00    +0.013 A 
ATOM     14  C   UNL     1      -2.577   1.376   0.604  0.00  0.00    +0.017 A 
ATOM     15  C   UNL     1      -1.806   0.325   0.147  0.00  0.00    +0.068 A 
ENDROOT
BRANCH   8  16
ATOM     16  C   UNL     1       1.795  -0.184  -0.254  0.00  0.00    +0.058 A 
ATOM     17  C   UNL     1       2.219  -0.918   0.848  0.00  0.00    +0.015 A 
ATOM     18  C   UNL     1       3.372  -0.565   1.536  0.00  0.00    +0.001 A 
ATOM     19  C   UNL     1       4.044   0.541   1.058  0.00  0.00    +0.000 A 
ATOM     20  C   UNL     1       3.843   0.994  -0.241  0.00  0.00    +0.001 A 
ATOM     21  C   UNL     1       2.578   0.814  -0.776  0.00  0.00    +0.015 A 
ENDBRANCH   8  16
TORSDOF 1
