REMARK  Name = 
REMARK  5 active torsions:
REMARK  status: ('A' for Active; 'I' for Inactive)
REMARK    1  A    between atoms: C_2  and  C_3
REMARK    2  A    between atoms: C_5  and  O_6
REMARK    3  A    between atoms: O_6  and  C_7
REMARK    4  A    between atoms: C_12  and  C_13
REMARK    5  A    between atoms: C_14  and  C_15
REMARK                            x       y       z     vdW  Elec       q    Type
REMARK                         _______ _______ _______ _____ _____    ______ ____
ROOT
ATOM      1  C   UNL     1      -1.142   0.694  -0.698  0.00  0.00    +0.145 A 
ATOM      2  C   UNL     1       0.144   0.380  -0.250  0.00  0.00    +0.037 A 
ATOM      3  C   UNL     1       1.237   0.808  -0.999  0.00  0.00    +0.006 A 
ATOM      4  C   UNL     1       0.990   1.326  -2.269  0.00  0.00    +0.042 A 
ATOM      5  C   UNL     1      -0.219   1.071  -2.907  0.00  0.00    +0.199 A 
ATOM      6  O   UNL     1      -0.487   1.657  -4.146  0.00  0.00    -0.286 OA
ATOM      7  C   UNL     1      -1.233   0.650  -2.092  0.00  0.00    +0.079 A 
ENDROOT
BRANCH   3   8
ATOM      8  C   UNL     1       2.618   0.559  -0.636  0.00  0.00    +0.000 C 
ATOM      9  C   UNL     1       3.570   0.488  -1.559  0.00  0.00    +0.000 C 
BRANCH   9  10
ATOM     10  C   UNL     1       4.907   0.089  -1.206  0.00  0.00    +0.000 A 
ATOM     11  C   UNL     1       5.671   0.933  -0.418  0.00  0.00    +0.003 A 
ATOM     12  C   UNL     1       6.607   0.400   0.464  0.00  0.00    +0.042 A 
ATOM     13  C   UNL     1       6.762  -0.968   0.578  0.00  0.00    +0.196 A 
ATOM     14  O   UNL     1       7.416  -1.583   1.621  0.00  0.00    -0.287 OA
ATOM     15  C   UNL     1       6.268  -1.726  -0.476  0.00  0.00    +0.042 A 
ATOM     16  C   UNL     1       5.421  -1.178  -1.433  0.00  0.00    +0.003 A 
ENDBRANCH   9  10
ENDBRANCH   3   8
BRANCH   1  17
ATOM     17  O   UNL     1      -2.223   0.045  -0.109  0.00  0.00    -0.450 OA
BRANCH  17  25
ATOM     18  C   UNL     1      -3.276  -1.690   1.834  0.00  0.00    +0.185 C 
ATOM     19  C   UNL     1      -4.952  -1.383   2.103  0.00  0.00    +0.215 C 
ATOM     20  O   UNL     1      -4.790  -1.609   3.574  0.00  0.00    -0.218 OA
ATOM     21  C   UNL     1      -4.867   0.293   2.313  0.00  0.00    +0.221 C 
ATOM     22  O   UNL     1      -6.332   0.426   2.022  0.00  0.00    -0.217 OA
ATOM     23  C   UNL     1      -4.494   0.483   0.668  0.00  0.00    +0.254 C 
ATOM     24  O   UNL     1      -4.786   1.944   0.736  0.00  0.00    -0.213 OA
ATOM     25  C   UNL     1      -2.848   0.765   1.113  0.00  0.00    +0.322 C 
ATOM     26  O   UNL     1      -2.720  -0.358   2.061  0.00  0.00    -0.316 OA
BRANCH  18  28
ATOM     27  O   UNL     1      -3.716  -2.193  -0.093  0.00  0.00    -0.218 OA
ATOM     28  C   UNL     1      -3.523  -1.754   0.204  0.00  0.00    +0.214 C 
ENDBRANCH  18  28
ENDBRANCH  17  25
ENDBRANCH   1  17
TORSDOF 5
