REMARK  Name = 
REMARK  9 active torsions:
REMARK  status: ('A' for Active; 'I' for Inactive)
REMARK    1  A    between atoms: O_2  and  C_3
REMARK    2  A    between atoms: C_8  and  O_9
REMARK    3  A    between atoms: O_9  and  C_10
REMARK    4  A    between atoms: C_10  and  C_11
REMARK    5  A    between atoms: C_11  and  C_13
REMARK    6  A    between atoms: C_13  and  N_14
REMARK    7  A    between atoms: N_17  and  C_18
REMARK    8  A    between atoms: C_18  and  C_19
REMARK    9  A    between atoms: N_21  and  C_22
REMARK                            x       y       z     vdW  Elec       q    Type
REMARK                         _______ _______ _______ _____ _____    ______ ____
ROOT
ATOM      1  N   UNL     1      -0.662   0.127   0.918  0.00  0.00    -0.268 NA
ATOM      2  C   UNL     1      -0.174   0.887  -0.156  0.00  0.00    +0.090 C 
ATOM      3  C   UNL     1       1.272   0.518  -0.462  0.00  0.00    +0.090 C 
ATOM      4  N   UNL     1       1.469  -0.928  -0.373  0.00  0.00    -0.263 NA
ATOM      5  C   UNL     1       0.188  -1.626  -0.444  0.00  0.00    +0.090 C 
ATOM      6  C   UNL     1      -0.537  -1.283   0.852  0.00  0.00    +0.090 C 
ENDROOT
BRANCH   4   7
ATOM      7  C   UNL     1       1.959  -1.175   0.983  0.00  0.00    +0.161 C 
BRANCH   7   8
ATOM      8  C   UNL     1       3.328  -0.578   1.074  0.00  0.00    +0.262 C 
ATOM      9  N   UNL     1       4.227  -0.955   0.031  0.00  0.00    -0.179 NA
ATOM     10  O   UNL     1       3.383   0.619   1.449  0.00  0.00    -0.271 OA
BRANCH   9  11
ATOM     11  C   UNL     1       5.384  -0.202  -0.310  0.00  0.00    +0.065 A 
ATOM     12  C   UNL     1       6.555  -0.474   0.361  0.00  0.00    -0.007 A 
ATOM     13  C   UNL     1       6.609  -1.525   1.412  0.00  0.00    +0.032 C 
ATOM     14  C   UNL     1       7.709   0.181  -0.043  0.00  0.00    -0.003 A 
ATOM     15  C   UNL     1       7.604   1.191  -0.988  0.00  0.00    -0.001 A 
ATOM     16  C   UNL     1       6.438   1.364  -1.708  0.00  0.00    -0.003 A 
ATOM     17  C   UNL     1       5.389   0.490  -1.515  0.00  0.00    -0.007 A 
ATOM     18  C   UNL     1       4.469   0.133  -2.640  0.00  0.00    +0.032 C 
ENDBRANCH   9  11
ENDBRANCH   7   8
ENDBRANCH   4   7
BRANCH   1  19
ATOM     19  C   UNL     1      -1.392   0.710   1.935  0.00  0.00    +0.109 C 
BRANCH  19  20
ATOM     20  C   UNL     1      -2.919   1.077   1.397  0.00  0.00    +0.211 C 
ATOM     21  O   UNL     1      -2.378   2.130   0.426  0.00  0.00    -0.218 OA
BRANCH  20  22
ATOM     22  C   UNL     1      -2.916  -0.098   0.219  0.00  0.00    +0.240 C 
BRANCH  22  23
ATOM     23  O   UNL     1      -4.159  -0.736   0.343  0.00  0.00    -0.470 OA
BRANCH  23  25
ATOM     24  C   UNL     1      -6.508  -0.485   0.449  0.00  0.00    +0.172 A 
ATOM     25  C   UNL     1      -5.293  -0.086  -0.095  0.00  0.00    +0.172 A 
ATOM     26  C   UNL     1      -5.229   1.136  -0.747  0.00  0.00    +0.040 A 
ATOM     27  C   UNL     1      -6.277   2.036  -0.607  0.00  0.00    +0.003 A 
ATOM     28  C   UNL     1      -7.380   1.732   0.164  0.00  0.00    +0.003 A 
ATOM     29  C   UNL     1      -7.541   0.437   0.574  0.00  0.00    +0.040 A 
BRANCH  24  31
ATOM     30  C   UNL     1      -5.936  -2.776   0.194  0.00  0.00    +0.253 C 
ATOM     31  O   UNL     1      -6.683  -1.839   0.732  0.00  0.00    -0.468 OA
ENDBRANCH  24  31
ENDBRANCH  23  25
ENDBRANCH  22  23
ENDBRANCH  20  22
ENDBRANCH  19  20
ENDBRANCH   1  19
TORSDOF 9
