REMARK  Name = 
REMARK  3 active torsions:
REMARK  status: ('A' for Active; 'I' for Inactive)
REMARK    1  A    between atoms: C_6  and  N_7
REMARK    2  A    between atoms: C_9  and  C_10
REMARK    3  A    between atoms: C_10  and  C_11
REMARK                            x       y       z     vdW  Elec       q    Type
REMARK                         _______ _______ _______ _____ _____    ______ ____
ROOT
ATOM      1  N   UNL     1       1.206   1.224   0.006  0.00  0.00    -0.219 N 
ATOM      2  C   UNL     1       0.845   0.859   1.264  0.00  0.00    +0.276 A 
ATOM      3  O   UNL     1       1.431   1.346   2.278  0.00  0.00    -0.266 OA
ATOM      4  C   UNL     1      -0.149  -0.076   1.533  0.00  0.00    +0.059 A 
ATOM      5  C   UNL     1      -0.734  -0.643   0.407  0.00  0.00    +0.020 A 
ATOM      6  C   UNL     1      -1.174  -1.960   0.425  0.00  0.00    +0.001 A 
ATOM      7  C   UNL     1      -0.887  -2.805   1.491  0.00  0.00    +0.000 A 
ATOM      8  C   UNL     1      -0.279  -2.266   2.593  0.00  0.00    +0.000 A 
ATOM      9  C   UNL     1      -0.594   0.086  -0.767  0.00  0.00    +0.083 A 
ATOM     10  C   UNL     1      -0.112  -0.889   2.662  0.00  0.00    +0.005 A 
ATOM     11  N   UNL     1       0.609   0.671  -1.006  0.00  0.00    -0.171 NA
ENDROOT
BRANCH   1  16
ATOM     12  C   UNL     1       5.936  -0.229  -0.940  0.00  0.00    +0.090 C 
ATOM     13  N   UNL     1       5.454   0.381  -0.564  0.00  0.00    -0.271 NA
ATOM     14  C   UNL     1       4.417  -0.127   0.333  0.00  0.00    +0.074 C 
ATOM     15  C   UNL     1       3.127  -0.045  -0.476  0.00  0.00    +0.042 C 
ATOM     16  C   UNL     1       2.753   1.533  -0.138  0.00  0.00    +0.110 C 
ATOM     17  C   UNL     1       2.674   1.916  -1.747  0.00  0.00    +0.026 C 
ATOM     18  C   UNL     1       4.007   1.402  -2.290  0.00  0.00    +0.019 C 
ATOM     19  C   UNL     1       5.079   1.587  -1.236  0.00  0.00    +0.072 C 
ENDBRANCH   1  16
BRANCH   9  20
ATOM     20  C   UNL     1      -1.528  -0.244  -1.857  0.00  0.00    +0.074 C 
BRANCH  20  21
ATOM     21  C   UNL     1      -2.938  -0.195  -1.365  0.00  0.00    -0.016 A 
ATOM     22  C   UNL     1      -3.210   0.635  -0.285  0.00  0.00    -0.003 A 
ATOM     23  C   UNL     1      -4.451   0.553   0.337  0.00  0.00    +0.011 A 
ATOM     24  C   UNL     1      -5.465  -0.218  -0.217  0.00  0.00    +0.058 A 
ATOM     25 CL   UNL     1      -7.139   0.059   0.163  0.00  0.00    -0.082 Cl
ATOM     26  C   UNL     1      -5.074  -1.288  -1.012  0.00  0.00    +0.011 A 
ATOM     27  C   UNL     1      -3.804  -1.269  -1.530  0.00  0.00    -0.003 A 
ENDBRANCH  20  21
ENDBRANCH   9  20
TORSDOF 3
