REMARK  Name = 
REMARK  8 active torsions:
REMARK  status: ('A' for Active; 'I' for Inactive)
REMARK    1  A    between atoms: O_2  and  C_3
REMARK    2  A    between atoms: C_7  and  O_8
REMARK    3  A    between atoms: O_8  and  C_9
REMARK    4  A    between atoms: C_15  and  C_16
REMARK    5  A    between atoms: N_18  and  S_19
REMARK    6  A    between atoms: S_19  and  C_22
REMARK    7  A    between atoms: C_40  and  C_41
REMARK    8  A    between atoms: C_43  and  C_44
REMARK                            x       y       z     vdW  Elec       q    Type
REMARK                         _______ _______ _______ _____ _____    ______ ____
ROOT
ATOM      1  C   UNL     1      -0.270   0.058   0.270  0.00  0.00    +0.167 C 
ATOM      2  C   UNL     1       0.349   1.502  -0.116  0.00  0.00    +0.053 C 
ATOM      3  C   UNL     1      -0.896   2.482   0.182  0.00  0.00    +0.089 C 
ATOM      4  C   UNL     1      -2.198   1.433  -0.199  0.00  0.00    +0.090 C 
ATOM      5  C   UNL     1      -2.275   0.706   1.240  0.00  0.00    +0.242 C 
ATOM      6  N   UNL     1      -3.665   0.753   1.588  0.00  0.00    -0.200 NA
ATOM      7  C   UNL     1      -4.793   0.694   0.821  0.00  0.00    +0.154 C 
ATOM      8  C   UNL     1      -5.719   2.043   1.074  0.00  0.00    +0.051 C 
ATOM      9  C   UNL     1      -4.503   2.949   1.717  0.00  0.00    -0.029 C 
ATOM     10  C   UNL     1      -4.673   4.203   1.327  0.00  0.00    -0.031 C 
ATOM     11  C   UNL     1      -4.700   4.376  -0.164  0.00  0.00    +0.026 C 
ATOM     12  C   UNL     1      -3.455   5.084  -0.648  0.00  0.00    +0.006 C 
ATOM     13  C   UNL     1      -2.309   4.701   0.244  0.00  0.00    +0.022 C 
ATOM     14  C   UNL     1      -0.996   5.290  -0.203  0.00  0.00    +0.093 C 
ATOM     15  N   UNL     1      -0.328   4.420  -1.168  0.00  0.00    -0.278 N 
ATOM     16  C   UNL     1       0.625   4.978  -2.121  0.00  0.00    +0.115 C 
ATOM     17  C   UNL     1      -4.934   1.821  -0.373  0.00  0.00    +0.036 C 
ATOM     18  O   UNL     1      -1.544   1.128   2.152  0.00  0.00    -0.273 OA
ATOM     19  C   UNL     1      -0.907   3.114  -1.298  0.00  0.00    +0.226 C 
ATOM     20  O   UNL     1      -0.554   2.408  -2.243  0.00  0.00    -0.275 OA
ATOM     21  C   UNL     1      -1.310   0.306  -0.961  0.00  0.00    +0.053 C 
ENDROOT
BRANCH   7  22
ATOM     22  C   UNL     1      -5.573  -0.497   0.508  0.00  0.00    +0.280 C 
ATOM     23  N   UNL     1      -4.830  -1.705   0.705  0.00  0.00    -0.062 NA
ATOM     24  O   UNL     1      -6.584  -0.601  -0.195  0.00  0.00    -0.270 OA
BRANCH  23  25
ATOM     25  S   UNL     1      -5.506  -3.268   0.683  0.00  0.00    +0.074 S 
ATOM     26  O   UNL     1      -4.653  -4.131  -0.213  0.00  0.00    -0.153 OA
ATOM     27  O   UNL     1      -5.413  -3.803   2.093  0.00  0.00    -0.153 OA
BRANCH  25  28
ATOM     28  C   UNL     1      -7.187  -3.305   0.143  0.00  0.00    +0.151 C 
ATOM     29  C   UNL     1      -7.623  -4.653  -0.364  0.00  0.00    +0.027 C 
ATOM     30  C   UNL     1      -7.440  -3.488  -1.359  0.00  0.00    +0.027 C 
ENDBRANCH  25  28
ENDBRANCH  23  25
ENDBRANCH   7  22
BRANCH   1  31
ATOM     31  O   UNL     1       0.714  -0.683  -0.654  0.00  0.00    -0.479 OA
BRANCH  31  37
ATOM     32  C   UNL     1       4.123  -4.358  -0.846  0.00  0.00    +0.136 A 
ATOM     33  C   UNL     1       3.881  -3.931   0.461  0.00  0.00    +0.030 A 
ATOM     34  C   UNL     1       4.766  -4.423   1.567  0.00  0.00    +0.036 C 
ATOM     35  C   UNL     1       3.300  -2.697   0.727  0.00  0.00    +0.083 A 
ATOM     36  C   UNL     1       2.397  -2.268  -0.238  0.00  0.00    +0.052 A 
ATOM     37  C   UNL     1       1.935  -0.969  -0.068  0.00  0.00    +0.141 A 
ATOM     38  C   UNL     1       2.706  -0.020   0.600  0.00  0.00    +0.058 A 
ATOM     39  C   UNL     1       3.803  -0.455   1.343  0.00  0.00    +0.108 A 
ATOM     40  C   UNL     1       2.306  -2.872  -1.480  0.00  0.00    +0.008 A 
ATOM     41  N   UNL     1       3.770  -1.790   1.618  0.00  0.00    -0.243 NA
ATOM     42  C   UNL     1       3.268  -3.822  -1.806  0.00  0.00    +0.037 A 
BRANCH  39  43
ATOM     43  C   UNL     1       5.084   0.287   1.307  0.00  0.00    +0.128 A 
ATOM     44  S   UNL     1       6.433  -0.186   2.255  0.00  0.00    -0.065 S 
ATOM     45  C   UNL     1       7.662   0.332   1.173  0.00  0.00    +0.052 A 
ATOM     46  C   UNL     1       6.918   0.919   0.167  0.00  0.00    +0.066 A 
ATOM     47  N   UNL     1       5.635   0.939   0.321  0.00  0.00    -0.241 NA
BRANCH  46  48
ATOM     48  C   UNL     1       7.537   1.712  -0.949  0.00  0.00    +0.041 C 
ATOM     49  C   UNL     1       6.919   3.071  -0.972  0.00  0.00    +0.006 C 
ATOM     50  C   UNL     1       9.031   1.782  -0.761  0.00  0.00    +0.006 C 
ENDBRANCH  46  48
ENDBRANCH  39  43
BRANCH  32  52
ATOM     51  C   UNL     1       6.309  -4.697  -1.261  0.00  0.00    +0.252 C 
ATOM     52  O   UNL     1       5.369  -4.871  -1.226  0.00  0.00    -0.472 OA
ENDBRANCH  32  52
ENDBRANCH  31  37
ENDBRANCH   1  31
TORSDOF 8
