REMARK  Name = 
REMARK  4 active torsions:
REMARK  status: ('A' for Active; 'I' for Inactive)
REMARK    1  A    between atoms: C_2  and  C_3
REMARK    2  A    between atoms: C_2  and  C_21
REMARK    3  A    between atoms: C_5  and  C_6
REMARK    4  A    between atoms: C_16  and  C_17
REMARK                            x       y       z     vdW  Elec       q    Type
REMARK                         _______ _______ _______ _____ _____    ______ ____
ROOT
ATOM      1  C   UNL     1       0.696   0.106  -0.319  0.00  0.00    +0.012 A 
ATOM      2  C   UNL     1      -0.146  -0.832   0.209  0.00  0.00    +0.016 A 
ATOM      3  C   UNL     1       0.322  -1.729   1.129  0.00  0.00    +0.001 A 
ATOM      4  C   UNL     1      -0.628  -2.379   1.909  0.00  0.00    +0.000 A 
ATOM      5  C   UNL     1      -1.985  -2.314   1.611  0.00  0.00    +0.005 A 
ATOM      6  C   UNL     1      -2.412  -1.421   0.649  0.00  0.00    +0.089 A 
ATOM      7  C   UNL     1      -1.501  -0.578   0.048  0.00  0.00    +0.085 A 
ATOM      8  N   UNL     1      -1.926   0.656  -0.326  0.00  0.00    -0.241 NA
ATOM      9  C   UNL     1      -1.023   1.660  -0.442  0.00  0.00    +0.152 A 
ATOM     10  C   UNL     1       0.298   1.323  -0.725  0.00  0.00    +0.021 A 
ENDROOT
BRANCH   6  11
ATOM     11  C   UNL     1      -3.724  -1.565  -0.055  0.00  0.00    +0.420 C 
ATOM     12  F   UNL     1      -3.704  -2.849  -0.594  0.00  0.00    -0.166 F 
ATOM     13  F   UNL     1      -4.778  -1.428   0.829  0.00  0.00    -0.166 F 
ATOM     14  F   UNL     1      -3.852  -0.680  -1.080  0.00  0.00    -0.166 F 
ENDBRANCH   6  11
BRANCH   9  15
ATOM     15  C   UNL     1      -1.360   3.083  -0.132  0.00  0.00    +0.435 C 
ATOM     16  F   UNL     1      -0.234   3.797   0.226  0.00  0.00    -0.164 F 
ATOM     17  F   UNL     1      -2.226   3.115   0.927  0.00  0.00    -0.164 F 
ATOM     18  F   UNL     1      -1.938   3.705  -1.202  0.00  0.00    -0.164 F 
ENDBRANCH   9  15
BRANCH   1  20
ATOM     19  O   UNL     1       2.253   0.400  -1.988  0.00  0.00    -0.217 OA
ATOM     20  C   UNL     1       2.136  -0.485  -0.748  0.00  0.00    +0.190 C 
BRANCH  20  21
ATOM     21  C   UNL     1       2.994   0.648   0.253  0.00  0.00    +0.107 C 
ATOM     22  N   UNL     1       3.591  -0.519   1.106  0.00  0.00    -0.217 NA
ATOM     23  C   UNL     1       5.002  -0.539   1.031  0.00  0.00    +0.089 C 
ATOM     24  C   UNL     1       5.355  -1.316  -0.237  0.00  0.00    +0.019 C 
ATOM     25  C   UNL     1       4.526  -0.616  -1.310  0.00  0.00    +0.003 C 
ATOM     26  C   UNL     1       4.266   0.757  -0.769  0.00  0.00    +0.020 C 
ENDBRANCH  20  21
ENDBRANCH   1  20
TORSDOF 4
