REMARK  Name = 
REMARK  2 active torsions:
REMARK  status: ('A' for Active; 'I' for Inactive)
REMARK    1  A    between atoms: C_7  and  C_8
REMARK    2  A    between atoms: C_8  and  N_9
REMARK                            x       y       z     vdW  Elec       q    Type
REMARK                         _______ _______ _______ _____ _____    ______ ____
ROOT
ATOM      1  N   UNL     1       0.253   0.127  -0.374  0.00  0.00    -0.265 NA
ATOM      2  C   UNL     1       1.161  -0.229   0.658  0.00  0.00    +0.100 C 
ATOM      3  C   UNL     1       2.592  -0.004   0.315  0.00  0.00    -0.004 A 
ATOM      4  C   UNL     1       2.987   0.778  -0.764  0.00  0.00    +0.006 A 
ATOM      5  S   UNL     1       4.589   0.198  -0.993  0.00  0.00    -0.091 S 
ATOM      6  C   UNL     1       4.750  -0.725   0.448  0.00  0.00    +0.035 A 
ATOM      7  C   UNL     1       1.927   1.339  -1.661  0.00  0.00    +0.050 C 
ATOM      8  C   UNL     1       3.669  -0.224   1.164  0.00  0.00    +0.004 A 
ATOM      9  C   UNL     1       0.819   0.293  -1.682  0.00  0.00    +0.078 C 
ENDROOT
BRANCH   1  10
ATOM     10  C   UNL     1      -0.769  -0.891  -0.469  0.00  0.00    +0.100 C 
BRANCH  10  13
ATOM     11 CL   UNL     1      -1.750   2.011  -0.423  0.00  0.00    -0.083 Cl
ATOM     12  C   UNL     1      -2.603   0.661   0.267  0.00  0.00    +0.055 A 
ATOM     13  C   UNL     1      -1.969  -0.571   0.365  0.00  0.00    +0.004 A 
ATOM     14  C   UNL     1      -2.763  -1.603   0.851  0.00  0.00    -0.002 A 
ATOM     15  C   UNL     1      -4.144  -1.566   0.805  0.00  0.00    -0.000 A 
ATOM     16  C   UNL     1      -4.772  -0.354   0.554  0.00  0.00    +0.001 A 
ATOM     17  C   UNL     1      -3.978   0.759   0.381  0.00  0.00    +0.011 A 
ENDBRANCH  10  13
ENDBRANCH   1  10
TORSDOF 2
