REMARK  Name = 
REMARK  1 active torsions:
REMARK  status: ('A' for Active; 'I' for Inactive)
REMARK    1  A    between atoms: C_18  and  C_19
REMARK                            x       y       z     vdW  Elec       q    Type
REMARK                         _______ _______ _______ _____ _____    ______ ____
ROOT
ATOM      1  C   UNL     1      -0.842  -5.138   1.965  0.00  0.00    +0.115 C 
ATOM      2  N   UNL     1      -0.583  -4.198   0.877  0.00  0.00    -0.268 N 
ATOM      3  C   UNL     1      -1.689  -3.331   0.573  0.00  0.00    +0.244 C 
ATOM      4  O   UNL     1      -2.428  -2.900   1.449  0.00  0.00    -0.273 OA
ATOM      5  C   UNL     1      -1.339  -2.337  -0.686  0.00  0.00    +0.157 C 
ATOM      6  C   UNL     1      -2.617  -1.301  -0.378  0.00  0.00    +0.057 C 
ATOM      7  C   UNL     1      -2.093   0.036  -0.574  0.00  0.00    -0.003 A 
ATOM      8  C   UNL     1      -0.881   0.480  -0.901  0.00  0.00    +0.077 A 
ATOM      9  C   UNL     1       0.331  -0.619  -1.015  0.00  0.00    +0.138 C 
ATOM     10  N   UNL     1      -1.006   1.596  -1.607  0.00  0.00    -0.248 NA
ATOM     11  C   UNL     1      -2.084   2.200  -1.043  0.00  0.00    +0.081 A 
ATOM     12  C   UNL     1      -2.623   3.479  -1.075  0.00  0.00    +0.019 A 
ATOM     13  C   UNL     1      -3.800   3.780  -0.400  0.00  0.00    +0.002 A 
ATOM     14  C   UNL     1      -4.356   2.874   0.476  0.00  0.00    +0.000 A 
ATOM     15  C   UNL     1      -3.950   1.558   0.325  0.00  0.00    +0.001 A 
ATOM     16  C   UNL     1      -2.813   1.210  -0.391  0.00  0.00    +0.015 A 
ATOM     17  N   UNL     1      -0.312  -1.474   0.199  0.00  0.00    -0.264 N 
ATOM     18  C   UNL     1       0.776  -2.278   0.685  0.00  0.00    +0.247 C 
ATOM     19  O   UNL     1       1.431  -1.579   1.484  0.00  0.00    -0.273 OA
ATOM     20  C   UNL     1       0.801  -3.747   0.726  0.00  0.00    +0.179 C 
ENDROOT
BRANCH   9  21
ATOM     21  C   UNL     1       1.381   0.208  -0.042  0.00  0.00    +0.005 A 
ATOM     22  C   UNL     1       2.619  -0.022  -0.672  0.00  0.00    +0.038 A 
ATOM     23  C   UNL     1       3.716   0.693  -0.211  0.00  0.00    +0.176 A 
ATOM     24  O   UNL     1       5.008   0.404   0.221  0.00  0.00    -0.435 OA
ATOM     25  C   UNL     1       5.709   1.634   0.181  0.00  0.00    +0.429 C 
ATOM     26  O   UNL     1       4.757   2.627  -0.197  0.00  0.00    -0.435 OA
ATOM     27  C   UNL     1       3.496   2.063  -0.114  0.00  0.00    +0.176 A 
ATOM     28  C   UNL     1       2.212   2.492   0.178  0.00  0.00    +0.040 A 
ATOM     29  C   UNL     1       1.178   1.587  -0.032  0.00  0.00    +0.001 A 
ENDBRANCH   9  21
TORSDOF 1
