REMARK  Name = 
REMARK  3 active torsions:
REMARK  status: ('A' for Active; 'I' for Inactive)
REMARK    1  A    between atoms: N_2  and  C_3
REMARK    2  A    between atoms: C_3  and  C_4
REMARK    3  A    between atoms: C_4  and  C_5
REMARK                            x       y       z     vdW  Elec       q    Type
REMARK                         _______ _______ _______ _____ _____    ______ ____
ROOT
ATOM      1  C   UNL     1       1.240  -0.243  -0.988  0.00  0.00    -0.025 C 
ATOM      2  C   UNL     1       0.079  -0.094  -0.374  0.00  0.00    -0.005 C 
ATOM      3  C   UNL     1      -0.705  -1.304  -0.125  0.00  0.00    -0.004 A 
ATOM      4  C   UNL     1      -2.074  -1.326   0.093  0.00  0.00    -0.022 A 
ATOM      5  C   UNL     1      -2.629  -2.593   0.239  0.00  0.00    -0.004 A 
ATOM      6  C   UNL     1      -1.900  -3.739  -0.054  0.00  0.00    -0.000 A 
ATOM      7  C   UNL     1      -0.528  -3.637   0.105  0.00  0.00    -0.000 A 
ATOM      8  C   UNL     1      -2.946  -0.260   0.675  0.00  0.00    +0.031 C 
ATOM      9  C   UNL     1      -2.927   1.001  -0.150  0.00  0.00    +0.031 C 
ATOM     10  C   UNL     1      -1.635   1.742  -0.006  0.00  0.00    -0.022 A 
ATOM     11  C   UNL     1      -1.819   3.026   0.492  0.00  0.00    -0.004 A 
ATOM     12  C   UNL     1      -0.740   3.718   0.982  0.00  0.00    -0.000 A 
ATOM     13  C   UNL     1       0.509   3.392   0.475  0.00  0.00    -0.000 A 
ATOM     14  C   UNL     1       0.758   2.149  -0.094  0.00  0.00    -0.000 A 
ATOM     15  C   UNL     1       0.077  -2.422  -0.185  0.00  0.00    -0.000 A 
ATOM     16  C   UNL     1      -0.334   1.304  -0.204  0.00  0.00    -0.004 A 
ENDROOT
BRANCH   1  17
ATOM     17  C   UNL     1       2.452   0.534  -0.660  0.00  0.00    +0.045 C 
BRANCH  17  18
ATOM     18  C   UNL     1       3.242  -0.075   0.478  0.00  0.00    +0.093 C 
BRANCH  18  20
ATOM     19  C   UNL     1       5.234  -1.241  -0.063  0.00  0.00    +0.107 C 
ATOM     20  N   UNL     1       4.650   0.069   0.186  0.00  0.00    -0.216 NA
ENDBRANCH  18  20
ENDBRANCH  17  18
ENDBRANCH   1  17
TORSDOF 3
