REMARK  Name = 
REMARK  8 active torsions:
REMARK  status: ('A' for Active; 'I' for Inactive)
REMARK    1  A    between atoms: C_2  and  C_4
REMARK    2  A    between atoms: C_4  and  C_5
REMARK    3  A    between atoms: C_5  and  C_6
REMARK    4  A    between atoms: C_6  and  C_7
REMARK    5  A    between atoms: C_7  and  C_8
REMARK    6  A    between atoms: C_8  and  C_9
REMARK    7  A    between atoms: C_9  and  C_10
REMARK    8  A    between atoms: C_10  and  C_11
REMARK                            x       y       z     vdW  Elec       q    Type
REMARK                         _______ _______ _______ _____ _____    ______ ____
ROOT
ATOM      1  C   UNL     1      -0.009   0.037  -0.662  0.00  0.00    +0.000 C 
ENDROOT
BRANCH   1   2
ATOM      2  C   UNL     1       1.066   1.005  -0.233  0.00  0.00    +0.001 C 
BRANCH   2   3
ATOM      3  C   UNL     1       1.973   0.441   0.831  0.00  0.00    +0.012 C 
BRANCH   3   4
ATOM      4  C   UNL     1       3.050  -0.451   0.269  0.00  0.00    +0.114 C 
BRANCH   4   6
ATOM      5  O   UNL     1       3.369   0.890  -1.650  0.00  0.00    -0.246 OA
ATOM      6  C   UNL     1       3.915   0.253  -0.714  0.00  0.00    +0.365 C 
ATOM      7  O   UNL     1       5.182  -0.303  -0.914  0.00  0.00    -0.246 OA
ENDBRANCH   4   6
ENDBRANCH   3   4
ENDBRANCH   2   3
ENDBRANCH   1   2
BRANCH   1   8
ATOM      8  C   UNL     1      -1.388   0.460  -0.164  0.00  0.00    +0.001 C 
BRANCH   8   9
ATOM      9  C   UNL     1      -1.564  -0.192   1.179  0.00  0.00    +0.012 C 
BRANCH   9  10
ATOM     10  C   UNL     1      -2.984  -0.309   1.628  0.00  0.00    +0.114 C 
BRANCH  10  11
ATOM     11  C   UNL     1      -3.966  -0.358   0.535  0.00  0.00    +0.365 C 
ATOM     12  O   UNL     1      -3.598  -0.657  -0.777  0.00  0.00    -0.246 OA
ATOM     13  O   UNL     1      -5.046   0.292   0.671  0.00  0.00    -0.246 OA
ENDBRANCH  10  11
ENDBRANCH   9  10
ENDBRANCH   8   9
ENDBRANCH   1   8
TORSDOF 8
