REMARK  Name = 
REMARK  7 active torsions:
REMARK  status: ('A' for Active; 'I' for Inactive)
REMARK    1  A    between atoms: C_4  and  C_5
REMARK    2  A    between atoms: C_9  and  C_10
REMARK    3  A    between atoms: C_10  and  O_12
REMARK    4  A    between atoms: O_12  and  C_13
REMARK    5  A    between atoms: C_13  and  C_14
REMARK    6  A    between atoms: C_18  and  O_19
REMARK    7  A    between atoms: O_19  and  C_20
REMARK                            x       y       z     vdW  Elec       q    Type
REMARK                         _______ _______ _______ _____ _____    ______ ____
ROOT
ATOM      1  C   UNL     1      -0.800  -1.596  -0.406  0.00  0.00    +0.235 C 
ENDROOT
BRANCH   1   2
ATOM      2  C   UNL     1       0.451  -0.790  -0.400  0.00  0.00    +0.024 A 
ATOM      3  C   UNL     1       1.683  -1.331  -0.086  0.00  0.00    +0.037 A 
ATOM      4  C   UNL     1       2.588  -0.505   0.569  0.00  0.00    +0.145 A 
ATOM      5  C   UNL     1       2.492   0.871   0.439  0.00  0.00    +0.037 A 
ATOM      6  C   UNL     1       1.536   1.377  -0.434  0.00  0.00    +0.003 A 
ATOM      7  C   UNL     1       0.426   0.581  -0.575  0.00  0.00    -0.000 A 
BRANCH   4   8
ATOM      8  O   UNL     1       3.759  -1.009   1.089  0.00  0.00    -0.454 OA
BRANCH   8   9
ATOM      9  C   UNL     1       5.008  -0.568   0.666  0.00  0.00    +0.145 A 
ATOM     10  C   UNL     1       5.051   0.381  -0.337  0.00  0.00    +0.037 A 
ATOM     11  C   UNL     1       6.246   1.070  -0.513  0.00  0.00    +0.003 A 
ATOM     12  C   UNL     1       7.391   0.535   0.024  0.00  0.00    +0.000 A 
ATOM     13  C   UNL     1       7.367  -0.759   0.498  0.00  0.00    +0.003 A 
ATOM     14  C   UNL     1       6.149  -1.287   0.905  0.00  0.00    +0.037 A 
ENDBRANCH   8   9
ENDBRANCH   4   8
ENDBRANCH   1   2
BRANCH   1  15
ATOM     15  O   UNL     1      -1.791  -0.996   0.427  0.00  0.00    -0.443 OA
BRANCH  15  16
ATOM     16  C   UNL     1      -2.751  -0.173  -0.173  0.00  0.00    +0.317 C 
ATOM     17  O   UNL     1      -2.500   0.297  -1.277  0.00  0.00    -0.250 OA
BRANCH  16  20
ATOM     18  C   UNL     1      -3.773   2.026  -0.661  0.00  0.00    +0.001 C 
ATOM     19  C   UNL     1      -3.914   2.118  -0.054  0.00  0.00    +0.015 C 
ATOM     20  C   UNL     1      -3.198   0.905   0.992  0.00  0.00    +0.103 C 
ATOM     21  C   UNL     1      -4.940   0.932   0.721  0.00  0.00    +0.035 C 
ATOM     22  C   UNL     1      -4.098   3.301   0.892  0.00  0.00    +0.001 C 
BRANCH  21  23
ATOM     23  C   UNL     1      -5.029  -0.067  -0.592  0.00  0.00    -0.003 C 
ATOM     24  C   UNL     1      -5.514  -1.258  -0.234  0.00  0.00    +0.111 C 
ATOM     25 CL   UNL     1      -4.760  -2.758  -0.793  0.00  0.00    -0.070 Cl
ATOM     26 CL   UNL     1      -7.078  -1.298   0.531  0.00  0.00    -0.070 Cl
ENDBRANCH  21  23
ENDBRANCH  16  20
ENDBRANCH  15  16
ENDBRANCH   1  15
TORSDOF 7
