REMARK  Name = 
REMARK  4 active torsions:
REMARK  status: ('A' for Active; 'I' for Inactive)
REMARK    1  A    between atoms: N_2  and  C_3
REMARK    2  A    between atoms: C_3  and  C_4
REMARK    3  A    between atoms: C_4  and  C_5
REMARK    4  A    between atoms: C_5  and  N_6
REMARK                            x       y       z     vdW  Elec       q    Type
REMARK                         _______ _______ _______ _____ _____    ______ ____
ROOT
ATOM      1  N   UNL     1       0.137  -0.002  -0.468  0.00  0.00    -0.287 N 
ATOM      2  C   UNL     1      -0.364   1.314  -0.203  0.00  0.00    +0.048 A 
ATOM      3  C   UNL     1      -1.712   1.642  -0.123  0.00  0.00    -0.008 A 
ATOM      4  C   UNL     1      -2.053   2.884   0.362  0.00  0.00    -0.003 A 
ATOM      5  C   UNL     1      -1.129   3.658   1.049  0.00  0.00    -0.000 A 
ATOM      6  C   UNL     1       0.186   3.236   1.177  0.00  0.00    +0.001 A 
ATOM      7  C   UNL     1      -2.878   0.734  -0.341  0.00  0.00    +0.032 C 
ATOM      8  C   UNL     1      -2.840  -0.460   0.587  0.00  0.00    +0.032 C 
ATOM      9  C   UNL     1      -1.853  -1.490   0.139  0.00  0.00    -0.008 A 
ATOM     10  C   UNL     1      -2.349  -2.782   0.219  0.00  0.00    -0.003 A 
ATOM     11  C   UNL     1      -1.435  -3.822   0.206  0.00  0.00    -0.000 A 
ATOM     12  C   UNL     1      -0.084  -3.547   0.118  0.00  0.00    +0.001 A 
ATOM     13  C   UNL     1       0.299  -2.312  -0.340  0.00  0.00    +0.015 A 
ATOM     14  C   UNL     1       0.557   2.151   0.395  0.00  0.00    +0.015 A 
ATOM     15  C   UNL     1      -0.581  -1.238  -0.362  0.00  0.00    +0.048 A 
ENDROOT
BRANCH   1  16
ATOM     16  C   UNL     1       1.581  -0.109  -0.308  0.00  0.00    +0.097 C 
BRANCH  16  17
ATOM     17  C   UNL     1       2.303  -0.073  -1.631  0.00  0.00    +0.041 C 
BRANCH  17  18
ATOM     18  C   UNL     1       3.789  -0.196  -1.321  0.00  0.00    +0.091 C 
BRANCH  18  20
ATOM     19  C   UNL     1       4.326  -0.201   1.013  0.00  0.00    +0.107 C 
ATOM     20  N   UNL     1       4.103   0.612  -0.167  0.00  0.00    -0.216 NA
ENDBRANCH  18  20
ENDBRANCH  17  18
ENDBRANCH  16  17
ENDBRANCH   1  16
TORSDOF 4
