REMARK  Name = 
REMARK  5 active torsions:
REMARK  status: ('A' for Active; 'I' for Inactive)
REMARK    1  A    between atoms: N_2  and  C_4
REMARK    2  A    between atoms: C_4  and  C_5
REMARK    3  A    between atoms: C_5  and  C_6
REMARK    4  A    between atoms: C_6  and  C_8
REMARK    5  A    between atoms: C_6  and  C_14
REMARK                            x       y       z     vdW  Elec       q    Type
REMARK                         _______ _______ _______ _____ _____    ______ ____
ROOT
ATOM      1  C   UNL     1       0.051  -0.248  -0.077  0.00  0.00    +0.166 C 
ATOM      2  O   UNL     1       0.429  -0.701  -1.352  0.00  0.00    -0.217 OA
ENDROOT
BRANCH   1   3
ATOM      3  C   UNL     1      -0.192   1.202  -0.192  0.00  0.00    +0.020 A 
ATOM      4  C   UNL     1       0.066   2.035   0.882  0.00  0.00    +0.056 A 
ATOM      5 CL   UNL     1      -0.094   1.399   2.505  0.00  0.00    -0.082 Cl
ATOM      6  C   UNL     1       0.050   3.394   0.654  0.00  0.00    +0.011 A 
ATOM      7  C   UNL     1      -0.215   3.919  -0.601  0.00  0.00    +0.001 A 
ATOM      8  C   UNL     1      -0.731   3.066  -1.558  0.00  0.00    -0.000 A 
ATOM      9  C   UNL     1      -0.683   1.705  -1.379  0.00  0.00    -0.001 A 
ENDBRANCH   1   3
BRANCH   1  10
ATOM     10  C   UNL     1      -1.213  -0.976   0.250  0.00  0.00    +0.009 A 
ATOM     11  C   UNL     1      -1.122  -2.337   0.508  0.00  0.00    -0.002 A 
ATOM     12  C   UNL     1      -2.220  -3.167   0.495  0.00  0.00    -0.000 A 
ATOM     13  C   UNL     1      -3.399  -2.650  -0.011  0.00  0.00    -0.000 A 
ATOM     14  C   UNL     1      -3.427  -1.395  -0.602  0.00  0.00    -0.000 A 
ATOM     15  C   UNL     1      -2.327  -0.585  -0.483  0.00  0.00    -0.002 A 
ENDBRANCH   1  10
BRANCH   1  16
ATOM     16  C   UNL     1       1.176  -0.598   0.854  0.00  0.00    +0.056 C 
BRANCH  16  17
ATOM     17  C   UNL     1       2.466  -0.156   0.190  0.00  0.00    +0.075 C 
BRANCH  17  19
ATOM     18  C   UNL     1       3.517  -1.806   0.695  0.00  0.00    +0.090 C 
ATOM     19  N   UNL     1       3.343  -1.283  -0.042  0.00  0.00    -0.270 NA
ATOM     20  C   UNL     1       4.526  -0.820  -0.737  0.00  0.00    +0.090 C 
ENDBRANCH  17  19
ENDBRANCH  16  17
ENDBRANCH   1  16
TORSDOF 5
