REMARK  Name = 
REMARK  8 active torsions:
REMARK  status: ('A' for Active; 'I' for Inactive)
REMARK    1  A    between atoms: C_2  and  C_3
REMARK    2  A    between atoms: C_3  and  O_4
REMARK    3  A    between atoms: O_4  and  C_5
REMARK    4  A    between atoms: C_5  and  C_6
REMARK    5  A    between atoms: C_6  and  N_7
REMARK    6  A    between atoms: N_10  and  C_11
REMARK    7  A    between atoms: C_11  and  C_12
REMARK    8  A    between atoms: C_11  and  C_18
REMARK                            x       y       z     vdW  Elec       q    Type
REMARK                         _______ _______ _______ _____ _____    ______ ____
ROOT
ATOM      1  C   UNL     1      -1.308  -0.074  -0.644  0.00  0.00    +0.103 C 
ENDROOT
BRANCH   1   2
ATOM      2  C   UNL     1      -2.575   0.687   0.092  0.00  0.00    -0.004 A 
ATOM      3  C   UNL     1      -2.173   1.842   0.753  0.00  0.00    -0.002 A 
ATOM      4  C   UNL     1      -3.013   2.931   0.914  0.00  0.00    +0.011 A 
ATOM      5  C   UNL     1      -3.929   3.115  -0.115  0.00  0.00    +0.058 A 
ATOM      6 CL   UNL     1      -4.663   4.713  -0.182  0.00  0.00    -0.082 Cl
ATOM      7  C   UNL     1      -4.184   2.130  -1.040  0.00  0.00    +0.011 A 
ATOM      8  C   UNL     1      -3.524   0.914  -0.902  0.00  0.00    -0.002 A 
ENDBRANCH   1   2
BRANCH   1   9
ATOM      9  C   UNL     1      -1.930  -1.566  -0.336  0.00  0.00    -0.004 A 
ATOM     10  C   UNL     1      -2.356  -1.786   0.924  0.00  0.00    -0.003 A 
ATOM     11  C   UNL     1      -2.812  -3.066   1.218  0.00  0.00    -0.000 A 
ATOM     12  C   UNL     1      -2.386  -4.110   0.406  0.00  0.00    -0.000 A 
ATOM     13  C   UNL     1      -1.613  -3.869  -0.719  0.00  0.00    -0.000 A 
ATOM     14  C   UNL     1      -1.374  -2.558  -1.107  0.00  0.00    -0.003 A 
ENDBRANCH   1   9
BRANCH   1  18
ATOM     15  N   UNL     1       2.500  -0.040   0.479  0.00  0.00    -0.268 NA
ATOM     16  C   UNL     1       1.679  -1.069  -0.104  0.00  0.00    +0.090 C 
ATOM     17  C   UNL     1       0.369  -1.272   0.600  0.00  0.00    +0.090 C 
ATOM     18  N   UNL     1      -0.422  -0.073   0.704  0.00  0.00    -0.264 NA
ATOM     19  C   UNL     1       0.409   1.082   0.386  0.00  0.00    +0.090 C 
ATOM     20  C   UNL     1       1.730   1.014   1.101  0.00  0.00    +0.090 C 
BRANCH  15  21
ATOM     21  C   UNL     1       3.233   0.569  -0.630  0.00  0.00    +0.105 C 
BRANCH  21  22
ATOM     22  C   UNL     1       4.392  -0.343  -1.008  0.00  0.00    +0.160 C 
BRANCH  22  23
ATOM     23  O   UNL     1       4.925  -0.830   0.184  0.00  0.00    -0.350 OA
BRANCH  23  24
ATOM     24  C   UNL     1       5.787   0.106   0.776  0.00  0.00    +0.178 C 
BRANCH  24  26
ATOM     25  O   UNL     1       6.702   0.787  -0.716  0.00  0.00    -0.218 OA
ATOM     26  C   UNL     1       6.537   0.766  -0.375  0.00  0.00    +0.214 C 
ENDBRANCH  24  26
ENDBRANCH  23  24
ENDBRANCH  22  23
ENDBRANCH  21  22
ENDBRANCH  15  21
ENDBRANCH   1  18
TORSDOF 8
