REMARK  Name = 
REMARK  11 active torsions:
REMARK  status: ('A' for Active; 'I' for Inactive)
REMARK    1  A    between atoms: O_2  and  C_3
REMARK    2  A    between atoms: C_3  and  C_5
REMARK    3  A    between atoms: C_11  and  C_12
REMARK    4  A    between atoms: C_12  and  O_14
REMARK    5  A    between atoms: O_14  and  C_15
REMARK    6  A    between atoms: C_15  and  C_16
REMARK    7  A    between atoms: C_16  and  N_17
REMARK    8  A    between atoms: N_17  and  C_19
REMARK    9  A    between atoms: C_19  and  C_20
REMARK   10  A    between atoms: C_26  and  C_27
REMARK   11  A    between atoms: C_31  and  N_32
REMARK                            x       y       z     vdW  Elec       q    Type
REMARK                         _______ _______ _______ _____ _____    ______ ____
ROOT
ATOM      1  C   UNL     1      -2.089   1.689   0.468  0.00  0.00    +0.073 C 
ATOM      2  C   UNL     1      -2.066   0.810  -0.879  0.00  0.00    +0.082 C 
ATOM      3  C   UNL     1      -1.053  -0.282  -0.273  0.00  0.00    +0.073 C 
ATOM      4  C   UNL     1      -1.337  -0.901   0.818  0.00  0.00    +0.051 C 
ATOM      5  C   UNL     1      -0.403  -2.007   1.215  0.00  0.00    +0.049 C 
ATOM      6  N   UNL     1      -2.150  -0.224   1.784  0.00  0.00    -0.221 NA
ATOM      7  C   UNL     1      -2.397   1.152   1.591  0.00  0.00    +0.051 C 
ATOM      8  C   UNL     1      -2.465   2.070   2.777  0.00  0.00    +0.049 C 
ENDROOT
BRANCH   2   9
ATOM      9  C   UNL     1      -3.399  -0.022  -0.510  0.00  0.00    -0.008 A 
ATOM     10  C   UNL     1      -3.397  -1.354  -0.918  0.00  0.00    +0.072 A 
ATOM     11  C   UNL     1      -4.541  -2.074  -0.589  0.00  0.00    +0.290 A 
ATOM     12  C   UNL     1      -5.723  -1.355  -0.733  0.00  0.00    +0.075 A 
ATOM     13  C   UNL     1      -5.716   0.018  -0.975  0.00  0.00    +0.006 A 
ATOM     14  C   UNL     1      -4.496   0.681  -0.997  0.00  0.00    -0.003 A 
BRANCH  11  15
ATOM     15  N   UNL     1      -4.524  -3.370  -0.026  0.00  0.00    +0.081 N 
ATOM     16  O   UNL     1      -3.723  -3.727   1.048  0.00  0.00    -0.576 OA
ATOM     17  O   UNL     1      -5.622  -3.985  -0.033  0.00  0.00    +0.041 OA
ENDBRANCH  11  15
ENDBRANCH   2   9
BRANCH   1  18
ATOM     18  C   UNL     1      -2.380   3.113   0.268  0.00  0.00    +0.339 C 
ATOM     19  O   UNL     1      -3.393   3.514  -0.348  0.00  0.00    -0.245 OA
BRANCH  18  21
ATOM     20  C   UNL     1      -2.172   5.270   1.335  0.00  0.00    +0.256 C 
ATOM     21  O   UNL     1      -1.830   3.999   1.200  0.00  0.00    -0.442 OA
ENDBRANCH  18  21
ENDBRANCH   1  18
BRANCH   3  22
ATOM     22  C   UNL     1       0.282  -0.184  -0.877  0.00  0.00    +0.339 C 
ATOM     23  O   UNL     1       1.040  -1.172  -0.968  0.00  0.00    -0.245 OA
BRANCH  22  24
ATOM     24  O   UNL     1       0.858   1.082  -0.790  0.00  0.00    -0.444 OA
BRANCH  24  25
ATOM     25  C   UNL     1       2.205   1.355  -1.034  0.00  0.00    +0.226 C 
BRANCH  25  26
ATOM     26  C   UNL     1       3.109   0.162  -0.963  0.00  0.00    +0.120 C 
BRANCH  26  27
ATOM     27  N   UNL     1       3.877   0.159   0.251  0.00  0.00    -0.265 NA
ATOM     28  C   UNL     1       4.641   1.361   0.433  0.00  0.00    +0.090 C 
BRANCH  27  29
ATOM     29  C   UNL     1       4.646  -1.047   0.389  0.00  0.00    +0.099 C 
BRANCH  29  30
ATOM     30  C   UNL     1       6.008  -0.969  -0.155  0.00  0.00    -0.006 A 
ATOM     31  C   UNL     1       6.918  -1.933   0.262  0.00  0.00    -0.003 A 
ATOM     32  C   UNL     1       8.280  -1.673   0.205  0.00  0.00    -0.000 A 
ATOM     33  C   UNL     1       8.732  -0.459  -0.268  0.00  0.00    -0.000 A 
ATOM     34  C   UNL     1       7.809   0.322  -0.939  0.00  0.00    -0.000 A 
ATOM     35  C   UNL     1       6.471  -0.018  -1.024  0.00  0.00    -0.003 A 
ENDBRANCH  29  30
ENDBRANCH  27  29
ENDBRANCH  26  27
ENDBRANCH  25  26
ENDBRANCH  24  25
ENDBRANCH  22  24
ENDBRANCH   3  22
TORSDOF 11
