REMARK  Name = 
REMARK  3 active torsions:
REMARK  status: ('A' for Active; 'I' for Inactive)
REMARK    1  A    between atoms: C_5  and  C_6
REMARK    2  A    between atoms: C_6  and  C_7
REMARK    3  A    between atoms: C_6  and  C_14
REMARK                            x       y       z     vdW  Elec       q    Type
REMARK                         _______ _______ _______ _____ _____    ______ ____
ROOT
ATOM      1  C   UNL     1      -0.149   0.700   1.010  0.00  0.00    +0.076 C 
ENDROOT
BRANCH   1   6
ATOM      2 CL   UNL     1       4.422  -1.921  -0.272  0.00  0.00    -0.082 Cl
ATOM      3  C   UNL     1       3.256  -0.913  -0.602  0.00  0.00    +0.058 A 
ATOM      4  C   UNL     1       3.291   0.402  -0.159  0.00  0.00    +0.011 A 
ATOM      5  C   UNL     1       2.109   1.104   0.050  0.00  0.00    -0.003 A 
ATOM      6  C   UNL     1       0.865   0.566  -0.268  0.00  0.00    -0.016 A 
ATOM      7  C   UNL     1       0.907  -0.688  -0.826  0.00  0.00    -0.003 A 
ATOM      8  C   UNL     1       2.091  -1.258  -1.278  0.00  0.00    +0.011 A 
ENDBRANCH   1   6
BRANCH   1   9
ATOM      9  C   UNL     1      -1.375  -0.081   0.278  0.00  0.00    -0.005 A 
ATOM     10  C   UNL     1      -1.959  -1.067   1.025  0.00  0.00    +0.054 A 
ATOM     11 CL   UNL     1      -1.880  -1.044   2.784  0.00  0.00    -0.083 Cl
ATOM     12  C   UNL     1      -2.868  -1.874   0.350  0.00  0.00    +0.011 A 
ATOM     13  C   UNL     1      -3.127  -1.678  -1.002  0.00  0.00    +0.001 A 
ATOM     14  C   UNL     1      -2.609  -0.549  -1.626  0.00  0.00    -0.000 A 
ATOM     15  C   UNL     1      -1.646   0.239  -1.003  0.00  0.00    -0.003 A 
ENDBRANCH   1   9
BRANCH   1  16
ATOM     16  C   UNL     1      -0.759   2.180   0.572  0.00  0.00    +0.167 C 
ATOM     17 CL   UNL     1      -0.346   3.216   1.933  0.00  0.00    -0.096 Cl
ATOM     18 CL   UNL     1      -0.224   2.667  -0.965  0.00  0.00    -0.096 Cl
ENDBRANCH   1  16
TORSDOF 3
