REMARK  Name = 
REMARK  23 active torsions:
REMARK  status: ('A' for Active; 'I' for Inactive)
REMARK    1  A    between atoms: N_4  and  C_6
REMARK    2  A    between atoms: C_6  and  C_7
REMARK    3  A    between atoms: C_7  and  C_8
REMARK    4  A    between atoms: C_8  and  C_9
REMARK    5  A    between atoms: C_9  and  C_10
REMARK    6  A    between atoms: C_10  and  N_11
REMARK    7  A    between atoms: C_12  and  C_14
REMARK    8  A    between atoms: C_14  and  C_15
REMARK    9  A    between atoms: C_15  and  C_16
REMARK   10  A    between atoms: N_18  and  C_20
REMARK   11  A    between atoms: C_20  and  C_21
REMARK   12  A    between atoms: C_21  and  C_22
REMARK   13  A    between atoms: C_22  and  C_23
REMARK   14  A    between atoms: C_23  and  C_24
REMARK   15  A    between atoms: C_24  and  N_25
REMARK   16  A    between atoms: C_26  and  C_28
REMARK   17  A    between atoms: C_28  and  C_29
REMARK   18  A    between atoms: C_29  and  C_30
REMARK   19  A    between atoms: N_32  and  C_34
REMARK   20  A    between atoms: C_34  and  C_35
REMARK   21  A    between atoms: C_35  and  C_36
REMARK   22  A    between atoms: C_36  and  C_37
REMARK   23  A    between atoms: C_37  and  C_38
REMARK                            x       y       z     vdW  Elec       q    Type
REMARK                         _______ _______ _______ _____ _____    ______ ____
ROOT
ATOM      1  C   UNL     1      -0.495  -1.333  -0.146  0.00  0.00    +0.098 C 
ENDROOT
BRANCH   1   3
ATOM      2  C   UNL     1      -2.001   0.545   0.303  0.00  0.00    +0.068 C 
ATOM      3  N   UNL     1      -0.954  -0.307   0.782  0.00  0.00    -0.284 N 
ATOM      4  O   UNL     1      -0.727  -0.382   2.119  0.00  0.00    -0.420 OA
ATOM      5  O   UNL     1      -2.043   0.843  -0.928  0.00  0.00    -0.541 OA
BRANCH   2   6
ATOM      6  C   UNL     1      -2.659   1.522   1.224  0.00  0.00    +0.059 C 
BRANCH   6   7
ATOM      7  C   UNL     1      -3.659   0.857   2.131  0.00  0.00    +0.093 C 
BRANCH   7   9
ATOM      8  N   UNL     1      -5.393   0.155   0.431  0.00  0.00    -0.205 NA
ATOM      9  C   UNL     1      -4.418  -0.206   1.415  0.00  0.00    +0.242 C 
ATOM     10  O   UNL     1      -3.893  -1.350   1.357  0.00  0.00    -0.273 OA
BRANCH   8  11
ATOM     11  C   UNL     1      -5.806  -0.865  -0.516  0.00  0.00    +0.115 C 
BRANCH  11  12
ATOM     12  C   UNL     1      -5.904  -0.302  -1.905  0.00  0.00    +0.023 C 
BRANCH  12  13
ATOM     13  C   UNL     1      -7.354  -0.387  -2.363  0.00  0.00    +0.004 C 
BRANCH  13  14
ATOM     14  C   UNL     1      -8.210  -1.032  -1.307  0.00  0.00    +0.022 C 
BRANCH  14  15
ATOM     15  C   UNL     1      -9.639  -1.035  -1.789  0.00  0.00    +0.098 C 
BRANCH  15  18
ATOM     16  C   UNL     1     -10.993  -0.630   1.152  0.00  0.00    +0.056 C 
ATOM     17  C   UNL     1     -10.140   0.205   0.262  0.00  0.00    +0.068 C 
ATOM     18  N   UNL     1     -10.346   0.063  -1.142  0.00  0.00    -0.285 N 
ATOM     19  O   UNL     1     -10.604   1.145  -1.928  0.00  0.00    -0.420 OA
ATOM     20  O   UNL     1      -9.053   0.631   0.744  0.00  0.00    -0.541 OA
ENDBRANCH  15  18
ENDBRANCH  14  15
ENDBRANCH  13  14
ENDBRANCH  12  13
ENDBRANCH  11  12
ENDBRANCH   8  11
ENDBRANCH   7   9
ENDBRANCH   6   7
ENDBRANCH   2   6
ENDBRANCH   1   3
BRANCH   1  21
ATOM     21  C   UNL     1       0.689  -2.046   0.444  0.00  0.00    +0.022 C 
BRANCH  21  22
ATOM     22  C   UNL     1       1.688  -1.036   0.939  0.00  0.00    +0.004 C 
BRANCH  22  23
ATOM     23  C   UNL     1       1.607   0.279   0.188  0.00  0.00    +0.023 C 
BRANCH  23  24
ATOM     24  C   UNL     1       2.387   1.294   1.016  0.00  0.00    +0.115 C 
BRANCH  24  25
ATOM     25  N   UNL     1       3.794   1.062   0.699  0.00  0.00    -0.205 NA
ATOM     26  C   UNL     1       4.361  -0.134   1.247  0.00  0.00    +0.242 C 
ATOM     27  O   UNL     1       4.250  -0.253   2.504  0.00  0.00    -0.273 OA
BRANCH  26  28
ATOM     28  C   UNL     1       5.521  -0.787   0.607  0.00  0.00    +0.093 C 
BRANCH  28  29
ATOM     29  C   UNL     1       5.199  -1.394  -0.731  0.00  0.00    +0.059 C 
BRANCH  29  30
ATOM     30  C   UNL     1       5.579  -0.519  -1.869  0.00  0.00    +0.068 C 
ATOM     31  N   UNL     1       6.945  -0.287  -2.219  0.00  0.00    -0.284 N 
ATOM     32  O   UNL     1       7.203   0.675  -3.142  0.00  0.00    -0.420 OA
ATOM     33  O   UNL     1       4.741  -0.453  -2.818  0.00  0.00    -0.541 OA
BRANCH  31  34
ATOM     34  C   UNL     1       8.057  -0.749  -1.428  0.00  0.00    +0.098 C 
BRANCH  34  35
ATOM     35  C   UNL     1       8.475   0.353  -0.466  0.00  0.00    +0.022 C 
BRANCH  35  36
ATOM     36  C   UNL     1       9.381  -0.239   0.603  0.00  0.00    +0.003 C 
BRANCH  36  37
ATOM     37  C   UNL     1      10.379   0.820   0.983  0.00  0.00    +0.021 C 
BRANCH  37  38
ATOM     38  C   UNL     1      11.341   0.196   1.979  0.00  0.00    +0.109 C 
ATOM     39  N   UNL     1      12.694   0.479   1.567  0.00  0.00    -0.131 NA
ENDBRANCH  37  38
ENDBRANCH  36  37
ENDBRANCH  35  36
ENDBRANCH  34  35
ENDBRANCH  31  34
ENDBRANCH  29  30
ENDBRANCH  28  29
ENDBRANCH  26  28
ENDBRANCH  24  25
ENDBRANCH  23  24
ENDBRANCH  22  23
ENDBRANCH  21  22
ENDBRANCH   1  21
TORSDOF 23
