REMARK  Name = 
REMARK  2 active torsions:
REMARK  status: ('A' for Active; 'I' for Inactive)
REMARK    1  A    between atoms: C_2  and  C_4
REMARK    2  A    between atoms: C_6  and  C_7
REMARK                            x       y       z     vdW  Elec       q    Type
REMARK                         _______ _______ _______ _____ _____    ______ ____
ROOT
ATOM      1  C   UNL     1      -0.297   0.594  -0.882  0.00  0.00    +0.239 C 
ATOM      2  N   UNL     1      -1.305  -0.305  -0.028  0.00  0.00    -0.232 N 
ATOM      3  C   UNL     1      -0.299  -1.299   0.717  0.00  0.00    +0.256 C 
ATOM      4  C   UNL     1      -1.078  -2.490  -0.176  0.00  0.00    +0.151 C 
ATOM      5  O   UNL     1       0.816  -1.118  -0.398  0.00  0.00    -0.462 OA
ATOM      6  C   UNL     1      -2.138  -1.440  -0.296  0.00  0.00    +0.234 C 
ATOM      7  O   UNL     1      -3.328  -1.485   0.134  0.00  0.00    -0.275 OA
ATOM      8  C   UNL     1       0.996   0.198   0.063  0.00  0.00    +0.146 C 
ATOM      9  C   UNL     1       2.087   0.943  -0.121  0.00  0.00    +0.044 C 
ENDROOT
BRANCH   1  11
ATOM     10  O   UNL     1      -0.713   1.772   1.207  0.00  0.00    -0.243 OA
ATOM     11  C   UNL     1      -0.605   1.955  -0.006  0.00  0.00    +0.390 C 
ATOM     12  O   UNL     1      -1.229   2.928  -0.748  0.00  0.00    -0.243 OA
ENDBRANCH   1  11
BRANCH   9  13
ATOM     13  C   UNL     1       3.410   0.286  -0.285  0.00  0.00    +0.211 C 
ATOM     14  O   UNL     1       3.682  -0.539   0.820  0.00  0.00    -0.215 OA
ENDBRANCH   9  13
TORSDOF 2
