REMARK  Name = 
REMARK  7 active torsions:
REMARK  status: ('A' for Active; 'I' for Inactive)
REMARK    1  A    between atoms: O_2  and  C_3
REMARK    2  A    between atoms: C_6  and  C_7
REMARK    3  A    between atoms: C_7  and  C_8
REMARK    4  A    between atoms: C_8  and  N_11
REMARK    5  A    between atoms: N_11  and  C_12
REMARK    6  A    between atoms: C_12  and  C_13
REMARK    7  A    between atoms: C_13  and  C_15
REMARK                            x       y       z     vdW  Elec       q    Type
REMARK                         _______ _______ _______ _____ _____    ______ ____
ROOT
ATOM      1  C   UNL     1       0.044  -0.146  -0.331  0.00  0.00    +0.126 C 
ENDROOT
BRANCH   1   2
ATOM      2  C   UNL     1      -0.920   0.741   0.667  0.00  0.00    +0.195 C 
ATOM      3  O   UNL     1      -0.581  -0.056   1.919  0.00  0.00    -0.217 OA
BRANCH   2   4
ATOM      4  C   UNL     1      -2.232  -0.140   0.326  0.00  0.00    +0.048 A 
ATOM      5  C   UNL     1      -3.340   0.607  -0.007  0.00  0.00    +0.153 A 
ATOM      6  O   UNL     1      -3.349   1.985  -0.053  0.00  0.00    -0.464 OA
ATOM      7  C   UNL     1      -4.472   2.797   0.162  0.00  0.00    +0.292 C 
ATOM      8  C   UNL     1      -5.753   2.070   0.098  0.00  0.00    +0.290 C 
ATOM      9  N   UNL     1      -5.761   0.705  -0.270  0.00  0.00    -0.173 NA
ATOM     10  O   UNL     1      -6.775   2.668   0.553  0.00  0.00    -0.269 OA
ATOM     11  C   UNL     1      -4.551  -0.049  -0.130  0.00  0.00    +0.110 A 
ATOM     12  C   UNL     1      -4.569  -1.427   0.047  0.00  0.00    +0.062 A 
ATOM     13  C   UNL     1      -3.445  -2.139   0.384  0.00  0.00    +0.197 A 
ATOM     14  O   UNL     1      -3.681  -3.276   1.169  0.00  0.00    -0.287 OA
ATOM     15  C   UNL     1      -2.238  -1.461   0.523  0.00  0.00    +0.043 A 
ENDBRANCH   2   4
ENDBRANCH   1   2
BRANCH   1  16
ATOM     16  N   UNL     1       0.355  -1.386   0.223  0.00  0.00    -0.217 NA
BRANCH  16  17
ATOM     17  C   UNL     1       1.786  -1.546   0.351  0.00  0.00    +0.064 C 
ATOM     18  C   UNL     1       2.084  -2.890   1.000  0.00  0.00    +0.018 C 
ATOM     19  C   UNL     1       2.397  -0.498   1.242  0.00  0.00    +0.018 C 
BRANCH  17  20
ATOM     20  C   UNL     1       2.481  -1.529  -0.993  0.00  0.00    +0.042 C 
BRANCH  20  24
ATOM     21  C   UNL     1       5.757   0.959  -0.263  0.00  0.00    +0.139 A 
ATOM     22  C   UNL     1       4.483   1.507  -0.344  0.00  0.00    +0.037 A 
ATOM     23  C   UNL     1       3.478   0.737  -0.915  0.00  0.00    -0.001 A 
ATOM     24  C   UNL     1       3.670  -0.639  -0.955  0.00  0.00    -0.021 A 
ATOM     25  C   UNL     1       4.869  -1.206  -0.578  0.00  0.00    -0.001 A 
ATOM     26  C   UNL     1       5.968  -0.408  -0.299  0.00  0.00    +0.037 A 
BRANCH  21  28
ATOM     27  C   UNL     1       7.412   2.240  -0.481  0.00  0.00    +0.252 C 
ATOM     28  O   UNL     1       6.883   1.780  -0.376  0.00  0.00    -0.471 OA
ENDBRANCH  21  28
ENDBRANCH  20  24
ENDBRANCH  17  20
ENDBRANCH  16  17
ENDBRANCH   1  16
TORSDOF 7
