REMARK  Name = 
REMARK  4 active torsions:
REMARK  status: ('A' for Active; 'I' for Inactive)
REMARK    1  A    between atoms: C_3  and  C_4
REMARK    2  A    between atoms: C_4  and  C_5
REMARK    3  A    between atoms: N_9  and  C_10
REMARK    4  A    between atoms: C_10  and  C_11
REMARK                            x       y       z     vdW  Elec       q    Type
REMARK                         _______ _______ _______ _____ _____    ______ ____
ROOT
ATOM      1  C   UNL     1       1.208   0.398   1.161  0.00  0.00    +0.108 C 
ATOM      2  C   UNL     1       1.657  -0.579   0.117  0.00  0.00    +0.206 A 
ATOM      3  N   UNL     1       0.779  -1.180  -0.703  0.00  0.00    -0.158 N 
ATOM      4  C   UNL     1       1.144  -2.465  -0.948  0.00  0.00    +0.328 A 
ATOM      5  S   UNL     1       2.860  -2.340  -0.955  0.00  0.00    -0.011 S 
ATOM      6  C   UNL     1       2.962  -0.736  -0.342  0.00  0.00    +0.074 A 
ENDROOT
BRANCH   3   7
ATOM      7  C   UNL     1      -0.443  -0.635  -1.294  0.00  0.00    +0.355 C 
BRANCH   7   8
ATOM      8  C   UNL     1      -1.409  -0.188  -0.244  0.00  0.00    +0.109 A 
ATOM      9  C   UNL     1      -1.835   1.133  -0.352  0.00  0.00    +0.175 A 
ATOM     10  N   UNL     1      -1.194   2.025  -1.273  0.00  0.00    -0.107 NA
ATOM     11  N   UNL     1      -3.096   1.498  -0.007  0.00  0.00    -0.213 NA
ATOM     12  C   UNL     1      -3.989   0.572   0.415  0.00  0.00    +0.141 A 
ATOM     13  C   UNL     1      -5.412   0.978   0.639  0.00  0.00    +0.074 C 
ATOM     14  N   UNL     1      -3.671  -0.743   0.325  0.00  0.00    -0.229 NA
ATOM     15  C   UNL     1      -2.353  -1.058   0.292  0.00  0.00    +0.106 A 
ENDBRANCH   7   8
ENDBRANCH   3   7
BRANCH   6  16
ATOM     16  C   UNL     1       4.186  -0.040   0.174  0.00  0.00    +0.074 C 
BRANCH  16  17
ATOM     17  C   UNL     1       3.748   1.314   0.665  0.00  0.00    +0.188 C 
ATOM     18  O   UNL     1       4.857   2.046   1.068  0.00  0.00    -0.220 OA
ENDBRANCH  16  17
ENDBRANCH   6  16
TORSDOF 4
