REMARK  Name = 
REMARK  2 active torsions:
REMARK  status: ('A' for Active; 'I' for Inactive)
REMARK    1  A    between atoms: C_2  and  C_3
REMARK    2  A    between atoms: C_3  and  N_4
REMARK                            x       y       z     vdW  Elec       q    Type
REMARK                         _______ _______ _______ _____ _____    ______ ____
ROOT
ATOM      1  N   UNL     1       2.590  -0.103  -0.476  0.00  0.00    -0.268 NA
ATOM      2  C   UNL     1       1.757  -0.017   0.863  0.00  0.00    +0.091 C 
ATOM      3  C   UNL     1       0.762   1.143   0.280  0.00  0.00    +0.148 C 
ATOM      4  C   UNL     1      -0.219   0.601  -0.567  0.00  0.00    +0.094 C 
ATOM      5  C   UNL     1      -1.242   1.804  -0.987  0.00  0.00    +0.228 C 
ATOM      6  O   UNL     1      -2.480   0.881  -1.167  0.00  0.00    -0.468 OA
ATOM      7  C   UNL     1      -2.220  -0.306  -0.615  0.00  0.00    +0.173 A 
ATOM      8  C   UNL     1      -3.014  -1.426  -0.390  0.00  0.00    +0.229 A 
ATOM      9  C   UNL     1      -2.483  -2.481   0.358  0.00  0.00    +0.045 A 
ATOM     10  C   UNL     1      -1.219  -2.379   0.945  0.00  0.00    -0.001 A 
ATOM     11  C   UNL     1      -0.485  -1.194   0.885  0.00  0.00    -0.021 A 
ATOM     12  O   UNL     1      -4.377  -1.357  -0.695  0.00  0.00    -0.283 OA
ATOM     13  C   UNL     1      -1.580   2.235   0.548  0.00  0.00    +0.191 C 
ATOM     14  O   UNL     1      -2.535   1.778   1.056  0.00  0.00    -0.292 OA
ATOM     15  C   UNL     1      -0.473   2.947   1.237  0.00  0.00    +0.071 C 
ATOM     16  C   UNL     1      -1.153  -0.201   0.194  0.00  0.00    +0.017 A 
ATOM     17  C   UNL     1       0.408   0.035  -1.759  0.00  0.00    +0.028 C 
ATOM     18  C   UNL     1       0.369   1.732   1.628  0.00  0.00    +0.040 C 
ATOM     19  O   UNL     1       1.589   2.097  -0.280  0.00  0.00    -0.224 OA
ATOM     20  C   UNL     1       0.924  -1.366   0.462  0.00  0.00    +0.045 C 
ATOM     21  C   UNL     1       1.762  -0.368  -1.532  0.00  0.00    +0.073 C 
ENDROOT
BRANCH   1  22
ATOM     22  C   UNL     1       3.300  -1.349  -0.161  0.00  0.00    +0.099 C 
BRANCH  22  24
ATOM     23  C   UNL     1       5.244  -1.504  -0.078  0.00  0.00    -0.003 C 
ATOM     24  C   UNL     1       4.777  -1.203  -0.186  0.00  0.00    -0.009 C 
ENDBRANCH  22  24
ENDBRANCH   1  22
TORSDOF 2
