REMARK  Name = 
REMARK  6 active torsions:
REMARK  status: ('A' for Active; 'I' for Inactive)
REMARK    1  A    between atoms: C_5  and  C_6
REMARK    2  A    between atoms: C_6  and  C_14
REMARK    3  A    between atoms: C_7  and  C_8
REMARK    4  A    between atoms: C_8  and  N_9
REMARK    5  A    between atoms: C_18  and  C_19
REMARK    6  A    between atoms: C_20  and  C_21
REMARK                            x       y       z     vdW  Elec       q    Type
REMARK                         _______ _______ _______ _____ _____    ______ ____
ROOT
ATOM      1  C   UNL     1      -0.863  -0.019   0.320  0.00  0.00    +0.015 C 
ATOM      2  C   UNL     1      -1.021   1.250  -0.005  0.00  0.00    -0.007 C 
ENDROOT
BRANCH   1   7
ATOM      3  C   UNL     1      -3.972  -4.127  -0.854  0.00  0.00    +0.031 C 
ATOM      4  C   UNL     1      -3.779  -2.926   0.019  0.00  0.00    -0.022 A 
ATOM      5  C   UNL     1      -4.001  -1.666  -0.521  0.00  0.00    -0.004 A 
ATOM      6  C   UNL     1      -3.240  -0.581  -0.102  0.00  0.00    -0.000 A 
ATOM      7  C   UNL     1      -2.087  -0.760   0.652  0.00  0.00    +0.001 A 
ATOM      8  C   UNL     1      -2.058  -1.930   1.401  0.00  0.00    -0.000 A 
ATOM      9  C   UNL     1      -2.956  -2.958   1.138  0.00  0.00    -0.004 A 
ENDBRANCH   1   7
BRANCH   1  10
ATOM     10  C   UNL     1       0.338  -0.740  -0.119  0.00  0.00    +0.081 A 
ATOM     11  N   UNL     1       1.482  -0.072  -0.284  0.00  0.00    -0.245 NA
ATOM     12  C   UNL     1       2.458  -0.539  -1.100  0.00  0.00    +0.082 A 
ATOM     13  C   UNL     1       2.431  -1.896  -1.379  0.00  0.00    +0.019 A 
ATOM     14  C   UNL     1       1.234  -2.588  -1.356  0.00  0.00    +0.003 A 
ATOM     15  C   UNL     1       0.137  -1.879  -0.886  0.00  0.00    +0.019 A 
BRANCH  12  16
ATOM     16  C   UNL     1       3.795   0.037  -0.905  0.00  0.00    +0.026 C 
ATOM     17  C   UNL     1       4.821  -0.658  -0.468  0.00  0.00    +0.088 C 
BRANCH  17  18
ATOM     18  C   UNL     1       5.697  -0.211   0.622  0.00  0.00    +0.388 C 
ATOM     19  O   UNL     1       6.298   1.037   0.601  0.00  0.00    -0.241 OA
ATOM     20  O   UNL     1       5.914  -1.067   1.532  0.00  0.00    -0.241 OA
ENDBRANCH  17  18
ENDBRANCH  12  16
ENDBRANCH   1  10
BRANCH   2  21
ATOM     21  C   UNL     1      -2.312   1.847  -0.422  0.00  0.00    +0.099 C 
BRANCH  21  22
ATOM     22  N   UNL     1      -2.259   3.285  -0.296  0.00  0.00    -0.269 NA
ATOM     23  C   UNL     1      -0.936   3.802  -0.533  0.00  0.00    +0.072 C 
ATOM     24  C   UNL     1      -0.742   4.968   0.396  0.00  0.00    +0.019 C 
ATOM     25  C   UNL     1      -1.748   4.760   1.499  0.00  0.00    +0.019 C 
ATOM     26  C   UNL     1      -2.633   3.631   1.051  0.00  0.00    +0.072 C 
ENDBRANCH  21  22
ENDBRANCH   2  21
TORSDOF 6
