REMARK  Name = 
REMARK  10 active torsions:
REMARK  status: ('A' for Active; 'I' for Inactive)
REMARK    1  A    between atoms: O_2  and  C_3
REMARK    2  A    between atoms: C_8  and  O_9
REMARK    3  A    between atoms: O_9  and  C_10
REMARK    4  A    between atoms: C_10  and  C_11
REMARK    5  A    between atoms: C_11  and  N_12
REMARK    6  A    between atoms: N_12  and  C_13
REMARK    7  A    between atoms: C_13  and  C_14
REMARK    8  A    between atoms: C_14  and  C_16
REMARK    9  A    between atoms: C_16  and  O_17
REMARK   10  A    between atoms: O_17  and  C_18
REMARK                            x       y       z     vdW  Elec       q    Type
REMARK                         _______ _______ _______ _____ _____    ______ ____
ROOT
ATOM      1  C   UNL     1      -0.333   0.510   0.429  0.00  0.00    +0.213 C 
ATOM      2  O   UNL     1       0.572  -0.640  -0.065  0.00  0.00    -0.218 OA
ENDROOT
BRANCH   1   3
ATOM      3  C   UNL     1       0.889   1.652   0.339  0.00  0.00    +0.126 C 
BRANCH   3   4
ATOM      4  N   UNL     1       2.086   0.990   0.745  0.00  0.00    -0.211 NA
BRANCH   4   5
ATOM      5  C   UNL     1       3.084   1.349  -0.262  0.00  0.00    +0.136 C 
BRANCH   5   6
ATOM      6  C   UNL     1       3.464   0.157  -1.122  0.00  0.00    +0.224 C 
BRANCH   6   7
ATOM      7  O   UNL     1       4.060  -0.780  -0.237  0.00  0.00    -0.471 OA
BRANCH   7   9
ATOM      8  C   UNL     1       6.418  -0.909  -0.011  0.00  0.00    +0.172 A 
ATOM      9  C   UNL     1       5.225  -0.372   0.422  0.00  0.00    +0.172 A 
ATOM     10  C   UNL     1       5.227   0.645   1.357  0.00  0.00    +0.040 A 
ATOM     11  C   UNL     1       6.377   1.355   1.541  0.00  0.00    +0.003 A 
ATOM     12  C   UNL     1       7.509   1.053   0.800  0.00  0.00    +0.003 A 
ATOM     13  C   UNL     1       7.567  -0.166   0.137  0.00  0.00    +0.040 A 
BRANCH   8  15
ATOM     14  C   UNL     1       6.246  -2.875  -0.185  0.00  0.00    +0.253 C 
ATOM     15  O   UNL     1       6.438  -2.268  -0.337  0.00  0.00    -0.468 OA
ENDBRANCH   8  15
ENDBRANCH   7   9
ENDBRANCH   6   7
ENDBRANCH   5   6
ENDBRANCH   4   5
ENDBRANCH   3   4
ENDBRANCH   1   3
BRANCH   1  16
ATOM     16  C   UNL     1      -0.812   0.859  -1.137  0.00  0.00    +0.240 C 
BRANCH  16  17
ATOM     17  O   UNL     1      -2.174   0.679  -1.167  0.00  0.00    -0.473 OA
BRANCH  17  18
ATOM     18  C   UNL     1      -3.153   1.294  -0.427  0.00  0.00    +0.140 A 
ATOM     19  C   UNL     1      -4.287   0.560  -0.090  0.00  0.00    +0.053 A 
ATOM     20  C   UNL     1      -5.558   1.099  -0.113  0.00  0.00    +0.084 A 
ATOM     21  N   UNL     1      -6.444   0.077  -0.168  0.00  0.00    -0.245 NA
ATOM     22  C   UNL     1      -5.766  -1.083  -0.008  0.00  0.00    +0.081 A 
ATOM     23  C   UNL     1      -6.117  -2.420   0.045  0.00  0.00    +0.019 A 
ATOM     24  C   UNL     1      -5.164  -3.392   0.324  0.00  0.00    +0.002 A 
ATOM     25  C   UNL     1      -3.833  -3.037   0.442  0.00  0.00    +0.000 A 
ATOM     26  C   UNL     1      -3.474  -1.839  -0.169  0.00  0.00    +0.002 A 
ATOM     27  C   UNL     1      -5.732   2.438  -0.379  0.00  0.00    +0.019 A 
ATOM     28  C   UNL     1      -4.594   3.216  -0.425  0.00  0.00    +0.005 A 
ATOM     29  C   UNL     1      -4.401  -0.820   0.013  0.00  0.00    +0.022 A 
ATOM     30  C   UNL     1      -3.319   2.670  -0.396  0.00  0.00    +0.037 A 
ENDBRANCH  17  18
ENDBRANCH  16  17
ENDBRANCH   1  16
TORSDOF 10
