REMARK  Name = 
REMARK  2 active torsions:
REMARK  status: ('A' for Active; 'I' for Inactive)
REMARK    1  A    between atoms: C_26  and  C_27
REMARK    2  A    between atoms: C_27  and  C_29
REMARK                            x       y       z     vdW  Elec       q    Type
REMARK                         _______ _______ _______ _____ _____    ______ ____
ROOT
ATOM      1  C   UNL     1      -3.050  -1.899  -0.322  0.00  0.00    +0.061 C 
ATOM      2  C   UNL     1      -3.418  -1.491  -0.535  0.00  0.00    +0.188 C 
ATOM      3  O   UNL     1      -3.127  -0.791   0.521  0.00  0.00    -0.330 OA
ATOM      4  C   UNL     1      -2.624   0.427   0.194  0.00  0.00    +0.173 C 
ATOM      5  C   UNL     1      -2.946   0.502  -1.425  0.00  0.00    +0.149 C 
ATOM      6  C   UNL     1      -1.373   0.806  -1.887  0.00  0.00    +0.033 C 
ATOM      7  C   UNL     1      -0.769  -0.289  -0.855  0.00  0.00    +0.005 C 
ATOM      8  C   UNL     1       0.771   0.410  -0.756  0.00  0.00    +0.006 C 
ATOM      9  C   UNL     1       1.113  -0.815   0.348  0.00  0.00    +0.034 C 
ATOM     10  C   UNL     1       0.880   0.137   1.770  0.00  0.00    +0.152 C 
ATOM     11  C   UNL     1      -0.757   0.214   1.617  0.00  0.00    +0.036 C 
ATOM     12  O   UNL     1       1.165   1.489   1.128  0.00  0.00    -0.223 OA
ATOM     13  C   UNL     1       2.693  -0.660   0.281  0.00  0.00    +0.021 C 
ATOM     14  C   UNL     1       3.220   0.389  -0.478  0.00  0.00    -0.010 C 
ATOM     15  C   UNL     1       4.546   0.492  -0.320  0.00  0.00    +0.032 C 
ATOM     16  C   UNL     1       5.120  -0.493   0.631  0.00  0.00    +0.173 C 
ATOM     17  C   UNL     1       4.763  -1.885   0.179  0.00  0.00    +0.069 C 
ATOM     18  O   UNL     1       6.223  -0.336   1.181  0.00  0.00    -0.291 OA
ATOM     19  C   UNL     1       2.708   0.715  -1.993  0.00  0.00    +0.179 C 
ATOM     20  F   UNL     1       3.639  -0.294  -2.657  0.00  0.00    -0.233 F 
ATOM     21  C   UNL     1       3.221  -0.593   1.683  0.00  0.00    +0.004 C 
ATOM     22  C   UNL     1       3.302  -1.946  -0.273  0.00  0.00    +0.012 C 
ATOM     23  C   UNL     1       1.471  -0.419  -1.948  0.00  0.00    +0.040 C 
ATOM     24  C   UNL     1      -1.226   0.689   0.364  0.00  0.00    +0.034 C 
ATOM     25  C   UNL     1      -0.938   2.104  -0.033  0.00  0.00    +0.003 C 
ATOM     26  O   UNL     1      -2.780  -1.014  -1.602  0.00  0.00    -0.334 OA
ATOM     27  C   UNL     1      -4.424  -2.512  -0.613  0.00  0.00    +0.061 C 
ENDROOT
BRANCH   4  28
ATOM     28  C   UNL     1      -3.578   1.456   0.709  0.00  0.00    +0.210 C 
ATOM     29  O   UNL     1      -3.393   2.624   0.407  0.00  0.00    -0.291 OA
BRANCH  28  30
ATOM     30  C   UNL     1      -4.951   1.067   1.125  0.00  0.00    +0.248 C 
ATOM     31  O   UNL     1      -5.481   1.915   2.077  0.00  0.00    -0.212 OA
ENDBRANCH  28  30
ENDBRANCH   4  28
TORSDOF 2
