REMARK  Name = 
REMARK  5 active torsions:
REMARK  status: ('A' for Active; 'I' for Inactive)
REMARK    1  A    between atoms: CA_2  and  C_3
REMARK    2  A    between atoms: CA_2  and  C_22
REMARK    3  A    between atoms: C_3  and  C_4
REMARK    4  A    between atoms: C_8  and  O_9
REMARK    5  A    between atoms: O_9  and  C_10
REMARK                            x       y       z     vdW  Elec       q    Type
REMARK                         _______ _______ _______ _____ _____    ______ ____
ROOT
ATOM      1  C   UNL     1       2.704  -0.233  -0.639  0.00  0.00    -0.019 A 
ATOM      2  C   UNL     1       1.709   0.690  -0.951  0.00  0.00    +0.005 A 
ATOM      3  C   UNL     1       0.391   0.322  -1.120  0.00  0.00    +0.065 A 
ATOM      4  I   UNL     1      -1.071   1.599  -1.940  0.00  0.00    -0.039 I 
ATOM      5  C   UNL     1      -0.006  -0.837  -0.464  0.00  0.00    +0.156 A 
ATOM      6  C   UNL     1       0.951  -1.617   0.176  0.00  0.00    +0.065 A 
ATOM      7  I   UNL     1       0.219  -3.000   1.597  0.00  0.00    -0.039 I 
ATOM      8  C   UNL     1       2.312  -1.401  -0.006  0.00  0.00    +0.005 A 
ENDROOT
BRANCH   1   9
ATOM      9  C   UNL     1       4.028   0.047  -1.170  0.00  0.00    +0.057 C 
BRANCH   9  11
ATOM     10  N   UNL     1       4.110   0.409   1.202  0.00  0.00    -0.120 NA
ATOM     11  CA  UNL     1       5.117  -0.157   0.084  0.00  0.00    +0.199 C 
BRANCH  11  12
ATOM     12  C   UNL     1       5.769   1.331  -0.152  0.00  0.00    +0.382 C 
ATOM     13  OXT UNL     1       4.898   2.354  -0.337  0.00  0.00    -0.244 OA
ATOM     14  O   UNL     1       6.995   1.321  -0.321  0.00  0.00    -0.244 OA
ENDBRANCH  11  12
ENDBRANCH   9  11
ENDBRANCH   1   9
BRANCH   5  15
ATOM     15  O   UNL     1      -1.191  -1.447  -0.838  0.00  0.00    -0.453 OA
BRANCH  15  16
ATOM     16  C   UNL     1      -2.434  -1.108  -0.336  0.00  0.00    +0.146 A 
ATOM     17  C   UNL     1      -2.624  -0.538   0.915  0.00  0.00    +0.047 A 
ATOM     18  C   UNL     1      -3.715   0.274   1.145  0.00  0.00    +0.072 A 
ATOM     19  I   UNL     1      -3.959   1.317   2.958  0.00  0.00    -0.039 I 
ATOM     20  C   UNL     1      -4.620   0.510   0.120  0.00  0.00    +0.206 A 
ATOM     21  O   UNL     1      -5.358   1.692   0.071  0.00  0.00    -0.286 OA
ATOM     22  C   UNL     1      -4.594  -0.294  -0.998  0.00  0.00    +0.072 A 
ATOM     23  I   UNL     1      -6.154  -0.152  -2.390  0.00  0.00    -0.039 I 
ATOM     24  C   UNL     1      -3.477  -1.082  -1.241  0.00  0.00    +0.047 A 
ENDBRANCH  15  16
ENDBRANCH   5  15
TORSDOF 5
