REMARK  Name = 
REMARK  7 active torsions:
REMARK  status: ('A' for Active; 'I' for Inactive)
REMARK    1  A    between atoms: N_2  and  C_3
REMARK    2  A    between atoms: C_3  and  C_5
REMARK    3  A    between atoms: C_10  and  O_11
REMARK    4  A    between atoms: O_11  and  C_12
REMARK    5  A    between atoms: C_18  and  O_19
REMARK    6  A    between atoms: O_19  and  C_20
REMARK    7  A    between atoms: C_26  and  N_27
REMARK                            x       y       z     vdW  Elec       q    Type
REMARK                         _______ _______ _______ _____ _____    ______ ____
ROOT
ATOM      1  C   UNL     1       1.149  -0.515  -0.908  0.00  0.00    +0.168 C 
ATOM      2  C   UNL     1       0.654  -0.026   0.642  0.00  0.00    +0.209 C 
ATOM      3  O   UNL     1      -0.311   1.061   0.402  0.00  0.00    -0.218 OA
ATOM      4  C   UNL     1      -0.484  -1.322   0.849  0.00  0.00    +0.168 C 
ATOM      5  C   UNL     1      -0.709  -1.621  -0.815  0.00  0.00    +0.123 C 
ATOM      6  N   UNL     1      -2.058  -2.364  -0.599  0.00  0.00    -0.130 NA
ATOM      7  C   UNL     1      -1.215  -0.156  -1.303  0.00  0.00    +0.043 C 
ATOM      8  C   UNL     1       0.165   0.358  -1.989  0.00  0.00    +0.123 C 
ATOM      9  N   UNL     1       0.308   1.791  -1.389  0.00  0.00    -0.130 NA
ENDROOT
BRANCH   1  10
ATOM     10  O   UNL     1       2.318   0.443  -0.977  0.00  0.00    -0.328 OA
BRANCH  10  13
ATOM     11  C   UNL     1       5.377  -0.695   0.088  0.00  0.00    +0.134 C 
ATOM     12  O   UNL     1       4.332   0.389   0.090  0.00  0.00    -0.331 OA
ATOM     13  C   UNL     1       3.154  -0.547  -0.171  0.00  0.00    +0.253 C 
ATOM     14  C   UNL     1       3.917  -1.397  -1.485  0.00  0.00    +0.148 C 
ATOM     15  N   UNL     1       2.833  -1.145  -2.581  0.00  0.00    -0.128 NA
ATOM     16  C   UNL     1       4.804  -0.196  -2.106  0.00  0.00    +0.027 C 
ATOM     17  C   UNL     1       6.083  -0.094  -1.269  0.00  0.00    +0.033 C 
BRANCH  11  18
ATOM     18  C   UNL     1       6.489   0.066   1.142  0.00  0.00    +0.100 C 
ATOM     19  C   UNL     1       6.381   1.565   0.514  0.00  0.00    +0.021 C 
BRANCH  18  21
ATOM     20  C   UNL     1       4.904   1.174   2.139  0.00  0.00    +0.107 C 
ATOM     21  N   UNL     1       5.384   0.280   2.224  0.00  0.00    -0.215 NA
ENDBRANCH  18  21
ENDBRANCH  11  18
ENDBRANCH  10  13
ENDBRANCH   1  10
BRANCH   4  22
ATOM     22  O   UNL     1      -1.647  -0.545   1.292  0.00  0.00    -0.327 OA
BRANCH  22  23
ATOM     23  C   UNL     1      -2.652  -0.101   0.306  0.00  0.00    +0.268 C 
ATOM     24  C   UNL     1      -4.035  -0.859   1.026  0.00  0.00    +0.226 C 
ATOM     25  O   UNL     1      -4.417   0.184   2.005  0.00  0.00    -0.216 OA
ATOM     26  C   UNL     1      -4.922  -0.302  -0.338  0.00  0.00    +0.138 C 
ATOM     27  C   UNL     1      -5.087   1.258   0.054  0.00  0.00    +0.171 C 
ATOM     28  O   UNL     1      -6.035   1.465   0.987  0.00  0.00    -0.222 OA
ATOM     29  C   UNL     1      -5.710   1.707  -1.281  0.00  0.00    +0.037 C 
ATOM     30  C   UNL     1      -3.797   1.909   0.225  0.00  0.00    +0.176 C 
ATOM     31  O   UNL     1      -2.852   1.253   0.990  0.00  0.00    -0.326 OA
BRANCH  26  32
ATOM     32  N   UNL     1      -6.271  -0.808   0.271  0.00  0.00    -0.213 NA
ATOM     33  C   UNL     1      -6.050  -2.208  -0.122  0.00  0.00    +0.108 C 
ENDBRANCH  26  32
ENDBRANCH  22  23
ENDBRANCH   4  22
TORSDOF 7
