REMARK  Name = 
REMARK  9 active torsions:
REMARK  status: ('A' for Active; 'I' for Inactive)
REMARK    1  A    between atoms: C_2  and  N_3
REMARK    2  A    between atoms: N_3  and  C_4
REMARK    3  A    between atoms: N_3  and  C_6
REMARK    4  A    between atoms: C_9  and  C_10
REMARK    5  A    between atoms: C_10  and  C_11
REMARK    6  A    between atoms: C_13  and  S_14
REMARK    7  A    between atoms: C_20  and  S_21
REMARK    8  A    between atoms: N_29  and  C_30
REMARK    9  A    between atoms: N_29  and  C_32
REMARK                            x       y       z     vdW  Elec       q    Type
REMARK                         _______ _______ _______ _____ _____    ______ ____
ROOT
ATOM      1  C   UNL     1       0.164   0.399   0.375  0.00  0.00    +0.001 C 
ATOM      2  C   UNL     1       1.371  -0.031  -0.004  0.00  0.00    +0.000 C 
ATOM      3  C   UNL     1       1.937  -1.088   0.848  0.00  0.00    +0.006 C 
ATOM      4  C   UNL     1       3.143  -1.510   0.545  0.00  0.00    +0.069 C 
ATOM      5  C   UNL     1       3.656  -1.270  -0.802  0.00  0.00    +0.221 C 
ATOM      6  N   UNL     1       4.881  -1.579  -1.089  0.00  0.00    -0.189 N 
ATOM      7  C   UNL     1       2.660  -0.966  -1.837  0.00  0.00    +0.069 C 
ATOM      8  C   UNL     1       1.640  -0.205  -1.438  0.00  0.00    +0.006 C 
ENDROOT
BRANCH   1  12
ATOM      9  C   UNL     1      -2.224  -3.023   0.111  0.00  0.00    +0.048 A 
ATOM     10  C   UNL     1      -2.058  -2.178  -0.980  0.00  0.00    +0.015 A 
ATOM     11  C   UNL     1      -1.419  -0.969  -0.809  0.00  0.00    +0.001 A 
ATOM     12  C   UNL     1      -0.827  -0.690   0.417  0.00  0.00    +0.000 A 
ATOM     13  C   UNL     1      -0.907  -1.596   1.439  0.00  0.00    +0.001 A 
ATOM     14  C   UNL     1      -1.948  -2.513   1.373  0.00  0.00    +0.015 A 
BRANCH   9  15
ATOM     15  N   UNL     1      -3.321  -3.939   0.020  0.00  0.00    -0.307 N 
BRANCH  15  17
ATOM     16  C   UNL     1      -4.848  -2.119  -0.036  0.00  0.00    +0.023 C 
ATOM     17  C   UNL     1      -4.619  -3.550  -0.502  0.00  0.00    +0.091 C 
ENDBRANCH  15  17
BRANCH  15  18
ATOM     18  C   UNL     1      -3.197  -5.295   0.510  0.00  0.00    +0.091 C 
ATOM     19  C   UNL     1      -3.820  -6.285  -0.464  0.00  0.00    +0.023 C 
ENDBRANCH  15  18
ENDBRANCH   9  15
ENDBRANCH   1  12
BRANCH   1  20
ATOM     20  C   UNL     1      -0.365   1.698  -0.066  0.00  0.00    +0.021 A 
ATOM     21  C   UNL     1       0.436   2.826   0.056  0.00  0.00    +0.136 A 
ATOM     22  C   UNL     1      -0.009   3.963  -0.606  0.00  0.00    +0.022 A 
ATOM     23  C   UNL     1      -1.335   4.114  -0.994  0.00  0.00    +0.022 A 
ATOM     24  C   UNL     1      -2.244   3.108  -0.690  0.00  0.00    +0.136 A 
ATOM     25  C   UNL     1      -1.691   1.873  -0.430  0.00  0.00    +0.022 A 
BRANCH  24  26
ATOM     26  S   UNL     1      -3.909   3.480  -0.258  0.00  0.00    +0.141 S 
ATOM     27  O   UNL     1      -4.718   4.224  -1.519  0.00  0.00    -0.043 OA
ATOM     28  O   UNL     1      -4.574   2.179   0.106  0.00  0.00    -0.140 OA
ATOM     29  O   UNL     1      -3.934   4.331   0.991  0.00  0.00    -0.140 OA
ENDBRANCH  24  26
BRANCH  21  30
ATOM     30  S   UNL     1       1.728   2.896   1.219  0.00  0.00    +0.141 S 
ATOM     31  O   UNL     1       1.966   4.495   1.723  0.00  0.00    -0.043 OA
ATOM     32  O   UNL     1       3.050   2.484   0.609  0.00  0.00    -0.140 OA
ATOM     33  O   UNL     1       1.426   2.120   2.467  0.00  0.00    -0.140 OA
ENDBRANCH  21  30
ENDBRANCH   1  20
BRANCH   6  34
ATOM     34  C   UNL     1       5.793  -0.483  -1.403  0.00  0.00    +0.317 C 
ATOM     35  C   UNL     1       6.097   0.330  -0.156  0.00  0.00    +0.092 C 
ENDBRANCH   6  34
BRANCH   6  36
ATOM     36  C   UNL     1       5.483  -2.771  -0.532  0.00  0.00    +0.317 C 
ATOM     37  C   UNL     1       6.533  -2.460   0.498  0.00  0.00    +0.092 C 
ENDBRANCH   6  36
TORSDOF 9
