REMARK  Name = 
REMARK  5 active torsions:
REMARK  status: ('A' for Active; 'I' for Inactive)
REMARK    1  A    between atoms: C_2  and  C_4
REMARK    2  A    between atoms: C_4  and  C_6
REMARK    3  A    between atoms: C_6  and  C_8
REMARK    4  A    between atoms: C_8  and  C_10
REMARK    5  A    between atoms: C_10  and  C_12
REMARK                            x       y       z     vdW  Elec       q    Type
REMARK                         _______ _______ _______ _____ _____    ______ ____
ROOT
ATOM      1  C   UNL     1       0.342  -0.426   0.487  0.00  0.00    +0.226 C 
ATOM      2  O   UNL     1       0.710  -0.348   1.948  0.00  0.00    -0.217 OA
ENDROOT
BRANCH   1   3
ATOM      3  C   UNL     1       1.454   0.818  -0.049  0.00  0.00    +0.287 C 
ATOM      4  O   UNL     1       2.485   0.562   1.060  0.00  0.00    -0.208 OA
BRANCH   3   6
ATOM      5  O   UNL     1       3.271   0.269  -1.407  0.00  0.00    -0.243 OA
ATOM      6  C   UNL     1       2.269  -0.189  -1.059  0.00  0.00    +0.397 C 
ATOM      7  O   UNL     1       2.305  -1.493  -0.718  0.00  0.00    -0.243 OA
ENDBRANCH   3   6
ENDBRANCH   1   3
BRANCH   1   8
ATOM      8  C   UNL     1      -0.918   0.727   0.752  0.00  0.00    +0.218 C 
ATOM      9  O   UNL     1      -1.662  -0.277   1.598  0.00  0.00    -0.217 OA
BRANCH   8  10
ATOM     10  C   UNL     1      -1.681   0.322  -0.766  0.00  0.00    +0.218 C 
ATOM     11  O   UNL     1      -2.277   1.733  -0.855  0.00  0.00    -0.217 OA
BRANCH  10  12
ATOM     12  C   UNL     1      -3.091  -0.269  -0.112  0.00  0.00    +0.217 C 
ATOM     13  O   UNL     1      -3.205  -1.430  -0.880  0.00  0.00    -0.217 OA
ENDBRANCH  10  12
ENDBRANCH   8  10
ENDBRANCH   1   8
TORSDOF 5
