REMARK  Name = 
REMARK  0 active torsions:
REMARK  status: ('A' for Active; 'I' for Inactive)
REMARK                            x       y       z     vdW  Elec       q    Type
REMARK                         _______ _______ _______ _____ _____    ______ ____
ROOT
ATOM      1  C   UNL     1      -0.677   2.626  -0.367  0.00  0.00    +0.006 C 
ATOM      2  C   UNL     1      -1.107   1.249   0.414  0.00  0.00    +0.039 C 
ATOM      3  C   UNL     1      -0.015   0.378  -0.385  0.00  0.00    -0.024 A 
ATOM      4  C   UNL     1      -0.077  -1.003  -0.243  0.00  0.00    -0.025 A 
ATOM      5  C   UNL     1       1.075  -1.688  -0.614  0.00  0.00    -0.004 A 
ATOM      6  C   UNL     1       2.295  -1.038  -0.538  0.00  0.00    +0.011 A 
ATOM      7  C   UNL     1       2.339   0.291  -0.198  0.00  0.00    +0.057 A 
ATOM      8 CL   UNL     1       3.860   0.948   0.386  0.00  0.00    -0.082 Cl
ATOM      9  C   UNL     1      -1.173  -1.886   0.251  0.00  0.00    +0.045 C 
ATOM     10  C   UNL     1      -2.448  -1.517  -0.343  0.00  0.00    +0.093 C 
ATOM     11  N   UNL     1      -2.980  -0.239  -0.243  0.00  0.00    -0.217 NA
ATOM     12  C   UNL     1       1.166   0.988  -0.080  0.00  0.00    +0.007 A 
ATOM     13  C   UNL     1      -2.258   0.890  -0.696  0.00  0.00    +0.093 C 
ENDROOT
TORSDOF 0
