REMARK  Name = 
REMARK  35 active torsions:
REMARK  status: ('A' for Active; 'I' for Inactive)
REMARK    1  A    between atoms: C_2  and  C_3
REMARK    2  A    between atoms: C_3  and  C_4
REMARK    3  A    between atoms: C_4  and  C_5
REMARK    4  A    between atoms: C_5  and  C_6
REMARK    5  A    between atoms: C_6  and  C_7
REMARK    6  A    between atoms: C_7  and  C_8
REMARK    7  A    between atoms: C_8  and  C_9
REMARK    8  A    between atoms: C_9  and  C_10
REMARK    9  A    between atoms: C_13  and  O_14
REMARK   10  A    between atoms: O_14  and  C_15
REMARK   11  A    between atoms: C_15  and  C_16
REMARK   12  A    between atoms: C_16  and  O_17
REMARK   13  A    between atoms: O_17  and  C_18
REMARK   14  A    between atoms: C_18  and  C_19
REMARK   15  A    between atoms: C_19  and  O_20
REMARK   16  A    between atoms: O_20  and  C_21
REMARK   17  A    between atoms: C_21  and  C_22
REMARK   18  A    between atoms: C_22  and  O_23
REMARK   19  A    between atoms: O_23  and  C_24
REMARK   20  A    between atoms: C_24  and  C_25
REMARK   21  A    between atoms: C_25  and  O_26
REMARK   22  A    between atoms: O_26  and  C_27
REMARK   23  A    between atoms: C_27  and  C_28
REMARK   24  A    between atoms: C_28  and  O_29
REMARK   25  A    between atoms: O_29  and  C_30
REMARK   26  A    between atoms: C_30  and  C_31
REMARK   27  A    between atoms: C_31  and  O_32
REMARK   28  A    between atoms: O_32  and  C_33
REMARK   29  A    between atoms: C_33  and  C_34
REMARK   30  A    between atoms: C_34  and  O_35
REMARK   31  A    between atoms: O_35  and  C_36
REMARK   32  A    between atoms: C_36  and  C_37
REMARK   33  A    between atoms: C_37  and  O_38
REMARK   34  A    between atoms: O_38  and  C_39
REMARK   35  A    between atoms: C_39  and  C_40
REMARK                            x       y       z     vdW  Elec       q    Type
REMARK                         _______ _______ _______ _____ _____    ______ ____
ROOT
ATOM      1  O   UNL     1       0.499   0.980   1.532  0.00  0.00    -0.348 OA
ENDROOT
BRANCH   1   2
ATOM      2  C   UNL     1      -0.737   0.580   1.039  0.00  0.00    +0.174 C 
BRANCH   2   3
ATOM      3  C   UNL     1      -0.667  -0.787   0.366  0.00  0.00    +0.174 C 
BRANCH   3   4
ATOM      4  O   UNL     1      -1.914  -1.401   0.564  0.00  0.00    -0.347 OA
BRANCH   4   5
ATOM      5  C   UNL     1      -2.199  -1.555   1.909  0.00  0.00    +0.189 C 
BRANCH   5   6
ATOM      6  C   UNL     1      -3.106  -0.488   2.458  0.00  0.00    +0.237 C 
BRANCH   6   7
ATOM      7  O   UNL     1      -3.806   0.218   1.470  0.00  0.00    -0.473 OA
BRANCH   7  11
ATOM      8  C   UNL     1      -7.673   0.093   0.289  0.00  0.00    -0.022 A 
ATOM      9  C   UNL     1      -6.931   1.240   0.037  0.00  0.00    -0.001 A 
ATOM     10  C   UNL     1      -5.678   1.414   0.613  0.00  0.00    +0.037 A 
ATOM     11  C   UNL     1      -5.166   0.493   1.518  0.00  0.00    +0.139 A 
ATOM     12  C   UNL     1      -6.095  -0.388   2.055  0.00  0.00    +0.037 A 
ATOM     13  C   UNL     1      -7.329  -0.591   1.449  0.00  0.00    -0.001 A 
BRANCH   8  14
ATOM     14  C   UNL     1      -8.431  -0.567  -0.820  0.00  0.00    +0.026 C 
BRANCH  14  15
ATOM     15  C   UNL     1      -9.889  -0.729  -0.488  0.00  0.00    +0.005 C 
BRANCH  15  16
ATOM     16  C   UNL     1     -10.452   0.630  -0.169  0.00  0.00    +0.000 C 
BRANCH  16  17
ATOM     17  C   UNL     1     -10.784   0.646   1.315  0.00  0.00    +0.000 C 
BRANCH  17  18
ATOM     18  C   UNL     1     -12.109  -0.084   1.503  0.00  0.00    +0.000 C 
BRANCH  18  19
ATOM     19  C   UNL     1     -13.177   0.819   0.899  0.00  0.00    +0.000 C 
BRANCH  19  20
ATOM     20  C   UNL     1     -13.279   0.553  -0.584  0.00  0.00    +0.000 C 
BRANCH  20  22
ATOM     21  C   UNL     1     -14.748   1.259  -2.442  0.00  0.00    +0.000 C 
ATOM     22  C   UNL     1     -14.713   0.821  -0.999  0.00  0.00    +0.000 C 
ENDBRANCH  20  22
ENDBRANCH  19  20
ENDBRANCH  18  19
ENDBRANCH  17  18
ENDBRANCH  16  17
ENDBRANCH  15  16
ENDBRANCH  14  15
ENDBRANCH   8  14
ENDBRANCH   7  11
ENDBRANCH   6   7
ENDBRANCH   5   6
ENDBRANCH   4   5
ENDBRANCH   3   4
ENDBRANCH   2   3
ENDBRANCH   1   2
BRANCH   1  23
ATOM     23  C   UNL     1       1.212  -0.068   2.109  0.00  0.00    +0.174 C 
BRANCH  23  24
ATOM     24  C   UNL     1       1.991  -0.787   1.043  0.00  0.00    +0.174 C 
BRANCH  24  25
ATOM     25  O   UNL     1       2.334   0.019  -0.028  0.00  0.00    -0.348 OA
BRANCH  25  26
ATOM     26  C   UNL     1       2.735   1.291   0.339  0.00  0.00    +0.174 C 
BRANCH  26  27
ATOM     27  C   UNL     1       3.627   1.306   1.557  0.00  0.00    +0.174 C 
BRANCH  27  28
ATOM     28  O   UNL     1       4.933   1.080   1.103  0.00  0.00    -0.348 OA
BRANCH  28  29
ATOM     29  C   UNL     1       5.237  -0.243   1.380  0.00  0.00    +0.174 C 
BRANCH  29  30
ATOM     30  C   UNL     1       6.237  -0.776   0.376  0.00  0.00    +0.174 C 
BRANCH  30  31
ATOM     31  O   UNL     1       6.024  -0.141  -0.837  0.00  0.00    -0.348 OA
BRANCH  31  32
ATOM     32  C   UNL     1       6.797  -0.762  -1.816  0.00  0.00    +0.174 C 
BRANCH  32  33
ATOM     33  C   UNL     1       7.339   0.243  -2.808  0.00  0.00    +0.174 C 
BRANCH  33  34
ATOM     34  O   UNL     1       7.416  -0.379  -4.058  0.00  0.00    -0.348 OA
BRANCH  34  35
ATOM     35  C   UNL     1       8.728  -0.574  -4.450  0.00  0.00    +0.174 C 
BRANCH  35  36
ATOM     36  C   UNL     1       9.652   0.349  -3.669  0.00  0.00    +0.174 C 
BRANCH  36  37
ATOM     37  O   UNL     1       9.857  -0.230  -2.426  0.00  0.00    -0.348 OA
BRANCH  37  38
ATOM     38  C   UNL     1      10.860   0.498  -1.776  0.00  0.00    +0.174 C 
BRANCH  38  39
ATOM     39  C   UNL     1      11.272  -0.179  -0.481  0.00  0.00    +0.174 C 
BRANCH  39  40
ATOM     40  O   UNL     1      12.533  -0.737  -0.714  0.00  0.00    -0.348 OA
BRANCH  40  41
ATOM     41  C   UNL     1      13.312  -0.545   0.439  0.00  0.00    +0.178 C 
BRANCH  41  42
ATOM     42  C   UNL     1      13.715   0.921   0.431  0.00  0.00    +0.214 C 
ATOM     43  O   UNL     1      12.571   1.651   0.769  0.00  0.00    -0.218 OA
ENDBRANCH  41  42
ENDBRANCH  40  41
ENDBRANCH  39  40
ENDBRANCH  38  39
ENDBRANCH  37  38
ENDBRANCH  36  37
ENDBRANCH  35  36
ENDBRANCH  34  35
ENDBRANCH  33  34
ENDBRANCH  32  33
ENDBRANCH  31  32
ENDBRANCH  30  31
ENDBRANCH  29  30
ENDBRANCH  28  29
ENDBRANCH  27  28
ENDBRANCH  26  27
ENDBRANCH  25  26
ENDBRANCH  24  25
ENDBRANCH  23  24
ENDBRANCH   1  23
TORSDOF 35
