REMARK  Name = 
REMARK  4 active torsions:
REMARK  status: ('A' for Active; 'I' for Inactive)
REMARK    1  A    between atoms: C_2  and  C_3
REMARK    2  A    between atoms: C_3  and  C_4
REMARK    3  A    between atoms: C_4  and  C_6
REMARK    4  A    between atoms: C_6  and  C_7
REMARK                            x       y       z     vdW  Elec       q    Type
REMARK                         _______ _______ _______ _____ _____    ______ ____
ROOT
ATOM      1  C   UNL     1      -0.215  -0.707   0.191  0.00  0.00    +0.141 C 
ATOM      2  C   UNL     1      -0.995  -0.234  -0.998  0.00  0.00    +0.257 C 
ATOM      3  O   UNL     1      -1.617  -1.105  -1.674  0.00  0.00    -0.272 OA
ATOM      4  N   UNL     1      -1.347   1.146  -0.997  0.00  0.00    -0.125 NA
ATOM      5  C   UNL     1      -1.334   1.832   0.263  0.00  0.00    +0.352 C 
ATOM      6  O   UNL     1      -1.700   3.031   0.259  0.00  0.00    -0.248 OA
ATOM      7  N   UNL     1      -1.473   0.973   1.403  0.00  0.00    -0.125 NA
ATOM      8  C   UNL     1      -1.023  -0.394   1.363  0.00  0.00    +0.257 C 
ATOM      9  O   UNL     1      -0.883  -0.922   2.508  0.00  0.00    -0.272 OA
ENDROOT
BRANCH   1  10
ATOM     10  C   UNL     1       1.023   0.342   0.309  0.00  0.00    +0.017 C 
ATOM     11  C   UNL     1       2.071  -0.744   0.932  0.00  0.00    +0.001 C 
BRANCH  10  12
ATOM     12  C   UNL     1       1.504   0.053  -1.224  0.00  0.00    +0.001 C 
BRANCH  12  14
ATOM     13  C   UNL     1       3.762   0.777  -1.266  0.00  0.00    +0.000 C 
ATOM     14  C   UNL     1       2.508   1.175  -1.413  0.00  0.00    +0.000 C 
ENDBRANCH  12  14
ENDBRANCH  10  12
ENDBRANCH   1  10
BRANCH   1  15
ATOM     15  C   UNL     1       0.260  -2.038  -0.061  0.00  0.00    +0.018 C 
ATOM     16  C   UNL     1      -0.542  -3.186   0.405  0.00  0.00    +0.001 C 
ENDBRANCH   1  15
TORSDOF 4
