REMARK  Name = 
REMARK  3 active torsions:
REMARK  status: ('A' for Active; 'I' for Inactive)
REMARK    1  A    between atoms: C_2  and  O_4
REMARK    2  A    between atoms: O_4  and  C_5
REMARK    3  A    between atoms: C_5  and  C_6
REMARK                            x       y       z     vdW  Elec       q    Type
REMARK                         _______ _______ _______ _____ _____    ______ ____
ROOT
ATOM      1  C   UNL     1      -2.743   0.238  -0.481  0.00  0.00    +0.186 C 
ATOM      2  C   UNL     1      -1.311   0.438  -0.626  0.00  0.00    +0.040 C 
ATOM      3  C   UNL     1      -0.827  -0.879   0.170  0.00  0.00    +0.008 C 
ATOM      4  C   UNL     1       0.668  -0.906  -0.613  0.00  0.00    +0.022 C 
ATOM      5  C   UNL     1       1.289   0.302   0.388  0.00  0.00    +0.008 C 
ATOM      6  C   UNL     1       0.794   1.491  -0.598  0.00  0.00    +0.001 C 
ATOM      7  C   UNL     1       2.768   0.229  -0.256  0.00  0.00    +0.020 C 
ATOM      8  C   UNL     1       3.331  -0.876   0.579  0.00  0.00    -0.020 C 
ATOM      9  C   UNL     1       4.573  -0.831   0.973  0.00  0.00    +0.033 C 
ATOM     10  C   UNL     1       5.393   0.362   0.796  0.00  0.00    +0.173 C 
ATOM     11  C   UNL     1       4.925   1.320  -0.247  0.00  0.00    +0.069 C 
ATOM     12  O   UNL     1       6.376   0.649   1.509  0.00  0.00    -0.291 OA
ATOM     13  C   UNL     1       2.519  -2.099   0.531  0.00  0.00    -0.009 C 
ATOM     14  C   UNL     1       2.724  -0.067  -1.692  0.00  0.00    +0.004 C 
ATOM     15  C   UNL     1       3.443   1.540  -0.027  0.00  0.00    +0.012 C 
ATOM     16  C   UNL     1       1.208  -2.055   0.327  0.00  0.00    -0.027 C 
ATOM     17  C   UNL     1      -1.530  -1.825  -0.938  0.00  0.00    +0.004 C 
ATOM     18  C   UNL     1      -1.028   0.189  -2.106  0.00  0.00    +0.004 C 
ATOM     19  C   UNL     1      -0.646   1.623  -0.090  0.00  0.00    +0.004 C 
ATOM     20  C   UNL     1      -2.841  -1.097  -1.211  0.00  0.00    +0.047 C 
ENDROOT
BRANCH   1  21
ATOM     21  C   UNL     1      -3.480   1.325  -1.130  0.00  0.00    +0.187 C 
ATOM     22  O   UNL     1      -3.294   2.444  -0.654  0.00  0.00    -0.292 OA
ATOM     23  C   UNL     1      -4.294   1.224  -2.352  0.00  0.00    +0.076 C 
ENDBRANCH   1  21
BRANCH   1  24
ATOM     24  O   UNL     1      -3.285  -0.000   0.783  0.00  0.00    -0.449 OA
BRANCH  24  26
ATOM     25  C   UNL     1      -5.601  -0.454   1.659  0.00  0.00    +0.121 C 
ATOM     26  C   UNL     1      -4.500  -0.699   0.777  0.00  0.00    +0.318 C 
ATOM     27  O   UNL     1      -4.630  -1.587  -0.120  0.00  0.00    -0.250 OA
ENDBRANCH  24  26
ENDBRANCH   1  24
TORSDOF 3
