REMARK  Name = 
REMARK  0 active torsions:
REMARK  status: ('A' for Active; 'I' for Inactive)
REMARK                            x       y       z     vdW  Elec       q    Type
REMARK                         _______ _______ _______ _____ _____    ______ ____
ROOT
ATOM      1  O   UNL     1       2.343   0.007  -0.089  0.00  0.00    -0.287 OA
ATOM      2  C   UNL     1       0.977  -0.019   0.214  0.00  0.00    +0.196 A 
ATOM      3  C   UNL     1       0.303   1.147  -0.134  0.00  0.00    +0.042 A 
ATOM      4  C   UNL     1      -1.052   1.179   0.160  0.00  0.00    +0.003 A 
ATOM      5  C   UNL     1      -1.759   0.034  -0.182  0.00  0.00    +0.000 A 
ATOM      6  C   UNL     1      -1.093  -1.157   0.088  0.00  0.00    +0.003 A 
ATOM      7  C   UNL     1       0.281  -1.191  -0.057  0.00  0.00    +0.042 A 
ENDROOT
TORSDOF 0
