REMARK  Name = 
REMARK  1 active torsions:
REMARK  status: ('A' for Active; 'I' for Inactive)
REMARK    1  A    between atoms: C_10  and  C_11
REMARK                            x       y       z     vdW  Elec       q    Type
REMARK                         _______ _______ _______ _____ _____    ______ ____
ROOT
ATOM      1  C   UNL     1      -2.959  -1.642   0.460  0.00  0.00    -0.000 A 
ATOM      2  C   UNL     1      -3.075  -0.266   0.419  0.00  0.00    -0.005 A 
ATOM      3  C   UNL     1      -1.989   0.468  -0.044  0.00  0.00    -0.026 A 
ATOM      4  C   UNL     1      -1.958   1.956   0.121  0.00  0.00    +0.026 C 
ATOM      5  C   UNL     1      -1.002   2.525  -0.881  0.00  0.00    +0.006 C 
ATOM      6  C   UNL     1       0.341   1.872  -0.906  0.00  0.00    +0.017 C 
ATOM      7  C   UNL     1       0.380   0.848   0.398  0.00  0.00    +0.131 C 
ATOM      8  C   UNL     1      -0.748  -0.119  -0.271  0.00  0.00    -0.015 A 
ATOM      9  C   UNL     1      -0.653  -1.443   0.136  0.00  0.00    -0.004 A 
ATOM     10  C   UNL     1      -1.799  -2.213  -0.026  0.00  0.00    -0.000 A 
ENDROOT
BRANCH   7  11
ATOM     11  C   UNL     1       1.603  -0.031  -0.233  0.00  0.00    +0.336 C 
ATOM     12  N   UNL     1       1.938  -1.208   0.514  0.00  0.00    -0.030 NA
ATOM     13  C   UNL     1       3.364  -1.264   0.775  0.00  0.00    +0.308 C 
ATOM     14  C   UNL     1       3.856  -0.041   0.065  0.00  0.00    +0.318 C 
ATOM     15  N   UNL     1       2.701   0.558  -0.528  0.00  0.00    -0.061 NA
ENDBRANCH   7  11
TORSDOF 1
