REMARK  Name = 
REMARK  10 active torsions:
REMARK  status: ('A' for Active; 'I' for Inactive)
REMARK    1  A    between atoms: C_2  and  C_4
REMARK    2  A    between atoms: C_2  and  C_7
REMARK    3  A    between atoms: C_10  and  C_11
REMARK    4  A    between atoms: C_11  and  C_13
REMARK    5  A    between atoms: C_13  and  C_14
REMARK    6  A    between atoms: C_14  and  C_15
REMARK    7  A    between atoms: C_15  and  N_16
REMARK    8  A    between atoms: C_19  and  C_20
REMARK    9  A    between atoms: C_20  and  C_22
REMARK   10  A    between atoms: C_20  and  C_28
REMARK                            x       y       z     vdW  Elec       q    Type
REMARK                         _______ _______ _______ _____ _____    ______ ____
ROOT
ATOM      1  N   UNL     1      -0.717  -0.561   0.291  0.00  0.00    -0.273 NA
ATOM      2  C   UNL     1      -1.415  -1.803   0.179  0.00  0.00    +0.072 C 
ATOM      3  C   UNL     1      -2.514  -1.853  -0.810  0.00  0.00    +0.020 C 
ATOM      4  C   UNL     1      -3.018  -0.582  -1.350  0.00  0.00    +0.039 C 
ATOM      5  C   UNL     1      -2.227   0.643  -1.067  0.00  0.00    +0.020 C 
ATOM      6  C   UNL     1      -0.770   0.224  -0.935  0.00  0.00    +0.072 C 
ENDROOT
BRANCH   4   7
ATOM      7  C   UNL     1      -4.499  -0.399  -1.345  0.00  0.00    +0.164 C 
ATOM      8  O   UNL     1      -4.992  -0.817  -2.586  0.00  0.00    -0.217 OA
BRANCH   7   9
ATOM      9  C   UNL     1      -4.910   1.012  -1.073  0.00  0.00    +0.009 A 
ATOM     10  C   UNL     1      -5.044   1.473   0.227  0.00  0.00    -0.002 A 
ATOM     11  C   UNL     1      -5.788   2.602   0.531  0.00  0.00    -0.000 A 
ATOM     12  C   UNL     1      -6.587   3.126  -0.470  0.00  0.00    -0.000 A 
ATOM     13  C   UNL     1      -6.211   2.890  -1.766  0.00  0.00    -0.000 A 
ATOM     14  C   UNL     1      -5.354   1.843  -2.075  0.00  0.00    -0.002 A 
ENDBRANCH   7   9
BRANCH   7  15
ATOM     15  C   UNL     1      -5.112  -1.247  -0.304  0.00  0.00    +0.009 A 
ATOM     16  C   UNL     1      -4.579  -1.186   0.964  0.00  0.00    -0.002 A 
ATOM     17  C   UNL     1      -5.115  -2.016   1.915  0.00  0.00    -0.000 A 
ATOM     18  C   UNL     1      -6.472  -2.298   1.825  0.00  0.00    -0.000 A 
ATOM     19  C   UNL     1      -7.113  -2.094   0.626  0.00  0.00    -0.000 A 
ATOM     20  C   UNL     1      -6.437  -1.574  -0.448  0.00  0.00    -0.002 A 
ENDBRANCH   7  15
ENDBRANCH   4   7
BRANCH   1  21
ATOM     21  C   UNL     1       0.646  -0.713   0.750  0.00  0.00    +0.072 C 
BRANCH  21  22
ATOM     22  C   UNL     1       1.117   0.614   1.333  0.00  0.00    +0.020 C 
BRANCH  22  23
ATOM     23  C   UNL     1       1.480   1.490   0.150  0.00  0.00    +0.039 C 
BRANCH  23  24
ATOM     24  C   UNL     1       2.502   0.556  -0.756  0.00  0.00    +0.174 C 
ATOM     25  O   UNL     1       2.666   1.673  -1.783  0.00  0.00    -0.218 OA
BRANCH  24  29
ATOM     26  C   UNL     1       6.290   0.133   0.909  0.00  0.00    -0.013 A 
ATOM     27  C   UNL     1       5.181  -0.218   1.625  0.00  0.00    -0.004 A 
ATOM     28  C   UNL     1       3.941   0.174   1.161  0.00  0.00    -0.002 A 
ATOM     29  C   UNL     1       3.792   1.061   0.096  0.00  0.00    +0.008 A 
ATOM     30  C   UNL     1       4.951   1.198  -0.668  0.00  0.00    -0.002 A 
ATOM     31  C   UNL     1       6.160   1.174   0.007  0.00  0.00    -0.004 A 
BRANCH  26  33
ATOM     32  C   UNL     1       7.667  -0.243   1.322  0.00  0.00    +0.016 C 
ATOM     33  C   UNL     1       7.664  -0.243   1.308  0.00  0.00    +0.113 C 
ATOM     34  C   UNL     1       8.141   0.348   2.596  0.00  0.00    +0.016 C 
BRANCH  33  35
ATOM     35  C   UNL     1       8.608  -0.119   0.169  0.00  0.00    +0.368 C 
ATOM     36  O   UNL     1       9.915   0.168   0.466  0.00  0.00    -0.245 OA
ATOM     37  O   UNL     1       8.151  -0.048  -1.013  0.00  0.00    -0.245 OA
ENDBRANCH  33  35
ENDBRANCH  26  33
ENDBRANCH  24  29
ENDBRANCH  23  24
ENDBRANCH  22  23
ENDBRANCH  21  22
ENDBRANCH   1  21
TORSDOF 10
