REMARK  Name = 
REMARK  2 active torsions:
REMARK  status: ('A' for Active; 'I' for Inactive)
REMARK    1  A    between atoms: N_2  and  C_3
REMARK    2  A    between atoms: C_3  and  C_4
REMARK                            x       y       z     vdW  Elec       q    Type
REMARK                         _______ _______ _______ _____ _____    ______ ____
ROOT
ATOM      1  C   UNL     1       2.117  -1.634  -0.806  0.00  0.00    +0.170 C 
ATOM      2  N   UNL     1       1.937  -1.456  -0.230  0.00  0.00    +0.299 N 
ATOM      3  C   UNL     1       1.693   0.103  -0.172  0.00  0.00    +0.092 C 
ATOM      4  C   UNL     1       0.412   0.022  -1.185  0.00  0.00    +0.178 C 
ATOM      5  C   UNL     1      -0.708  -0.586  -0.543  0.00  0.00    +0.102 C 
ATOM      6  C   UNL     1      -1.980  -0.504  -1.565  0.00  0.00    +0.229 C 
ATOM      7  O   UNL     1      -3.014  -0.550  -0.417  0.00  0.00    -0.468 OA
ATOM      8  C   UNL     1      -2.554   0.387   0.515  0.00  0.00    +0.173 A 
ATOM      9  C   UNL     1      -3.036   0.808   1.753  0.00  0.00    +0.229 A 
ATOM     10  C   UNL     1      -2.148   1.376   2.665  0.00  0.00    +0.045 A 
ATOM     11  C   UNL     1      -0.781   1.454   2.387  0.00  0.00    -0.001 A 
ATOM     12  C   UNL     1      -0.255   0.934   1.205  0.00  0.00    -0.017 A 
ATOM     13  O   UNL     1      -4.381   0.642   2.000  0.00  0.00    -0.283 OA
ATOM     14  C   UNL     1      -2.004   1.121  -1.608  0.00  0.00    +0.191 C 
ATOM     15  O   UNL     1      -3.124   1.526  -1.920  0.00  0.00    -0.292 OA
ATOM     16  C   UNL     1      -0.891   1.710  -2.423  0.00  0.00    +0.071 C 
ATOM     17  C   UNL     1      -1.214   0.335   0.436  0.00  0.00    +0.017 A 
ATOM     18  C   UNL     1      -0.488  -1.983  -0.165  0.00  0.00    +0.072 C 
ATOM     19  C   UNL     1       0.343   1.453  -1.608  0.00  0.00    +0.044 C 
ATOM     20  O   UNL     1       0.842  -0.717  -2.285  0.00  0.00    -0.219 OA
ATOM     21  C   UNL     1       0.938   0.030   1.282  0.00  0.00    +0.084 C 
ATOM     22  C   UNL     1       0.874  -2.136   0.397  0.00  0.00    +0.109 C 
ENDROOT
BRANCH   2  23
ATOM     23  C   UNL     1       3.102  -1.519   0.658  0.00  0.00    +0.108 C 
BRANCH  23  24
ATOM     24  C   UNL     1       4.212  -0.814  -0.089  0.00  0.00    +0.055 C 
ATOM     25  C   UNL     1       5.536  -0.589   0.509  0.00  0.00    +0.006 C 
ATOM     26  C   UNL     1       4.571   0.586   0.185  0.00  0.00    +0.006 C 
ENDBRANCH  23  24
ENDBRANCH   2  23
TORSDOF 2
