REMARK  Name = 
REMARK  5 active torsions:
REMARK  status: ('A' for Active; 'I' for Inactive)
REMARK    1  A    between atoms: N_2  and  C_4
REMARK    2  A    between atoms: C_4  and  C_5
REMARK    3  A    between atoms: C_5  and  C_6
REMARK    4  A    between atoms: C_19  and  C_20
REMARK    5  A    between atoms: C_20  and  C_21
REMARK                            x       y       z     vdW  Elec       q    Type
REMARK                         _______ _______ _______ _____ _____    ______ ____
ROOT
ATOM      1  C   UNL     1      -1.138   1.272  -0.430  0.00  0.00    -0.025 C 
ATOM      2  C   UNL     1      -0.899   0.050  -0.021  0.00  0.00    -0.002 C 
ATOM      3  C   UNL     1       0.453  -0.456  -0.292  0.00  0.00    +0.033 A 
ATOM      4  C   UNL     1       0.829  -1.794  -0.276  0.00  0.00    +0.139 A 
ATOM      5  C   UNL     1       1.923  -2.170  -1.035  0.00  0.00    +0.037 A 
ATOM      6  C   UNL     1       2.811  -1.152  -1.367  0.00  0.00    -0.001 A 
ATOM      7  C   UNL     1       2.660   0.124  -0.836  0.00  0.00    -0.011 A 
ATOM      8  O   UNL     1       0.166  -2.827   0.348  0.00  0.00    -0.471 OA
ATOM      9  C   UNL     1      -0.854  -2.786   1.330  0.00  0.00    +0.232 C 
ATOM     10  C   UNL     1      -2.043  -2.009   0.864  0.00  0.00    +0.021 A 
ATOM     11  C   UNL     1      -3.223  -2.573   1.295  0.00  0.00    -0.001 A 
ATOM     12  C   UNL     1      -4.375  -2.158   0.640  0.00  0.00    -0.000 A 
ATOM     13  C   UNL     1      -4.392  -0.999  -0.126  0.00  0.00    -0.000 A 
ATOM     14  C   UNL     1      -3.274  -0.175  -0.079  0.00  0.00    -0.000 A 
ATOM     15  C   UNL     1       1.355   0.551  -0.614  0.00  0.00    -0.001 A 
ATOM     16  C   UNL     1      -2.085  -0.693   0.420  0.00  0.00    -0.001 A 
ENDROOT
BRANCH   1  17
ATOM     17  C   UNL     1       0.009   2.188  -0.702  0.00  0.00    +0.043 C 
BRANCH  17  18
ATOM     18  C   UNL     1      -0.176   3.543  -0.080  0.00  0.00    +0.077 C 
BRANCH  18  20
ATOM     19  C   UNL     1      -2.404   3.486   0.842  0.00  0.00    +0.090 C 
ATOM     20  N   UNL     1      -1.523   4.037  -0.151  0.00  0.00    -0.270 NA
ATOM     21  C   UNL     1      -2.076   4.047  -1.478  0.00  0.00    +0.090 C 
ENDBRANCH  18  20
ENDBRANCH  17  18
ENDBRANCH   1  17
BRANCH   7  22
ATOM     22  C   UNL     1       3.841   0.973  -0.478  0.00  0.00    +0.140 C 
BRANCH  22  23
ATOM     23  C   UNL     1       4.741   0.202   0.436  0.00  0.00    +0.369 C 
ATOM     24  O   UNL     1       4.941  -1.143   0.111  0.00  0.00    -0.245 OA
ATOM     25  O   UNL     1       4.733   0.461   1.678  0.00  0.00    -0.245 OA
ENDBRANCH  22  23
ENDBRANCH   7  22
TORSDOF 5
