REMARK  Name = 
REMARK  13 active torsions:
REMARK  status: ('A' for Active; 'I' for Inactive)
REMARK    1  A    between atoms: C_2  and  C_3
REMARK    2  A    between atoms: C_3  and  C_4
REMARK    3  A    between atoms: C_4  and  O_5
REMARK    4  A    between atoms: O_5  and  C_6
REMARK    5  A    between atoms: C_6  and  C_7
REMARK    6  A    between atoms: C_7  and  O_8
REMARK    7  A    between atoms: O_8  and  C_9
REMARK    8  A    between atoms: C_9  and  C_10
REMARK    9  A    between atoms: C_10  and  O_11
REMARK   10  A    between atoms: O_11  and  C_12
REMARK   11  A    between atoms: C_12  and  C_13
REMARK   12  A    between atoms: C_18  and  C_19
REMARK   13  A    between atoms: C_19  and  C_20
REMARK                            x       y       z     vdW  Elec       q    Type
REMARK                         _______ _______ _______ _____ _____    ______ ____
ROOT
ATOM      1  C   UNL     1      -0.608  -1.091   0.651  0.00  0.00    +0.168 C 
ENDROOT
BRANCH   1   2
ATOM      2  C   UNL     1      -1.941  -0.552   0.259  0.00  0.00    +0.007 A 
ATOM      3  C   UNL     1      -2.413   0.670   0.692  0.00  0.00    -0.021 A 
ATOM      4  C   UNL     1      -3.747   0.949   0.469  0.00  0.00    +0.036 A 
ATOM      5  C   UNL     1      -4.580   0.043  -0.165  0.00  0.00    +0.176 A 
ATOM      6  O   UNL     1      -5.946  -0.195  -0.159  0.00  0.00    -0.435 OA
ATOM      7  C   UNL     1      -6.213  -1.196  -1.116  0.00  0.00    +0.429 C 
ATOM      8  O   UNL     1      -4.968  -1.698  -1.541  0.00  0.00    -0.435 OA
ATOM      9  C   UNL     1      -3.984  -0.951  -0.908  0.00  0.00    +0.176 A 
ATOM     10  C   UNL     1      -2.674  -1.294  -0.632  0.00  0.00    +0.038 A 
BRANCH   3  11
ATOM     11  C   UNL     1      -1.571   1.414   1.656  0.00  0.00    +0.026 C 
BRANCH  11  12
ATOM     12  C   UNL     1      -2.312   2.581   2.259  0.00  0.00    +0.005 C 
ATOM     13  C   UNL     1      -2.795   3.522   1.179  0.00  0.00    +0.000 C 
ENDBRANCH  11  12
ENDBRANCH   3  11
ENDBRANCH   1   2
BRANCH   1  14
ATOM     14  O   UNL     1      -0.057  -1.786  -0.437  0.00  0.00    -0.346 OA
BRANCH  14  15
ATOM     15  C   UNL     1       0.526  -0.807  -1.251  0.00  0.00    +0.175 C 
BRANCH  15  16
ATOM     16  C   UNL     1       1.775  -0.298  -0.578  0.00  0.00    +0.174 C 
BRANCH  16  17
ATOM     17  O   UNL     1       2.006  -0.934   0.635  0.00  0.00    -0.348 OA
BRANCH  17  18
ATOM     18  C   UNL     1       3.331  -1.324   0.706  0.00  0.00    +0.174 C 
BRANCH  18  19
ATOM     19  C   UNL     1       4.293  -0.171   0.782  0.00  0.00    +0.174 C 
BRANCH  19  20
ATOM     20  O   UNL     1       4.167   0.726  -0.262  0.00  0.00    -0.351 OA
BRANCH  20  21
ATOM     21  C   UNL     1       5.219   0.687  -1.160  0.00  0.00    +0.142 C 
BRANCH  21  22
ATOM     22  C   UNL     1       6.523   1.154  -0.577  0.00  0.00    +0.032 C 
BRANCH  22  24
ATOM     23  C   UNL     1       8.653   0.544   0.423  0.00  0.00    +0.000 C 
ATOM     24  C   UNL     1       7.317   0.006  -0.019  0.00  0.00    +0.003 C 
ENDBRANCH  22  24
ENDBRANCH  21  22
ENDBRANCH  20  21
ENDBRANCH  19  20
ENDBRANCH  18  19
ENDBRANCH  17  18
ENDBRANCH  16  17
ENDBRANCH  15  16
ENDBRANCH  14  15
ENDBRANCH   1  14
TORSDOF 13
