REMARK  Name = 
REMARK  9 active torsions:
REMARK  status: ('A' for Active; 'I' for Inactive)
REMARK    1  A    between atoms: C_7  and  C_8
REMARK    2  A    between atoms: C_8  and  C_9
REMARK    3  A    between atoms: C_9  and  C_10
REMARK    4  A    between atoms: C_13  and  C_14
REMARK    5  A    between atoms: N_16  and  CA_17
REMARK    6  A    between atoms: CA_17  and  CB_18
REMARK    7  A    between atoms: CA_17  and  C_23
REMARK    8  A    between atoms: CB_18  and  CG_19
REMARK    9  A    between atoms: CG_19  and  CD_20
REMARK                            x       y       z     vdW  Elec       q    Type
REMARK                         _______ _______ _______ _____ _____    ______ ____
ROOT
ATOM      1  C   UNK A   0      -0.287   0.244  -0.672  0.00  0.00    -0.022 A 
ATOM      2  C   UNK A   0       0.293   0.444   0.575  0.00  0.00    -0.004 A 
ATOM      3  C   UNK A   0       1.362  -0.349   0.904  0.00  0.00    +0.004 A 
ATOM      4  C   UNK A   0       1.717  -1.485   0.186  0.00  0.00    +0.055 A 
ATOM      5  C   UNK A   0       0.878  -1.835  -0.835  0.00  0.00    +0.004 A 
ATOM      6  C   UNK A   0      -0.238  -1.067  -1.133  0.00  0.00    -0.004 A 
ENDROOT
BRANCH   4   7
ATOM      7  C   UNK A   0       3.160  -1.761   0.173  0.00  0.00    +0.265 C 
ATOM      8  N   GLU A   1       3.864  -1.520  -1.004  0.00  0.00    -0.192 NA
ATOM      9  O   UNK A   0       3.808  -1.991   1.239  0.00  0.00    -0.268 OA
BRANCH   8  10
ATOM     10  CA  GLU A   1       5.457  -1.492  -0.906  0.00  0.00    +0.199 C 
BRANCH  10  11
ATOM     11  C   GLU A   1       5.503  -2.814   0.066  0.00  0.00    +0.384 C 
ATOM     12  OXT GLU A   1       5.035  -3.940  -0.620  0.00  0.00    -0.244 OA
ATOM     13  O   GLU A   1       6.549  -2.823   0.761  0.00  0.00    -0.244 OA
ENDBRANCH  10  11
BRANCH  10  14
ATOM     14  CB  GLU A   1       5.442  -0.454   0.404  0.00  0.00    +0.045 C 
BRANCH  14  15
ATOM     15  CG  GLU A   1       5.033   0.836  -0.300  0.00  0.00    +0.116 C 
BRANCH  15  16
ATOM     16  CD  GLU A   1       6.110   1.857  -0.252  0.00  0.00    +0.365 C 
ATOM     17  OE2 GLU A   1       5.765   3.181  -0.074  0.00  0.00    -0.246 OA
ATOM     18  OE1 GLU A   1       7.314   1.473  -0.283  0.00  0.00    -0.246 OA
ENDBRANCH  15  16
ENDBRANCH  14  15
ENDBRANCH  10  14
ENDBRANCH   8  10
ENDBRANCH   4   7
BRANCH   1  19
ATOM     19  C   UNK A   0      -1.517   1.018  -0.995  0.00  0.00    +0.031 C 
BRANCH  19  20
ATOM     20  C   UNK A   0      -2.662   0.018  -0.896  0.00  0.00    +0.033 C 
BRANCH  20  30
ATOM     21  N   UNK A   0      -8.473   1.190   1.261  0.00  0.00    -0.086 NA
ATOM     22  C   UNK A   0      -7.354   1.179   0.889  0.00  0.00    +0.261 A 
ATOM     23  N   UNK A   0      -6.320   0.643   1.579  0.00  0.00    -0.172 NA
ATOM     24  C   UNK A   0      -5.089   0.531   1.025  0.00  0.00    +0.284 A 
ATOM     25  O   UNK A   0      -4.239  -0.191   1.584  0.00  0.00    -0.265 OA
ATOM     26  C   UNK A   0      -4.833   1.054  -0.234  0.00  0.00    +0.091 A 
ATOM     27  C   UNK A   0      -5.841   1.735  -0.855  0.00  0.00    +0.170 A 
ATOM     28  N   UNK A   0      -5.324   2.188  -2.023  0.00  0.00    -0.225 NA
ATOM     29  C   UNK A   0      -4.207   1.492  -2.337  0.00  0.00    +0.097 A 
ATOM     30  C   UNK A   0      -3.910   0.739  -1.215  0.00  0.00    +0.005 A 
ATOM     31  N   UNK A   0      -6.996   1.902  -0.198  0.00  0.00    -0.192 NA
ENDBRANCH  20  30
ENDBRANCH  19  20
ENDBRANCH   1  19
TORSDOF 9
