REMARK  Name = 
REMARK  3 active torsions:
REMARK  status: ('A' for Active; 'I' for Inactive)
REMARK    1  A    between atoms: C_2  and  C_3
REMARK    2  A    between atoms: C_3  and  N_17
REMARK    3  A    between atoms: C_7  and  C_8
REMARK                            x       y       z     vdW  Elec       q    Type
REMARK                         _______ _______ _______ _____ _____    ______ ____
ROOT
ATOM      1  C   UNL     1       2.636   0.224   0.679  0.00  0.00    +0.146 C 
ATOM      2  C   UNL     1       1.497  -0.008   0.025  0.00  0.00    +0.077 C 
ATOM      3  S   UNL     1      -0.129   0.551   0.496  0.00  0.00    -0.101 S 
ATOM      4  C   UNL     1      -1.144  -0.448  -0.784  0.00  0.00    +0.087 C 
ATOM      5  C   UNL     1      -0.545  -1.839  -0.274  0.00  0.00    +0.078 C 
ATOM      6  S   UNL     1       1.181  -1.568  -0.814  0.00  0.00    -0.104 S 
ENDROOT
BRANCH   4   7
ATOM      7  C   UNL     1      -2.473  -0.579   0.028  0.00  0.00    -0.001 A 
ATOM      8  C   UNL     1      -3.561  -0.817  -0.808  0.00  0.00    +0.055 A 
ATOM      9 CL   UNL     1      -3.398  -1.950  -2.145  0.00  0.00    -0.083 Cl
ATOM     10  C   UNL     1      -4.798  -0.223  -0.579  0.00  0.00    +0.022 A 
ATOM     11  C   UNL     1      -4.966   0.627   0.507  0.00  0.00    +0.058 A 
ATOM     12 CL   UNL     1      -6.044   2.019   0.447  0.00  0.00    -0.082 Cl
ATOM     13  C   UNL     1      -4.025   0.470   1.517  0.00  0.00    +0.011 A 
ATOM     14  C   UNL     1      -2.728   0.131   1.144  0.00  0.00    -0.002 A 
ENDBRANCH   4   7
BRANCH   1  15
ATOM     15  N   UNL     1       3.821   0.021  -0.088  0.00  0.00    -0.277 N 
ATOM     16  C   UNL     1       3.992  -0.710  -1.188  0.00  0.00    +0.183 A 
ATOM     17  N   UNL     1       5.111  -0.306  -1.838  0.00  0.00    -0.222 NA
ATOM     18  C   UNL     1       5.445   0.910  -1.339  0.00  0.00    +0.120 A 
ATOM     19  C   UNL     1       4.813   0.946  -0.106  0.00  0.00    +0.103 A 
ENDBRANCH   1  15
BRANCH   1  21
ATOM     20  N   UNL     1       2.664   1.515   2.838  0.00  0.00    -0.189 NA
ATOM     21  C   UNL     1       2.652   1.033   1.865  0.00  0.00    +0.119 C 
ENDBRANCH   1  21
TORSDOF 3
