REMARK  Name = 
REMARK  9 active torsions:
REMARK  status: ('A' for Active; 'I' for Inactive)
REMARK    1  A    between atoms: C_2  and  C_4
REMARK    2  A    between atoms: C_4  and  O_6
REMARK    3  A    between atoms: O_6  and  C_7
REMARK    4  A    between atoms: C_7  and  O_9
REMARK    5  A    between atoms: O_9  and  C_10
REMARK    6  A    between atoms: N_12  and  C_13
REMARK    7  A    between atoms: C_13  and  C_14
REMARK    8  A    between atoms: C_14  and  C_15
REMARK    9  A    between atoms: C_15  and  C_16
REMARK                            x       y       z     vdW  Elec       q    Type
REMARK                         _______ _______ _______ _____ _____    ______ ____
ROOT
ATOM      1  C   UNL     1      -0.563   0.152  -0.104  0.00  0.00    +0.424 C 
ATOM      2  N   UNL     1       0.783  -0.188  -0.444  0.00  0.00    -0.169 NA
ATOM      3  O   UNL     1      -0.879   0.011   1.115  0.00  0.00    -0.224 OA
ENDROOT
BRANCH   1   4
ATOM      4  O   UNL     1      -1.164   1.186  -0.755  0.00  0.00    -0.398 OA
BRANCH   4   5
ATOM      5  C   UNL     1      -2.653   1.481  -0.473  0.00  0.00    +0.346 C 
ATOM      6  C   UNL     1      -2.486   1.300   1.166  0.00  0.00    +0.100 C 
BRANCH   5   7
ATOM      7  O   UNL     1      -3.058  -0.005  -0.647  0.00  0.00    -0.414 OA
BRANCH   7   8
ATOM      8  C   UNL     1      -4.447  -0.158  -0.611  0.00  0.00    +0.319 C 
ATOM      9  O   UNL     1      -5.229   0.834  -0.513  0.00  0.00    -0.250 OA
BRANCH   8  11
ATOM     10  C   UNL     1      -4.554  -2.033  -1.676  0.00  0.00    +0.012 C 
ATOM     11  C   UNL     1      -5.111  -1.452  -0.960  0.00  0.00    +0.099 C 
ATOM     12  C   UNL     1      -5.534  -2.105   0.326  0.00  0.00    +0.012 C 
ENDBRANCH   8  11
ENDBRANCH   7   8
ENDBRANCH   5   7
ENDBRANCH   4   5
ENDBRANCH   1   4
BRANCH   2  13
ATOM     13  C   UNL     1       1.877  -0.171   0.522  0.00  0.00    +0.119 C 
BRANCH  13  14
ATOM     14  C   UNL     1       3.094   0.294  -0.260  0.00  0.00    +0.031 C 
ATOM     15  C   UNL     1       4.216   0.741   0.629  0.00  0.00    +0.002 C 
ATOM     16  C   UNL     1       3.913   2.022   1.362  0.00  0.00    +0.000 C 
ATOM     17  C   UNL     1       2.603   2.634   0.968  0.00  0.00    +0.000 C 
ATOM     18  C   UNL     1       2.513   2.729  -0.530  0.00  0.00    +0.000 C 
ATOM     19  C   UNL     1       2.660   1.401  -1.212  0.00  0.00    +0.002 C 
BRANCH  14  20
ATOM     20  C   UNL     1       3.531  -0.864  -1.107  0.00  0.00    +0.116 C 
BRANCH  20  21
ATOM     21  C   UNL     1       3.609  -2.145  -0.346  0.00  0.00    +0.365 C 
ATOM     22  O   UNL     1       2.536  -2.629   0.410  0.00  0.00    -0.246 OA
ATOM     23  O   UNL     1       4.344  -3.034  -0.871  0.00  0.00    -0.246 OA
ENDBRANCH  20  21
ENDBRANCH  14  20
ENDBRANCH  13  14
ENDBRANCH   2  13
TORSDOF 9
