REMARK  Name = 
REMARK  9 active torsions:
REMARK  status: ('A' for Active; 'I' for Inactive)
REMARK    1  A    between atoms: C_2  and  C_3
REMARK    2  A    between atoms: C_5  and  O_6
REMARK    3  A    between atoms: O_6  and  C_7
REMARK    4  A    between atoms: C_8  and  C_9
REMARK    5  A    between atoms: C_12  and  O_13
REMARK    6  A    between atoms: O_13  and  C_14
REMARK    7  A    between atoms: C_15  and  O_16
REMARK    8  A    between atoms: O_16  and  C_17
REMARK    9  A    between atoms: C_19  and  C_20
REMARK                            x       y       z     vdW  Elec       q    Type
REMARK                         _______ _______ _______ _____ _____    ______ ____
ROOT
ATOM      1  O   UNL     1      -0.009  -0.522  -1.140  0.00  0.00    -0.326 OA
ENDROOT
BRANCH   1   2
ATOM      2  C   UNL     1      -1.083  -1.047  -0.274  0.00  0.00    +0.178 C 
ATOM      3  C   UNL     1      -1.565  -2.192  -1.423  0.00  0.00    +0.199 C 
ATOM      4  O   UNL     1      -3.019  -2.201  -1.080  0.00  0.00    -0.219 OA
ATOM      5  C   UNL     1      -1.866  -1.431  -2.925  0.00  0.00    +0.126 C 
ATOM      6  N   UNL     1      -0.512  -0.697  -3.129  0.00  0.00    -0.130 NA
ATOM      7  C   UNL     1      -2.782  -0.287  -2.392  0.00  0.00    +0.043 C 
ATOM      8  C   UNL     1      -2.255   1.025  -1.720  0.00  0.00    +0.123 C 
ATOM      9  N   UNL     1      -0.741   1.191  -2.086  0.00  0.00    -0.130 NA
ATOM     10  C   UNL     1      -2.074   0.325  -0.155  0.00  0.00    +0.165 C 
BRANCH  10  11
ATOM     11  O   UNL     1      -3.469  -0.263  -0.124  0.00  0.00    -0.328 OA
BRANCH  11  12
ATOM     12  C   UNL     1      -3.607  -0.202   1.405  0.00  0.00    +0.256 C 
ATOM     13  C   UNL     1      -5.174  -0.878   1.555  0.00  0.00    +0.181 C 
ATOM     14  N   UNL     1      -5.557  -1.195   0.097  0.00  0.00    -0.125 NA
ATOM     15  C   UNL     1      -6.288   0.387   1.710  0.00  0.00    +0.207 C 
ATOM     16  O   UNL     1      -5.569   1.191   2.776  0.00  0.00    -0.219 OA
ATOM     17  C   UNL     1      -6.102   1.514   0.452  0.00  0.00    +0.213 C 
ATOM     18  O   UNL     1      -6.106   0.614  -0.742  0.00  0.00    -0.218 OA
ATOM     19  C   UNL     1      -4.427   1.821   0.365  0.00  0.00    +0.183 C 
ATOM     20  O   UNL     1      -3.982   1.228   1.619  0.00  0.00    -0.326 OA
BRANCH  19  21
ATOM     21  C   UNL     1      -4.739   3.229   1.184  0.00  0.00    +0.214 C 
ATOM     22  O   UNL     1      -4.179   4.269   0.601  0.00  0.00    -0.218 OA
ENDBRANCH  19  21
ENDBRANCH  11  12
ENDBRANCH  10  11
ENDBRANCH   1   2
BRANCH   1  26
ATOM     23  C   UNL     1       2.342  -1.187   1.654  0.00  0.00    +0.183 C 
ATOM     24  C   UNL     1       0.813  -0.609   1.164  0.00  0.00    +0.237 C 
ATOM     25  O   UNL     1       1.039   0.860   1.295  0.00  0.00    -0.215 OA
ATOM     26  C   UNL     1       1.328  -0.638  -0.476  0.00  0.00    +0.269 C 
ATOM     27  O   UNL     1       1.275  -2.159  -0.254  0.00  0.00    -0.326 OA
ATOM     28  C   UNL     1       2.701  -1.848   0.119  0.00  0.00    +0.180 C 
BRANCH  28  29
ATOM     29  C   UNL     1       3.054  -3.366   0.629  0.00  0.00    +0.214 C 
ATOM     30  O   UNL     1       2.846  -4.009  -0.601  0.00  0.00    -0.218 OA
ENDBRANCH  28  29
BRANCH  23  31
ATOM     31  O   UNL     1       3.140   0.064   1.404  0.00  0.00    -0.326 OA
BRANCH  31  39
ATOM     32  C   UNL     1       5.846   0.150  -0.503  0.00  0.00    +0.170 C 
ATOM     33  C   UNL     1       5.133   1.658  -0.854  0.00  0.00    +0.212 C 
ATOM     34  O   UNL     1       3.865   1.135  -1.471  0.00  0.00    -0.218 OA
ATOM     35  C   UNL     1       4.518   1.899   0.718  0.00  0.00    +0.207 C 
ATOM     36  O   UNL     1       5.577   2.929   0.995  0.00  0.00    -0.219 OA
ATOM     37  C   UNL     1       5.475   0.777   1.538  0.00  0.00    +0.181 C 
ATOM     38  N   UNL     1       4.817   1.162   2.889  0.00  0.00    -0.125 NA
ATOM     39  C   UNL     1       4.502  -0.622   1.314  0.00  0.00    +0.256 C 
ATOM     40  O   UNL     1       4.548  -0.501  -0.198  0.00  0.00    -0.328 OA
BRANCH  32  42
ATOM     41  N   UNL     1       6.470  -1.289  -1.847  0.00  0.00    -0.129 NA
ATOM     42  C   UNL     1       5.816  -0.286  -2.088  0.00  0.00    +0.142 C 
ENDBRANCH  32  42
ENDBRANCH  31  39
ENDBRANCH  23  31
ENDBRANCH   1  26
TORSDOF 9
