REMARK  Name = 
REMARK  4 active torsions:
REMARK  status: ('A' for Active; 'I' for Inactive)
REMARK    1  A    between atoms: C_2  and  C_3
REMARK    2  A    between atoms: C_3  and  C_4
REMARK    3  A    between atoms: C_4  and  N_5
REMARK    4  A    between atoms: C_13  and  C_14
REMARK                            x       y       z     vdW  Elec       q    Type
REMARK                         _______ _______ _______ _____ _____    ______ ____
ROOT
ATOM      1  N   UNL     1       0.331  -0.482  -0.338  0.00  0.00    -0.267 NA
ATOM      2  C   UNL     1      -0.376  -0.986   0.953  0.00  0.00    +0.124 C 
ATOM      3  C   UNL     1      -0.681   0.516   1.709  0.00  0.00    +0.202 C 
ATOM      4  O   UNL     1       0.385   1.342   1.012  0.00  0.00    -0.219 OA
ATOM      5  C   UNL     1      -1.906   1.298   0.834  0.00  0.00    +0.215 C 
ATOM      6  O   UNL     1      -2.967   0.293   1.278  0.00  0.00    -0.218 OA
ATOM      7  C   UNL     1      -1.756   0.789  -0.799  0.00  0.00    +0.201 C 
ATOM      8  O   UNL     1      -1.458   2.248  -1.182  0.00  0.00    -0.219 OA
ATOM      9  C   UNL     1      -0.189   0.458  -0.975  0.00  0.00    +0.108 C 
ENDROOT
BRANCH   2  10
ATOM     10  C   UNL     1      -1.799  -1.257   0.229  0.00  0.00    +0.201 C 
ATOM     11  O   UNL     1      -1.832  -2.428  -0.383  0.00  0.00    -0.219 OA
ENDBRANCH   2  10
BRANCH   1  12
ATOM     12  C   UNL     1       1.531  -1.085  -0.460  0.00  0.00    +0.072 C 
BRANCH  12  13
ATOM     13  C   UNL     1       2.652  -1.149   0.394  0.00  0.00    +0.017 C 
BRANCH  13  15
ATOM     14  C   UNL     1       4.522   0.612   0.299  0.00  0.00    +0.000 C 
ATOM     15  C   UNL     1       3.545  -0.169   0.798  0.00  0.00    +0.001 C 
ENDBRANCH  13  15
ENDBRANCH  12  13
ENDBRANCH   1  12
TORSDOF 4
