REMARK  Name = 
REMARK  28 active torsions:
REMARK  status: ('A' for Active; 'I' for Inactive)
REMARK    1  A    between atoms: C_2  and  C_4
REMARK    2  A    between atoms: C_4  and  O_5
REMARK    3  A    between atoms: O_5  and  C_6
REMARK    4  A    between atoms: C_6  and  C_7
REMARK    5  A    between atoms: C_9  and  O_10
REMARK    6  A    between atoms: O_10  and  C_11
REMARK    7  A    between atoms: C_12  and  O_13
REMARK    8  A    between atoms: O_13  and  C_14
REMARK    9  A    between atoms: C_14  and  C_15
REMARK   10  A    between atoms: C_18  and  O_19
REMARK   11  A    between atoms: O_19  and  C_20
REMARK   12  A    between atoms: C_20  and  C_21
REMARK   13  A    between atoms: C_24  and  O_25
REMARK   14  A    between atoms: O_25  and  C_26
REMARK   15  A    between atoms: C_26  and  C_27
REMARK   16  A    between atoms: C_31  and  C_32
REMARK   17  A    between atoms: C_32  and  O_33
REMARK   18  A    between atoms: O_33  and  C_34
REMARK   19  A    between atoms: C_34  and  C_35
REMARK   20  A    between atoms: C_38  and  O_39
REMARK   21  A    between atoms: O_39  and  C_40
REMARK   22  A    between atoms: C_40  and  C_41
REMARK   23  A    between atoms: C_44  and  O_45
REMARK   24  A    between atoms: O_45  and  C_46
REMARK   25  A    between atoms: C_46  and  C_47
REMARK   26  A    between atoms: C_50  and  O_51
REMARK   27  A    between atoms: O_51  and  C_52
REMARK   28  A    between atoms: C_52  and  C_53
REMARK                            x       y       z     vdW  Elec       q    Type
REMARK                         _______ _______ _______ _____ _____    ______ ____
ROOT
ATOM      1  O   UNL     1      -0.620  -0.367  -0.253  0.00  0.00    -0.326 OA
ENDROOT
BRANCH   1   2
ATOM      2  C   UNL     1      -1.480   0.721  -0.937  0.00  0.00    +0.177 C 
ATOM      3  C   UNL     1      -2.899   0.759  -0.017  0.00  0.00    +0.177 C 
ATOM      4  O   UNL     1      -2.994   1.977   0.713  0.00  0.00    -0.326 OA
ATOM      5  C   UNL     1      -3.916   0.821   1.258  0.00  0.00    +0.266 C 
ATOM      6  C   UNL     1      -3.189  -0.646   0.605  0.00  0.00    +0.201 C 
ATOM      7  C   UNL     1      -2.827  -0.379  -1.072  0.00  0.00    +0.177 C 
BRANCH   3   8
ATOM      8  C   UNL     1      -3.838   1.288  -1.340  0.00  0.00    +0.174 C 
BRANCH   8   9
ATOM      9  O   UNL     1      -3.073   2.304  -1.587  0.00  0.00    -0.348 OA
BRANCH   9  10
ATOM     10  C   UNL     1      -3.492   2.919  -2.649  0.00  0.00    +0.175 C 
BRANCH  10  11
ATOM     11  C   UNL     1      -2.601   4.196  -2.063  0.00  0.00    +0.181 C 
ATOM     12  O   UNL     1      -2.984   4.891  -3.347  0.00  0.00    -0.220 OA
ATOM     13  C   UNL     1      -3.885   4.794  -1.215  0.00  0.00    +0.038 C 
ENDBRANCH  10  11
ENDBRANCH   9  10
ENDBRANCH   8   9
ENDBRANCH   3   8
BRANCH   5  14
ATOM     14  O   UNL     1      -5.071   0.900   0.294  0.00  0.00    -0.326 OA
BRANCH  14  15
ATOM     15  C   UNL     1      -6.280   0.878   0.577  0.00  0.00    +0.178 C 
BRANCH  15  16
ATOM     16  C   UNL     1      -6.836  -0.118   1.747  0.00  0.00    +0.182 C 
ATOM     17  O   UNL     1      -5.738  -1.153   1.594  0.00  0.00    -0.220 OA
ATOM     18  C   UNL     1      -6.026   0.723   2.915  0.00  0.00    +0.038 C 
ENDBRANCH  15  16
ENDBRANCH  14  15
ENDBRANCH   5  14
BRANCH   6  19
ATOM     19  O   UNL     1      -1.908  -0.514   1.359  0.00  0.00    -0.346 OA
BRANCH  19  20
ATOM     20  C   UNL     1      -1.960   0.400   2.417  0.00  0.00    +0.175 C 
BRANCH  20  21
ATOM     21  C   UNL     1      -1.929  -0.379   3.852  0.00  0.00    +0.181 C 
ATOM     22  O   UNL     1      -3.432  -0.242   4.039  0.00  0.00    -0.220 OA
ATOM     23  C   UNL     1      -2.022  -1.893   3.214  0.00  0.00    +0.038 C 
ENDBRANCH  20  21
ENDBRANCH  19  20
ENDBRANCH   6  19
BRANCH   7  24
ATOM     24  O   UNL     1      -2.046  -1.579  -1.373  0.00  0.00    -0.348 OA
BRANCH  24  25
ATOM     25  C   UNL     1      -2.405  -2.451  -0.426  0.00  0.00    +0.175 C 
BRANCH  25  26
ATOM     26  C   UNL     1      -3.107  -3.797  -1.038  0.00  0.00    +0.181 C 
ATOM     27  O   UNL     1      -2.682  -3.551  -2.474  0.00  0.00    -0.220 OA
ATOM     28  C   UNL     1      -1.719  -4.616  -0.677  0.00  0.00    +0.038 C 
ENDBRANCH  25  26
ENDBRANCH  24  25
ENDBRANCH   7  24
ENDBRANCH   1   2
BRANCH   1  33
ATOM     29  C   UNL     1       2.340   1.030   0.988  0.00  0.00    +0.177 C 
ATOM     30  C   UNL     1       2.837  -0.615   1.231  0.00  0.00    +0.174 C 
ATOM     31  C   UNL     1       3.047  -0.538  -0.478  0.00  0.00    +0.177 C 
ATOM     32  C   UNL     1       1.516  -1.324  -0.614  0.00  0.00    +0.201 C 
ATOM     33  C   UNL     1       0.740   0.241  -0.624  0.00  0.00    +0.266 C 
ATOM     34  O   UNL     1       0.973   0.465   0.850  0.00  0.00    -0.326 OA
BRANCH  32  35
ATOM     35  O   UNL     1       1.660  -1.326  -2.091  0.00  0.00    -0.346 OA
BRANCH  35  36
ATOM     36  C   UNL     1       1.124  -2.384  -2.682  0.00  0.00    +0.175 C 
BRANCH  36  37
ATOM     37  C   UNL     1       0.596  -1.853  -4.152  0.00  0.00    +0.181 C 
ATOM     38  O   UNL     1       1.635  -0.754  -4.306  0.00  0.00    -0.220 OA
ATOM     39  C   UNL     1       1.566  -2.931  -4.939  0.00  0.00    +0.038 C 
ENDBRANCH  36  37
ENDBRANCH  35  36
ENDBRANCH  32  35
BRANCH  31  40
ATOM     40  O   UNL     1       3.922  -1.752  -0.598  0.00  0.00    -0.348 OA
BRANCH  40  41
ATOM     41  C   UNL     1       4.193  -1.673  -1.950  0.00  0.00    +0.175 C 
BRANCH  41  42
ATOM     42  C   UNL     1       5.453  -0.642  -2.180  0.00  0.00    +0.181 C 
ATOM     43  O   UNL     1       5.460  -0.911  -3.677  0.00  0.00    -0.220 OA
ATOM     44  C   UNL     1       4.498   0.691  -2.369  0.00  0.00    +0.038 C 
ENDBRANCH  41  42
ENDBRANCH  40  41
ENDBRANCH  31  40
BRANCH  30  45
ATOM     45  O   UNL     1       4.230  -0.248   1.575  0.00  0.00    -0.348 OA
BRANCH  45  46
ATOM     46  C   UNL     1       5.097  -1.223   1.586  0.00  0.00    +0.175 C 
BRANCH  46  47
ATOM     47  C   UNL     1       5.505  -1.456   3.167  0.00  0.00    +0.181 C 
ATOM     48  O   UNL     1       4.391  -2.469   3.357  0.00  0.00    -0.220 OA
ATOM     49  C   UNL     1       6.579  -2.624   2.723  0.00  0.00    +0.038 C 
ENDBRANCH  46  47
ENDBRANCH  45  46
ENDBRANCH  30  45
BRANCH  29  50
ATOM     50  C   UNL     1       2.069   1.288   2.590  0.00  0.00    +0.174 C 
BRANCH  50  51
ATOM     51  O   UNL     1       3.308   1.847   2.922  0.00  0.00    -0.348 OA
BRANCH  51  52
ATOM     52  C   UNL     1       3.509   3.032   2.247  0.00  0.00    +0.175 C 
BRANCH  52  54
ATOM     53  C   UNL     1       4.226   3.896   0.208  0.00  0.00    +0.038 C 
ATOM     54  C   UNL     1       4.754   2.705   1.225  0.00  0.00    +0.181 C 
ATOM     55  O   UNL     1       5.733   3.643   1.880  0.00  0.00    -0.220 OA
ENDBRANCH  52  54
ENDBRANCH  51  52
ENDBRANCH  50  51
ENDBRANCH  29  50
ENDBRANCH   1  33
TORSDOF 28
