REMARK  Name = 
REMARK  5 active torsions:
REMARK  status: ('A' for Active; 'I' for Inactive)
REMARK    1  A    between atoms: O_2  and  C_3
REMARK    2  A    between atoms: C_6  and  C_7
REMARK    3  A    between atoms: C_7  and  C_8
REMARK    4  A    between atoms: C_7  and  C_12
REMARK    5  A    between atoms: C_8  and  N_9
REMARK                            x       y       z     vdW  Elec       q    Type
REMARK                         _______ _______ _______ _____ _____    ______ ____
ROOT
ATOM      1  C   UNL     1      -0.537   0.626  -0.483  0.00  0.00    +0.066 C 
ENDROOT
BRANCH   1   2
ATOM      2  C   UNL     1      -1.879  -0.221  -0.094  0.00  0.00    +0.132 C 
ATOM      3  C   UNL     1      -2.760   0.587   0.767  0.00  0.00    +0.031 C 
ATOM      4  C   UNL     1      -4.094  -0.126   0.729  0.00  0.00    +0.003 C 
ATOM      5  C   UNL     1      -4.019  -1.595   0.893  0.00  0.00    +0.000 C 
ATOM      6  C   UNL     1      -2.911  -2.306   0.208  0.00  0.00    +0.003 C 
ATOM      7  C   UNL     1      -1.576  -1.587   0.311  0.00  0.00    +0.031 C 
ATOM      8  O   UNL     1      -2.501  -0.287  -1.353  0.00  0.00    -0.225 OA
ENDBRANCH   1   2
BRANCH   1  12
ATOM      9  C   UNL     1       3.249  -1.179  -0.109  0.00  0.00    +0.139 A 
ATOM     10  C   UNL     1       2.449  -1.342  -1.234  0.00  0.00    +0.037 A 
ATOM     11  C   UNL     1       1.085  -1.079  -1.171  0.00  0.00    -0.001 A 
ATOM     12  C   UNL     1       0.504  -0.529  -0.028  0.00  0.00    -0.019 A 
ATOM     13  C   UNL     1       1.347  -0.289   0.993  0.00  0.00    -0.001 A 
ATOM     14  C   UNL     1       2.565  -0.955   1.074  0.00  0.00    +0.037 A 
BRANCH   9  16
ATOM     15  C   UNL     1       5.012   0.297  -0.452  0.00  0.00    +0.252 C 
ATOM     16  O   UNL     1       4.620  -0.932  -0.238  0.00  0.00    -0.471 OA
ENDBRANCH   9  16
ENDBRANCH   1  12
BRANCH   1  17
ATOM     17  C   UNL     1      -0.499   1.440   0.959  0.00  0.00    +0.079 C 
BRANCH  17  18
ATOM     18  N   UNL     1       0.105   2.668   0.458  0.00  0.00    -0.270 NA
ATOM     19  C   UNL     1      -0.740   3.264  -0.531  0.00  0.00    +0.090 C 
ATOM     20  C   UNL     1       0.581   3.544   1.473  0.00  0.00    +0.090 C 
ENDBRANCH  17  18
ENDBRANCH   1  17
TORSDOF 5
