REMARK  Name = 
REMARK  8 active torsions:
REMARK  status: ('A' for Active; 'I' for Inactive)
REMARK    1  A    between atoms: C_2  and  O_4
REMARK    2  A    between atoms: O_4  and  C_5
REMARK    3  A    between atoms: C_9  and  O_10
REMARK    4  A    between atoms: O_10  and  C_11
REMARK    5  A    between atoms: C_11  and  C_12
REMARK    6  A    between atoms: C_12  and  C_14
REMARK    7  A    between atoms: C_14  and  N_15
REMARK    8  A    between atoms: N_15  and  C_16
REMARK                            x       y       z     vdW  Elec       q    Type
REMARK                         _______ _______ _______ _____ _____    ______ ____
ROOT
ATOM      1  C   UNL     1      -2.798  -0.651   0.137  0.00  0.00    +0.140 A 
ATOM      2  C   UNL     1      -2.217  -0.011  -0.953  0.00  0.00    +0.011 A 
ATOM      3  C   UNL     1      -3.121   0.792  -1.823  0.00  0.00    +0.034 C 
ATOM      4  C   UNL     1      -0.836   0.120  -1.018  0.00  0.00    +0.011 A 
ATOM      5  C   UNL     1      -0.246   1.093  -1.990  0.00  0.00    +0.034 C 
ATOM      6  C   UNL     1       0.000  -0.412  -0.042  0.00  0.00    +0.134 A 
ATOM      7  C   UNL     1      -0.575  -1.387   0.763  0.00  0.00    +0.035 A 
ATOM      8  C   UNL     1      -1.956  -1.547   0.788  0.00  0.00    +0.015 A 
ATOM      9  C   UNL     1      -2.551  -2.349   1.888  0.00  0.00    +0.034 C 
ENDROOT
BRANCH   1  10
ATOM     10  O   UNL     1      -3.944  -0.145   0.759  0.00  0.00    -0.425 OA
BRANCH  10  12
ATOM     11  C   UNL     1      -6.166   0.775   0.659  0.00  0.00    +0.122 C 
ATOM     12  C   UNL     1      -5.151  -0.024   0.063  0.00  0.00    +0.322 C 
ATOM     13  O   UNL     1      -5.426  -1.015  -0.675  0.00  0.00    -0.250 OA
ENDBRANCH  10  12
ENDBRANCH   1  10
BRANCH   6  14
ATOM     14  O   UNL     1       1.157   0.245   0.240  0.00  0.00    -0.473 OA
BRANCH  14  15
ATOM     15  C   UNL     1       1.855   0.352   1.427  0.00  0.00    +0.239 C 
BRANCH  15  16
ATOM     16  C   UNL     1       3.471   0.143   1.012  0.00  0.00    +0.213 C 
ATOM     17  O   UNL     1       3.146  -1.098   0.147  0.00  0.00    -0.218 OA
BRANCH  16  18
ATOM     18  C   UNL     1       3.332   1.166  -0.317  0.00  0.00    +0.125 C 
BRANCH  18  19
ATOM     19  N   UNL     1       4.340   0.639  -1.221  0.00  0.00    -0.217 NA
BRANCH  19  20
ATOM     20  C   UNL     1       5.638   1.136  -0.803  0.00  0.00    +0.073 C 
ATOM     21  C   UNL     1       5.539   2.184   0.277  0.00  0.00    +0.019 C 
ATOM     22  C   UNL     1       6.511  -0.006  -0.369  0.00  0.00    +0.019 C 
ENDBRANCH  19  20
ENDBRANCH  18  19
ENDBRANCH  16  18
ENDBRANCH  15  16
ENDBRANCH  14  15
ENDBRANCH   6  14
TORSDOF 8
