REMARK  Name = 
REMARK  7 active torsions:
REMARK  status: ('A' for Active; 'I' for Inactive)
REMARK    1  A    between atoms: C_2  and  C_3
REMARK    2  A    between atoms: C_2  and  N_12
REMARK    3  A    between atoms: C_3  and  C_4
REMARK    4  A    between atoms: C_4  and  C_5
REMARK    5  A    between atoms: N_12  and  C_13
REMARK    6  A    between atoms: C_13  and  C_14
REMARK    7  A    between atoms: C_14  and  C_15
REMARK                            x       y       z     vdW  Elec       q    Type
REMARK                         _______ _______ _______ _____ _____    ______ ____
ROOT
ATOM      1  C   UNL     1       0.471  -0.471  -0.814  0.00  0.00    +0.019 C 
ATOM      2  C   UNL     1       1.247  -0.706   0.648  0.00  0.00    +0.073 C 
ENDROOT
BRANCH   2   3
ATOM      3  N   UNL     1      -0.008  -1.513   1.229  0.00  0.00    -0.219 NA
BRANCH   3   4
ATOM      4  C   UNL     1      -1.096  -0.552   1.044  0.00  0.00    +0.093 C 
BRANCH   4   5
ATOM      5  C   UNL     1      -2.360  -1.307   1.328  0.00  0.00    +0.045 C 
BRANCH   5   6
ATOM      6  C   UNL     1      -3.517  -0.868   0.534  0.00  0.00    -0.017 A 
ATOM      7  C   UNL     1      -3.415  -0.155  -0.654  0.00  0.00    +0.041 A 
ATOM      8  C   UNL     1      -4.407   0.755  -0.997  0.00  0.00    +0.234 A 
ATOM      9  O   UNL     1      -4.244   1.587  -2.099  0.00  0.00    -0.283 OA
ATOM     10  C   UNL     1      -5.431   1.090  -0.118  0.00  0.00    +0.234 A 
ATOM     11  O   UNL     1      -5.852   2.412   0.054  0.00  0.00    -0.283 OA
ATOM     12  C   UNL     1      -5.713   0.124   0.841  0.00  0.00    +0.045 A 
ATOM     13  C   UNL     1      -4.779  -0.868   1.116  0.00  0.00    -0.001 A 
ENDBRANCH   5   6
ENDBRANCH   4   5
ENDBRANCH   3   4
ENDBRANCH   2   3
BRANCH   2  14
ATOM     14  C   UNL     1       1.950  -2.118   0.092  0.00  0.00    +0.022 C 
BRANCH  14  15
ATOM     15  C   UNL     1       2.838  -1.545  -0.984  0.00  0.00    +0.028 C 
BRANCH  15  16
ATOM     16  C   UNL     1       3.700  -0.528  -0.327  0.00  0.00    -0.022 A 
ATOM     17  C   UNL     1       4.390  -0.832   0.827  0.00  0.00    -0.001 A 
ATOM     18  C   UNL     1       5.434  -0.002   1.192  0.00  0.00    +0.042 A 
ATOM     19  C   UNL     1       5.663   1.153   0.453  0.00  0.00    +0.196 A 
ATOM     20  O   UNL     1       6.826   1.887   0.614  0.00  0.00    -0.287 OA
ATOM     21  C   UNL     1       4.640   1.673  -0.330  0.00  0.00    +0.042 A 
ATOM     22  C   UNL     1       3.665   0.784  -0.765  0.00  0.00    -0.001 A 
ENDBRANCH  15  16
ENDBRANCH  14  15
ENDBRANCH   2  14
TORSDOF 7
