REMARK  Name = 
REMARK  4 active torsions:
REMARK  status: ('A' for Active; 'I' for Inactive)
REMARK    1  A    between atoms: C_23  and  O_24
REMARK    2  A    between atoms: C_26  and  C_27
REMARK    3  A    between atoms: C_27  and  C_28
REMARK    4  A    between atoms: C_28  and  C_30
REMARK                            x       y       z     vdW  Elec       q    Type
REMARK                         _______ _______ _______ _____ _____    ______ ____
ROOT
ATOM      1  C   UNL     1      -2.813   5.606  -0.265  0.00  0.00    -0.007 C 
ATOM      2  C   UNL     1      -2.896   5.021   0.240  0.00  0.00    -0.015 C 
ATOM      3  C   UNL     1      -1.674   4.014   0.623  0.00  0.00    +0.134 C 
ATOM      4  O   UNL     1      -2.537   2.752   0.629  0.00  0.00    -0.354 OA
ATOM      5  C   UNL     1      -3.354   3.141  -0.582  0.00  0.00    +0.120 C 
ATOM      6  C   UNL     1      -4.500   2.024  -0.207  0.00  0.00    +0.035 C 
ATOM      7  C   UNL     1      -3.990   0.913  -1.097  0.00  0.00    +0.059 C 
ATOM      8  C   UNL     1      -4.521  -0.362  -0.493  0.00  0.00    +0.190 C 
ATOM      9  O   UNL     1      -5.509  -0.116   0.337  0.00  0.00    -0.332 OA
ATOM     10  C   UNL     1      -5.884  -1.476   0.849  0.00  0.00    +0.174 C 
ATOM     11  C   UNL     1      -6.198  -2.126  -0.666  0.00  0.00    +0.150 C 
ATOM     12  O   UNL     1      -5.500  -3.363  -0.367  0.00  0.00    -0.351 OA
ATOM     13  C   UNL     1      -4.298  -3.309   0.480  0.00  0.00    +0.174 C 
ATOM     14  C   UNL     1      -3.489  -2.138  -0.721  0.00  0.00    +0.176 C 
ATOM     15  C   UNL     1      -1.979  -2.631  -0.360  0.00  0.00    +0.172 C 
ATOM     16  C   UNL     1      -3.175  -3.795  -0.002  0.00  0.00    +0.145 C 
ATOM     17  C   UNL     1      -2.467  -4.145  -1.411  0.00  0.00    +0.035 C 
ATOM     18  C   UNL     1      -1.195  -4.214  -0.470  0.00  0.00    +0.033 C 
ATOM     19  C   UNL     1      -0.734  -2.722   0.144  0.00  0.00    +0.123 C 
ATOM     20  C   UNL     1       0.188  -3.321   1.339  0.00  0.00    +0.094 C 
ATOM     21  C   UNL     1       1.384  -2.726   0.641  0.00  0.00    +0.153 C 
ATOM     22  C   UNL     1       1.768  -1.374   1.006  0.00  0.00    +0.070 C 
ATOM     23  C   UNL     1       2.436  -0.885  -0.376  0.00  0.00    +0.064 C 
ATOM     24  C   UNL     1       3.113   0.499   0.340  0.00  0.00    +0.121 C 
ATOM     25  C   UNL     1       2.139   1.467  -0.557  0.00  0.00    +0.063 C 
ATOM     26  C   UNL     1       3.214   2.583  -1.143  0.00  0.00    +0.136 C 
ATOM     27  C   UNL     1       3.404   3.355   0.282  0.00  0.00    -0.018 C 
ATOM     28  C   UNL     1       4.620   3.207   0.798  0.00  0.00    -0.007 C 
ATOM     29  C   UNL     1       3.079   4.885  -0.053  0.00  0.00    +0.023 C 
ATOM     30  C   UNL     1       3.372   5.409   1.470  0.00  0.00    +0.005 C 
ATOM     31  C   UNL     1       1.552   4.441   0.304  0.00  0.00    +0.034 C 
ATOM     32  C   UNL     1       1.144   4.255  -1.285  0.00  0.00    +0.116 C 
ATOM     33  C   UNL     1       0.072   3.044  -0.895  0.00  0.00    +0.032 C 
ATOM     34  O   UNL     1       2.188   3.384  -1.792  0.00  0.00    -0.355 OA
ATOM     35  O   UNL     1       4.205   0.348  -0.708  0.00  0.00    -0.356 OA
ATOM     36  C   UNL     1       4.799  -0.529   0.375  0.00  0.00    +0.145 C 
ATOM     37  C   UNL     1       3.779  -1.859  -0.046  0.00  0.00    +0.145 C 
ATOM     38  O   UNL     1       1.768  -3.431  -0.252  0.00  0.00    -0.296 OA
ATOM     39  O   UNL     1      -3.994  -2.495  -0.465  0.00  0.00    -0.351 OA
ATOM     40  O   UNL     1      -1.887  -2.449   1.143  0.00  0.00    -0.353 OA
ATOM     41  C   UNL     1      -4.232  -1.858   0.978  0.00  0.00    +0.174 C 
ATOM     42  O   UNL     1      -3.308  -0.883   0.021  0.00  0.00    -0.332 OA
ATOM     43  C   UNL     1      -5.141  -1.173  -1.501  0.00  0.00    +0.088 C 
ATOM     44  C   UNL     1      -1.228   3.776  -0.953  0.00  0.00    +0.036 C 
ATOM     45  C   UNL     1      -4.106   4.261   0.377  0.00  0.00    +0.054 C 
ENDROOT
BRANCH  37  46
ATOM     46  O   UNL     1       4.206  -1.991  -1.466  0.00  0.00    -0.351 OA
ATOM     47  C   UNL     1       3.598  -1.276  -2.466  0.00  0.00    +0.174 C 
ENDBRANCH  37  46
BRANCH  36  48
ATOM     48  C   UNL     1       6.057  -1.041  -0.554  0.00  0.00    +0.066 C 
BRANCH  48  49
ATOM     49  C   UNL     1       6.701  -1.987   0.639  0.00  0.00    +0.173 C 
ATOM     50  O   UNL     1       8.122  -1.808   0.123  0.00  0.00    -0.221 OA
BRANCH  49  51
ATOM     51  C   UNL     1       6.441  -3.408  -0.153  0.00  0.00    +0.142 C 
ATOM     52  N   UNL     1       7.259  -3.498  -1.256  0.00  0.00    -0.129 NA
ENDBRANCH  49  51
ENDBRANCH  48  49
ENDBRANCH  36  48
TORSDOF 4
