REMARK  Name = 
REMARK  5 active torsions:
REMARK  status: ('A' for Active; 'I' for Inactive)
REMARK    1  A    between atoms: C_5  and  C_6
REMARK    2  A    between atoms: C_8  and  C_9
REMARK    3  A    between atoms: C_18  and  C_19
REMARK    4  A    between atoms: C_19  and  C_20
REMARK    5  A    between atoms: C_23  and  C_24
REMARK                            x       y       z     vdW  Elec       q    Type
REMARK                         _______ _______ _______ _____ _____    ______ ____
ROOT
ATOM      1  C   UNL     1       0.667  -2.489   0.363  0.00  0.00    +0.031 C 
ATOM      2  C   UNL     1      -0.055  -2.388  -0.056  0.00  0.00    -0.025 A 
ATOM      3  C   UNL     1      -0.380  -1.036  -0.027  0.00  0.00    -0.021 A 
ATOM      4  C   UNL     1      -1.494  -0.590  -0.737  0.00  0.00    -0.006 A 
ATOM      5  C   UNL     1      -2.586  -1.465  -0.653  0.00  0.00    +0.007 A 
ATOM      6  C   UNL     1      -2.252  -2.721  -1.071  0.00  0.00    -0.002 A 
ATOM      7  C   UNL     1      -1.005  -3.195  -0.674  0.00  0.00    -0.005 A 
ENDROOT
BRANCH   5   8
ATOM      8  C   UNL     1      -3.967  -0.822  -1.166  0.00  0.00    +0.170 C 
ATOM      9  C   UNL     1      -4.762  -1.250   0.293  0.00  0.00    +0.216 C 
ATOM     10  O   UNL     1      -5.207  -2.549  -0.302  0.00  0.00    -0.217 OA
ATOM     11  C   UNL     1      -6.216  -0.496  -0.192  0.00  0.00    +0.218 C 
ATOM     12  O   UNL     1      -6.821  -0.755   1.156  0.00  0.00    -0.217 OA
ATOM     13  C   UNL     1      -5.674   1.043   0.317  0.00  0.00    +0.214 C 
ATOM     14  O   UNL     1      -6.895   1.702  -0.253  0.00  0.00    -0.218 OA
ATOM     15  C   UNL     1      -4.861   1.248  -1.182  0.00  0.00    +0.181 C 
ATOM     16  O   UNL     1      -3.658   0.553  -0.602  0.00  0.00    -0.346 OA
BRANCH  15  17
ATOM     17  C   UNL     1      -4.299   2.720  -0.713  0.00  0.00    +0.214 C 
ATOM     18  O   UNL     1      -4.116   3.351  -1.944  0.00  0.00    -0.218 OA
ENDBRANCH  15  17
ENDBRANCH   5   8
BRANCH   3  19
ATOM     19  C   UNL     1       0.232  -0.216   1.101  0.00  0.00    +0.059 C 
BRANCH  19  20
ATOM     20  C   UNL     1       1.700  -0.380   0.869  0.00  0.00    +0.012 A 
ATOM     21  S   UNL     1       2.401   0.292  -0.539  0.00  0.00    -0.091 S 
ATOM     22  C   UNL     1       3.953   0.669   0.090  0.00  0.00    +0.029 A 
ATOM     23  C   UNL     1       3.920   0.020   1.289  0.00  0.00    +0.007 A 
ATOM     24  C   UNL     1       2.670  -0.145   1.795  0.00  0.00    +0.003 A 
BRANCH  22  25
ATOM     25  C   UNL     1       5.188   0.990  -0.639  0.00  0.00    +0.006 A 
ATOM     26  C   UNL     1       6.094  -0.027  -0.860  0.00  0.00    +0.003 A 
ATOM     27  C   UNL     1       7.451   0.193  -0.987  0.00  0.00    +0.030 A 
ATOM     28  C   UNL     1       7.928   1.398  -0.488  0.00  0.00    +0.140 A 
ATOM     29  F   UNL     1       9.248   1.630  -0.524  0.00  0.00    -0.204 F 
ATOM     30  C   UNL     1       7.078   2.460  -0.255  0.00  0.00    +0.030 A 
ATOM     31  C   UNL     1       5.719   2.255  -0.445  0.00  0.00    +0.003 A 
ENDBRANCH  22  25
ENDBRANCH  19  20
ENDBRANCH   3  19
TORSDOF 5
