REMARK  Name = 
REMARK  7 active torsions:
REMARK  status: ('A' for Active; 'I' for Inactive)
REMARK    1  A    between atoms: C_4  and  N_5
REMARK    2  A    between atoms: N_12  and  C_13
REMARK    3  A    between atoms: C_18  and  S_19
REMARK    4  A    between atoms: S_19  and  C_22
REMARK    5  A    between atoms: C_26  and  O_27
REMARK    6  A    between atoms: O_27  and  C_28
REMARK    7  A    between atoms: C_32  and  C_33
REMARK                            x       y       z     vdW  Elec       q    Type
REMARK                         _______ _______ _______ _____ _____    ______ ____
ROOT
ATOM      1  N   UNL     1      -0.676   2.064  -0.395  0.00  0.00    -0.175 NA
ATOM      2  C   UNL     1      -0.019   0.792  -0.446  0.00  0.00    +0.242 A 
ATOM      3  N   UNL     1       1.270   0.707  -0.037  0.00  0.00    -0.194 NA
ATOM      4  C   UNL     1       1.691  -0.427   0.573  0.00  0.00    +0.167 A 
ATOM      5  N   UNL     1       3.078  -0.697   0.806  0.00  0.00    -0.192 NA
ATOM      6  C   UNL     1       0.815  -1.461   0.880  0.00  0.00    +0.110 A 
ATOM      7 CL   UNL     1       1.054  -2.321   2.396  0.00  0.00    -0.078 Cl
ATOM      8  C   UNL     1      -0.407  -1.452   0.223  0.00  0.00    +0.116 A 
ATOM      9  N   UNL     1      -0.722  -0.363  -0.520  0.00  0.00    -0.210 NA
ENDROOT
BRANCH   1  15
ATOM     10  C   UNL     1      -4.649   1.017  -3.070  0.00  0.00    +0.031 C 
ATOM     11  C   UNL     1      -3.932   1.095  -1.760  0.00  0.00    -0.024 A 
ATOM     12  C   UNL     1      -4.501   0.650  -0.588  0.00  0.00    -0.023 A 
ATOM     13  C   UNL     1      -4.038   1.188   0.592  0.00  0.00    +0.034 A 
ATOM     14  C   UNL     1      -2.866   1.935   0.603  0.00  0.00    +0.153 A 
ATOM     15  C   UNL     1      -2.101   2.128  -0.541  0.00  0.00    +0.107 A 
ATOM     16  C   UNL     1      -2.677   1.687  -1.724  0.00  0.00    +0.015 A 
BRANCH  12  17
ATOM     17  C   UNL     1      -5.558  -0.374  -0.664  0.00  0.00    +0.025 C 
ATOM     18  C   UNL     1      -5.227  -1.537  -1.517  0.00  0.00    +0.023 C 
ATOM     19  C   UNL     1      -5.390  -2.881  -0.883  0.00  0.00    +0.089 C 
ATOM     20  N   UNL     1      -6.719  -2.896  -0.274  0.00  0.00    -0.218 NA
ATOM     21  C   UNL     1      -6.610  -2.055   0.898  0.00  0.00    +0.089 C 
ATOM     22  C   UNL     1      -6.267  -0.639   0.605  0.00  0.00    +0.023 C 
ENDBRANCH  12  17
BRANCH  14  23
ATOM     23  O   UNL     1      -2.480   2.662   1.724  0.00  0.00    -0.478 OA
BRANCH  23  24
ATOM     24  C   UNL     1      -2.507   4.083   1.632  0.00  0.00    +0.166 C 
ATOM     25  C   UNL     1      -3.078   4.534   0.293  0.00  0.00    +0.047 C 
ATOM     26  C   UNL     1      -1.075   4.564   1.718  0.00  0.00    +0.047 C 
ENDBRANCH  23  24
ENDBRANCH  14  23
ENDBRANCH   1  15
BRANCH   5  27
ATOM     27  C   UNL     1       3.770  -1.753   0.135  0.00  0.00    +0.089 A 
ATOM     28  C   UNL     1       5.134  -1.580  -0.061  0.00  0.00    +0.121 A 
ATOM     29  C   UNL     1       5.912  -2.715  -0.244  0.00  0.00    +0.020 A 
ATOM     30  C   UNL     1       5.375  -3.987  -0.267  0.00  0.00    +0.001 A 
ATOM     31  C   UNL     1       4.000  -4.108  -0.421  0.00  0.00    +0.001 A 
ATOM     32  C   UNL     1       3.241  -3.020  -0.010  0.00  0.00    +0.018 A 
BRANCH  28  33
ATOM     33  S   UNL     1       5.709  -0.016  -0.554  0.00  0.00    +0.008 S 
ATOM     34  O   UNL     1       6.987  -0.206  -1.341  0.00  0.00    -0.169 OA
ATOM     35  O   UNL     1       4.747   0.685  -1.461  0.00  0.00    -0.169 OA
BRANCH  33  36
ATOM     36  C   UNL     1       6.047   1.020   0.842  0.00  0.00    +0.134 C 
ATOM     37  C   UNL     1       7.493   1.424   0.924  0.00  0.00    +0.026 C 
ATOM     38  C   UNL     1       5.179   2.253   0.865  0.00  0.00    +0.026 C 
ENDBRANCH  33  36
ENDBRANCH  28  33
ENDBRANCH   5  27
TORSDOF 7
