REMARK  Name = 
REMARK  2 active torsions:
REMARK  status: ('A' for Active; 'I' for Inactive)
REMARK    1  A    between atoms: C_7  and  N_8
REMARK    2  A    between atoms: C_13  and  S_14
REMARK                            x       y       z     vdW  Elec       q    Type
REMARK                         _______ _______ _______ _____ _____    ______ ____
ROOT
ATOM      1  N   UNL     1       1.764  -0.420   0.333  0.00  0.00    -0.239 N 
ATOM      2  C   UNL     1       1.795  -1.924   0.819  0.00  0.00    +0.173 C 
ATOM      3  C   UNL     1       2.852  -2.373  -0.370  0.00  0.00    +0.046 C 
ATOM      4  N   UNL     1       0.549  -2.291  -0.087  0.00  0.00    -0.219 NA
ATOM      5  C   UNL     1      -0.653  -1.611   0.260  0.00  0.00    +0.072 A 
ATOM      6  C   UNL     1      -0.646  -0.319   0.765  0.00  0.00    +0.070 A 
ATOM      7  C   UNL     1      -1.785   0.453   0.862  0.00  0.00    +0.027 A 
ATOM      8  C   UNL     1      -2.985  -0.103   0.433  0.00  0.00    +0.136 A 
ATOM      9  C   UNL     1      -3.035  -1.481   0.269  0.00  0.00    +0.078 A 
ATOM     10 CL   UNL     1      -4.607  -2.250   0.413  0.00  0.00    -0.081 Cl
ATOM     11  C   UNL     1      -1.885  -2.175  -0.029  0.00  0.00    +0.029 A 
ATOM     12  C   UNL     1       0.688   0.246   1.006  0.00  0.00    +0.255 C 
ATOM     13  O   UNL     1       0.827   1.436   1.398  0.00  0.00    -0.269 OA
ENDROOT
BRANCH   1  16
ATOM     14  C   UNL     1       2.609   0.260  -2.063  0.00  0.00    +0.032 C 
ATOM     15  C   UNL     1       3.260   0.636  -1.161  0.00  0.00    -0.008 A 
ATOM     16  C   UNL     1       3.026   0.200   0.141  0.00  0.00    +0.052 A 
ATOM     17  C   UNL     1       3.688   0.820   1.197  0.00  0.00    +0.015 A 
ATOM     18  C   UNL     1       4.418   1.990   1.016  0.00  0.00    +0.001 A 
ATOM     19  C   UNL     1       4.619   2.453  -0.279  0.00  0.00    -0.000 A 
ATOM     20  C   UNL     1       4.136   1.700  -1.343  0.00  0.00    -0.003 A 
ENDBRANCH   1  16
BRANCH   8  21
ATOM     21  S   UNL     1      -4.370   0.913   0.165  0.00  0.00    +0.094 S 
ATOM     22  O   UNL     1      -4.774   1.524   1.472  0.00  0.00    -0.150 OA
ATOM     23  O   UNL     1      -5.481   0.109  -0.444  0.00  0.00    -0.150 OA
ATOM     24  N   UNL     1      -4.009   2.208  -0.935  0.00  0.00    +0.039 NA
ENDBRANCH   8  21
TORSDOF 2
