REMARK  Name = 
REMARK  0 active torsions:
REMARK  status: ('A' for Active; 'I' for Inactive)
REMARK                            x       y       z     vdW  Elec       q    Type
REMARK                         _______ _______ _______ _____ _____    ______ ____
ROOT
ATOM      1  C   UNL     1      -2.718   1.732   0.752  0.00  0.00    +0.132 C 
ATOM      2  N   UNL     1      -2.094   0.691  -0.053  0.00  0.00    -0.302 N 
ATOM      3  C   UNL     1      -0.769   0.445  -0.209  0.00  0.00    +0.153 A 
ATOM      4  C   UNL     1       0.331   1.242   0.046  0.00  0.00    +0.283 A 
ATOM      5  N   UNL     1       1.555   0.681  -0.005  0.00  0.00    -0.245 N 
ATOM      6  C   UNL     1       1.704  -0.665  -0.084  0.00  0.00    +0.335 A 
ATOM      7  N   UNL     1       0.637  -1.502  -0.094  0.00  0.00    -0.263 N 
ATOM      8  C   UNL     1       0.695  -2.735   0.691  0.00  0.00    +0.137 C 
ATOM      9  O   UNL     1       2.858  -1.073   0.249  0.00  0.00    -0.246 OA
ATOM     10  C   UNL     1       2.668   1.555  -0.368  0.00  0.00    +0.138 C 
ATOM     11  O   UNL     1       0.182   2.427   0.417  0.00  0.00    -0.265 OA
ATOM     12  C   UNL     1      -0.567  -0.924  -0.323  0.00  0.00    +0.170 A 
ATOM     13  N   UNL     1      -1.803  -1.450  -0.463  0.00  0.00    -0.206 NA
ATOM     14  C   UNL     1      -2.680  -0.422  -0.555  0.00  0.00    +0.180 A 
ENDROOT
TORSDOF 0
