REMARK  Name = 
REMARK  4 active torsions:
REMARK  status: ('A' for Active; 'I' for Inactive)
REMARK    1  A    between atoms: C_2  and  C_3
REMARK    2  A    between atoms: C_2  and  C_21
REMARK    3  A    between atoms: C_5  and  C_6
REMARK    4  A    between atoms: C_16  and  C_17
REMARK                            x       y       z     vdW  Elec       q    Type
REMARK                         _______ _______ _______ _____ _____    ______ ____
ROOT
ATOM      1  C   UNL     1       0.816   0.079   0.165  0.00  0.00    +0.012 A 
ATOM      2  C   UNL     1      -0.284   0.888   0.069  0.00  0.00    +0.016 A 
ATOM      3  C   UNL     1      -0.182   2.172   0.524  0.00  0.00    +0.001 A 
ATOM      4  C   UNL     1      -1.304   2.841   0.998  0.00  0.00    +0.000 A 
ATOM      5  C   UNL     1      -2.555   2.300   0.726  0.00  0.00    +0.005 A 
ATOM      6  C   UNL     1      -2.682   1.062   0.112  0.00  0.00    +0.089 A 
ATOM      7  C   UNL     1      -1.538   0.291   0.074  0.00  0.00    +0.085 A 
ATOM      8  N   UNL     1      -1.608  -1.055  -0.072  0.00  0.00    -0.241 NA
ATOM      9  C   UNL     1      -0.534  -1.829   0.224  0.00  0.00    +0.152 A 
ATOM     10  C   UNL     1       0.739  -1.263   0.209  0.00  0.00    +0.021 A 
ENDROOT
BRANCH   6  11
ATOM     11  C   UNL     1      -3.901   0.586  -0.556  0.00  0.00    +0.420 C 
ATOM     12  F   UNL     1      -3.656  -0.147  -1.698  0.00  0.00    -0.166 F 
ATOM     13  F   UNL     1      -4.715   1.659  -0.876  0.00  0.00    -0.166 F 
ATOM     14  F   UNL     1      -4.596  -0.252   0.299  0.00  0.00    -0.166 F 
ENDBRANCH   6  11
BRANCH   9  15
ATOM     15  C   UNL     1      -0.650  -3.312   0.059  0.00  0.00    +0.435 C 
ATOM     16  F   UNL     1       0.014  -3.776  -1.046  0.00  0.00    -0.164 F 
ATOM     17  F   UNL     1      -1.983  -3.659   0.009  0.00  0.00    -0.164 F 
ATOM     18  F   UNL     1      -0.103  -3.858   1.219  0.00  0.00    -0.164 F 
ENDBRANCH   9  15
BRANCH   1  20
ATOM     19  O   UNL     1       2.502  -0.297  -1.361  0.00  0.00    -0.217 OA
ATOM     20  C   UNL     1       2.213   0.776  -0.300  0.00  0.00    +0.190 C 
BRANCH  20  21
ATOM     21  C   UNL     1       3.131  -0.086   0.919  0.00  0.00    +0.107 C 
ATOM     22  N   UNL     1       4.471  -0.101   0.096  0.00  0.00    -0.217 NA
ATOM     23  C   UNL     1       4.556   0.964  -0.778  0.00  0.00    +0.089 C 
ATOM     24  C   UNL     1       4.648   2.344  -0.239  0.00  0.00    +0.019 C 
ATOM     25  C   UNL     1       3.635   2.413   0.865  0.00  0.00    +0.003 C 
ATOM     26  C   UNL     1       3.566   1.262   1.754  0.00  0.00    +0.020 C 
ENDBRANCH  20  21
ENDBRANCH   1  20
TORSDOF 4
