REMARK  Name = 
REMARK  0 active torsions:
REMARK  status: ('A' for Active; 'I' for Inactive)
REMARK                            x       y       z     vdW  Elec       q    Type
REMARK                         _______ _______ _______ _____ _____    ______ ____
ROOT
ATOM      1  N   UNL     1      -1.652   2.306  -0.891  0.00  0.00    +0.006 NA
ATOM      2  N   UNL     1      -2.089   1.367   0.061  0.00  0.00    -0.108 NA
ATOM      3  C   UNL     1      -1.373   0.144   0.250  0.00  0.00    +0.189 A 
ATOM      4  C   UNL     1       0.016   0.187   0.252  0.00  0.00    +0.038 A 
ATOM      5  C   UNL     1       0.746  -0.939  -0.092  0.00  0.00    +0.024 A 
ATOM      6  C   UNL     1       2.020  -0.760  -0.615  0.00  0.00    +0.002 A 
ATOM      7  C   UNL     1       2.698   0.390  -0.249  0.00  0.00    +0.000 A 
ATOM      8  C   UNL     1       2.092   1.323   0.572  0.00  0.00    +0.000 A 
ATOM      9  C   UNL     1       0.059  -2.124  -0.174  0.00  0.00    +0.122 A 
ATOM     10  N   UNL     1      -1.246  -2.164   0.145  0.00  0.00    -0.145 NA
ATOM     11  C   UNL     1       0.702   1.333   0.606  0.00  0.00    +0.003 A 
ATOM     12  N   UNL     1      -1.973  -1.063   0.135  0.00  0.00    -0.130 NA
ENDROOT
TORSDOF 0
