REMARK  Name = 
REMARK  5 active torsions:
REMARK  status: ('A' for Active; 'I' for Inactive)
REMARK    1  A    between atoms: C_7  and  O_8
REMARK    2  A    between atoms: O_8  and  C_9
REMARK    3  A    between atoms: C_9  and  C_11
REMARK    4  A    between atoms: C_11  and  C_13
REMARK    5  A    between atoms: C_11  and  C_19
REMARK                            x       y       z     vdW  Elec       q    Type
REMARK                         _______ _______ _______ _____ _____    ______ ____
ROOT
ATOM      1  C   UNL     1      -1.168  -0.019   0.227  0.00  0.00    +0.252 C 
ATOM      2  O   UNL     1      -1.341  -0.241   1.603  0.00  0.00    -0.205 OA
ENDROOT
BRANCH   1   3
ATOM      3  C   UNL     1      -1.630   1.329  -0.149  0.00  0.00    +0.019 A 
ATOM      4  C   UNL     1      -2.865   1.724   0.353  0.00  0.00    -0.001 A 
ATOM      5  C   UNL     1      -3.227   3.036   0.489  0.00  0.00    -0.000 A 
ATOM      6  C   UNL     1      -2.227   3.995   0.507  0.00  0.00    -0.000 A 
ATOM      7  C   UNL     1      -1.019   3.679  -0.067  0.00  0.00    -0.000 A 
ATOM      8  C   UNL     1      -0.754   2.378  -0.403  0.00  0.00    -0.001 A 
ENDBRANCH   1   3
BRANCH   1   9
ATOM      9  C   UNL     1      -2.015  -1.028  -0.484  0.00  0.00    +0.019 A 
ATOM     10  C   UNL     1      -3.382  -0.866  -0.293  0.00  0.00    -0.001 A 
ATOM     11  C   UNL     1      -4.289  -1.883  -0.402  0.00  0.00    -0.000 A 
ATOM     12  C   UNL     1      -3.837  -3.160  -0.643  0.00  0.00    -0.000 A 
ATOM     13  C   UNL     1      -2.485  -3.401  -0.427  0.00  0.00    -0.000 A 
ATOM     14  C   UNL     1      -1.587  -2.349  -0.551  0.00  0.00    -0.001 A 
ENDBRANCH   1   9
BRANCH   1  15
ATOM     15  C   UNL     1       0.272  -0.211  -0.043  0.00  0.00    +0.353 C 
ATOM     16  O   UNL     1       0.756  -1.381   0.067  0.00  0.00    -0.247 OA
BRANCH  15  17
ATOM     17  O   UNL     1       1.042   0.544  -0.870  0.00  0.00    -0.444 OA
BRANCH  17  21
ATOM     18  C   UNL     1       4.294  -1.151   1.178  0.00  0.00    +0.171 C 
ATOM     19  N   UNL     1       4.056  -0.549   0.843  0.00  0.00    +0.309 N 
ATOM     20  C   UNL     1       2.697  -0.687   0.314  0.00  0.00    +0.153 C 
ATOM     21  C   UNL     1       2.542   0.697  -0.570  0.00  0.00    +0.224 C 
ATOM     22  C   UNL     1       2.949  -0.090  -1.961  0.00  0.00    +0.056 C 
ATOM     23  C   UNL     1       4.243  -0.794  -1.568  0.00  0.00    +0.065 C 
ATOM     24  C   UNL     1       4.846  -0.150  -0.324  0.00  0.00    +0.109 C 
ATOM     25  C   UNL     1       4.130   0.577   1.773  0.00  0.00    +0.171 C 
ENDBRANCH  17  21
ENDBRANCH  15  17
ENDBRANCH   1  15
TORSDOF 5
