REMARK  Name = 
REMARK  3 active torsions:
REMARK  status: ('A' for Active; 'I' for Inactive)
REMARK    1  A    between atoms: N_2  and  N_4
REMARK    2  A    between atoms: N_5  and  C_6
REMARK    3  A    between atoms: C_10  and  C_11
REMARK                            x       y       z     vdW  Elec       q    Type
REMARK                         _______ _______ _______ _____ _____    ______ ____
ROOT
ATOM      1  C   UNL     1      -0.013  -0.627   0.081  0.00  0.00    +0.209 A 
ATOM      2  C   UNL     1      -1.355  -0.262   0.100  0.00  0.00    +0.177 A 
ATOM      3  N   UNL     1      -1.994  -1.013   1.029  0.00  0.00    -0.216 NA
ATOM      4  C   UNL     1      -1.254  -2.144   1.124  0.00  0.00    +0.201 A 
ATOM      5  N   UNL     1       0.009  -1.777   0.799  0.00  0.00    -0.202 NA
ENDROOT
BRANCH   2   6
ATOM      6  C   UNL     1      -1.874   1.036  -0.316  0.00  0.00    +0.305 C 
ATOM      7  O   UNL     1      -2.226   1.183  -1.502  0.00  0.00    -0.265 OA
ATOM      8  N   UNL     1      -1.922   2.132   0.575  0.00  0.00    -0.082 NA
ENDBRANCH   2   6
BRANCH   1  10
ATOM      9  N   UNL     1       2.002  -0.574  -0.985  0.00  0.00    -0.076 NA
ATOM     10  N   UNL     1       0.733  -0.495  -1.139  0.00  0.00    -0.111 NA
BRANCH   9  12
ATOM     11  C   UNL     1       1.815   0.868   1.058  0.00  0.00    +0.136 C 
ATOM     12  N   UNL     1       2.527   0.406  -0.122  0.00  0.00    -0.211 N 
ATOM     13  C   UNL     1       3.553   1.266  -0.703  0.00  0.00    +0.136 C 
ENDBRANCH   9  12
ENDBRANCH   1  10
TORSDOF 3
