REMARK  Name = 
REMARK  3 active torsions:
REMARK  status: ('A' for Active; 'I' for Inactive)
REMARK    1  A    between atoms: CG1_2  and  CB_3
REMARK    2  A    between atoms: CB_3  and  CA_5
REMARK    3  A    between atoms: CA_5  and  C_7
REMARK                            x       y       z     vdW  Elec       q    Type
REMARK                         _______ _______ _______ _____ _____    ______ ____
ROOT
ATOM      1  CA  ILE A   1      -0.079  -0.462   0.464  0.00  0.00    +0.194 C 
ATOM      2  N   ILE A   1      -0.151  -2.002   0.179  0.00  0.00    -0.121 NA
ENDROOT
BRANCH   1   3
ATOM      3  C   ILE A   1      -1.271  -0.072  -0.525  0.00  0.00    +0.382 C 
ATOM      4  OXT ILE A   1      -1.927  -0.954  -1.283  0.00  0.00    -0.244 OA
ATOM      5  O   ILE A   1      -1.936   0.846   0.047  0.00  0.00    -0.244 OA
ENDBRANCH   1   3
BRANCH   1   6
ATOM      6  CB  ILE A   1       1.150  -0.272  -0.702  0.00  0.00    +0.029 C 
ATOM      7  CG2 ILE A   1       0.660   1.168  -1.250  0.00  0.00    +0.002 C 
BRANCH   6   9
ATOM      8  CD1 ILE A   1       1.423   1.343   1.007  0.00  0.00    +0.000 C 
ATOM      9  CG1 ILE A   1       2.131   0.404   0.394  0.00  0.00    +0.002 C 
ENDBRANCH   6   9
ENDBRANCH   1   6
TORSDOF 3
