REMARK  Name = 
REMARK  8 active torsions:
REMARK  status: ('A' for Active; 'I' for Inactive)
REMARK    1  A    between atoms: C_2  and  N_4
REMARK    2  A    between atoms: C_5  and  C_6
REMARK    3  A    between atoms: C_7  and  C_8
REMARK    4  A    between atoms: C_8  and  C_10
REMARK    5  A    between atoms: C_10  and  C_11
REMARK    6  A    between atoms: C_11  and  C_13
REMARK    7  A    between atoms: C_13  and  C_14
REMARK    8  A    between atoms: C_17  and  C_18
REMARK                            x       y       z     vdW  Elec       q    Type
REMARK                         _______ _______ _______ _____ _____    ______ ____
ROOT
ATOM      1  N   UNL     1      -1.170  -0.265   2.146  0.00  0.00    -0.329 N 
ATOM      2  C   UNL     1      -2.429  -0.730   1.965  0.00  0.00    +0.060 A 
ATOM      3  C   UNL     1      -2.779  -0.595   0.628  0.00  0.00    +0.017 A 
ATOM      4  C   UNL     1      -4.103  -0.674   0.213  0.00  0.00    +0.001 A 
ATOM      5  C   UNL     1      -5.030  -1.142   1.134  0.00  0.00    +0.000 A 
ATOM      6  C   UNL     1      -4.633  -1.514   2.403  0.00  0.00    +0.001 A 
ATOM      7  C   UNL     1      -1.633  -0.105   0.021  0.00  0.00    +0.017 A 
ATOM      8  C   UNL     1      -3.423  -1.042   2.884  0.00  0.00    +0.017 A 
ATOM      9  C   UNL     1      -0.594  -0.177   0.942  0.00  0.00    +0.060 A 
ENDROOT
BRANCH   7  10
ATOM     10  C   UNL     1      -1.605   0.451  -1.337  0.00  0.00    +0.002 A 
ATOM     11  C   UNL     1      -2.332   1.609  -1.564  0.00  0.00    +0.002 A 
ATOM     12  C   UNL     1      -2.861   1.922  -2.808  0.00  0.00    +0.030 A 
ATOM     13  C   UNL     1      -2.946   0.929  -3.775  0.00  0.00    +0.140 A 
ATOM     14  F   UNL     1      -3.394   1.271  -5.018  0.00  0.00    -0.204 F 
ATOM     15  C   UNL     1      -2.072  -0.127  -3.634  0.00  0.00    +0.030 A 
ATOM     16  C   UNL     1      -1.416  -0.359  -2.452  0.00  0.00    +0.002 A 
ENDBRANCH   7  10
BRANCH   1  18
ATOM     17  C   UNL     1       0.685   0.739   3.231  0.00  0.00    +0.024 C 
ATOM     18  C   UNL     1      -0.574   0.217   3.382  0.00  0.00    +0.086 C 
ATOM     19  C   UNL     1      -1.465   1.329   3.930  0.00  0.00    +0.024 C 
ENDBRANCH   1  18
BRANCH   9  20
ATOM     20  C   UNL     1       0.833  -0.077   0.603  0.00  0.00    +0.015 C 
ATOM     21  C   UNL     1       1.373  -1.149   0.113  0.00  0.00    +0.008 C 
BRANCH  21  22
ATOM     22  C   UNL     1       2.869  -0.954  -0.570  0.00  0.00    +0.177 C 
ATOM     23  O   UNL     1       2.469   0.375  -1.278  0.00  0.00    -0.218 OA
BRANCH  22  24
ATOM     24  C   UNL     1       3.471  -0.132   0.775  0.00  0.00    +0.071 C 
BRANCH  24  25
ATOM     25  C   UNL     1       5.020  -0.795   0.801  0.00  0.00    +0.166 C 
ATOM     26  O   UNL     1       4.496  -2.236   0.575  0.00  0.00    -0.222 OA
BRANCH  25  27
ATOM     27  C   UNL     1       5.244  -0.543  -0.848  0.00  0.00    +0.147 C 
BRANCH  27  28
ATOM     28  C   UNL     1       5.829   0.828  -0.845  0.00  0.00    +0.367 C 
ATOM     29  O   UNL     1       6.600   1.332   0.174  0.00  0.00    -0.246 OA
ATOM     30  O   UNL     1       5.572   1.613  -1.792  0.00  0.00    -0.246 OA
ENDBRANCH  27  28
ENDBRANCH  25  27
ENDBRANCH  24  25
ENDBRANCH  22  24
ENDBRANCH  21  22
ENDBRANCH   9  20
TORSDOF 8
