REMARK  Name = 
REMARK  3 active torsions:
REMARK  status: ('A' for Active; 'I' for Inactive)
REMARK    1  A    between atoms: C_21  and  O_22
REMARK    2  A    between atoms: O_22  and  C_23
REMARK    3  A    between atoms: C_62  and  C_63
REMARK                            x       y       z     vdW  Elec       q    Type
REMARK                         _______ _______ _______ _____ _____    ______ ____
ROOT
ATOM      1  C   UNL     1       9.008   1.735   1.405  0.00  0.00    +0.006 C 
ATOM      2  C   UNL     1       8.190   1.189   0.140  0.00  0.00    +0.071 C 
ATOM      3  C   UNL     1       7.515  -0.206   0.833  0.00  0.00    +0.171 C 
ATOM      4  C   UNL     1       8.745  -0.572   1.852  0.00  0.00    +0.047 C 
ATOM      5  O   UNL     1       8.133  -1.073  -0.264  0.00  0.00    -0.452 OA
ATOM      6  C   UNL     1       7.401  -2.170  -0.673  0.00  0.00    +0.319 C 
ATOM      7  O   UNL     1       7.684  -2.511  -1.867  0.00  0.00    -0.250 OA
ATOM      8  C   UNL     1       6.019  -2.420  -0.248  0.00  0.00    +0.142 C 
ATOM      9  C   UNL     1       5.902  -4.024   0.117  0.00  0.00    +0.166 C 
ATOM     10  O   UNL     1       6.789  -4.441  -1.039  0.00  0.00    -0.222 OA
ATOM     11  C   UNL     1       4.565  -4.179  -0.815  0.00  0.00    +0.066 C 
ATOM     12  C   UNL     1       3.322  -4.149   0.254  0.00  0.00    +0.155 C 
ATOM     13  O   UNL     1       4.082  -3.542   1.419  0.00  0.00    -0.223 OA
ATOM     14  C   UNL     1       3.663  -5.685   0.752  0.00  0.00    +0.036 C 
ATOM     15  C   UNL     1       2.224  -6.140   0.967  0.00  0.00    +0.038 C 
ATOM     16  C   UNL     1       1.644  -6.020  -0.561  0.00  0.00    +0.182 C 
ATOM     17  O   UNL     1       1.755  -7.508  -0.766  0.00  0.00    -0.220 OA
ATOM     18  C   UNL     1       0.030  -6.141   0.014  0.00  0.00    +0.185 C 
ATOM     19  O   UNL     1      -0.462  -6.844  -1.225  0.00  0.00    -0.220 OA
ATOM     20  C   UNL     1      -0.355  -4.678  -0.616  0.00  0.00    +0.069 C 
ATOM     21  C   UNL     1      -1.402  -4.223   0.570  0.00  0.00    +0.160 C 
ATOM     22  O   UNL     1      -2.259  -5.455   0.350  0.00  0.00    -0.223 OA
ATOM     23  C   UNL     1      -2.304  -3.317  -0.470  0.00  0.00    +0.092 C 
ATOM     24  C   UNL     1      -2.877  -2.302   0.524  0.00  0.00    +0.224 C 
ATOM     25  C   UNL     1      -3.885  -2.966   1.249  0.00  0.00    +0.093 C 
ATOM     26  C   UNL     1      -5.383  -2.901   0.642  0.00  0.00    +0.170 C 
ATOM     27  C   UNL     1      -5.089  -1.863  -0.670  0.00  0.00    +0.161 C 
ATOM     28  C   UNL     1      -4.425  -0.576   0.214  0.00  0.00    +0.134 C 
ATOM     29  C   UNL     1      -4.341   0.289  -1.159  0.00  0.00    +0.064 C 
ATOM     30  C   UNL     1      -4.099   1.857  -0.757  0.00  0.00    +0.142 C 
ATOM     31  C   UNL     1      -2.479   1.777  -0.728  0.00  0.00    +0.003 C 
ATOM     32  C   UNL     1      -2.228   3.049  -1.098  0.00  0.00    -0.002 C 
ATOM     33  C   UNL     1      -2.377   3.973   0.041  0.00  0.00    -0.000 C 
ATOM     34  C   UNL     1      -1.405   3.731   1.004  0.00  0.00    -0.000 C 
ATOM     35  C   UNL     1      -0.104   4.316   0.662  0.00  0.00    -0.000 C 
ATOM     36  C   UNL     1       0.168   4.740  -0.571  0.00  0.00    -0.000 C 
ATOM     37  C   UNL     1       0.097   6.181  -0.752  0.00  0.00    +0.000 C 
ATOM     38  C   UNL     1       0.752   6.980   0.049  0.00  0.00    +0.000 C 
ATOM     39  C   UNL     1       2.209   6.886  -0.160  0.00  0.00    -0.000 C 
ATOM     40  C   UNL     1       2.683   5.825   0.437  0.00  0.00    -0.000 C 
ATOM     41  C   UNL     1       4.124   5.697   0.349  0.00  0.00    -0.000 C 
ATOM     42  C   UNL     1       4.555   5.397  -0.873  0.00  0.00    -0.000 C 
ATOM     43  C   UNL     1       5.932   4.877  -0.984  0.00  0.00    -0.005 C 
ATOM     44  C   UNL     1       6.368   4.368   0.101  0.00  0.00    -0.024 C 
ATOM     45  C   UNL     1       7.710   3.555   0.253  0.00  0.00    +0.053 C 
ATOM     46  C   UNL     1       7.951   3.295  -1.334  0.00  0.00    +0.007 C 
ATOM     47  O   UNL     1      -5.144  -4.084  -0.275  0.00  0.00    -0.222 OA
ATOM     48  O   UNL     1      -1.919  -1.991   1.523  0.00  0.00    -0.195 OA
ATOM     49  O   UNL     1      -3.035  -1.095  -0.048  0.00  0.00    -0.334 OA
ATOM     50  C   UNL     1       6.850   2.111   0.588  0.00  0.00    +0.159 C 
ATOM     51  O   UNL     1       6.165   1.971  -0.738  0.00  0.00    -0.223 OA
ENDROOT
BRANCH  27  52
ATOM     52  C   UNL     1      -6.616  -1.449  -0.616  0.00  0.00    +0.369 C 
ATOM     53  O   UNL     1      -7.215  -1.254   0.647  0.00  0.00    -0.245 OA
ATOM     54  O   UNL     1      -7.331  -2.302  -1.188  0.00  0.00    -0.245 OA
ENDBRANCH  27  52
BRANCH  30  55
ATOM     55  O   UNL     1      -4.218   1.765   0.770  0.00  0.00    -0.327 OA
BRANCH  55  56
ATOM     56  C   UNL     1      -5.662   1.650   0.299  0.00  0.00    +0.268 C 
ATOM     57  C   UNL     1      -6.328   1.494   1.868  0.00  0.00    +0.228 C 
ATOM     58  O   UNL     1      -6.256   2.939   2.264  0.00  0.00    -0.216 OA
ATOM     59  C   UNL     1      -7.929   1.349   1.364  0.00  0.00    +0.160 C 
ATOM     60  N   UNL     1      -8.483   2.606   2.147  0.00  0.00    -0.127 NA
ATOM     61  C   UNL     1      -8.208   2.192  -0.059  0.00  0.00    +0.199 C 
ATOM     62  O   UNL     1      -8.318   0.843  -0.789  0.00  0.00    -0.219 OA
ATOM     63  C   UNL     1      -6.754   2.445  -0.887  0.00  0.00    +0.150 C 
ATOM     64  C   UNL     1      -7.392   3.856  -1.486  0.00  0.00    +0.035 C 
ATOM     65  O   UNL     1      -5.955   3.146   0.186  0.00  0.00    -0.328 OA
ENDBRANCH  55  56
ENDBRANCH  30  55
TORSDOF 3
