REMARK  Name = 
REMARK  7 active torsions:
REMARK  status: ('A' for Active; 'I' for Inactive)
REMARK    1  A    between atoms: C_2  and  C_3
REMARK    2  A    between atoms: C_3  and  C_4
REMARK    3  A    between atoms: C_3  and  C_6
REMARK    4  A    between atoms: C_6  and  N_7
REMARK    5  A    between atoms: C_6  and  C_11
REMARK    6  A    between atoms: C_12  and  N_13
REMARK    7  A    between atoms: C_18  and  C_19
REMARK                            x       y       z     vdW  Elec       q    Type
REMARK                         _______ _______ _______ _____ _____    ______ ____
ROOT
ATOM      1  C   UNL     1      -0.365   0.257   0.555  0.00  0.00    +0.091 C 
ATOM      2  C   UNL     1      -1.163  -0.840   1.571  0.00  0.00    +0.168 C 
ATOM      3  O   UNL     1      -0.202  -2.013   1.328  0.00  0.00    -0.222 OA
ATOM      4  C   UNL     1      -2.208  -1.481   0.341  0.00  0.00    +0.137 C 
ATOM      5  C   UNL     1      -2.308  -0.078  -0.490  0.00  0.00    +0.057 C 
ATOM      6  C   UNL     1      -0.754  -0.579  -0.855  0.00  0.00    +0.186 C 
ENDROOT
BRANCH   6   7
ATOM      7  N   UNL     1      -0.449   0.730  -1.716  0.00  0.00    -0.090 NA
ATOM      8  C   UNL     1      -1.413   1.210  -2.583  0.00  0.00    +0.534 C 
ATOM      9  N   UNL     1      -1.133   2.516  -3.119  0.00  0.00    +0.135 NA
ATOM     10  N   UNL     1      -2.639   0.850  -2.410  0.00  0.00    +0.135 NA
ENDBRANCH   6   7
BRANCH   4  11
ATOM     11  C   UNL     1      -3.548  -1.181   1.194  0.00  0.00    +0.367 C 
ATOM     12  O   UNL     1      -3.648   0.058   1.767  0.00  0.00    -0.246 OA
ATOM     13  O   UNL     1      -4.024  -2.225   1.737  0.00  0.00    -0.246 OA
ENDBRANCH   4  11
BRANCH   1  14
ATOM     14  C   UNL     1       1.216  -0.322   0.783  0.00  0.00    +0.101 C 
BRANCH  14  15
ATOM     15  N   UNL     1       1.566  -0.514  -0.763  0.00  0.00    -0.207 NA
ATOM     16  C   UNL     1       2.536  -1.558  -0.901  0.00  0.00    +0.242 C 
ATOM     17  O   UNL     1       2.968  -2.229   0.074  0.00  0.00    -0.273 OA
ATOM     18  C   UNL     1       3.031  -2.001  -2.242  0.00  0.00    +0.096 C 
ENDBRANCH  14  15
BRANCH  14  19
ATOM     19  C   UNL     1       1.818   1.233   0.759  0.00  0.00    +0.020 C 
BRANCH  19  21
ATOM     20  C   UNL     1       1.927   3.146   2.186  0.00  0.00    +0.000 C 
ATOM     21  C   UNL     1       1.626   1.723   2.174  0.00  0.00    +0.002 C 
ENDBRANCH  19  21
BRANCH  19  22
ATOM     22  C   UNL     1       3.253   0.982   0.405  0.00  0.00    +0.002 C 
ATOM     23  C   UNL     1       3.915   2.315   0.203  0.00  0.00    +0.000 C 
ENDBRANCH  19  22
ENDBRANCH  14  19
ENDBRANCH   1  14
TORSDOF 7
