REMARK  Name = 
REMARK  2 active torsions:
REMARK  status: ('A' for Active; 'I' for Inactive)
REMARK    1  A    between atoms: CB_2  and  CA_4
REMARK    2  A    between atoms: CA_4  and  C_6
REMARK                            x       y       z     vdW  Elec       q    Type
REMARK                         _______ _______ _______ _____ _____    ______ ____
ROOT
ATOM      1  CA  THR A   1       0.066   0.518  -0.649  0.00  0.00    +0.224 C 
ATOM      2  N   THR A   1       0.007   1.787   0.297  0.00  0.00    -0.118 NA
ENDROOT
BRANCH   1   4
ATOM      3  CG2 THR A   1       1.658  -1.319  -0.670  0.00  0.00    +0.038 C 
ATOM      4  CB  THR A   1       0.931  -0.440   0.536  0.00  0.00    +0.181 C 
ATOM      5  OG1 THR A   1       2.091   0.556   0.547  0.00  0.00    -0.221 OA
ENDBRANCH   1   4
BRANCH   1   6
ATOM      6  C   THR A   1      -1.395   0.025  -0.145  0.00  0.00    +0.384 C 
ATOM      7  OXT THR A   1      -1.829  -0.999  -0.987  0.00  0.00    -0.244 OA
ATOM      8  O   THR A   1      -1.529  -0.129   1.070  0.00  0.00    -0.244 OA
ENDBRANCH   1   6
TORSDOF 2
