REMARK  Name = 
REMARK  7 active torsions:
REMARK  status: ('A' for Active; 'I' for Inactive)
REMARK    1  A    between atoms: C_2  and  N_4
REMARK    2  A    between atoms: N_4  and  C_6
REMARK    3  A    between atoms: N_4  and  C_25
REMARK    4  A    between atoms: C_6  and  C_7
REMARK    5  A    between atoms: C_7  and  O_8
REMARK    6  A    between atoms: O_8  and  C_9
REMARK    7  A    between atoms: C_9  and  C_11
REMARK                            x       y       z     vdW  Elec       q    Type
REMARK                         _______ _______ _______ _____ _____    ______ ____
ROOT
ATOM      1  C   UNL     1      -1.540  -0.632   0.734  0.00  0.00    +0.149 C 
ATOM      2  C   UNL     1      -1.911   0.760   1.088  0.00  0.00    +0.027 A 
ATOM      3  C   UNL     1      -2.540   1.596   0.173  0.00  0.00    +0.142 A 
ATOM      4  C   UNL     1      -3.084   2.788   0.632  0.00  0.00    +0.037 A 
ATOM      5  C   UNL     1      -3.432   2.967   1.963  0.00  0.00    +0.003 A 
ATOM      6  C   UNL     1      -2.978   2.009   2.862  0.00  0.00    -0.000 A 
ATOM      7  O   UNL     1      -2.751   1.126  -1.122  0.00  0.00    -0.454 OA
ATOM      8  C   UNL     1      -2.781  -0.239  -1.423  0.00  0.00    +0.142 A 
ATOM      9  C   UNL     1      -3.586  -0.743  -2.437  0.00  0.00    +0.037 A 
ATOM     10  C   UNL     1      -4.071  -2.035  -2.430  0.00  0.00    +0.003 A 
ATOM     11  C   UNL     1      -3.795  -2.783  -1.294  0.00  0.00    -0.000 A 
ATOM     12  C   UNL     1      -2.709  -2.418  -0.510  0.00  0.00    -0.000 A 
ATOM     13  C   UNL     1      -2.073   1.056   2.436  0.00  0.00    -0.000 A 
ATOM     14  C   UNL     1      -2.263  -1.110  -0.479  0.00  0.00    +0.027 A 
ENDROOT
BRANCH   1  15
ATOM     15  C   UNL     1      -0.067  -0.787   0.536  0.00  0.00    +0.325 C 
ATOM     16  O   UNL     1       0.333  -1.980   0.375  0.00  0.00    -0.249 OA
BRANCH  15  17
ATOM     17  O   UNL     1       0.741   0.205   0.023  0.00  0.00    -0.442 OA
BRANCH  17  18
ATOM     18  C   UNL     1       1.626   0.016  -1.078  0.00  0.00    +0.269 C 
BRANCH  18  19
ATOM     19  C   UNL     1       2.859  -0.757  -0.699  0.00  0.00    +0.156 C 
BRANCH  19  20
ATOM     20  N   UNL     1       3.780  -0.007   0.112  0.00  0.00    +0.296 N 
ATOM     21  C   UNL     1       3.121   0.281   1.377  0.00  0.00    +0.170 C 
BRANCH  20  23
ATOM     22  C   UNL     1       3.396   2.410  -0.176  0.00  0.00    +0.061 C 
ATOM     23  C   UNL     1       4.240   1.212  -0.501  0.00  0.00    +0.059 C 
ATOM     24  C   UNL     1       4.526   1.069  -1.967  0.00  0.00    +0.061 C 
ENDBRANCH  20  23
BRANCH  20  25
ATOM     25  C   UNL     1       4.962  -0.845   0.304  0.00  0.00    +0.059 C 
ATOM     26  C   UNL     1       4.775  -2.222  -0.297  0.00  0.00    +0.061 C 
ATOM     27  C   UNL     1       5.226  -0.936   1.797  0.00  0.00    +0.061 C 
ENDBRANCH  20  25
ENDBRANCH  19  20
ENDBRANCH  18  19
ENDBRANCH  17  18
ENDBRANCH  15  17
ENDBRANCH   1  15
TORSDOF 7
