REMARK  Name = 
REMARK  3 active torsions:
REMARK  status: ('A' for Active; 'I' for Inactive)
REMARK    1  A    between atoms: C_21  and  C_23
REMARK    2  A    between atoms: C_23  and  O_25
REMARK    3  A    between atoms: O_25  and  C_26
REMARK                            x       y       z     vdW  Elec       q    Type
REMARK                         _______ _______ _______ _____ _____    ______ ____
ROOT
ATOM      1  C   UNL     1       1.576  -1.753  -0.073  0.00  0.00    +0.003 C 
ATOM      2  C   UNL     1       1.382  -0.270   0.115  0.00  0.00    +0.038 C 
ATOM      3  C   UNL     1       2.645   0.321  -0.090  0.00  0.00    +0.215 C 
ATOM      4  O   UNL     1       2.830   1.675   0.207  0.00  0.00    -0.214 OA
ATOM      5  C   UNL     1       2.871   0.102  -1.599  0.00  0.00    +0.041 C 
ATOM      6  C   UNL     1       1.632  -0.678  -2.089  0.00  0.00    +0.003 C 
ATOM      7  C   UNL     1       0.707   0.339  -1.235  0.00  0.00    +0.003 C 
ATOM      8  C   UNL     1      -0.633  -0.638  -0.959  0.00  0.00    +0.003 C 
ATOM      9  C   UNL     1      -1.302  -0.601  -2.418  0.00  0.00    +0.004 C 
ATOM     10  C   UNL     1      -2.670  -1.194  -2.053  0.00  0.00    +0.022 C 
ATOM     11  C   UNL     1      -3.316  -0.535  -0.895  0.00  0.00    -0.038 C 
ATOM     12  C   UNL     1      -2.544  -0.113   0.343  0.00  0.00    +0.036 C 
ATOM     13  C   UNL     1      -2.008  -1.316   0.940  0.00  0.00    +0.009 C 
ATOM     14  C   UNL     1      -3.425   0.610   1.173  0.00  0.00    -0.020 C 
ATOM     15  C   UNL     1      -4.553   1.221   1.014  0.00  0.00    +0.038 C 
ATOM     16  C   UNL     1      -5.166   0.925  -0.284  0.00  0.00    +0.195 C 
ATOM     17  O   UNL     1      -6.433   1.017  -0.347  0.00  0.00    -0.287 OA
ATOM     18  C   UNL     1      -4.338   0.258  -1.244  0.00  0.00    +0.034 C 
ATOM     19  C   UNL     1      -1.508   0.737  -0.513  0.00  0.00    +0.038 C 
ATOM     20  C   UNL     1      -0.405   1.354   0.637  0.00  0.00    +0.153 C 
ATOM     21  O   UNL     1      -1.314   1.322   1.838  0.00  0.00    -0.223 OA
ATOM     22  C   UNL     1       0.329  -0.047   1.074  0.00  0.00    +0.036 C 
ENDROOT
BRANCH   3  23
ATOM     23  C   UNL     1       3.848  -0.404   0.459  0.00  0.00    +0.346 C 
ATOM     24  O   UNL     1       4.054  -1.612   0.114  0.00  0.00    -0.247 OA
BRANCH  23  25
ATOM     25  O   UNL     1       5.061   0.284   0.605  0.00  0.00    -0.429 OA
BRANCH  25  26
ATOM     26  C   UNL     1       6.327  -0.233   0.287  0.00  0.00    +0.304 C 
ATOM     27 CL   UNL     1       6.354  -0.773  -1.424  0.00  0.00    -0.063 Cl
ENDBRANCH  25  26
ENDBRANCH  23  25
ENDBRANCH   3  23
TORSDOF 3
