REMARK  Name = 
REMARK  2 active torsions:
REMARK  status: ('A' for Active; 'I' for Inactive)
REMARK    1  A    between atoms: C_2  and  C_3
REMARK    2  A    between atoms: C_2  and  N_12
REMARK                            x       y       z     vdW  Elec       q    Type
REMARK                         _______ _______ _______ _____ _____    ______ ____
ROOT
ATOM      1  C   UNL     1      -0.323  -0.652   0.099  0.00  0.00    +0.026 A 
ATOM      2  S   UNL     1       0.174   0.884   0.703  0.00  0.00    -0.090 S 
ATOM      3  C   UNL     1       1.851   0.812   0.334  0.00  0.00    +0.029 A 
ATOM      4  C   UNL     1       1.970  -0.525  -0.025  0.00  0.00    +0.006 A 
ATOM      5  C   UNL     1       3.272  -0.972  -0.232  0.00  0.00    +0.001 A 
ATOM      6  C   UNL     1       4.329  -0.112  -0.161  0.00  0.00    +0.000 A 
ATOM      7  C   UNL     1       4.152   1.263  -0.241  0.00  0.00    +0.001 A 
ATOM      8  C   UNL     1       2.918   1.700   0.228  0.00  0.00    +0.006 A 
ATOM      9  C   UNL     1       0.826  -1.022  -0.563  0.00  0.00    +0.004 A 
ENDROOT
BRANCH   1  11
ATOM     10  C   UNL     1      -1.742  -2.420  -0.668  0.00  0.00    +0.027 C 
ATOM     11  C   UNL     1      -1.659  -0.759  -0.864  0.00  0.00    +0.109 C 
BRANCH  11  12
ATOM     12  N   UNL     1      -2.659  -0.491   0.358  0.00  0.00    -0.264 N 
ATOM     13  C   UNL     1      -3.276   0.776   0.246  0.00  0.00    +0.188 C 
ATOM     14  O   UNL     1      -4.146   0.908  -0.667  0.00  0.00    -0.524 OA
ATOM     15  N   UNL     1      -3.268   1.773   1.266  0.00  0.00    -0.102 NA
ATOM     16  O   UNL     1      -2.421  -1.162   1.472  0.00  0.00    -0.418 OA
ENDBRANCH  11  12
ENDBRANCH   1  11
TORSDOF 2
