REMARK  Name = 
REMARK  0 active torsions:
REMARK  status: ('A' for Active; 'I' for Inactive)
REMARK                            x       y       z     vdW  Elec       q    Type
REMARK                         _______ _______ _______ _____ _____    ______ ____
ROOT
ATOM      1  O   UNL     1       2.669   0.500  -0.023  0.00  0.00    -0.287 OA
ATOM      2  C   UNL     1       1.364   0.007  -0.006  0.00  0.00    +0.196 A 
ATOM      3  C   UNL     1       0.719  -0.453  -1.135  0.00  0.00    +0.045 A 
ATOM      4  C   UNL     1      -0.671  -0.454  -1.110  0.00  0.00    +0.045 A 
ATOM      5  C   UNL     1      -1.367   0.034  -0.009  0.00  0.00    +0.196 A 
ATOM      6  O   UNL     1      -2.668   0.528  -0.121  0.00  0.00    -0.287 OA
ATOM      7  C   UNL     1      -0.717  -0.060   1.210  0.00  0.00    +0.045 A 
ATOM      8  C   UNL     1       0.671  -0.101   1.194  0.00  0.00    +0.045 A 
ENDROOT
TORSDOF 0
