REMARK  Name = 
REMARK  3 active torsions:
REMARK  status: ('A' for Active; 'I' for Inactive)
REMARK    1  A    between atoms: C_5  and  C_6
REMARK    2  A    between atoms: C_15  and  C_16
REMARK    3  A    between atoms: C_16  and  C_17
REMARK                            x       y       z     vdW  Elec       q    Type
REMARK                         _______ _______ _______ _____ _____    ______ ____
ROOT
ATOM      1  C   UNL     1       0.749   0.261  -0.954  0.00  0.00    +0.095 A 
ATOM      2  C   UNL     1      -0.445  -0.082  -0.327  0.00  0.00    +0.069 A 
ATOM      3  N   UNL     1      -1.064   1.099  -0.085  0.00  0.00    -0.292 N 
ATOM      4  C   UNL     1      -0.680   1.896  -1.111  0.00  0.00    +0.148 A 
ATOM      5  C   UNL     1      -1.465   2.991  -1.441  0.00  0.00    +0.037 A 
ATOM      6  C   UNL     1      -2.208   3.557  -0.412  0.00  0.00    +0.000 A 
ATOM      7  C   UNL     1      -2.396   2.848   0.757  0.00  0.00    -0.004 A 
ATOM      8  C   UNL     1      -2.794   3.580   1.972  0.00  0.00    +0.033 C 
ATOM      9  C   UNL     1      -2.055   1.505   0.740  0.00  0.00    +0.077 A 
ATOM     10  N   UNL     1       0.550   1.483  -1.494  0.00  0.00    -0.227 NA
ENDROOT
BRANCH   1  15
ATOM     11  C   UNL     1       5.264  -0.879   1.786  0.00  0.00    +0.031 C 
ATOM     12  C   UNL     1       4.355  -1.036   0.612  0.00  0.00    -0.022 A 
ATOM     13  C   UNL     1       4.394  -0.135  -0.445  0.00  0.00    -0.004 A 
ATOM     14  C   UNL     1       3.218   0.284  -1.057  0.00  0.00    +0.001 A 
ATOM     15  C   UNL     1       2.050  -0.409  -0.862  0.00  0.00    +0.019 A 
ATOM     16  C   UNL     1       2.146  -1.595  -0.147  0.00  0.00    +0.001 A 
ATOM     17  C   UNL     1       3.258  -1.881   0.635  0.00  0.00    -0.004 A 
ENDBRANCH   1  15
BRANCH   2  18
ATOM     18  C   UNL     1      -0.466  -1.233   0.610  0.00  0.00    +0.131 C 
BRANCH  18  19
ATOM     19  C   UNL     1      -1.815  -1.804   0.807  0.00  0.00    +0.232 C 
ATOM     20  N   UNL     1      -2.625  -2.242  -0.293  0.00  0.00    -0.276 N 
ATOM     21  C   UNL     1      -1.998  -3.213  -1.186  0.00  0.00    +0.115 C 
ATOM     22  C   UNL     1      -4.025  -2.515   0.023  0.00  0.00    +0.115 C 
ATOM     23  O   UNL     1      -1.949  -2.482   1.872  0.00  0.00    -0.274 OA
ENDBRANCH  18  19
ENDBRANCH   2  18
TORSDOF 3
