REMARK  Name = 
REMARK  8 active torsions:
REMARK  status: ('A' for Active; 'I' for Inactive)
REMARK    1  A    between atoms: C_2  and  C_3
REMARK    2  A    between atoms: C_3  and  C_4
REMARK    3  A    between atoms: C_4  and  C_5
REMARK    4  A    between atoms: C_9  and  C_10
REMARK    5  A    between atoms: N_12  and  C_13
REMARK    6  A    between atoms: C_13  and  C_14
REMARK    7  A    between atoms: C_17  and  C_18
REMARK    8  A    between atoms: C_23  and  C_24
REMARK                            x       y       z     vdW  Elec       q    Type
REMARK                         _______ _______ _______ _____ _____    ______ ____
ROOT
ATOM      1  C   UNL     1       0.747  -0.198   0.130  0.00  0.00    +0.000 A 
ATOM      2  C   UNL     1       0.258  -1.264  -0.612  0.00  0.00    -0.002 A 
ATOM      3  C   UNL     1      -1.112  -1.386  -0.809  0.00  0.00    -0.000 A 
ATOM      4  C   UNL     1      -2.005  -0.421  -0.367  0.00  0.00    -0.001 A 
ATOM      5  C   UNL     1      -1.456   0.748   0.111  0.00  0.00    -0.000 A 
ATOM      6  C   UNL     1      -0.086   0.909   0.227  0.00  0.00    -0.002 A 
ENDROOT
BRANCH   4   7
ATOM      7  C   UNL     1      -3.356  -0.810   0.045  0.00  0.00    -0.006 A 
ATOM      8  C   UNL     1      -4.385   0.107  -0.124  0.00  0.00    -0.015 A 
ATOM      9  C   UNL     1      -5.660  -0.404  -0.169  0.00  0.00    -0.007 A 
ATOM     10  C   UNL     1      -5.946  -1.745  -0.069  0.00  0.00    -0.001 A 
ATOM     11  C   UNL     1      -4.934  -2.587   0.367  0.00  0.00    -0.000 A 
ATOM     12  C   UNL     1      -3.647  -2.102   0.465  0.00  0.00    -0.001 A 
BRANCH   8  13
ATOM     13  C   UNL     1      -4.104   1.541   0.020  0.00  0.00    +0.044 A 
ATOM     14  N   UNL     1      -4.580   2.273   1.055  0.00  0.00    -0.289 NA
ATOM     15  N   UNL     1      -4.736   3.539   0.682  0.00  0.00    -0.218 NA
ATOM     16  N   UNL     1      -4.284   3.621  -0.556  0.00  0.00    -0.218 NA
ATOM     17  N   UNL     1      -4.149   2.391  -1.035  0.00  0.00    -0.289 NA
ENDBRANCH   8  13
ENDBRANCH   4   7
BRANCH   1  18
ATOM     18  C   UNL     1       1.993  -0.258   0.920  0.00  0.00    +0.134 C 
BRANCH  18  20
ATOM     19  C   UNL     1       4.231   0.093  -0.089  0.00  0.00    +0.121 A 
ATOM     20  N   UNL     1       3.138  -0.677   0.134  0.00  0.00    -0.311 N 
ATOM     21  C   UNL     1       3.579  -1.957   0.155  0.00  0.00    +0.100 A 
ATOM     22  C   UNL     1       4.931  -1.993  -0.166  0.00  0.00    +0.154 A 
ATOM     23 CL   UNL     1       5.997  -3.387  -0.030  0.00  0.00    -0.060 Cl
ATOM     24  N   UNL     1       5.277  -0.706  -0.413  0.00  0.00    -0.220 NA
BRANCH  21  25
ATOM     25  C   UNL     1       2.795  -3.146   0.611  0.00  0.00    +0.228 C 
ATOM     26  O   UNL     1       2.894  -4.151  -0.343  0.00  0.00    -0.213 OA
ENDBRANCH  21  25
BRANCH  19  27
ATOM     27  C   UNL     1       4.411   1.500   0.374  0.00  0.00    +0.064 C 
BRANCH  27  28
ATOM     28  C   UNL     1       4.145   2.501  -0.717  0.00  0.00    +0.008 C 
BRANCH  28  30
ATOM     29  C   UNL     1       5.736   4.091   0.387  0.00  0.00    +0.000 C 
ATOM     30  C   UNL     1       4.305   3.878  -0.086  0.00  0.00    +0.000 C 
ENDBRANCH  28  30
ENDBRANCH  27  28
ENDBRANCH  19  27
ENDBRANCH  18  20
ENDBRANCH   1  18
TORSDOF 8
