REMARK  Name = 
REMARK  3 active torsions:
REMARK  status: ('A' for Active; 'I' for Inactive)
REMARK    1  A    between atoms: C_2  and  C_3
REMARK    2  A    between atoms: C_3  and  C_5
REMARK    3  A    between atoms: C_5  and  C_6
REMARK                            x       y       z     vdW  Elec       q    Type
REMARK                         _______ _______ _______ _____ _____    ______ ____
ROOT
ATOM      1  C   UNL     1      -0.311   0.110   0.018  0.00  0.00    +0.141 C 
ATOM      2  C   UNL     1       0.360  -0.853  -0.877  0.00  0.00    +0.257 C 
ATOM      3  O   UNL     1      -0.293  -1.276  -1.878  0.00  0.00    -0.272 OA
ATOM      4  N   UNL     1       1.756  -0.646  -1.125  0.00  0.00    -0.125 NA
ATOM      5  C   UNL     1       2.583  -0.256  -0.051  0.00  0.00    +0.352 C 
ATOM      6  O   UNL     1       3.816  -0.524  -0.056  0.00  0.00    -0.248 OA
ATOM      7  N   UNL     1       1.968   0.318   1.101  0.00  0.00    -0.125 NA
ATOM      8  C   UNL     1       0.585   0.690   1.026  0.00  0.00    +0.257 C 
ATOM      9  O   UNL     1       0.124   1.131   2.123  0.00  0.00    -0.272 OA
ENDROOT
BRANCH   1  10
ATOM     10  C   UNL     1      -1.393  -0.746   0.892  0.00  0.00    +0.017 C 
ATOM     11  C   UNL     1      -2.223   0.587   1.349  0.00  0.00    +0.001 C 
BRANCH  10  13
ATOM     12  C   UNL     1      -3.153  -0.982  -0.221  0.00  0.00    +0.000 C 
ATOM     13  C   UNL     1      -2.361  -0.998  -0.401  0.00  0.00    +0.001 C 
ENDBRANCH  10  13
ENDBRANCH   1  10
BRANCH   1  14
ATOM     14  C   UNL     1      -1.076   1.086  -0.801  0.00  0.00    +0.018 C 
ATOM     15  C   UNL     1      -0.382   2.361  -1.099  0.00  0.00    +0.001 C 
ENDBRANCH   1  14
TORSDOF 3
