REMARK  Name = 
REMARK  5 active torsions:
REMARK  status: ('A' for Active; 'I' for Inactive)
REMARK    1  A    between atoms: N_2  and  C_4
REMARK    2  A    between atoms: C_4  and  C_5
REMARK    3  A    between atoms: C_5  and  C_6
REMARK    4  A    between atoms: C_12  and  C_13
REMARK    5  A    between atoms: C_13  and  C_14
REMARK                            x       y       z     vdW  Elec       q    Type
REMARK                         _______ _______ _______ _____ _____    ______ ____
ROOT
ATOM      1  C   UNL     1       2.475  -1.235   0.176  0.00  0.00    -0.000 A 
ATOM      2  C   UNL     1       1.124  -1.044   0.165  0.00  0.00    +0.015 A 
ATOM      3  C   UNL     1       0.553  -2.282  -0.100  0.00  0.00    +0.081 A 
ATOM      4  C   UNL     1      -0.822  -2.403  -0.185  0.00  0.00    +0.019 A 
ATOM      5  C   UNL     1      -1.541  -1.331   0.328  0.00  0.00    -0.003 A 
ATOM      6  C   UNL     1      -1.019  -0.049   0.199  0.00  0.00    -0.020 A 
ATOM      7  N   UNL     1       1.509  -3.242  -0.086  0.00  0.00    -0.244 NA
ATOM      8  C   UNL     1       0.362   0.113   0.217  0.00  0.00    -0.003 A 
ATOM      9  C   UNL     1       2.664  -2.611   0.233  0.00  0.00    +0.095 A 
ENDROOT
BRANCH   1  10
ATOM     10  C   UNL     1       3.559  -0.348  -0.269  0.00  0.00    +0.045 C 
BRANCH  10  11
ATOM     11  C   UNL     1       3.276   1.105  -0.162  0.00  0.00    +0.077 C 
BRANCH  11  13
ATOM     12  C   UNL     1       5.182   1.310   0.568  0.00  0.00    +0.090 C 
ATOM     13  N   UNL     1       4.352   1.707   0.624  0.00  0.00    -0.270 NA
ATOM     14  C   UNL     1       3.829   1.894   1.955  0.00  0.00    +0.090 C 
ENDBRANCH  11  13
ENDBRANCH  10  11
ENDBRANCH   1  10
BRANCH   6  15
ATOM     15  C   UNL     1      -1.968   1.067   0.464  0.00  0.00    +0.052 C 
BRANCH  15  16
ATOM     16  C   UNL     1      -2.528   1.408  -1.044  0.00  0.00    +0.147 C 
ATOM     17  N   UNL     1      -3.711   2.281  -0.488  0.00  0.00    -0.166 NA
ATOM     18  C   UNL     1      -4.303   1.500   0.524  0.00  0.00    +0.421 C 
ATOM     19  O   UNL     1      -5.335   1.898   1.146  0.00  0.00    -0.225 OA
ATOM     20  O   UNL     1      -4.185   0.195   0.111  0.00  0.00    -0.432 OA
ATOM     21  C   UNL     1      -3.471   0.065  -1.080  0.00  0.00    +0.232 C 
ENDBRANCH  15  16
ENDBRANCH   6  15
TORSDOF 5
