REMARK  Name = 
REMARK  3 active torsions:
REMARK  status: ('A' for Active; 'I' for Inactive)
REMARK    1  A    between atoms: N_2  and  C_3
REMARK    2  A    between atoms: C_3  and  C_4
REMARK    3  A    between atoms: C_4  and  C_5
REMARK                            x       y       z     vdW  Elec       q    Type
REMARK                         _______ _______ _______ _____ _____    ______ ____
ROOT
ATOM      1  C   UNL     1      -0.293  -0.762  -0.171  0.00  0.00    -0.021 A 
ATOM      2  C   UNL     1      -1.448  -1.249  -0.772  0.00  0.00    -0.004 A 
ATOM      3  C   UNL     1      -2.434  -0.304  -1.051  0.00  0.00    -0.000 A 
ATOM      4  C   UNL     1      -2.414   0.959  -0.466  0.00  0.00    -0.000 A 
ATOM      5  C   UNL     1      -1.373   1.306   0.389  0.00  0.00    -0.000 A 
ATOM      6  C   UNL     1      -0.521   0.261   0.740  0.00  0.00    -0.004 A 
ENDROOT
BRANCH   1   7
ATOM      7  C   UNL     1       1.078  -1.161  -0.616  0.00  0.00    +0.047 C 
BRANCH   7   8
ATOM      8  C   UNL     1       2.017  -0.781   0.509  0.00  0.00    +0.116 C 
BRANCH   8  10
ATOM      9  N   UNL     1       2.471   1.462   0.667  0.00  0.00    -0.020 NA
ATOM     10  N   UNL     1       2.919   0.270   0.078  0.00  0.00    -0.112 NA
ENDBRANCH   8  10
ENDBRANCH   7   8
ENDBRANCH   1   7
TORSDOF 3
