REMARK  Name = 
REMARK  0 active torsions:
REMARK  status: ('A' for Active; 'I' for Inactive)
REMARK                            x       y       z     vdW  Elec       q    Type
REMARK                         _______ _______ _______ _____ _____    ______ ____
ROOT
ATOM      1  N   UNL     1      -2.700  -1.695   0.464  0.00  0.00    -0.086 NA
ATOM      2  C   UNL     1      -1.657  -0.876  -0.068  0.00  0.00    +0.259 A 
ATOM      3  N   UNL     1      -1.714   0.475  -0.027  0.00  0.00    -0.202 NA
ATOM      4  C   UNL     1      -0.579   1.212  -0.046  0.00  0.00    +0.140 A 
ATOM      5  S   UNL     1      -0.612   2.822   0.279  0.00  0.00    -0.028 S 
ATOM      6  C   UNL     1       0.629   0.536   0.088  0.00  0.00    +0.143 A 
ATOM      7  C   UNL     1       0.669  -0.753  -0.430  0.00  0.00    +0.187 A 
ATOM      8  N   UNL     1       1.960  -1.100  -0.413  0.00  0.00    -0.203 NA
ATOM      9  C   UNL     1       2.660  -0.144   0.248  0.00  0.00    +0.200 A 
ATOM     10  N   UNL     1       1.857   0.912   0.480  0.00  0.00    -0.219 NA
ATOM     11  N   UNL     1      -0.514  -1.389  -0.574  0.00  0.00    -0.190 NA
ENDROOT
TORSDOF 0
