REMARK  Name = 
REMARK  4 active torsions:
REMARK  status: ('A' for Active; 'I' for Inactive)
REMARK    1  A    between atoms: N_2  and  C_3
REMARK    2  A    between atoms: C_3  and  C_4
REMARK    3  A    between atoms: C_4  and  C_5
REMARK    4  A    between atoms: C_5  and  C_6
REMARK                            x       y       z     vdW  Elec       q    Type
REMARK                         _______ _______ _______ _____ _____    ______ ____
ROOT
ATOM      1  C   UNL     1       0.271  -0.077   0.040  0.00  0.00    +0.045 C 
ATOM      2  C   UNL     1      -0.643  -1.213  -0.129  0.00  0.00    -0.018 A 
ATOM      3  C   UNL     1      -1.722  -1.493   0.702  0.00  0.00    -0.004 A 
ATOM      4  C   UNL     1      -2.379  -2.686   0.532  0.00  0.00    -0.000 A 
ATOM      5  C   UNL     1      -2.001  -3.512  -0.520  0.00  0.00    -0.000 A 
ATOM      6  C   UNL     1      -1.227  -3.030  -1.568  0.00  0.00    -0.000 A 
ATOM      7  C   UNL     1      -2.499  -0.478   1.426  0.00  0.00    -0.000 C 
ATOM      8  C   UNL     1      -2.359   0.849   1.465  0.00  0.00    -0.000 C 
ATOM      9  C   UNL     1      -1.512   1.634   0.557  0.00  0.00    -0.004 A 
ATOM     10  C   UNL     1      -2.108   2.824   0.154  0.00  0.00    -0.000 A 
ATOM     11  C   UNL     1      -1.497   3.658  -0.768  0.00  0.00    -0.000 A 
ATOM     12  C   UNL     1      -0.127   3.480  -0.923  0.00  0.00    -0.000 A 
ATOM     13  C   UNL     1       0.393   2.209  -0.709  0.00  0.00    -0.004 A 
ATOM     14  C   UNL     1      -0.360  -1.992  -1.244  0.00  0.00    -0.004 A 
ATOM     15  C   UNL     1      -0.401   1.216  -0.168  0.00  0.00    -0.018 A 
ENDROOT
BRANCH   1  16
ATOM     16  C   UNL     1       1.585  -0.213  -0.647  0.00  0.00    +0.010 C 
BRANCH  16  17
ATOM     17  C   UNL     1       2.604  -0.525   0.445  0.00  0.00    +0.019 C 
BRANCH  17  18
ATOM     18  C   UNL     1       3.918  -0.994  -0.152  0.00  0.00    +0.089 C 
BRANCH  18  20
ATOM     19  C   UNL     1       5.079   0.390   1.444  0.00  0.00    +0.107 C 
ATOM     20  N   UNL     1       4.985  -0.046   0.061  0.00  0.00    -0.217 NA
ENDBRANCH  18  20
ENDBRANCH  17  18
ENDBRANCH  16  17
ENDBRANCH   1  16
TORSDOF 4
