REMARK  Name = 
REMARK  4 active torsions:
REMARK  status: ('A' for Active; 'I' for Inactive)
REMARK    1  A    between atoms: C_2  and  C_3
REMARK    2  A    between atoms: C_3  and  C_5
REMARK    3  A    between atoms: C_5  and  C_6
REMARK    4  A    between atoms: C_6  and  C_7
REMARK                            x       y       z     vdW  Elec       q    Type
REMARK                         _______ _______ _______ _____ _____    ______ ____
ROOT
ATOM      1  C   UNL     1       0.242   0.249   1.137  0.00  0.00    +0.078 C 
ENDROOT
BRANCH   1   2
ATOM      2  C   UNL     1       1.418   0.298   0.209  0.00  0.00    +0.170 C 
ATOM      3  O   UNL     1       1.500   1.212  -0.609  0.00  0.00    -0.294 OA
BRANCH   2   5
ATOM      4  N   UNL     1       3.354  -1.075  -0.235  0.00  0.00    -0.123 NA
ATOM      5  C   UNL     1       1.911  -1.041  -0.244  0.00  0.00    +0.173 C 
ENDBRANCH   2   5
ENDBRANCH   1   2
BRANCH   1   6
ATOM      6  C   UNL     1      -0.979   0.898   0.544  0.00  0.00    +0.122 C 
BRANCH   6   7
ATOM      7  C   UNL     1      -2.008  -0.114   0.142  0.00  0.00    +0.365 C 
ATOM      8  O   UNL     1      -2.931  -0.554   1.097  0.00  0.00    -0.246 OA
ATOM      9  O   UNL     1      -2.508   0.128  -1.000  0.00  0.00    -0.246 OA
ENDBRANCH   6   7
ENDBRANCH   1   6
TORSDOF 4
