REMARK  Name = 
REMARK  8 active torsions:
REMARK  status: ('A' for Active; 'I' for Inactive)
REMARK    1  A    between atoms: O_2  and  C_3
REMARK    2  A    between atoms: C_3  and  C_4
REMARK    3  A    between atoms: C_4  and  C_5
REMARK    4  A    between atoms: C_5  and  O_6
REMARK    5  A    between atoms: O_6  and  C_7
REMARK    6  A    between atoms: C_11  and  C_12
REMARK    7  A    between atoms: C_12  and  S_13
REMARK    8  A    between atoms: S_13  and  C_15
REMARK                            x       y       z     vdW  Elec       q    Type
REMARK                         _______ _______ _______ _____ _____    ______ ____
ROOT
ATOM      1  C   UNL     1       2.779  -0.654  -0.367  0.00  0.00    +0.137 A 
ATOM      2  C   UNL     1       1.433  -0.780  -0.095  0.00  0.00    +0.027 A 
ATOM      3  C   UNL     1       0.468   0.229  -0.604  0.00  0.00    +0.035 C 
ATOM      4  C   UNL     1       1.036  -1.890   0.616  0.00  0.00    +0.072 A 
ATOM      5  N   UNL     1       1.835  -2.968   0.801  0.00  0.00    -0.247 NA
ATOM      6  C   UNL     1       3.103  -2.896   0.353  0.00  0.00    +0.102 A 
ATOM      7  C   UNL     1       3.619  -1.733  -0.179  0.00  0.00    +0.057 A 
ENDROOT
BRANCH   4   8
ATOM      8  C   UNL     1      -0.400  -2.039   0.996  0.00  0.00    +0.145 C 
BRANCH   8   9
ATOM      9  S   UNL     1      -1.382  -1.901  -0.556  0.00  0.00    +0.107 S 
ATOM     10  O   UNL     1      -1.982  -3.339  -0.612  0.00  0.00    -0.248 OA
BRANCH   9  11
ATOM     11  C   UNL     1      -2.841  -0.988   0.003  0.00  0.00    +0.221 A 
ATOM     12  N   UNL     1      -2.943  -0.117   1.001  0.00  0.00    -0.218 NA
ATOM     13  C   UNL     1      -4.081   0.593   0.913  0.00  0.00    +0.101 A 
ATOM     14  C   UNL     1      -4.671   0.199  -0.278  0.00  0.00    +0.101 A 
ATOM     15  C   UNL     1      -5.843   0.826  -0.641  0.00  0.00    +0.021 A 
ATOM     16  C   UNL     1      -6.297   1.946   0.039  0.00  0.00    +0.002 A 
ATOM     17  C   UNL     1      -5.639   2.379   1.165  0.00  0.00    +0.002 A 
ATOM     18  C   UNL     1      -4.582   1.644   1.638  0.00  0.00    +0.021 A 
ATOM     19  N   UNL     1      -3.784  -0.616  -0.896  0.00  0.00    -0.218 NA
ENDBRANCH   9  11
ENDBRANCH   8   9
ENDBRANCH   4   8
BRANCH   1  20
ATOM     20  O   UNL     1       3.204   0.452  -1.093  0.00  0.00    -0.476 OA
BRANCH  20  21
ATOM     21  C   UNL     1       3.299   1.732  -0.506  0.00  0.00    +0.208 C 
BRANCH  21  22
ATOM     22  C   UNL     1       4.700   1.837   0.083  0.00  0.00    +0.079 C 
BRANCH  22  23
ATOM     23  C   UNL     1       5.260   3.202  -0.282  0.00  0.00    +0.146 C 
BRANCH  23  25
ATOM     24  C   UNL     1       7.124   1.870  -0.099  0.00  0.00    +0.174 C 
ATOM     25  O   UNL     1       6.583   3.012  -0.642  0.00  0.00    -0.351 OA
ENDBRANCH  23  25
ENDBRANCH  22  23
ENDBRANCH  21  22
ENDBRANCH  20  21
ENDBRANCH   1  20
TORSDOF 8
