REMARK  Name = 
REMARK  9 active torsions:
REMARK  status: ('A' for Active; 'I' for Inactive)
REMARK    1  A    between atoms: C_2  and  N_3
REMARK    2  A    between atoms: N_3  and  C_4
REMARK    3  A    between atoms: N_3  and  C_6
REMARK    4  A    between atoms: C_6  and  C_7
REMARK    5  A    between atoms: C_7  and  O_8
REMARK    6  A    between atoms: O_8  and  C_9
REMARK    7  A    between atoms: C_12  and  C_13
REMARK    8  A    between atoms: C_13  and  C_22
REMARK    9  A    between atoms: C_14  and  C_16
REMARK                            x       y       z     vdW  Elec       q    Type
REMARK                         _______ _______ _______ _____ _____    ______ ____
ROOT
ATOM      1  C   UNL     1      -1.751   0.232  -0.806  0.00  0.00    +0.011 C 
ATOM      2  C   UNL     1      -2.636  -0.613  -1.334  0.00  0.00    +0.058 C 
ATOM      3 CL   UNL     1      -3.542  -0.033  -2.707  0.00  0.00    -0.082 Cl
ENDROOT
BRANCH   1   7
ATOM      4  C   UNL     1       1.841  -0.560   1.084  0.00  0.00    +0.139 A 
ATOM      5  C   UNL     1       1.481  -1.353   0.003  0.00  0.00    +0.037 A 
ATOM      6  C   UNL     1       0.351  -0.938  -0.690  0.00  0.00    +0.003 A 
ATOM      7  C   UNL     1      -0.709  -0.389   0.022  0.00  0.00    +0.001 A 
ATOM      8  C   UNL     1      -0.337   0.341   1.146  0.00  0.00    +0.003 A 
ATOM      9  C   UNL     1       0.861   0.100   1.809  0.00  0.00    +0.037 A 
BRANCH   4  10
ATOM     10  O   UNL     1       3.158  -0.590   1.537  0.00  0.00    -0.474 OA
BRANCH  10  11
ATOM     11  C   UNL     1       4.078   0.375   1.042  0.00  0.00    +0.223 C 
BRANCH  11  12
ATOM     12  C   UNL     1       5.451  -0.254   0.843  0.00  0.00    +0.120 C 
BRANCH  12  13
ATOM     13  N   UNL     1       6.067   0.457  -0.272  0.00  0.00    -0.270 NA
BRANCH  13  15
ATOM     14  C   UNL     1       4.892   2.385  -1.206  0.00  0.00    +0.019 C 
ATOM     15  C   UNL     1       5.033   0.872  -1.203  0.00  0.00    +0.072 C 
ENDBRANCH  13  15
BRANCH  13  16
ATOM     16  C   UNL     1       6.954  -0.429  -1.002  0.00  0.00    +0.072 C 
ATOM     17  C   UNL     1       6.378  -1.834  -0.879  0.00  0.00    +0.019 C 
ENDBRANCH  13  16
ENDBRANCH  12  13
ENDBRANCH  11  12
ENDBRANCH  10  11
ENDBRANCH   4  10
ENDBRANCH   1   7
BRANCH   2  18
ATOM     18  C   UNL     1      -3.083  -1.819  -0.631  0.00  0.00    +0.011 A 
ATOM     19  C   UNL     1      -2.408  -2.372   0.424  0.00  0.00    +0.001 A 
ATOM     20  C   UNL     1      -3.041  -3.120   1.409  0.00  0.00    +0.000 A 
ATOM     21  C   UNL     1      -4.429  -3.180   1.438  0.00  0.00    +0.000 A 
ATOM     22  C   UNL     1      -5.056  -2.939   0.222  0.00  0.00    +0.000 A 
ATOM     23  C   UNL     1      -4.416  -2.194  -0.761  0.00  0.00    +0.001 A 
ENDBRANCH   2  18
BRANCH   1  24
ATOM     24  C   UNL     1      -1.958   1.686  -0.830  0.00  0.00    +0.001 A 
ATOM     25  C   UNL     1      -2.018   2.380  -2.033  0.00  0.00    +0.000 A 
ATOM     26  C   UNL     1      -2.406   3.711  -2.008  0.00  0.00    +0.000 A 
ATOM     27  C   UNL     1      -2.966   4.300  -0.897  0.00  0.00    +0.000 A 
ATOM     28  C   UNL     1      -3.125   3.538   0.230  0.00  0.00    +0.000 A 
ATOM     29  C   UNL     1      -2.665   2.239   0.228  0.00  0.00    +0.000 A 
ENDBRANCH   1  24
TORSDOF 9
