REMARK  Name = 
REMARK  2 active torsions:
REMARK  status: ('A' for Active; 'I' for Inactive)
REMARK    1  A    between atoms: O_2  and  C_3
REMARK    2  A    between atoms: C_3  and  C_5
REMARK                            x       y       z     vdW  Elec       q    Type
REMARK                         _______ _______ _______ _____ _____    ______ ____
ROOT
ATOM      1  C   UNL     1       1.261  -1.786   0.000  0.00  0.00    +0.105 C 
ATOM      2  C   UNL     1       0.332  -0.608   0.000  0.00  0.00    +0.039 C 
ATOM      3  C   UNL     1       0.887   0.785   0.000  0.00  0.00    +0.121 C 
ATOM      4  C   UNL     1      -0.042   1.963   0.000  0.00  0.00    +0.140 C 
ATOM      5  C   UNL     1      -1.526   1.747   0.000  0.00  0.00    +0.035 C 
ATOM      6  C   UNL     1      -2.082   0.353   0.000  0.00  0.00    +0.036 C 
ATOM      7  C   UNL     1      -3.489  -0.166   0.000  0.00  0.00    +0.136 C 
ATOM      8  O   UNL     1      -3.548   1.333   0.000  0.00  0.00    -0.456 OA
ATOM      9  C   UNL     1      -4.992   1.739   0.000  0.00  0.00    +0.317 C 
ATOM     10  O   UNL     1      -5.511   3.146   0.000  0.00  0.00    -0.250 OA
ATOM     11  C   UNL     1      -5.825   0.492   0.000  0.00  0.00    +0.113 C 
ATOM     12  C   UNL     1      -4.896  -0.686   0.000  0.00  0.00    +0.052 C 
ATOM     13  C   UNL     1      -3.429  -1.665   0.000  0.00  0.00    +0.040 C 
ATOM     14  C   UNL     1      -1.985  -2.072   0.000  0.00  0.00    +0.004 C 
ATOM     15  C   UNL     1      -2.838   1.649   0.000  0.00  0.00    +0.004 C 
ATOM     16  O   UNL     1       1.443   2.178   0.000  0.00  0.00    -0.356 OA
ATOM     17  C   UNL     1       2.372   1.001   0.000  0.00  0.00    +0.041 C 
ATOM     18  C   UNL     1       3.301  -0.177   0.000  0.00  0.00    -0.039 C 
ATOM     19  C   UNL     1       4.785   0.039   0.000  0.00  0.00    +0.029 C 
ATOM     20  C   UNL     1       5.340   1.432   0.000  0.00  0.00    +0.173 C 
ATOM     21  C   UNL     1       4.411   2.610   0.000  0.00  0.00    +0.070 C 
ATOM     22  O   UNL     1       6.825   1.648   0.000  0.00  0.00    -0.291 OA
ATOM     23  C   UNL     1       2.044   1.728   0.000  0.00  0.00    +0.006 C 
ATOM     24  C   UNL     1       2.927   2.394   0.000  0.00  0.00    +0.014 C 
ATOM     25  C   UNL     1      -1.153  -0.824   0.000  0.00  0.00    +0.006 C 
ATOM     26  C   UNL     1       2.745  -1.570   0.000  0.00  0.00    +0.033 C 
ENDROOT
BRANCH   1  27
ATOM     27  C   UNL     1       0.706  -3.179   0.000  0.00  0.00    +0.317 C 
ATOM     28  O   UNL     1      -0.779  -3.395   0.000  0.00  0.00    -0.250 OA
BRANCH  27  30
ATOM     29  C   UNL     1       1.079  -5.750   0.000  0.00  0.00    +0.256 C 
ATOM     30  O   UNL     1       1.635  -4.357   0.000  0.00  0.00    -0.444 OA
ENDBRANCH  27  30
ENDBRANCH   1  27
TORSDOF 2
