REMARK  Name = 
REMARK  0 active torsions:
REMARK  status: ('A' for Active; 'I' for Inactive)
REMARK                            x       y       z     vdW  Elec       q    Type
REMARK                         _______ _______ _______ _____ _____    ______ ____
ROOT
ATOM      1  C   UNL     1      -2.336   2.740   0.296  0.00  0.00    +0.115 C 
ATOM      2  N   UNL     1      -0.935   2.547   0.001  0.00  0.00    -0.275 N 
ATOM      3  C   UNL     1      -0.433   1.210   0.034  0.00  0.00    +0.225 A 
ATOM      4  N   UNL     1       0.796   0.912  -0.453  0.00  0.00    -0.181 NA
ATOM      5  C   UNL     1       1.321  -0.314  -0.215  0.00  0.00    +0.225 A 
ATOM      6  N   UNL     1       2.746  -0.397  -0.100  0.00  0.00    -0.275 N 
ATOM      7  C   UNL     1       3.290  -0.945   1.125  0.00  0.00    +0.115 C 
ATOM      8  C   UNL     1       3.561   0.559  -0.843  0.00  0.00    +0.115 C 
ATOM      9  N   UNL     1       0.541  -1.302   0.287  0.00  0.00    -0.181 NA
ATOM     10  C   UNL     1      -0.794  -1.117   0.276  0.00  0.00    +0.225 A 
ATOM     11  N   UNL     1      -1.716  -2.185   0.042  0.00  0.00    -0.275 N 
ATOM     12  C   UNL     1      -1.497  -3.460   0.704  0.00  0.00    +0.115 C 
ATOM     13  C   UNL     1      -3.069  -1.891  -0.381  0.00  0.00    +0.115 C 
ATOM     14  N   UNL     1      -1.204   0.167   0.423  0.00  0.00    -0.181 NA
ATOM     15  C   UNL     1      -0.272   3.477  -0.908  0.00  0.00    +0.115 C 
ENDROOT
TORSDOF 0
