REMARK  Name = 
REMARK  7 active torsions:
REMARK  status: ('A' for Active; 'I' for Inactive)
REMARK    1  A    between atoms: C_2  and  C_3
REMARK    2  A    between atoms: C_2  and  N_12
REMARK    3  A    between atoms: C_3  and  C_4
REMARK    4  A    between atoms: C_4  and  C_5
REMARK    5  A    between atoms: N_12  and  C_13
REMARK    6  A    between atoms: C_13  and  C_14
REMARK    7  A    between atoms: C_14  and  C_15
REMARK                            x       y       z     vdW  Elec       q    Type
REMARK                         _______ _______ _______ _____ _____    ______ ____
ROOT
ATOM      1  C   UNL     1      -0.004   1.553   0.381  0.00  0.00    +0.019 C 
ATOM      2  C   UNL     1      -0.720   0.140   0.841  0.00  0.00    +0.073 C 
ENDROOT
BRANCH   2   3
ATOM      3  N   UNL     1       0.673  -0.514   1.208  0.00  0.00    -0.219 NA
BRANCH   3   4
ATOM      4  C   UNL     1       0.559  -1.893   0.823  0.00  0.00    +0.093 C 
BRANCH   4   5
ATOM      5  C   UNL     1       1.705  -2.410   0.014  0.00  0.00    +0.045 C 
BRANCH   5   6
ATOM      6  C   UNL     1       2.865  -1.513  -0.047  0.00  0.00    -0.017 A 
ATOM      7  C   UNL     1       3.329  -0.735   0.978  0.00  0.00    +0.041 A 
ATOM      8  C   UNL     1       4.121   0.366   0.677  0.00  0.00    +0.234 A 
ATOM      9  O   UNL     1       4.133   1.510   1.450  0.00  0.00    -0.283 OA
ATOM     10  C   UNL     1       4.953   0.286  -0.432  0.00  0.00    +0.234 A 
ATOM     11  O   UNL     1       5.934   1.257  -0.604  0.00  0.00    -0.283 OA
ATOM     12  C   UNL     1       4.654  -0.645  -1.391  0.00  0.00    +0.045 A 
ATOM     13  C   UNL     1       3.635  -1.542  -1.204  0.00  0.00    -0.001 A 
ENDBRANCH   5   6
ENDBRANCH   4   5
ENDBRANCH   3   4
ENDBRANCH   2   3
BRANCH   2  14
ATOM     14  C   UNL     1      -0.665  -0.457  -0.696  0.00  0.00    +0.022 C 
BRANCH  14  15
ATOM     15  C   UNL     1      -1.824   0.284  -1.334  0.00  0.00    +0.028 C 
BRANCH  15  16
ATOM     16  C   UNL     1      -3.001   0.345  -0.411  0.00  0.00    -0.022 A 
ATOM     17  C   UNL     1      -3.885  -0.719  -0.284  0.00  0.00    -0.001 A 
ATOM     18  C   UNL     1      -5.244  -0.486  -0.204  0.00  0.00    +0.042 A 
ATOM     19  C   UNL     1      -5.753   0.777   0.044  0.00  0.00    +0.196 A 
ATOM     20  O   UNL     1      -7.129   1.008   0.129  0.00  0.00    -0.287 OA
ATOM     21  C   UNL     1      -4.829   1.800   0.179  0.00  0.00    +0.042 A 
ATOM     22  C   UNL     1      -3.508   1.587  -0.106  0.00  0.00    -0.001 A 
ENDBRANCH  15  16
ENDBRANCH  14  15
ENDBRANCH   2  14
TORSDOF 7
