REMARK  Name = 
REMARK  8 active torsions:
REMARK  status: ('A' for Active; 'I' for Inactive)
REMARK    1  A    between atoms: C_2  and  C_3
REMARK    2  A    between atoms: C_3  and  N_4
REMARK    3  A    between atoms: N_4  and  C_5
REMARK    4  A    between atoms: C_5  and  C_6
REMARK    5  A    between atoms: N_14  and  C_15
REMARK    6  A    between atoms: N_14  and  C_18
REMARK    7  A    between atoms: C_15  and  C_16
REMARK    8  A    between atoms: C_18  and  C_19
REMARK                            x       y       z     vdW  Elec       q    Type
REMARK                         _______ _______ _______ _____ _____    ______ ____
ROOT
ATOM      1  N   UNL     1      -3.635  -1.253   0.876  0.00  0.00    -0.273 N 
ATOM      2  C   UNL     1      -2.482  -0.676   0.249  0.00  0.00    +0.222 A 
ATOM      3  N   UNL     1      -2.459   0.651  -0.025  0.00  0.00    -0.197 NA
ATOM      4  C   UNL     1      -1.298   1.347  -0.095  0.00  0.00    +0.154 A 
ATOM      5  N   UNL     1      -1.171   2.535  -0.886  0.00  0.00    -0.292 N 
ATOM      6  C   UNL     1      -0.986   3.824  -0.281  0.00  0.00    +0.092 C 
ATOM      7  C   UNL     1      -1.025   4.905  -1.317  0.00  0.00    +0.022 C 
ATOM      8  C   UNL     1      -2.195   4.816  -2.251  0.00  0.00    +0.004 C 
ATOM      9  C   UNL     1      -2.629   3.407  -2.545  0.00  0.00    +0.022 C 
ATOM     10  C   UNL     1      -1.474   2.440  -2.306  0.00  0.00    +0.092 C 
ATOM     11  C   UNL     1      -0.153   0.597   0.155  0.00  0.00    +0.136 A 
ATOM     12  N   UNL     1       1.016   1.227   0.341  0.00  0.00    -0.209 NA
ATOM     13  C   UNL     1       2.113   0.458   0.549  0.00  0.00    +0.222 A 
ATOM     14  N   UNL     1       2.128  -0.792   0.024  0.00  0.00    -0.197 NA
ATOM     15  C   UNL     1       0.989  -1.518  -0.096  0.00  0.00    +0.154 A 
ATOM     16  N   UNL     1       0.983  -2.699  -0.907  0.00  0.00    -0.292 N 
ATOM     17  C   UNL     1       2.006  -3.722  -0.695  0.00  0.00    +0.092 C 
ATOM     18  C   UNL     1       2.566  -4.208  -2.028  0.00  0.00    +0.022 C 
ATOM     19  C   UNL     1       2.753  -3.065  -2.990  0.00  0.00    +0.004 C 
ATOM     20  C   UNL     1       1.435  -2.366  -3.304  0.00  0.00    +0.022 C 
ATOM     21  C   UNL     1       0.396  -2.711  -2.244  0.00  0.00    +0.092 C 
ATOM     22  N   UNL     1       3.269   0.959   1.231  0.00  0.00    -0.273 N 
ATOM     23  C   UNL     1      -0.180  -0.793   0.110  0.00  0.00    +0.136 A 
ATOM     24  N   UNL     1      -1.370  -1.414   0.006  0.00  0.00    -0.209 NA
ENDROOT
BRANCH   1  25
ATOM     25  C   UNL     1      -3.592  -1.281   2.337  0.00  0.00    +0.129 C 
BRANCH  25  27
ATOM     26  O   UNL     1      -4.838  -0.426   4.215  0.00  0.00    -0.219 OA
ATOM     27  C   UNL     1      -4.484  -0.180   2.898  0.00  0.00    +0.203 C 
ENDBRANCH  25  27
ENDBRANCH   1  25
BRANCH  22  28
ATOM     28  C   UNL     1       3.340   1.068   2.674  0.00  0.00    +0.129 C 
BRANCH  28  29
ATOM     29  C   UNL     1       4.604   0.434   3.200  0.00  0.00    +0.203 C 
ATOM     30  O   UNL     1       5.158  -0.468   2.278  0.00  0.00    -0.219 OA
ENDBRANCH  28  29
ENDBRANCH  22  28
BRANCH   1  31
ATOM     31  C   UNL     1      -4.362  -2.358   0.260  0.00  0.00    +0.129 C 
BRANCH  31  32
ATOM     32  C   UNL     1      -3.391  -3.433  -0.209  0.00  0.00    +0.203 C 
ATOM     33  O   UNL     1      -3.384  -3.470  -1.594  0.00  0.00    -0.219 OA
ENDBRANCH  31  32
ENDBRANCH   1  31
BRANCH  22  34
ATOM     34  C   UNL     1       4.334   1.538   0.423  0.00  0.00    +0.129 C 
BRANCH  34  35
ATOM     35  C   UNL     1       4.146   3.030   0.352  0.00  0.00    +0.203 C 
ATOM     36  O   UNL     1       3.875   3.600   1.591  0.00  0.00    -0.219 OA
ENDBRANCH  34  35
ENDBRANCH  22  34
TORSDOF 8
