REMARK  Name = 
REMARK  1 active torsions:
REMARK  status: ('A' for Active; 'I' for Inactive)
REMARK    1  A    between atoms: O_2  and  C_3
REMARK                            x       y       z     vdW  Elec       q    Type
REMARK                         _______ _______ _______ _____ _____    ______ ____
ROOT
ATOM      1  C   UNL     1       2.584   1.071   0.368  0.00  0.00    +0.172 A 
ATOM      2  C   UNL     1       1.692   0.073  -0.017  0.00  0.00    +0.168 A 
ATOM      3  O   UNL     1       1.565  -1.282   0.090  0.00  0.00    -0.469 OA
ATOM      4  C   UNL     1       0.497  -1.691  -0.956  0.00  0.00    +0.226 C 
ATOM      5  C   UNL     1      -0.454  -0.381  -0.758  0.00  0.00    +0.068 C 
ATOM      6  C   UNL     1      -1.681  -0.848   0.140  0.00  0.00    +0.023 C 
ATOM      7  C   UNL     1      -2.412   0.657   0.457  0.00  0.00    +0.062 C 
ATOM      8  N   UNL     1      -3.279   0.488  -0.841  0.00  0.00    -0.272 NA
ATOM      9  C   UNL     1      -2.555   0.171  -1.947  0.00  0.00    +0.073 C 
ATOM     10  C   UNL     1      -4.180   1.592  -0.894  0.00  0.00    +0.090 C 
ATOM     11  C   UNL     1      -1.451   1.732  -0.282  0.00  0.00    +0.042 C 
ATOM     12  C   UNL     1      -0.113   1.673   0.390  0.00  0.00    -0.022 A 
ATOM     13  C   UNL     1       0.806   2.716   0.305  0.00  0.00    -0.001 A 
ATOM     14  C   UNL     1      -0.833  -0.833   1.532  0.00  0.00    +0.010 C 
ATOM     15  C   UNL     1      -0.370  -2.289   1.481  0.00  0.00    +0.068 C 
ATOM     16  C   UNL     1      -1.135  -0.109  -2.042  0.00  0.00    +0.025 C 
ATOM     17  C   UNL     1      -0.243  -2.697   0.085  0.00  0.00    +0.191 C 
ATOM     18  O   UNL     1       0.302  -3.780  -0.137  0.00  0.00    -0.292 OA
ATOM     19  C   UNL     1       0.413   0.498  -0.145  0.00  0.00    +0.014 A 
ATOM     20  C   UNL     1       2.170   2.406   0.310  0.00  0.00    +0.040 A 
ENDROOT
BRANCH   1  22
ATOM     21  C   UNL     1       4.845   0.108   0.396  0.00  0.00    +0.253 C 
ATOM     22  O   UNL     1       3.831   0.724   0.673  0.00  0.00    -0.468 OA
ENDBRANCH   1  22
TORSDOF 1
