REMARK  Name = 
REMARK  2 active torsions:
REMARK  status: ('A' for Active; 'I' for Inactive)
REMARK    1  A    between atoms: C_2  and  N_4
REMARK    2  A    between atoms: C_7  and  S_8
REMARK                            x       y       z     vdW  Elec       q    Type
REMARK                         _______ _______ _______ _____ _____    ______ ____
ROOT
ATOM      1  N   UNL     1       2.536   0.020   0.603  0.00  0.00    -0.154 NA
ATOM      2  C   UNL     1       1.247   0.200   0.556  0.00  0.00    +0.186 A 
ATOM      3  N   UNL     1       0.446   0.626   1.566  0.00  0.00    -0.227 N 
ATOM      4  C   UNL     1       1.032   1.328   2.709  0.00  0.00    +0.156 C 
ATOM      5  N   UNL     1      -0.738   0.998   1.099  0.00  0.00    -0.140 NA
ATOM      6  C   UNL     1      -1.323  -0.007   0.402  0.00  0.00    +0.257 A 
ATOM      7  S   UNL     1       0.071  -0.608  -0.407  0.00  0.00    -0.011 S 
ENDROOT
BRANCH   6   8
ATOM      8  S   UNL     1      -3.006  -0.152  -0.091  0.00  0.00    +0.118 S 
ATOM      9  O   UNL     1      -3.927  -0.165   1.081  0.00  0.00    -0.148 OA
ATOM     10  O   UNL     1      -3.111  -1.467  -0.829  0.00  0.00    -0.148 OA
ATOM     11  N   UNL     1      -3.422   1.083  -1.239  0.00  0.00    +0.041 NA
ENDBRANCH   6   8
BRANCH   1  13
ATOM     12  C   UNL     1       4.510  -0.050  -0.939  0.00  0.00    +0.097 C 
ATOM     13  C   UNL     1       3.129  -0.469  -0.601  0.00  0.00    +0.248 C 
ATOM     14  O   UNL     1       2.556  -1.336  -1.306  0.00  0.00    -0.273 OA
ENDBRANCH   1  13
TORSDOF 2
