REMARK  Name = 
REMARK  6 active torsions:
REMARK  status: ('A' for Active; 'I' for Inactive)
REMARK    1  A    between atoms: C_2  and  C_3
REMARK    2  A    between atoms: C_2  and  C_19
REMARK    3  A    between atoms: C_3  and  N_4
REMARK    4  A    between atoms: N_4  and  C_5
REMARK    5  A    between atoms: C_5  and  C_6
REMARK    6  A    between atoms: C_6  and  C_8
REMARK                            x       y       z     vdW  Elec       q    Type
REMARK                         _______ _______ _______ _____ _____    ______ ____
ROOT
ATOM      1  N   UNL     1      -0.061  -1.698   0.278  0.00  0.00    -0.212 NA
ENDROOT
BRANCH   1   2
ATOM      2  C   UNL     1       1.163  -1.164   0.796  0.00  0.00    +0.125 C 
BRANCH   2   4
ATOM      3  O   UNL     1       1.071   0.704   2.087  0.00  0.00    -0.218 OA
ATOM      4  C   UNL     1       0.876   0.440   0.616  0.00  0.00    +0.209 C 
BRANCH   4   5
ATOM      5  C   UNL     1       2.498   0.915   0.272  0.00  0.00    +0.198 C 
ATOM      6  O   UNL     1       3.184  -0.120   1.165  0.00  0.00    -0.477 OA
ATOM      7  C   UNL     1       4.466  -0.419   0.700  0.00  0.00    +0.135 A 
ATOM      8  C   UNL     1       4.908  -0.035  -0.563  0.00  0.00    +0.014 A 
ATOM      9  C   UNL     1       6.109   0.651  -0.703  0.00  0.00    +0.028 A 
ATOM     10  C   UNL     1       6.938   0.856   0.397  0.00  0.00    +0.140 A 
ATOM     11  C   UNL     1       6.766  -0.096   1.400  0.00  0.00    +0.033 A 
ATOM     12  F   UNL     1       7.540   2.058   0.635  0.00  0.00    -0.204 F 
ATOM     13  C   UNL     1       3.914   0.111  -1.657  0.00  0.00    +0.033 C 
ATOM     14  C   UNL     1       5.523  -0.707   1.558  0.00  0.00    +0.039 A 
ATOM     15  C   UNL     1       2.567  -0.038  -1.049  0.00  0.00    +0.051 C 
ENDBRANCH   4   5
ENDBRANCH   2   4
ENDBRANCH   1   2
BRANCH   1  16
ATOM     16  C   UNL     1      -0.266  -1.259  -1.020  0.00  0.00    +0.125 C 
BRANCH  16  17
ATOM     17  C   UNL     1      -1.808  -0.839  -1.324  0.00  0.00    +0.209 C 
ATOM     18  O   UNL     1      -2.026  -2.149  -2.043  0.00  0.00    -0.218 OA
BRANCH  17  19
ATOM     19  C   UNL     1      -2.402  -1.464   0.166  0.00  0.00    +0.198 C 
ATOM     20  O   UNL     1      -2.801  -0.064   0.607  0.00  0.00    -0.477 OA
ATOM     21  C   UNL     1      -4.003   0.479   0.329  0.00  0.00    +0.135 A 
ATOM     22  C   UNL     1      -5.082  -0.291   0.763  0.00  0.00    +0.014 A 
ATOM     23  C   UNL     1      -6.340   0.140   0.395  0.00  0.00    +0.028 A 
ATOM     24  C   UNL     1      -6.575   1.502   0.378  0.00  0.00    +0.140 A 
ATOM     25  C   UNL     1      -5.504   2.336   0.213  0.00  0.00    +0.033 A 
ATOM     26  F   UNL     1      -7.814   1.933   0.757  0.00  0.00    -0.204 F 
ATOM     27  C   UNL     1      -4.792  -1.761   0.683  0.00  0.00    +0.033 C 
ATOM     28  C   UNL     1      -4.211   1.850   0.206  0.00  0.00    +0.039 A 
ATOM     29  C   UNL     1      -3.838  -1.871  -0.497  0.00  0.00    +0.051 C 
ENDBRANCH  17  19
ENDBRANCH  16  17
ENDBRANCH   1  16
TORSDOF 6
