REMARK  Name = 
REMARK  2 active torsions:
REMARK  status: ('A' for Active; 'I' for Inactive)
REMARK    1  A    between atoms: C_11  and  C_12
REMARK    2  A    between atoms: C_15  and  C_16
REMARK                            x       y       z     vdW  Elec       q    Type
REMARK                         _______ _______ _______ _____ _____    ______ ____
ROOT
ATOM      1  O   UNL     1      -4.673  -2.054   0.627  0.00  0.00    -0.283 OA
ATOM      2  C   UNL     1      -3.762  -1.349   0.376  0.00  0.00    +0.234 C 
ATOM      3  C   UNL     1      -2.356  -1.769   0.426  0.00  0.00    +0.233 C 
ATOM      4  O   UNL     1      -2.070  -3.025   0.968  0.00  0.00    -0.283 OA
ATOM      5  C   UNL     1      -1.431  -1.105  -0.268  0.00  0.00    +0.059 C 
ATOM      6  C   UNL     1      -1.787   0.085  -0.945  0.00  0.00    +0.195 C 
ATOM      7  O   UNL     1      -0.839   0.779  -1.424  0.00  0.00    -0.287 OA
ATOM      8  C   UNL     1      -3.132   0.690  -0.925  0.00  0.00    +0.042 A 
ATOM      9  C   UNL     1      -3.275   2.073  -0.887  0.00  0.00    +0.003 A 
ATOM     10  C   UNL     1      -4.505   2.661  -0.617  0.00  0.00    +0.000 A 
ATOM     11  C   UNL     1      -5.536   1.901  -0.100  0.00  0.00    +0.000 A 
ATOM     12  C   UNL     1      -5.282   0.556   0.046  0.00  0.00    +0.003 A 
ATOM     13  C   UNL     1      -4.070  -0.034  -0.199  0.00  0.00    +0.045 A 
ENDROOT
BRANCH   5  14
ATOM     14  C   UNL     1       0.030  -1.301   0.380  0.00  0.00    +0.029 C 
ATOM     15  C   UNL     1       0.437   0.297   0.382  0.00  0.00    +0.005 C 
ATOM     16  C   UNL     1       1.869   0.351   0.006  0.00  0.00    +0.005 C 
ATOM     17  C   UNL     1       2.493  -1.036   0.638  0.00  0.00    +0.022 C 
ATOM     18  C   UNL     1       2.198  -1.871  -0.751  0.00  0.00    +0.005 C 
ATOM     19  C   UNL     1       0.741  -1.551  -1.086  0.00  0.00    +0.005 C 
BRANCH  17  20
ATOM     20  C   UNL     1       4.009  -0.652   0.242  0.00  0.00    -0.022 A 
ATOM     21  C   UNL     1       4.602   0.121   1.237  0.00  0.00    -0.003 A 
ATOM     22  C   UNL     1       5.447   1.191   0.950  0.00  0.00    +0.011 A 
ATOM     23  C   UNL     1       5.597   1.556  -0.383  0.00  0.00    +0.058 A 
ATOM     24 CL   UNL     1       5.639   3.245  -0.888  0.00  0.00    -0.082 Cl
ATOM     25  C   UNL     1       5.394   0.513  -1.282  0.00  0.00    +0.011 A 
ATOM     26  C   UNL     1       4.262  -0.270  -1.034  0.00  0.00    -0.003 A 
ENDBRANCH  17  20
ENDBRANCH   5  14
TORSDOF 2
