REMARK  Name = 
REMARK  1 active torsions:
REMARK  status: ('A' for Active; 'I' for Inactive)
REMARK    1  A    between atoms: N_2  and  C_4
REMARK                            x       y       z     vdW  Elec       q    Type
REMARK                         _______ _______ _______ _____ _____    ______ ____
ROOT
ATOM      1  C   UNL     1      -3.573   0.144   0.009  0.00  0.00    +0.049 A 
ATOM      2  C   UNL     1      -2.700  -0.735   0.641  0.00  0.00    +0.023 A 
ATOM      3  C   UNL     1      -1.509  -1.143   0.048  0.00  0.00    +0.048 A 
ATOM      4  C   UNL     1      -1.228  -0.705  -1.243  0.00  0.00    +0.087 A 
ATOM      5  N   UNL     1      -0.024  -0.819  -1.813  0.00  0.00    -0.244 NA
ATOM      6  C   UNL     1       1.147  -0.640  -1.186  0.00  0.00    +0.088 A 
ATOM      7  C   UNL     1       1.381  -1.213   0.148  0.00  0.00    +0.053 A 
ATOM      8  C   UNL     1       2.552  -0.881   0.806  0.00  0.00    +0.077 A 
ATOM      9  C   UNL     1       3.478   0.016   0.287  0.00  0.00    +0.222 A 
ATOM     10  N   UNL     1       4.134   0.831   1.044  0.00  0.00    -0.177 N 
ATOM     11  C   UNL     1       3.729   1.135   2.407  0.00  0.00    +0.403 C 
ATOM     12  C   UNL     1       5.556   0.963   0.741  0.00  0.00    +0.403 C 
ATOM     13  C   UNL     1       3.248   0.449  -1.010  0.00  0.00    +0.070 A 
ATOM     14  C   UNL     1       2.261  -0.091  -1.812  0.00  0.00    +0.026 A 
ATOM     15  C   UNL     1      -2.349  -0.387  -2.004  0.00  0.00    +0.021 A 
ATOM     16  S   UNL     1      -0.104  -1.615   0.914  0.00  0.00    -0.084 S 
ATOM     17  C   UNL     1      -3.479   0.129  -1.377  0.00  0.00    +0.016 A 
ENDROOT
BRANCH   1  19
ATOM     18  C   UNL     1      -3.650   2.532   0.596  0.00  0.00    +0.112 C 
ATOM     19  N   UNL     1      -4.233   1.198   0.723  0.00  0.00    -0.304 N 
ATOM     20  C   UNL     1      -4.636   0.833   2.080  0.00  0.00    +0.112 C 
ENDBRANCH   1  19
TORSDOF 1
