REMARK  Name = 
REMARK  11 active torsions:
REMARK  status: ('A' for Active; 'I' for Inactive)
REMARK    1  A    between atoms: C_2  and  O_3
REMARK    2  A    between atoms: O_3  and  C_4
REMARK    3  A    between atoms: C_9  and  O_10
REMARK    4  A    between atoms: O_10  and  C_11
REMARK    5  A    between atoms: C_11  and  C_12
REMARK    6  A    between atoms: C_12  and  N_13
REMARK    7  A    between atoms: N_13  and  C_14
REMARK    8  A    between atoms: C_14  and  C_16
REMARK    9  A    between atoms: C_16  and  C_17
REMARK   10  A    between atoms: C_20  and  O_21
REMARK   11  A    between atoms: C_23  and  S_24
REMARK                            x       y       z     vdW  Elec       q    Type
REMARK                         _______ _______ _______ _____ _____    ______ ____
ROOT
ATOM      1  C   UNL     1      -0.399  -1.204   1.260  0.00  0.00    +0.077 C 
ATOM      2  C   UNL     1       0.257  -1.076   2.790  0.00  0.00    +0.019 C 
ENDROOT
BRANCH   1   3
ATOM      3  C   UNL     1       0.942  -2.014   0.690  0.00  0.00    +0.044 C 
BRANCH   3   4
ATOM      4  C   UNL     1       2.071  -1.116   0.697  0.00  0.00    -0.019 A 
ATOM      5  C   UNL     1       2.738  -0.926  -0.510  0.00  0.00    +0.019 A 
ATOM      6  C   UNL     1       3.969  -0.314  -0.568  0.00  0.00    +0.158 A 
ATOM      7  C   UNL     1       4.375   0.492   0.477  0.00  0.00    +0.157 A 
ATOM      8  C   UNL     1       3.698   0.368   1.664  0.00  0.00    +0.038 A 
ATOM      9  C   UNL     1       2.692  -0.559   1.789  0.00  0.00    -0.001 A 
BRANCH   6  10
ATOM     10  S   UNL     1       5.074  -0.514  -1.918  0.00  0.00    +0.096 S 
ATOM     11  O   UNL     1       5.801  -1.812  -1.671  0.00  0.00    -0.150 OA
ATOM     12  O   UNL     1       6.016   0.651  -1.998  0.00  0.00    -0.150 OA
ATOM     13  N   UNL     1       4.123  -0.677  -3.357  0.00  0.00    +0.039 NA
ENDBRANCH   6  10
BRANCH   7  14
ATOM     14  O   UNL     1       5.211   1.571   0.178  0.00  0.00    -0.470 OA
ATOM     15  C   UNL     1       4.672   2.813  -0.212  0.00  0.00    +0.253 C 
ENDBRANCH   7  14
ENDBRANCH   3   4
ENDBRANCH   1   3
BRANCH   1  16
ATOM     16  N   UNL     1       0.151   0.242   0.850  0.00  0.00    -0.215 NA
BRANCH  16  17
ATOM     17  C   UNL     1      -1.033   0.999   0.501  0.00  0.00    +0.136 C 
BRANCH  17  18
ATOM     18  C   UNL     1      -1.615   0.347  -0.740  0.00  0.00    +0.224 C 
BRANCH  18  19
ATOM     19  O   UNL     1      -2.708  -0.455  -0.295  0.00  0.00    -0.471 OA
BRANCH  19  21
ATOM     20  C   UNL     1      -4.962  -0.101   0.496  0.00  0.00    +0.172 A 
ATOM     21  C   UNL     1      -3.993   0.061  -0.485  0.00  0.00    +0.172 A 
ATOM     22  C   UNL     1      -4.325   0.659  -1.693  0.00  0.00    +0.040 A 
ATOM     23  C   UNL     1      -5.664   0.910  -1.913  0.00  0.00    +0.003 A 
ATOM     24  C   UNL     1      -6.542   1.026  -0.857  0.00  0.00    +0.003 A 
ATOM     25  C   UNL     1      -6.283   0.260   0.273  0.00  0.00    +0.040 A 
BRANCH  20  26
ATOM     26  O   UNL     1      -4.594  -0.870   1.604  0.00  0.00    -0.472 OA
BRANCH  26  28
ATOM     27  C   UNL     1      -4.855  -2.650   1.430  0.00  0.00    +0.051 C 
ATOM     28  C   UNL     1      -4.814  -2.277   1.517  0.00  0.00    +0.206 C 
ENDBRANCH  26  28
ENDBRANCH  20  26
ENDBRANCH  19  21
ENDBRANCH  18  19
ENDBRANCH  17  18
ENDBRANCH  16  17
ENDBRANCH   1  16
TORSDOF 11
