REMARK  Name = 
REMARK  0 active torsions:
REMARK  status: ('A' for Active; 'I' for Inactive)
REMARK                            x       y       z     vdW  Elec       q    Type
REMARK                         _______ _______ _______ _____ _____    ______ ____
ROOT
ATOM      1  C   UNL     1       2.067   1.496   0.388  0.00  0.00    +0.126 C 
ATOM      2  N   UNL     1       0.961   0.546   0.337  0.00  0.00    -0.191 N 
ATOM      3  C   UNL     1      -0.368   0.935  -0.030  0.00  0.00    +0.270 C 
ATOM      4  O   UNL     1      -0.746   1.985  -0.634  0.00  0.00    -0.271 OA
ATOM      5  C   UNL     1      -1.121  -0.358   0.017  0.00  0.00    +0.206 C 
ATOM      6  C   UNL     1      -1.790  -0.513   1.377  0.00  0.00    +0.053 C 
ATOM      7  C   UNL     1      -2.171  -0.421  -1.060  0.00  0.00    +0.053 C 
ATOM      8  O   UNL     1      -0.151  -1.379  -0.157  0.00  0.00    -0.433 OA
ATOM      9  C   UNL     1       1.120  -0.841   0.014  0.00  0.00    +0.411 C 
ATOM     10  O   UNL     1       2.201  -1.450  -0.252  0.00  0.00    -0.226 OA
ENDROOT
TORSDOF 0
