REMARK  Name = 
REMARK  4 active torsions:
REMARK  status: ('A' for Active; 'I' for Inactive)
REMARK    1  A    between atoms: C_2  and  O_3
REMARK    2  A    between atoms: O_3  and  C_4
REMARK    3  A    between atoms: C_4  and  C_5
REMARK    4  A    between atoms: C_5  and  N_6
REMARK                            x       y       z     vdW  Elec       q    Type
REMARK                         _______ _______ _______ _____ _____    ______ ____
ROOT
ATOM      1  N   UNL     1      -0.894  -0.237   0.272  0.00  0.00    -0.297 N 
ATOM      2  C   UNL     1       0.261  -0.921   0.409  0.00  0.00    +0.201 A 
ATOM      3  N   UNL     1       1.586  -0.401   0.241  0.00  0.00    -0.278 N 
ATOM      4  C   UNL     1       2.389  -0.538   1.427  0.00  0.00    +0.111 C 
ATOM      5  C   UNL     1       3.864  -0.413   1.174  0.00  0.00    +0.094 C 
ATOM      6  N   UNL     1       4.271   0.896   0.746  0.00  0.00    -0.270 NA
ATOM      7  C   UNL     1       5.710   0.980   0.757  0.00  0.00    +0.090 C 
ATOM      8  C   UNL     1       3.739   1.265  -0.546  0.00  0.00    +0.074 C 
ATOM      9  C   UNL     1       3.374   0.051  -1.356  0.00  0.00    +0.039 C 
ATOM     10  C   UNL     1       1.910  -0.218  -1.166  0.00  0.00    +0.095 C 
ATOM     11  N   UNL     1      -0.057  -2.205   0.133  0.00  0.00    -0.214 NA
ATOM     12  C   UNL     1      -1.383  -2.350   0.098  0.00  0.00    +0.100 A 
ATOM     13  C   UNL     1      -2.154  -3.414  -0.349  0.00  0.00    +0.021 A 
ATOM     14  C   UNL     1      -3.507  -3.200  -0.468  0.00  0.00    +0.002 A 
ATOM     15  C   UNL     1      -3.937  -1.929  -0.797  0.00  0.00    +0.002 A 
ATOM     16  C   UNL     1      -3.142  -0.828  -0.504  0.00  0.00    +0.019 A 
ATOM     17  C   UNL     1      -1.936  -1.077   0.142  0.00  0.00    +0.080 A 
ENDROOT
BRANCH   1  18
ATOM     18  C   UNL     1      -1.008   1.159   0.664  0.00  0.00    +0.141 C 
BRANCH  18  19
ATOM     19  C   UNL     1      -2.406   1.638   0.392  0.00  0.00    +0.167 C 
BRANCH  19  20
ATOM     20  O   UNL     1      -2.555   2.966   0.762  0.00  0.00    -0.352 OA
BRANCH  20  22
ATOM     21  C   UNL     1      -2.420   4.958  -0.602  0.00  0.00    +0.035 C 
ATOM     22  C   UNL     1      -1.706   3.816   0.063  0.00  0.00    +0.142 C 
ENDBRANCH  20  22
ENDBRANCH  19  20
ENDBRANCH  18  19
ENDBRANCH   1  18
TORSDOF 4
