REMARK  Name = 
REMARK  5 active torsions:
REMARK  status: ('A' for Active; 'I' for Inactive)
REMARK    1  A    between atoms: C_4  and  C_5
REMARK    2  A    between atoms: C_10  and  O_11
REMARK    3  A    between atoms: O_11  and  C_12
REMARK    4  A    between atoms: N_15  and  C_16
REMARK    5  A    between atoms: C_19  and  C_20
REMARK                            x       y       z     vdW  Elec       q    Type
REMARK                         _______ _______ _______ _____ _____    ______ ____
ROOT
ATOM      1  C   UNL     1       0.450  -0.033   0.489  0.00  0.00    +0.241 A 
ATOM      2  C   UNL     1      -0.454  -0.523   1.424  0.00  0.00    +0.123 A 
ATOM      3 BR   UNL     1      -0.329  -0.090   3.284  0.00  0.00    -0.041 Br
ATOM      4  C   UNL     1      -1.532  -1.219   0.913  0.00  0.00    +0.183 A 
ATOM      5  N   UNL     1      -2.384  -1.854   1.848  0.00  0.00    -0.106 NA
ATOM      6  N   UNL     1      -1.743  -1.183  -0.405  0.00  0.00    -0.193 NA
ATOM      7  C   UNL     1      -1.129  -0.269  -1.195  0.00  0.00    +0.245 A 
ATOM      8  N   UNL     1      -1.622  -0.076  -2.512  0.00  0.00    -0.178 NA
ATOM      9  N   UNL     1      -0.036   0.364  -0.713  0.00  0.00    -0.176 NA
ENDROOT
BRANCH   8  10
ATOM     10  C   UNL     1      -3.006   0.274  -2.628  0.00  0.00    +0.074 A 
ATOM     11  C   UNL     1      -3.407   1.580  -2.373  0.00  0.00    +0.017 A 
ATOM     12  C   UNL     1      -4.620   1.845  -1.749  0.00  0.00    +0.012 A 
ATOM     13  C   UNL     1      -5.409   0.812  -1.258  0.00  0.00    +0.069 A 
ATOM     14  C   UNL     1      -5.211  -0.417  -1.878  0.00  0.00    +0.012 A 
ATOM     15  C   UNL     1      -3.995  -0.692  -2.492  0.00  0.00    +0.017 A 
BRANCH  13  16
ATOM     16  C   UNL     1      -6.107   0.943  -0.018  0.00  0.00    +0.100 C 
ATOM     17  N   UNL     1      -6.699   1.084   0.978  0.00  0.00    -0.191 NA
ENDBRANCH  13  16
ENDBRANCH   8  10
BRANCH   1  18
ATOM     18  O   UNL     1       1.531   0.662   0.980  0.00  0.00    -0.436 OA
BRANCH  18  21
ATOM     19  C   UNL     1       2.383  -1.738  -0.370  0.00  0.00    +0.034 C 
ATOM     20  C   UNL     1       3.282  -0.604   0.009  0.00  0.00    +0.013 A 
ATOM     21  C   UNL     1       2.821   0.190   1.052  0.00  0.00    +0.139 A 
ATOM     22  C   UNL     1       3.738   0.883   1.832  0.00  0.00    +0.013 A 
ATOM     23  C   UNL     1       3.311   1.680   2.997  0.00  0.00    +0.034 C 
ATOM     24  C   UNL     1       5.093   0.703   1.617  0.00  0.00    +0.009 A 
ATOM     25  C   UNL     1       5.511   0.027   0.476  0.00  0.00    +0.068 A 
ATOM     26  C   UNL     1       4.607  -0.550  -0.407  0.00  0.00    +0.009 A 
BRANCH  25  27
ATOM     27  C   UNL     1       6.907  -0.052   0.128  0.00  0.00    +0.100 C 
ATOM     28  N   UNL     1       8.051   0.085  -0.027  0.00  0.00    -0.191 NA
ENDBRANCH  25  27
ENDBRANCH  18  21
ENDBRANCH   1  18
TORSDOF 5
