REMARK  Name = 
REMARK  6 active torsions:
REMARK  status: ('A' for Active; 'I' for Inactive)
REMARK    1  A    between atoms: C_5  and  C_6
REMARK    2  A    between atoms: N_8  and  C_9
REMARK    3  A    between atoms: C_9  and  C_12
REMARK    4  A    between atoms: C_14  and  C_15
REMARK    5  A    between atoms: N_17  and  C_18
REMARK    6  A    between atoms: C_18  and  C_19
REMARK                            x       y       z     vdW  Elec       q    Type
REMARK                         _______ _______ _______ _____ _____    ______ ____
ROOT
ATOM      1  C   UNL     1      -0.951  -1.318   0.236  0.00  0.00    +0.141 A 
ATOM      2  N   UNL     1      -1.073  -1.772  -1.012  0.00  0.00    -0.278 N 
ATOM      3  C   UNL     1      -2.208  -1.323  -1.804  0.00  0.00    +0.135 C 
ATOM      4  C   UNL     1      -0.050  -2.440  -1.568  0.00  0.00    +0.303 A 
ATOM      5  O   UNL     1      -0.237  -3.042  -2.667  0.00  0.00    -0.263 OA
ATOM      6  C   UNL     1       1.223  -2.355  -1.021  0.00  0.00    +0.273 A 
ATOM      7  O   UNL     1       2.348  -2.654  -1.794  0.00  0.00    -0.280 OA
ATOM      8  C   UNL     1       1.381  -1.708   0.198  0.00  0.00    +0.183 A 
ATOM      9  N   UNL     1       0.225  -1.440   0.853  0.00  0.00    -0.222 NA
ENDROOT
BRANCH   1  10
ATOM     10  C   UNL     1      -2.062  -0.654   0.986  0.00  0.00    +0.129 C 
ATOM     11  C   UNL     1      -1.489   0.636   1.531  0.00  0.00    +0.029 C 
ATOM     12  C   UNL     1      -2.359  -1.578   2.161  0.00  0.00    +0.029 C 
BRANCH  10  14
ATOM     13  C   UNL     1      -3.991   0.757   0.161  0.00  0.00    +0.320 C 
ATOM     14  N   UNL     1      -3.227  -0.440   0.162  0.00  0.00    -0.194 NA
ATOM     15  O   UNL     1      -3.398   1.810   0.524  0.00  0.00    -0.263 OA
BRANCH  13  19
ATOM     16  C   UNL     1      -8.525   2.515  -0.357  0.00  0.00    +0.097 C 
ATOM     17  C   UNL     1      -7.426   1.604   0.057  0.00  0.00    +0.227 A 
ATOM     18  O   UNL     1      -6.165   1.729  -0.311  0.00  0.00    -0.416 OA
ATOM     19  C   UNL     1      -5.454   0.774   0.264  0.00  0.00    +0.306 A 
ATOM     20  N   UNL     1      -6.229   0.377   1.301  0.00  0.00    -0.102 NA
ATOM     21  N   UNL     1      -7.401   0.974   1.234  0.00  0.00    -0.111 NA
ENDBRANCH  13  19
ENDBRANCH  10  14
ENDBRANCH   1  10
BRANCH   8  22
ATOM     22  C   UNL     1       2.628  -0.992   0.510  0.00  0.00    +0.296 C 
ATOM     23  N   UNL     1       2.925   0.135  -0.038  0.00  0.00    -0.228 NA
ATOM     24  O   UNL     1       3.106  -1.179   1.812  0.00  0.00    -0.264 OA
BRANCH  23  25
ATOM     25  C   UNL     1       3.297   1.322   0.728  0.00  0.00    +0.155 C 
BRANCH  25  26
ATOM     26  C   UNL     1       4.726   1.675   0.538  0.00  0.00    +0.002 A 
ATOM     27  C   UNL     1       5.201   1.823  -0.742  0.00  0.00    -0.000 A 
ATOM     28  C   UNL     1       6.554   1.617  -0.980  0.00  0.00    +0.029 A 
ATOM     29  C   UNL     1       7.398   1.293   0.068  0.00  0.00    +0.140 A 
ATOM     30  F   UNL     1       8.671   0.855  -0.122  0.00  0.00    -0.204 F 
ATOM     31  C   UNL     1       6.957   1.518   1.358  0.00  0.00    +0.029 A 
ATOM     32  C   UNL     1       5.602   1.480   1.581  0.00  0.00    -0.000 A 
ENDBRANCH  25  26
ENDBRANCH  23  25
ENDBRANCH   8  22
TORSDOF 6
