REMARK  Name = 
REMARK  3 active torsions:
REMARK  status: ('A' for Active; 'I' for Inactive)
REMARK    1  A    between atoms: C_2  and  C_3
REMARK    2  A    between atoms: C_3  and  N_4
REMARK    3  A    between atoms: N_4  and  C_5
REMARK                            x       y       z     vdW  Elec       q    Type
REMARK                         _______ _______ _______ _____ _____    ______ ____
ROOT
ATOM      1  C   UNL     1       0.534  -0.868   0.335  0.00  0.00    +0.096 C 
ATOM      2  C   UNL     1      -0.719   0.118  -0.018  0.00  0.00    -0.010 A 
ATOM      3  C   UNL     1      -1.810  -0.705   0.197  0.00  0.00    -0.025 A 
ATOM      4  C   UNL     1      -3.043  -0.112  -0.046  0.00  0.00    -0.005 A 
ATOM      5  C   UNL     1      -3.168   1.272   0.019  0.00  0.00    -0.000 A 
ATOM      6  C   UNL     1      -2.022   2.042   0.191  0.00  0.00    -0.000 A 
ATOM      7  C   UNL     1      -1.407  -2.116  -0.093  0.00  0.00    +0.028 C 
ATOM      8  C   UNL     1      -0.797   1.431   0.429  0.00  0.00    -0.003 A 
ATOM      9  C   UNL     1      -0.031  -2.023  -0.723  0.00  0.00    +0.027 C 
ENDROOT
BRANCH   1  10
ATOM     10  N   UNL     1       1.438  -0.200  -0.799  0.00  0.00    -0.201 NA
BRANCH  10  11
ATOM     11  C   UNL     1       2.740  -0.565  -0.312  0.00  0.00    +0.165 C 
BRANCH  11  13
ATOM     12  C   UNL     1       4.662   1.113  -0.459  0.00  0.00    -0.013 C 
ATOM     13  C   UNL     1       3.623   0.612  -0.411  0.00  0.00    -0.059 C 
ENDBRANCH  11  13
ENDBRANCH  10  11
ENDBRANCH   1  10
TORSDOF 3
