REMARK  Name = 
REMARK  6 active torsions:
REMARK  status: ('A' for Active; 'I' for Inactive)
REMARK    1  A    between atoms: C_2  and  N_5
REMARK    2  A    between atoms: N_5  and  C_6
REMARK    3  A    between atoms: C_6  and  C_7
REMARK    4  A    between atoms: C_7  and  C_9
REMARK    5  A    between atoms: C_9  and  O_10
REMARK    6  A    between atoms: O_10  and  C_11
REMARK                            x       y       z     vdW  Elec       q    Type
REMARK                         _______ _______ _______ _____ _____    ______ ____
ROOT
ATOM      1  C   UNL     1      -0.660  -0.585   0.508  0.00  0.00    +0.266 A 
ATOM      2  C   UNL     1      -2.039  -0.450   0.619  0.00  0.00    +0.195 A 
ATOM      3  N   UNL     1      -2.798   0.661   0.121  0.00  0.00    -0.284 N 
ATOM      4  C   UNL     1      -3.181   1.753   1.014  0.00  0.00    +0.124 C 
ATOM      5  C   UNL     1      -4.697   1.655   1.133  0.00  0.00    +0.164 C 
ATOM      6  O   UNL     1      -5.237   1.981  -0.117  0.00  0.00    -0.350 OA
ATOM      7  C   UNL     1      -4.998   0.911  -0.959  0.00  0.00    +0.164 C 
ATOM      8  C   UNL     1      -3.544   0.571  -1.115  0.00  0.00    +0.124 C 
ATOM      9  N   UNL     1      -2.591  -1.620   1.034  0.00  0.00    -0.172 NA
ATOM     10  S   UNL     1      -1.389  -2.199   2.085  0.00  0.00    +0.121 S 
ATOM     11  N   UNL     1      -0.196  -1.056   1.693  0.00  0.00    -0.153 NA
ENDROOT
BRANCH   1  12
ATOM     12  O   UNL     1       0.016  -0.212  -0.644  0.00  0.00    -0.455 OA
BRANCH  12  13
ATOM     13  C   UNL     1       1.262   0.221  -0.841  0.00  0.00    +0.241 C 
BRANCH  13  14
ATOM     14  C   UNL     1       2.361  -1.000  -0.950  0.00  0.00    +0.213 C 
ATOM     15  O   UNL     1       1.367  -2.107  -0.629  0.00  0.00    -0.218 OA
BRANCH  14  16
ATOM     16  C   UNL     1       2.764  -0.835   0.643  0.00  0.00    +0.125 C 
BRANCH  16  17
ATOM     17  N   UNL     1       4.180  -0.823   0.711  0.00  0.00    -0.218 NA
BRANCH  17  19
ATOM     18  C   UNL     1       4.710   0.347  -0.130  0.00  0.00    +0.017 C 
ATOM     19  C   UNL     1       4.718   0.450   0.258  0.00  0.00    +0.060 C 
ATOM     20  C   UNL     1       6.111   0.707   0.840  0.00  0.00    +0.017 C 
ATOM     21  C   UNL     1       3.840   1.632   0.642  0.00  0.00    +0.017 C 
ENDBRANCH  17  19
ENDBRANCH  16  17
ENDBRANCH  14  16
ENDBRANCH  13  14
ENDBRANCH  12  13
ENDBRANCH   1  12
TORSDOF 6
