REMARK  Name = 
REMARK  4 active torsions:
REMARK  status: ('A' for Active; 'I' for Inactive)
REMARK    1  A    between atoms: S_2  and  C_3
REMARK    2  A    between atoms: N_9  and  C_10
REMARK    3  A    between atoms: C_10  and  C_11
REMARK    4  A    between atoms: C_11  and  C_12
REMARK                            x       y       z     vdW  Elec       q    Type
REMARK                         _______ _______ _______ _____ _____    ______ ____
ROOT
ATOM      1  C   UNL     1      -2.332   2.663   0.163  0.00  0.00    +0.027 A 
ATOM      2  C   UNL     1      -1.332   1.720  -0.043  0.00  0.00    +0.021 A 
ATOM      3  C   UNL     1      -1.581   0.354   0.050  0.00  0.00    +0.058 A 
ATOM      4  N   UNL     1      -0.511  -0.598  -0.017  0.00  0.00    -0.286 N 
ATOM      5  C   UNL     1      -0.764  -1.965   0.318  0.00  0.00    +0.058 A 
ATOM      6  C   UNL     1      -1.873  -2.570  -0.261  0.00  0.00    +0.043 A 
ATOM      7  S   UNL     1      -3.394  -1.610  -0.285  0.00  0.00    -0.084 S 
ATOM      8  C   UNL     1      -1.896  -3.915  -0.475  0.00  0.00    +0.008 A 
ATOM      9  C   UNL     1      -0.829  -4.665   0.005  0.00  0.00    +0.001 A 
ATOM     10  C   UNL     1       0.147  -4.078   0.765  0.00  0.00    +0.001 A 
ATOM     11  C   UNL     1       0.068  -2.731   1.100  0.00  0.00    +0.015 A 
ATOM     12  C   UNL     1      -2.884  -0.013   0.367  0.00  0.00    +0.043 A 
ATOM     13  C   UNL     1      -3.789   0.874   0.928  0.00  0.00    +0.008 A 
ATOM     14  C   UNL     1      -3.382   2.203   0.950  0.00  0.00    +0.007 A 
ENDROOT
BRANCH   1  16
ATOM     15  C   UNL     1      -2.247   5.019  -0.916  0.00  0.00    +0.074 C 
ATOM     16  S   UNL     1      -2.364   4.242  -0.644  0.00  0.00    -0.113 S 
ENDBRANCH   1  16
BRANCH   4  17
ATOM     17  C   UNL     1       0.821  -0.056   0.240  0.00  0.00    +0.097 C 
BRANCH  17  18
ATOM     18  C   UNL     1       1.293   0.750  -0.873  0.00  0.00    +0.038 C 
BRANCH  18  19
ATOM     19  C   UNL     1       2.916   0.529  -1.115  0.00  0.00    +0.059 C 
ATOM     20  N   UNL     1       3.284   1.501   0.091  0.00  0.00    -0.273 NA
ATOM     21  C   UNL     1       3.097   2.793  -0.571  0.00  0.00    +0.090 C 
ATOM     22  C   UNL     1       4.714   1.370   0.253  0.00  0.00    +0.072 C 
ATOM     23  C   UNL     1       5.296   0.115  -0.278  0.00  0.00    +0.017 C 
ATOM     24  C   UNL     1       4.499  -1.122  -0.063  0.00  0.00    +0.003 C 
ATOM     25  C   UNL     1       3.044  -0.811  -0.145  0.00  0.00    +0.016 C 
ENDBRANCH  18  19
ENDBRANCH  17  18
ENDBRANCH   4  17
TORSDOF 4
