REMARK  Name = 
REMARK  6 active torsions:
REMARK  status: ('A' for Active; 'I' for Inactive)
REMARK    1  A    between atoms: C_4  and  C_5
REMARK    2  A    between atoms: C_8  and  O_9
REMARK    3  A    between atoms: O_9  and  C_10
REMARK    4  A    between atoms: C_10  and  C_11
REMARK    5  A    between atoms: C_14  and  C_15
REMARK    6  A    between atoms: C_19  and  C_20
REMARK                            x       y       z     vdW  Elec       q    Type
REMARK                         _______ _______ _______ _____ _____    ______ ____
ROOT
ATOM      1  C   UNL     1       0.158  -0.453  -0.117  0.00  0.00    +0.025 A 
ATOM      2  C   UNL     1      -0.476  -1.398   0.681  0.00  0.00    +0.015 A 
ATOM      3  C   UNL     1      -1.786  -1.784   0.424  0.00  0.00    +0.102 A 
ATOM      4  C   UNL     1      -2.457  -1.093  -0.576  0.00  0.00    +0.148 A 
ATOM      5  C   UNL     1      -1.782  -0.406  -1.577  0.00  0.00    +0.038 A 
ATOM      6  C   UNL     1      -0.417  -0.251  -1.366  0.00  0.00    +0.005 A 
ENDROOT
BRANCH   1  11
ATOM      7  C   UNL     1       4.944  -0.441  -1.039  0.00  0.00    +0.053 C 
ATOM      8  C   UNL     1       3.740   0.068  -0.305  0.00  0.00    +0.072 A 
ATOM      9  C   UNL     1       3.831   1.046   0.680  0.00  0.00    +0.124 A 
ATOM     10  S   UNL     1       2.228   0.993   1.298  0.00  0.00    -0.060 S 
ATOM     11  C   UNL     1       1.556  -0.068   0.123  0.00  0.00    +0.111 A 
ATOM     12  N   UNL     1       2.519   0.013  -0.829  0.00  0.00    -0.242 NA
BRANCH   9  13
ATOM     13  C   UNL     1       4.952   1.941   0.976  0.00  0.00    +0.395 C 
ATOM     14  O   UNL     1       5.297   2.999   0.140  0.00  0.00    -0.240 OA
ATOM     15  O   UNL     1       5.400   2.001   2.158  0.00  0.00    -0.240 OA
ENDBRANCH   9  13
ENDBRANCH   1  11
BRANCH   3  16
ATOM     16  C   UNL     1      -2.365  -2.954   1.045  0.00  0.00    +0.103 C 
ATOM     17  N   UNL     1      -2.773  -4.027   1.263  0.00  0.00    -0.191 NA
ENDBRANCH   3  16
BRANCH   4  18
ATOM     18  O   UNL     1      -3.849  -1.043  -0.460  0.00  0.00    -0.475 OA
BRANCH  18  19
ATOM     19  C   UNL     1      -4.409  -0.148   0.486  0.00  0.00    +0.205 C 
BRANCH  19  20
ATOM     20  C   UNL     1      -4.534   1.193  -0.225  0.00  0.00    +0.044 C 
ATOM     21  C   UNL     1      -3.787   2.263   0.535  0.00  0.00    +0.004 C 
ATOM     22  C   UNL     1      -5.991   1.549  -0.371  0.00  0.00    +0.004 C 
ENDBRANCH  19  20
ENDBRANCH  18  19
ENDBRANCH   4  18
TORSDOF 6
