REMARK  Name = 
REMARK  2 active torsions:
REMARK  status: ('A' for Active; 'I' for Inactive)
REMARK    1  A    between atoms: C_2  and  CA_4
REMARK    2  A    between atoms: C_6  and  C_7
REMARK                            x       y       z     vdW  Elec       q    Type
REMARK                         _______ _______ _______ _____ _____    ______ ____
ROOT
ATOM      1  CA  UNL     1       2.215  -0.917   0.622  0.00  0.00    +0.284 C 
ATOM      2  C   UNL     1       2.697   0.619   0.258  0.00  0.00    +0.279 C 
ATOM      3  O   UNL     1       3.915   0.687   0.585  0.00  0.00    -0.270 OA
ATOM      4  N   UNL     1       1.912   1.638   0.898  0.00  0.00    -0.177 NA
ATOM      5  C   UNL     1       0.484   1.703   0.936  0.00  0.00    +0.075 A 
ATOM      6  C   UNL     1      -0.389   0.871   0.246  0.00  0.00    +0.033 A 
ATOM      7  C   UNL     1      -1.564   1.346  -0.331  0.00  0.00    +0.014 A 
ATOM      8  C   UNL     1      -1.832   2.711  -0.304  0.00  0.00    +0.058 A 
ATOM      9  C   UNL     1      -1.193   3.400   0.720  0.00  0.00    +0.013 A 
ATOM     10 CL   UNL     1      -2.526   3.559  -1.678  0.00  0.00    -0.082 Cl
ATOM     11  C   UNL     1      -0.093  -0.479  -0.262  0.00  0.00    +0.078 C 
ATOM     12  C   UNL     1       0.003   2.959   1.265  0.00  0.00    +0.018 A 
ATOM     13  N   UNL     1       1.093  -0.940  -0.537  0.00  0.00    -0.252 NA
ENDROOT
BRANCH  11  14
ATOM     14  C   UNL     1      -1.269  -1.304  -0.327  0.00  0.00    +0.017 A 
ATOM     15  C   UNL     1      -2.449  -0.953  -0.959  0.00  0.00    +0.001 A 
ATOM     16  C   UNL     1      -3.606  -1.698  -0.752  0.00  0.00    +0.000 A 
ATOM     17  C   UNL     1      -3.690  -2.598   0.306  0.00  0.00    +0.000 A 
ATOM     18  C   UNL     1      -2.529  -2.919   0.992  0.00  0.00    +0.000 A 
ATOM     19  C   UNL     1      -1.370  -2.449   0.460  0.00  0.00    +0.001 A 
ENDBRANCH  11  14
BRANCH   1  21
ATOM     20  O   UNL     1       3.378  -2.587  -0.179  0.00  0.00    -0.243 OA
ATOM     21  C   UNL     1       3.348  -1.604  -0.359  0.00  0.00    +0.396 C 
ATOM     22  OXT UNL     1       3.465  -1.043  -1.598  0.00  0.00    -0.243 OA
ENDBRANCH   1  21
TORSDOF 2
