REMARK  Name = 
REMARK  9 active torsions:
REMARK  status: ('A' for Active; 'I' for Inactive)
REMARK    1  A    between atoms: C_3  and  C_4
REMARK    2  A    between atoms: C_4  and  C_5
REMARK    3  A    between atoms: C_5  and  C_7
REMARK    4  A    between atoms: C_7  and  C_9
REMARK    5  A    between atoms: C_10  and  C_11
REMARK    6  A    between atoms: C_18  and  C_19
REMARK    7  A    between atoms: C_19  and  C_20
REMARK    8  A    between atoms: C_20  and  C_21
REMARK    9  A    between atoms: C_21  and  C_22
REMARK                            x       y       z     vdW  Elec       q    Type
REMARK                         _______ _______ _______ _____ _____    ______ ____
ROOT
ATOM      1  C   UNL     1       0.949   0.708  -1.916  0.00  0.00    +0.052 C 
ATOM      2  C   UNL     1      -0.679   0.853  -1.585  0.00  0.00    +0.011 C 
ATOM      3  C   UNL     1      -0.593   0.008  -0.141  0.00  0.00    +0.007 C 
ATOM      4  C   UNL     1      -2.202  -0.243  -0.207  0.00  0.00    +0.022 C 
ATOM      5  C   UNL     1      -2.363  -0.796  -1.561  0.00  0.00    -0.048 C 
ATOM      6  C   UNL     1      -3.353  -1.667  -1.726  0.00  0.00    -0.035 C 
ATOM      7  C   UNL     1      -0.236  -1.320  -0.957  0.00  0.00    +0.034 C 
ATOM      8  C   UNL     1      -1.261  -0.371  -2.460  0.00  0.00    +0.022 C 
ATOM      9  C   UNL     1       1.214  -0.924  -1.547  0.00  0.00    +0.156 C 
ATOM     10  O   UNL     1       0.868  -1.368  -2.962  0.00  0.00    -0.223 OA
ENDROOT
BRANCH   1  12
ATOM     11  C   UNL     1       2.696   1.208  -0.168  0.00  0.00    +0.002 C 
ATOM     12  C   UNL     1       1.407   1.173  -0.459  0.00  0.00    -0.026 C 
BRANCH  11  13
ATOM     13  C   UNL     1       3.018   0.634   1.316  0.00  0.00    +0.175 C 
ATOM     14  O   UNL     1       3.337  -0.733   0.741  0.00  0.00    -0.218 OA
BRANCH  13  15
ATOM     15  C   UNL     1       4.647   1.176   1.381  0.00  0.00    +0.048 C 
ATOM     16  C   UNL     1       5.081   0.741  -0.116  0.00  0.00    +0.004 C 
BRANCH  15  17
ATOM     17  C   UNL     1       5.168  -0.204   2.026  0.00  0.00    +0.079 C 
BRANCH  17  20
ATOM     18  C   UNL     1       7.553  -0.278   4.406  0.00  0.00    +0.090 C 
ATOM     19  C   UNL     1       6.978  -0.105   3.868  0.00  0.00    -0.090 C 
ATOM     20  C   UNL     1       6.081   0.153   3.104  0.00  0.00    -0.091 C 
ENDBRANCH  17  20
ENDBRANCH  15  17
ENDBRANCH  13  15
ENDBRANCH  11  13
ENDBRANCH   1  12
BRANCH   6  21
ATOM     21  C   UNL     1      -4.649  -1.022  -1.878  0.00  0.00    +0.026 C 
BRANCH  21  22
ATOM     22  C   UNL     1      -5.099  -0.093  -0.812  0.00  0.00    +0.016 C 
BRANCH  22  23
ATOM     23  C   UNL     1      -6.620  -0.191  -0.875  0.00  0.00    +0.114 C 
BRANCH  23  24
ATOM     24  C   UNL     1      -7.135  -0.610   0.441  0.00  0.00    +0.365 C 
ATOM     25  O   UNL     1      -8.476  -0.450   0.698  0.00  0.00    -0.246 OA
ATOM     26  O   UNL     1      -6.327  -0.795   1.390  0.00  0.00    -0.246 OA
ENDBRANCH  23  24
ENDBRANCH  22  23
ENDBRANCH  21  22
ENDBRANCH   6  21
TORSDOF 9
