REMARK  Name = 
REMARK  7 active torsions:
REMARK  status: ('A' for Active; 'I' for Inactive)
REMARK    1  A    between atoms: C_4  and  C_6
REMARK    2  A    between atoms: C_6  and  C_7
REMARK    3  A    between atoms: C_6  and  C_23
REMARK    4  A    between atoms: C_6  and  C_29
REMARK    5  A    between atoms: C_7  and  C_8
REMARK    6  A    between atoms: C_8  and  N_9
REMARK    7  A    between atoms: C_12  and  C_14
REMARK                            x       y       z     vdW  Elec       q    Type
REMARK                         _______ _______ _______ _____ _____    ______ ____
ROOT
ATOM      1  C   UNL     1      -2.426  -0.054  -0.047  0.00  0.00    +0.108 C 
ENDROOT
BRANCH   1   2
ATOM      2  C   UNL     1      -3.155  -0.361  -1.300  0.00  0.00    -0.011 A 
ATOM      3  C   UNL     1      -4.520  -0.224  -1.378  0.00  0.00    -0.004 A 
ATOM      4  C   UNL     1      -5.167  -0.405  -2.582  0.00  0.00    -0.000 A 
ATOM      5  C   UNL     1      -4.627  -1.321  -3.470  0.00  0.00    -0.000 A 
ATOM      6  C   UNL     1      -3.247  -1.443  -3.459  0.00  0.00    -0.000 A 
ATOM      7  C   UNL     1      -2.529  -0.972  -2.369  0.00  0.00    -0.004 A 
ENDBRANCH   1   2
BRANCH   1   8
ATOM      8  C   UNL     1      -3.099  -0.742   1.100  0.00  0.00    -0.011 A 
ATOM      9  C   UNL     1      -2.331  -0.922   2.244  0.00  0.00    -0.004 A 
ATOM     10  C   UNL     1      -2.780  -1.755   3.261  0.00  0.00    -0.000 A 
ATOM     11  C   UNL     1      -3.450  -2.897   2.841  0.00  0.00    -0.000 A 
ATOM     12  C   UNL     1      -4.110  -2.879   1.620  0.00  0.00    -0.000 A 
ATOM     13  C   UNL     1      -4.090  -1.696   0.899  0.00  0.00    -0.004 A 
ENDBRANCH   1   8
BRANCH   1  16
ATOM     14  C   UNL     1      -3.099   2.750   2.134  0.00  0.00    +0.115 C 
ATOM     15  N   UNL     1      -3.450   2.092   0.879  0.00  0.00    -0.276 N 
ATOM     16  C   UNL     1      -2.393   1.405   0.203  0.00  0.00    +0.232 C 
ATOM     17  O   UNL     1      -1.633   2.103  -0.527  0.00  0.00    -0.274 OA
ATOM     18  C   UNL     1      -4.394   2.807   0.033  0.00  0.00    +0.115 C 
ENDBRANCH   1  16
BRANCH   1  19
ATOM     19  C   UNL     1      -1.013  -0.587  -0.100  0.00  0.00    +0.034 C 
BRANCH  19  20
ATOM     20  C   UNL     1      -0.206   0.002  -1.221  0.00  0.00    +0.073 C 
BRANCH  20  21
ATOM     21  N   UNL     1       1.030   0.599  -0.794  0.00  0.00    -0.272 NA
ATOM     22  C   UNL     1       1.509   0.097   0.473  0.00  0.00    +0.075 C 
ATOM     23  C   UNL     1       2.548   1.042   0.982  0.00  0.00    +0.052 C 
ATOM     24  C   UNL     1       3.585   1.447  -0.007  0.00  0.00    +0.148 C 
ATOM     25  O   UNL     1       3.881   2.797   0.250  0.00  0.00    -0.221 OA
ATOM     26  C   UNL     1       3.177   1.367  -1.440  0.00  0.00    +0.052 C 
ATOM     27  C   UNL     1       2.118   0.351  -1.740  0.00  0.00    +0.075 C 
BRANCH  24  28
ATOM     28  C   UNL     1       4.870   0.719   0.141  0.00  0.00    +0.005 A 
ATOM     29  C   UNL     1       5.888   1.096  -0.726  0.00  0.00    -0.001 A 
ATOM     30  C   UNL     1       7.000   0.311  -0.912  0.00  0.00    +0.011 A 
ATOM     31  C   UNL     1       6.956  -0.969  -0.381  0.00  0.00    +0.058 A 
ATOM     32 CL   UNL     1       7.944  -2.246  -1.055  0.00  0.00    -0.082 Cl
ATOM     33  C   UNL     1       6.144  -1.174   0.727  0.00  0.00    +0.011 A 
ATOM     34  C   UNL     1       5.067  -0.336   0.989  0.00  0.00    -0.001 A 
ENDBRANCH  24  28
ENDBRANCH  20  21
ENDBRANCH  19  20
ENDBRANCH   1  19
TORSDOF 7
