REMARK  Name = 
REMARK  2 active torsions:
REMARK  status: ('A' for Active; 'I' for Inactive)
REMARK    1  A    between atoms: C_25  and  C_26
REMARK    2  A    between atoms: C_26  and  C_28
REMARK                            x       y       z     vdW  Elec       q    Type
REMARK                         _______ _______ _______ _____ _____    ______ ____
ROOT
ATOM      1  C   UNL     1      -3.463   0.570  -3.128  0.00  0.00    +0.061 C 
ATOM      2  C   UNL     1      -3.528   0.532  -1.709  0.00  0.00    +0.188 C 
ATOM      3  O   UNL     1      -2.992  -0.654  -1.286  0.00  0.00    -0.330 OA
ATOM      4  C   UNL     1      -2.576  -0.554   0.004  0.00  0.00    +0.173 C 
ATOM      5  C   UNL     1      -2.931   1.051   0.319  0.00  0.00    +0.149 C 
ATOM      6  C   UNL     1      -1.360   1.458   0.771  0.00  0.00    +0.033 C 
ATOM      7  C   UNL     1      -0.680   0.582  -0.433  0.00  0.00    +0.005 C 
ATOM      8  C   UNL     1       0.810   0.460   0.394  0.00  0.00    +0.004 C 
ATOM      9  C   UNL     1       1.446  -0.449  -0.882  0.00  0.00    +0.038 C 
ATOM     10  C   UNL     1       0.996  -2.009  -0.239  0.00  0.00    +0.153 C 
ATOM     11  C   UNL     1      -0.640  -1.776  -0.428  0.00  0.00    +0.036 C 
ATOM     12  O   UNL     1       1.059  -1.573   1.241  0.00  0.00    -0.223 OA
ATOM     13  C   UNL     1       2.952  -0.489  -0.331  0.00  0.00    +0.036 C 
ATOM     14  C   UNL     1       3.263   0.645   0.517  0.00  0.00    -0.038 C 
ATOM     15  C   UNL     1       4.553   0.669   0.871  0.00  0.00    +0.034 C 
ATOM     16  C   UNL     1       5.583  -0.065   0.117  0.00  0.00    +0.195 C 
ATOM     17  C   UNL     1       5.141  -0.438  -1.236  0.00  0.00    +0.038 C 
ATOM     18  O   UNL     1       6.760  -0.199   0.518  0.00  0.00    -0.287 OA
ATOM     19  C   UNL     1       2.641   2.004   0.431  0.00  0.00    +0.022 C 
ATOM     20  C   UNL     1       3.344  -1.791   0.207  0.00  0.00    +0.009 C 
ATOM     21  C   UNL     1       3.845  -0.299  -1.530  0.00  0.00    -0.020 C 
ATOM     22  C   UNL     1       1.336   1.831  -0.281  0.00  0.00    +0.004 C 
ATOM     23  C   UNL     1      -1.206  -0.760   0.346  0.00  0.00    +0.034 C 
ATOM     24  C   UNL     1      -1.044  -0.579   1.791  0.00  0.00    +0.003 C 
ATOM     25  O   UNL     1      -2.658   1.454  -1.161  0.00  0.00    -0.334 OA
ATOM     26  C   UNL     1      -4.947   0.774  -1.294  0.00  0.00    +0.061 C 
ENDROOT
BRANCH   4  27
ATOM     27  C   UNL     1      -3.610  -1.214   0.864  0.00  0.00    +0.210 C 
ATOM     28  O   UNL     1      -4.580  -1.796   0.377  0.00  0.00    -0.291 OA
BRANCH  27  29
ATOM     29  C   UNL     1      -3.621  -1.133   2.341  0.00  0.00    +0.248 C 
ATOM     30  O   UNL     1      -3.892   0.129   2.830  0.00  0.00    -0.212 OA
ENDBRANCH  27  29
ENDBRANCH   4  27
TORSDOF 2
