REMARK  Name = 
REMARK  6 active torsions:
REMARK  status: ('A' for Active; 'I' for Inactive)
REMARK    1  A    between atoms: C_2  and  C_3
REMARK    2  A    between atoms: C_3  and  O_5
REMARK    3  A    between atoms: O_5  and  C_6
REMARK    4  A    between atoms: C_6  and  C_7
REMARK    5  A    between atoms: C_7  and  S_9
REMARK    6  A    between atoms: S_9  and  C_10
REMARK                            x       y       z     vdW  Elec       q    Type
REMARK                         _______ _______ _______ _____ _____    ______ ____
ROOT
ATOM      1  C   UNL     1      -2.384  -0.122  -0.507  0.00  0.00    +0.195 C 
ATOM      2  C   UNL     1      -0.972   0.233  -0.456  0.00  0.00    +0.044 C 
ATOM      3  C   UNL     1      -0.292  -1.200  -0.144  0.00  0.00    +0.007 C 
ATOM      4  C   UNL     1       1.167  -0.642  -0.797  0.00  0.00    +0.036 C 
ATOM      5  C   UNL     1       1.647   0.009   0.579  0.00  0.00    +0.168 C 
ATOM      6  C   UNL     1       0.946   1.476   0.738  0.00  0.00    +0.182 C 
ATOM      7  O   UNL     1       0.999   1.806  -0.742  0.00  0.00    -0.220 OA
ATOM      8  F   UNL     1       1.367  -0.728   1.627  0.00  0.00    -0.237 F 
ATOM      9  C   UNL     1       3.055   0.340   0.270  0.00  0.00    +0.066 C 
ATOM     10  C   UNL     1       3.862  -0.923   0.225  0.00  0.00    -0.003 C 
ATOM     11  C   UNL     1       5.173  -0.674   0.134  0.00  0.00    +0.036 C 
ATOM     12  C   UNL     1       5.761   0.601   0.553  0.00  0.00    +0.195 C 
ATOM     13  C   UNL     1       4.886   1.776   0.708  0.00  0.00    +0.038 C 
ATOM     14  O   UNL     1       7.013   0.752   0.684  0.00  0.00    -0.287 OA
ATOM     15  C   UNL     1       3.376  -1.727  -1.107  0.00  0.00    +0.180 C 
ATOM     16  F   UNL     1       3.937  -3.030  -0.598  0.00  0.00    -0.233 F 
ATOM     17  C   UNL     1       3.235   0.888  -1.149  0.00  0.00    +0.011 C 
ATOM     18  C   UNL     1       3.658   1.400   1.086  0.00  0.00    -0.017 C 
ATOM     19  C   UNL     1       1.899  -2.048  -0.439  0.00  0.00    +0.042 C 
ATOM     20  C   UNL     1      -0.863  -1.710  -1.564  0.00  0.00    +0.004 C 
ATOM     21  C   UNL     1      -0.671   0.613  -1.858  0.00  0.00    +0.004 C 
ATOM     22  C   UNL     1      -0.603   0.944   0.687  0.00  0.00    +0.039 C 
ATOM     23  C   UNL     1      -2.451  -1.592  -1.198  0.00  0.00    +0.045 C 
ATOM     24  C   UNL     1      -2.265  -2.409   0.205  0.00  0.00    +0.004 C 
ENDROOT
BRANCH   1  25
ATOM     25  C   UNL     1      -3.236   0.675  -1.419  0.00  0.00    +0.237 C 
ATOM     26  O   UNL     1      -2.913   1.579  -2.143  0.00  0.00    -0.281 OA
BRANCH  25  27
ATOM     27  S   UNL     1      -4.963   0.211  -1.638  0.00  0.00    -0.036 S 
BRANCH  27  28
ATOM     28  C   UNL     1      -5.354  -1.165  -0.535  0.00  0.00    +0.258 C 
ATOM     29  F   UNL     1      -6.585  -1.628  -0.927  0.00  0.00    -0.221 F 
ENDBRANCH  27  28
ENDBRANCH  25  27
ENDBRANCH   1  25
BRANCH   1  30
ATOM     30  O   UNL     1      -3.056  -0.173   0.715  0.00  0.00    -0.448 OA
BRANCH  30  31
ATOM     31  C   UNL     1      -3.525   1.011   1.239  0.00  0.00    +0.317 C 
ATOM     32  O   UNL     1      -3.467   2.092   0.600  0.00  0.00    -0.250 OA
BRANCH  31  34
ATOM     33  C   UNL     1      -4.663   2.211   2.965  0.00  0.00    +0.012 C 
ATOM     34  C   UNL     1      -3.719   1.156   2.715  0.00  0.00    +0.110 C 
ENDBRANCH  31  34
ENDBRANCH  30  31
ENDBRANCH   1  30
TORSDOF 6
