REMARK  Name = 
REMARK  2 active torsions:
REMARK  status: ('A' for Active; 'I' for Inactive)
REMARK    1  A    between atoms: C_2  and  CA_5
REMARK    2  A    between atoms: CA_5  and  C_7
REMARK                            x       y       z     vdW  Elec       q    Type
REMARK                         _______ _______ _______ _____ _____    ______ ____
ROOT
ATOM      1  CA  UNL     1       0.189  -0.468  -0.893  0.00  0.00    +0.204 C 
ATOM      2  N   UNL     1      -0.252  -1.850  -0.265  0.00  0.00    -0.120 NA
ENDROOT
BRANCH   1   4
ATOM      3  C   UNL     1      -2.027   0.319  -0.900  0.00  0.00    +0.014 C 
ATOM      4  C   UNL     1      -1.007   0.367  -0.136  0.00  0.00    +0.076 C 
ATOM      5  S   UNL     1      -1.296  -0.269   1.468  0.00  0.00    -0.082 S 
ATOM      6  C   UNL     1      -0.611   1.831  -0.214  0.00  0.00    +0.014 C 
ENDBRANCH   1   4
BRANCH   1   7
ATOM      7  C   UNL     1       1.305  -0.251   0.252  0.00  0.00    +0.383 C 
ATOM      8  OXT UNL     1       1.300   0.839   1.027  0.00  0.00    -0.244 OA
ATOM      9  O   UNL     1       2.400  -0.517  -0.340  0.00  0.00    -0.244 OA
ENDBRANCH   1   7
TORSDOF 2
