REMARK  Name = 
REMARK  0 active torsions:
REMARK  status: ('A' for Active; 'I' for Inactive)
REMARK                            x       y       z     vdW  Elec       q    Type
REMARK                         _______ _______ _______ _____ _____    ______ ____
ROOT
ATOM      1  O   UNL     1       1.348  -0.568  -0.033  0.00  0.00    +0.000 OA
ATOM      2  B   UNL     1       0.012  -0.004   0.131  0.00  0.00    +0.000 B 
ATOM      3  O   UNL     1      -0.190   1.433  -0.045  0.00  0.00    +0.000 OA
ATOM      4  O   UNL     1      -1.169  -0.860  -0.053  0.00  0.00    +0.000 OA
ENDROOT
TORSDOF 0
