REMARK  Name = 
REMARK  10 active torsions:
REMARK  status: ('A' for Active; 'I' for Inactive)
REMARK    1  A    between atoms: C_2  and  C_3
REMARK    2  A    between atoms: N_5  and  C_6
REMARK    3  A    between atoms: C_6  and  C_7
REMARK    4  A    between atoms: C_7  and  C_8
REMARK    5  A    between atoms: C_8  and  N_9
REMARK    6  A    between atoms: N_12  and  C_13
REMARK    7  A    between atoms: N_24  and  C_25
REMARK    8  A    between atoms: C_25  and  C_26
REMARK    9  A    between atoms: C_26  and  O_27
REMARK   10  A    between atoms: O_27  and  C_28
REMARK                            x       y       z     vdW  Elec       q    Type
REMARK                         _______ _______ _______ _____ _____    ______ ____
ROOT
ATOM      1  C   UNL     1       2.637  -0.847  -0.401  0.00  0.00    +0.144 A 
ATOM      2  N   UNL     1       2.907   0.442  -0.708  0.00  0.00    -0.263 N 
ATOM      3  C   UNL     1       1.691   1.031  -0.798  0.00  0.00    +0.348 A 
ATOM      4  O   UNL     1       1.433   2.255  -0.952  0.00  0.00    -0.245 OA
ATOM      5  N   UNL     1       0.742   0.082  -0.766  0.00  0.00    -0.201 N 
ATOM      6  N   UNL     1       1.310  -0.959  -0.182  0.00  0.00    -0.152 NA
ENDROOT
BRANCH   1   8
ATOM      7  C   UNL     1       3.016  -3.137   0.251  0.00  0.00    +0.008 C 
ATOM      8  C   UNL     1       3.615  -1.958  -0.504  0.00  0.00    +0.066 C 
ENDBRANCH   1   8
BRANCH   2   9
ATOM      9  C   UNL     1       4.159   1.029  -1.146  0.00  0.00    +0.159 C 
BRANCH   9  10
ATOM     10  C   UNL     1       5.261   0.052  -0.824  0.00  0.00    +0.230 C 
BRANCH  10  11
ATOM     11  O   UNL     1       5.789   0.295   0.471  0.00  0.00    -0.473 OA
BRANCH  11  12
ATOM     12  C   UNL     1       7.124   0.579   0.682  0.00  0.00    +0.139 A 
ATOM     13  C   UNL     1       7.738   1.572  -0.044  0.00  0.00    +0.037 A 
ATOM     14  C   UNL     1       8.921   2.121   0.424  0.00  0.00    +0.003 A 
ATOM     15  C   UNL     1       9.734   1.404   1.277  0.00  0.00    +0.000 A 
ATOM     16  C   UNL     1       9.273   0.152   1.663  0.00  0.00    +0.003 A 
ATOM     17  C   UNL     1       7.937  -0.169   1.524  0.00  0.00    +0.037 A 
ENDBRANCH  11  12
ENDBRANCH  10  11
ENDBRANCH   9  10
ENDBRANCH   2   9
BRANCH   5  18
ATOM     18  C   UNL     1      -0.656   0.275  -1.139  0.00  0.00    +0.134 C 
BRANCH  18  19
ATOM     19  C   UNL     1      -1.194  -1.078  -1.590  0.00  0.00    +0.044 C 
BRANCH  19  20
ATOM     20  C   UNL     1      -1.587  -1.823  -0.347  0.00  0.00    +0.074 C 
BRANCH  20  21
ATOM     21  N   UNL     1      -2.828  -1.435   0.221  0.00  0.00    -0.270 NA
ATOM     22  C   UNL     1      -3.975  -2.162  -0.169  0.00  0.00    +0.094 C 
ATOM     23  C   UNL     1      -4.949  -1.422  -1.037  0.00  0.00    +0.108 C 
ATOM     24  N   UNL     1      -5.166  -0.118  -0.420  0.00  0.00    -0.305 N 
ATOM     25  C   UNL     1      -3.978   0.698  -0.250  0.00  0.00    +0.108 C 
ATOM     26  C   UNL     1      -2.989  -0.073   0.565  0.00  0.00    +0.094 C 
BRANCH  24  27
ATOM     27  C   UNL     1      -6.457   0.393  -0.172  0.00  0.00    +0.049 A 
ATOM     28  C   UNL     1      -7.574  -0.370  -0.378  0.00  0.00    +0.026 A 
ATOM     29  C   UNL     1      -8.741  -0.097   0.323  0.00  0.00    +0.059 A 
ATOM     30 CL   UNL     1      -9.966  -1.317   0.615  0.00  0.00    -0.082 Cl
ATOM     31  C   UNL     1      -8.831   1.058   1.086  0.00  0.00    +0.011 A 
ATOM     32  C   UNL     1      -7.810   1.989   1.048  0.00  0.00    +0.002 A 
ATOM     33  C   UNL     1      -6.587   1.536   0.571  0.00  0.00    +0.015 A 
ENDBRANCH  24  27
ENDBRANCH  20  21
ENDBRANCH  19  20
ENDBRANCH  18  19
ENDBRANCH   5  18
TORSDOF 10
