REMARK  Name = 
REMARK  5 active torsions:
REMARK  status: ('A' for Active; 'I' for Inactive)
REMARK    1  A    between atoms: C_2  and  C_3
REMARK    2  A    between atoms: C_3  and  O_4
REMARK    3  A    between atoms: O_4  and  C_5
REMARK    4  A    between atoms: C_16  and  O_17
REMARK    5  A    between atoms: O_17  and  C_18
REMARK                            x       y       z     vdW  Elec       q    Type
REMARK                         _______ _______ _______ _____ _____    ______ ____
ROOT
ATOM      1  C   UNL     1      -3.525  -0.004  -0.855  0.00  0.00    +0.189 C 
ATOM      2  C   UNL     1      -2.321  -0.246  -0.050  0.00  0.00    +0.045 C 
ATOM      3  C   UNL     1      -1.293   0.404  -1.118  0.00  0.00    +0.004 C 
ATOM      4  C   UNL     1      -0.180   0.753   0.090  0.00  0.00    +0.001 C 
ATOM      5  C   UNL     1       0.660  -0.626  -0.333  0.00  0.00    +0.004 C 
ATOM      6  C   UNL     1      -0.304  -1.536   0.585  0.00  0.00    +0.000 C 
ATOM      7  C   UNL     1       1.853  -0.549   0.861  0.00  0.00    +0.018 C 
ATOM      8  C   UNL     1       2.139   1.014   0.924  0.00  0.00    -0.045 C 
ATOM      9  C   UNL     1       3.314   0.996   1.589  0.00  0.00    +0.008 C 
ATOM     10  C   UNL     1       4.636   0.963   0.654  0.00  0.00    +0.190 C 
ATOM     11  C   UNL     1       3.783   0.342  -0.613  0.00  0.00    +0.049 C 
ATOM     12  C   UNL     1       1.623   2.054   0.106  0.00  0.00    +0.022 C 
ATOM     13  C   UNL     1       3.045  -0.828  -0.214  0.00  0.00    +0.008 C 
ATOM     14  C   UNL     1       0.681   1.633  -0.948  0.00  0.00    +0.004 C 
ATOM     15  C   UNL     1      -2.071   1.819  -0.998  0.00  0.00    +0.005 C 
ATOM     16  C   UNL     1      -2.382   0.584   1.171  0.00  0.00    +0.004 C 
ATOM     17  C   UNL     1      -1.692  -1.559   0.033  0.00  0.00    +0.004 C 
ATOM     18  C   UNL     1      -3.234   1.193  -1.780  0.00  0.00    +0.053 C 
ENDROOT
BRANCH   1  20
ATOM     19  C   UNL     1      -4.271  -1.971  -2.153  0.00  0.00    -0.011 C 
ATOM     20  C   UNL     1      -3.978  -1.164  -1.624  0.00  0.00    -0.040 C 
ENDBRANCH   1  20
BRANCH  10  21
ATOM     21  O   UNL     1       5.083  -0.439   1.107  0.00  0.00    -0.448 OA
BRANCH  21  22
ATOM     22  C   UNL     1       6.168  -0.777   0.284  0.00  0.00    +0.318 C 
ATOM     23  O   UNL     1       6.414  -0.200  -0.817  0.00  0.00    -0.250 OA
ATOM     24  C   UNL     1       7.055  -1.931   0.567  0.00  0.00    +0.121 C 
ENDBRANCH  21  22
ENDBRANCH  10  21
BRANCH   1  25
ATOM     25  O   UNL     1      -4.582   0.601  -0.113  0.00  0.00    -0.443 OA
BRANCH  25  26
ATOM     26  C   UNL     1      -5.275   0.027   0.904  0.00  0.00    +0.318 C 
ATOM     27  O   UNL     1      -5.400  -1.211   0.844  0.00  0.00    -0.250 OA
ATOM     28  C   UNL     1      -5.944   0.904   1.896  0.00  0.00    +0.121 C 
ENDBRANCH  25  26
ENDBRANCH   1  25
TORSDOF 5
