REMARK  Name = 
REMARK  7 active torsions:
REMARK  status: ('A' for Active; 'I' for Inactive)
REMARK    1  A    between atoms: C_2  and  N_3
REMARK    2  A    between atoms: N_3  and  C_4
REMARK    3  A    between atoms: N_3  and  C_6
REMARK    4  A    between atoms: C_6  and  C_7
REMARK    5  A    between atoms: C_7  and  S_8
REMARK    6  A    between atoms: S_8  and  C_11
REMARK    7  A    between atoms: C_41  and  C_42
REMARK                            x       y       z     vdW  Elec       q    Type
REMARK                         _______ _______ _______ _____ _____    ______ ____
ROOT
ATOM      1  C   UNL     1       2.993  -1.463  -2.063  0.00  0.00    +0.160 C 
ATOM      2  C   UNL     1       1.443  -0.870  -1.691  0.00  0.00    +0.197 C 
ATOM      3  N   UNL     1       1.865   0.635  -1.819  0.00  0.00    -0.265 N 
ATOM      4  C   UNL     1       1.091   1.407  -2.778  0.00  0.00    +0.270 C 
ATOM      5  C   UNL     1      -0.236   1.098  -3.198  0.00  0.00    +0.175 A 
ATOM      6  N   UNL     1      -0.847   0.272  -2.382  0.00  0.00    -0.207 NA
ATOM      7  C   UNL     1      -1.976   1.017  -2.162  0.00  0.00    +0.213 A 
ATOM      8  C   UNL     1      -2.059   1.967  -0.995  0.00  0.00    +0.150 C 
ATOM      9  C   UNL     1      -3.333   2.691  -0.976  0.00  0.00    +0.163 C 
ATOM     10  C   UNL     1      -4.047   3.326   0.131  0.00  0.00    +0.102 C 
ATOM     11  C   UNL     1      -4.325   2.180   1.283  0.00  0.00    +0.181 C 
ATOM     12  C   UNL     1      -4.668   1.048   0.155  0.00  0.00    +0.002 C 
ATOM     13  C   UNL     1      -5.995   0.888   0.264  0.00  0.00    -0.024 C 
ATOM     14  C   UNL     1      -6.361   0.521   1.647  0.00  0.00    -0.007 C 
ATOM     15  C   UNL     1      -5.287   0.044   2.315  0.00  0.00    -0.003 C 
ATOM     16  C   UNL     1      -4.731  -1.013   1.627  0.00  0.00    +0.142 C 
ATOM     17  N   UNL     1      -4.136  -2.216   1.845  0.00  0.00    -0.197 NA
ATOM     18  C   UNL     1      -3.580  -2.620   3.083  0.00  0.00    +0.265 C 
ATOM     19  C   UNL     1      -2.495  -1.654   3.332  0.00  0.00    +0.055 C 
ATOM     20  C   UNL     1      -2.202  -1.071   2.153  0.00  0.00    -0.018 C 
ATOM     21  C   UNL     1      -1.541  -2.188   1.238  0.00  0.00    +0.062 C 
ATOM     22  C   UNL     1      -0.408  -0.969   0.754  0.00  0.00    +0.173 C 
ATOM     23  O   UNL     1       0.571  -1.990   0.226  0.00  0.00    -0.451 OA
ATOM     24  C   UNL     1      -2.231  -1.983  -0.219  0.00  0.00    +0.008 C 
ATOM     25  O   UNL     1      -3.994  -3.484   3.859  0.00  0.00    -0.268 OA
ATOM     26  C   UNL     1      -6.980   1.020  -0.844  0.00  0.00    +0.031 C 
ATOM     27  O   UNL     1      -2.826   1.944   1.354  0.00  0.00    -0.218 OA
ATOM     28  O   UNL     1      -3.849   2.858  -2.083  0.00  0.00    -0.295 OA
ATOM     29  O   UNL     1      -2.312   1.331  -3.412  0.00  0.00    -0.435 OA
ATOM     30  C   UNL     1      -1.205   1.418  -4.148  0.00  0.00    +0.205 A 
ATOM     31  O   UNL     1       1.614   2.331  -3.487  0.00  0.00    -0.268 OA
ATOM     32  C   UNL     1       3.159   0.627  -2.534  0.00  0.00    +0.096 C 
ATOM     33  C   UNL     1       1.707  -1.198  -0.135  0.00  0.00    +0.337 C 
ATOM     34  O   UNL     1       2.540  -2.164   0.079  0.00  0.00    -0.248 OA
ATOM     35  C   UNL     1       3.111  -0.606  -3.377  0.00  0.00    +0.047 C 
ENDROOT
BRANCH   1  36
ATOM     36  S   UNL     1       4.144  -0.506  -0.990  0.00  0.00    -0.008 S 
ATOM     37  O   UNL     1       3.543   0.480  -0.114  0.00  0.00    -0.173 OA
ATOM     38  O   UNL     1       5.229   0.164  -1.835  0.00  0.00    -0.173 OA
BRANCH  36  39
ATOM     39  C   UNL     1       5.316  -1.476  -0.098  0.00  0.00    +0.168 C 
BRANCH  39  40
ATOM     40  C   UNL     1       5.664  -0.709   1.154  0.00  0.00    +0.098 C 
BRANCH  40  41
ATOM     41  N   UNL     1       6.668   0.296   0.980  0.00  0.00    -0.271 NA
BRANCH  41  43
ATOM     42  C   UNL     1       6.332   2.590   1.825  0.00  0.00    +0.019 C 
ATOM     43  C   UNL     1       6.655   1.165   2.156  0.00  0.00    +0.072 C 
ENDBRANCH  41  43
BRANCH  41  44
ATOM     44  C   UNL     1       7.965  -0.375   1.059  0.00  0.00    +0.072 C 
ATOM     45  C   UNL     1       7.834  -1.719   1.721  0.00  0.00    +0.019 C 
ENDBRANCH  41  44
ENDBRANCH  40  41
ENDBRANCH  39  40
ENDBRANCH  36  39
ENDBRANCH   1  36
BRANCH  22  46
ATOM     46  C   UNL     1       0.212  -0.891   2.272  0.00  0.00    +0.041 C 
ATOM     47  C   UNL     1       1.319   0.110   2.191  0.00  0.00    +0.004 C 
ATOM     48  C   UNL     1       0.651  -2.261   2.637  0.00  0.00    +0.004 C 
ENDBRANCH  22  46
TORSDOF 7
