REMARK  Name = 
REMARK  9 active torsions:
REMARK  status: ('A' for Active; 'I' for Inactive)
REMARK    1  A    between atoms: C_2  and  C_3
REMARK    2  A    between atoms: C_3  and  O_5
REMARK    3  A    between atoms: O_5  and  C_6
REMARK    4  A    between atoms: C_6  and  C_7
REMARK    5  A    between atoms: C_6  and  C_14
REMARK    6  A    between atoms: C_6  and  C_20
REMARK    7  A    between atoms: C_7  and  C_8
REMARK    8  A    between atoms: C_20  and  C_22
REMARK    9  A    between atoms: C_22  and  N_23
REMARK                            x       y       z     vdW  Elec       q    Type
REMARK                         _______ _______ _______ _____ _____    ______ ____
ROOT
ATOM      1  C   UNL     1      -0.079  -0.004  -0.219  0.00  0.00    +0.160 C 
ENDROOT
BRANCH   1   2
ATOM      2  C   UNL     1      -1.453  -0.383  -0.397  0.00  0.00    +0.014 A 
ATOM      3  C   UNL     1      -2.508   0.500  -0.186  0.00  0.00    -0.001 A 
ATOM      4  C   UNL     1      -3.714   0.251  -0.833  0.00  0.00    -0.000 A 
ATOM      5  C   UNL     1      -4.044  -1.048  -1.201  0.00  0.00    -0.000 A 
ATOM      6  C   UNL     1      -3.189  -2.034  -0.715  0.00  0.00    -0.000 A 
ATOM      7  C   UNL     1      -1.844  -1.680  -0.714  0.00  0.00    -0.001 A 
ENDBRANCH   1   2
BRANCH   1   8
ATOM      8  C   UNL     1       0.582   0.565  -1.587  0.00  0.00    +0.057 C 
ATOM      9  C   UNL     1       0.648   2.123  -1.097  0.00  0.00    +0.005 C 
BRANCH   8  10
ATOM     10  C   UNL     1      -0.831   0.832  -2.360  0.00  0.00    +0.076 C 
BRANCH  10  11
ATOM     11  N   UNL     1      -0.613   1.943  -3.241  0.00  0.00    -0.270 NA
ATOM     12  C   UNL     1      -1.086   1.721  -4.580  0.00  0.00    +0.090 C 
ATOM     13  C   UNL     1      -1.219   3.175  -2.761  0.00  0.00    +0.090 C 
ENDBRANCH  10  11
ENDBRANCH   8  10
ENDBRANCH   1   8
BRANCH   1  14
ATOM     14  O   UNL     1       0.657  -1.213  -0.003  0.00  0.00    -0.451 OA
BRANCH  14  15
ATOM     15  C   UNL     1       0.297  -1.923   1.146  0.00  0.00    +0.317 C 
ATOM     16  O   UNL     1      -0.362  -1.335   2.053  0.00  0.00    -0.250 OA
BRANCH  15  18
ATOM     17  C   UNL     1       0.478  -3.703   2.769  0.00  0.00    +0.012 C 
ATOM     18  C   UNL     1       0.665  -3.327   1.383  0.00  0.00    +0.110 C 
ENDBRANCH  15  18
ENDBRANCH  14  15
ENDBRANCH   1  14
BRANCH   1  19
ATOM     19  C   UNL     1       0.240   0.868   0.921  0.00  0.00    +0.071 C 
BRANCH  19  20
ATOM     20  C   UNL     1       1.646   0.938   1.316  0.00  0.00    -0.018 A 
ATOM     21  C   UNL     1       1.922   1.564   2.526  0.00  0.00    -0.004 A 
ATOM     22  C   UNL     1       3.091   1.244   3.196  0.00  0.00    -0.000 A 
ATOM     23  C   UNL     1       4.117   0.529   2.591  0.00  0.00    -0.000 A 
ATOM     24  C   UNL     1       3.904   0.084   1.298  0.00  0.00    -0.000 A 
ATOM     25  C   UNL     1       2.694   0.312   0.693  0.00  0.00    -0.004 A 
ENDBRANCH  19  20
ENDBRANCH   1  19
TORSDOF 9
