REMARK  Name = 
REMARK  1 active torsions:
REMARK  status: ('A' for Active; 'I' for Inactive)
REMARK    1  A    between atoms: C_10  and  N_11
REMARK                            x       y       z     vdW  Elec       q    Type
REMARK                         _______ _______ _______ _____ _____    ______ ____
ROOT
ATOM      1 CL   UNL     1       0.685   2.992  -0.136  0.00  0.00    -0.079 Cl
ATOM      2  C   UNL     1      -0.575   1.790  -0.006  0.00  0.00    +0.093 A 
ATOM      3  C   UNL     1      -0.281   0.430  -0.035  0.00  0.00    +0.189 A 
ATOM      4  C   UNL     1      -1.335  -0.469   0.123  0.00  0.00    +0.144 A 
ATOM      5  C   UNL     1      -2.637  -0.020   0.257  0.00  0.00    +0.112 A 
ATOM      6  N   UNL     1      -3.519  -1.005  -0.051  0.00  0.00    -0.190 NA
ATOM      7  S   UNL     1      -2.731  -2.360   0.594  0.00  0.00    +0.117 S 
ATOM      8  C   UNL     1      -2.911   1.341   0.151  0.00  0.00    +0.022 A 
ATOM      9  N   UNL     1      -1.183  -1.684   0.711  0.00  0.00    -0.187 NA
ATOM     10  C   UNL     1      -1.872   2.259   0.142  0.00  0.00    +0.016 A 
ENDROOT
BRANCH   3  11
ATOM     11  N   UNL     1       0.790   0.053  -0.866  0.00  0.00    -0.068 NA
ATOM     12  C   UNL     1       1.949  -0.329  -0.515  0.00  0.00    +0.439 C 
ATOM     13  N   UNL     1       2.602  -0.431   0.728  0.00  0.00    -0.060 NA
ATOM     14  C   UNL     1       3.932  -0.970   0.601  0.00  0.00    +0.251 C 
ATOM     15  C   UNL     1       4.133  -1.050  -0.883  0.00  0.00    +0.251 C 
ATOM     16  N   UNL     1       2.951  -0.547  -1.518  0.00  0.00    -0.060 NA
ENDBRANCH   3  11
TORSDOF 1
