REMARK  Name = 
REMARK  5 active torsions:
REMARK  status: ('A' for Active; 'I' for Inactive)
REMARK    1  A    between atoms: P_2  and  N_3
REMARK    2  A    between atoms: N_3  and  C_4
REMARK    3  A    between atoms: N_3  and  C_7
REMARK    4  A    between atoms: C_4  and  C_5
REMARK    5  A    between atoms: C_7  and  C_8
REMARK                            x       y       z     vdW  Elec       q    Type
REMARK                         _______ _______ _______ _____ _____    ______ ____
ROOT
ATOM      1  O   UNL     1       0.938   1.153   1.035  0.00  0.00    -0.253 OA
ATOM      2  P   UNL     1       0.657   0.074   0.064  0.00  0.00    +0.365 P 
ATOM      3  O   UNL     1       1.329  -1.395   0.605  0.00  0.00    -0.291 OA
ATOM      4  C   UNL     1       2.694  -1.408   0.325  0.00  0.00    +0.153 C 
ATOM      5  C   UNL     1       3.245  -0.011   0.164  0.00  0.00    +0.052 C 
ATOM      6  C   UNL     1       2.935   0.466  -1.246  0.00  0.00    +0.102 C 
ATOM      7  N   UNL     1       1.497   0.457  -1.440  0.00  0.00    -0.133 NA
ENDROOT
BRANCH   2   8
ATOM      8  N   UNL     1      -1.011  -0.099  -0.343  0.00  0.00    -0.195 NA
BRANCH   8   9
ATOM      9  C   UNL     1      -1.346   0.472  -1.619  0.00  0.00    +0.099 C 
BRANCH   9  10
ATOM     10  C   UNL     1      -2.656  -0.092  -2.086  0.00  0.00    +0.113 C 
ATOM     11 CL   UNL     1      -3.137  -1.534  -1.149  0.00  0.00    -0.112 Cl
ENDBRANCH   9  10
ENDBRANCH   8   9
BRANCH   8  12
ATOM     12  C   UNL     1      -1.934   0.159   0.703  0.00  0.00    +0.099 C 
BRANCH  12  13
ATOM     13  C   UNL     1      -1.522   1.224   1.673  0.00  0.00    +0.113 C 
ATOM     14 CL   UNL     1      -1.687   0.535   3.315  0.00  0.00    -0.112 Cl
ENDBRANCH  12  13
ENDBRANCH   8  12
ENDBRANCH   2   8
TORSDOF 5
