REMARK  Name = 
REMARK  13 active torsions:
REMARK  status: ('A' for Active; 'I' for Inactive)
REMARK    1  A    between atoms: C_3  and  C_4
REMARK    2  A    between atoms: C_4  and  C_5
REMARK    3  A    between atoms: C_5  and  C_7
REMARK    4  A    between atoms: C_7  and  C_9
REMARK    5  A    between atoms: C_10  and  C_11
REMARK    6  A    between atoms: C_15  and  C_16
REMARK    7  A    between atoms: C_16  and  C_17
REMARK    8  A    between atoms: C_17  and  C_18
REMARK    9  A    between atoms: C_18  and  C_19
REMARK   10  A    between atoms: C_19  and  O_21
REMARK   11  A    between atoms: O_21  and  C_22
REMARK   12  A    between atoms: C_22  and  C_23
REMARK   13  A    between atoms: C_23  and  C_25
REMARK                            x       y       z     vdW  Elec       q    Type
REMARK                         _______ _______ _______ _____ _____    ______ ____
ROOT
ATOM      1  C   UNL     1       3.008  -2.261   1.322  0.00  0.00    +0.052 C 
ATOM      2  C   UNL     1       3.368  -3.628   0.376  0.00  0.00    +0.156 C 
ATOM      3  O   UNL     1       2.031  -4.280   0.685  0.00  0.00    -0.223 OA
ATOM      4  C   UNL     1       2.922  -3.036  -1.086  0.00  0.00    +0.034 C 
ATOM      5  C   UNL     1       1.520  -2.533  -0.491  0.00  0.00    +0.007 C 
ATOM      6  C   UNL     1       1.080  -1.431  -1.613  0.00  0.00    +0.022 C 
ATOM      7  C   UNL     1       0.254  -0.803  -0.490  0.00  0.00    -0.048 C 
ATOM      8  C   UNL     1      -0.894  -1.442  -0.368  0.00  0.00    -0.035 C 
ATOM      9  C   UNL     1       1.097  -0.731   0.765  0.00  0.00    +0.022 C 
ATOM     10  C   UNL     1       2.465  -1.278   0.101  0.00  0.00    +0.011 C 
ENDROOT
BRANCH   1  12
ATOM     11  C   UNL     1       4.841  -0.593   0.782  0.00  0.00    +0.002 C 
ATOM     12  C   UNL     1       4.512  -1.771   1.196  0.00  0.00    -0.026 C 
BRANCH  11  13
ATOM     13  C   UNL     1       6.406  -0.599   0.354  0.00  0.00    +0.175 C 
ATOM     14  O   UNL     1       6.089  -1.288  -0.956  0.00  0.00    -0.218 OA
BRANCH  13  15
ATOM     15  C   UNL     1       6.337   0.952  -0.366  0.00  0.00    +0.048 C 
ATOM     16  C   UNL     1       7.442   0.603  -1.496  0.00  0.00    +0.004 C 
BRANCH  15  17
ATOM     17  C   UNL     1       7.466   1.547   0.628  0.00  0.00    +0.079 C 
BRANCH  17  20
ATOM     18  C   UNL     1       6.611   5.460   0.144  0.00  0.00    +0.090 C 
ATOM     19  C   UNL     1       7.189   4.210   0.537  0.00  0.00    -0.090 C 
ATOM     20  C   UNL     1       7.251   3.003   0.682  0.00  0.00    -0.091 C 
ENDBRANCH  17  20
ENDBRANCH  15  17
ENDBRANCH  13  15
ENDBRANCH  11  13
ENDBRANCH   1  12
BRANCH   8  21
ATOM     21  C   UNL     1      -1.780  -1.723   0.720  0.00  0.00    +0.026 C 
BRANCH  21  22
ATOM     22  C   UNL     1      -1.806  -0.777   1.863  0.00  0.00    +0.016 C 
BRANCH  22  23
ATOM     23  C   UNL     1      -2.206   0.523   1.228  0.00  0.00    +0.110 C 
BRANCH  23  24
ATOM     24  C   UNL     1      -3.274   0.451   0.262  0.00  0.00    +0.317 C 
ATOM     25  O   UNL     1      -3.549  -0.419  -0.581  0.00  0.00    -0.250 OA
BRANCH  24  26
ATOM     26  O   UNL     1      -3.741   1.728  -0.098  0.00  0.00    -0.440 OA
BRANCH  26  27
ATOM     27  C   UNL     1      -4.664   1.946  -1.143  0.00  0.00    +0.277 C 
BRANCH  27  28
ATOM     28  C   UNL     1      -5.946   2.277  -0.449  0.00  0.00    +0.217 C 
ATOM     29  O   UNL     1      -5.832   3.093   0.516  0.00  0.00    -0.287 OA
BRANCH  28  30
ATOM     30  C   UNL     1      -7.071   1.364  -0.500  0.00  0.00    +0.038 A 
ATOM     31  C   UNL     1      -8.272   1.817   0.011  0.00  0.00    +0.003 A 
ATOM     32  C   UNL     1      -9.242   0.882   0.344  0.00  0.00    +0.000 A 
ATOM     33  C   UNL     1      -8.877  -0.453   0.483  0.00  0.00    +0.000 A 
ATOM     34  C   UNL     1      -7.711  -0.871  -0.115  0.00  0.00    +0.000 A 
ATOM     35  C   UNL     1      -7.022   0.060  -0.887  0.00  0.00    +0.003 A 
ENDBRANCH  28  30
ENDBRANCH  27  28
ENDBRANCH  26  27
ENDBRANCH  24  26
ENDBRANCH  23  24
ENDBRANCH  22  23
ENDBRANCH  21  22
ENDBRANCH   8  21
TORSDOF 13
