REMARK  Name = 
REMARK  4 active torsions:
REMARK  status: ('A' for Active; 'I' for Inactive)
REMARK    1  A    between atoms: SD_2  and  CG_3
REMARK    2  A    between atoms: CG_3  and  CB_4
REMARK    3  A    between atoms: CB_4  and  CA_5
REMARK    4  A    between atoms: CA_5  and  C_7
REMARK                            x       y       z     vdW  Elec       q    Type
REMARK                         _______ _______ _______ _____ _____    ______ ____
ROOT
ATOM      1  CA  MET A   1      -0.975  -0.642   0.206  0.00  0.00    +0.195 C 
ATOM      2  N   MET A   1      -1.289  -1.340  -1.205  0.00  0.00    -0.121 NA
ENDROOT
BRANCH   1   3
ATOM      3  C   MET A   1      -1.952   0.630  -0.160  0.00  0.00    +0.382 C 
ATOM      4  OXT MET A   1      -3.245   0.273   0.243  0.00  0.00    -0.244 OA
ATOM      5  O   MET A   1      -1.544   1.703   0.376  0.00  0.00    -0.244 OA
ENDBRANCH   1   3
BRANCH   1   6
ATOM      6  CB  MET A   1       0.365   0.134  -0.437  0.00  0.00    +0.042 C 
BRANCH   6   7
ATOM      7  CG  MET A   1       1.440  -0.684   0.269  0.00  0.00    +0.060 C 
BRANCH   7   9
ATOM      8  CE  MET A   1       4.143   0.361   0.714  0.00  0.00    +0.069 C 
ATOM      9  SD  MET A   1       3.057  -0.435  -0.475  0.00  0.00    -0.139 S 
ENDBRANCH   7   9
ENDBRANCH   6   7
ENDBRANCH   1   6
TORSDOF 4
