REMARK  Name = 
REMARK  7 active torsions:
REMARK  status: ('A' for Active; 'I' for Inactive)
REMARK    1  A    between atoms: C_2  and  C_3
REMARK    2  A    between atoms: C_3  and  C_5
REMARK    3  A    between atoms: C_5  and  C_6
REMARK    4  A    between atoms: C_5  and  C_12
REMARK    5  A    between atoms: C_5  and  C_18
REMARK    6  A    between atoms: C_6  and  C_7
REMARK    7  A    between atoms: C_7  and  N_9
REMARK                            x       y       z     vdW  Elec       q    Type
REMARK                         _______ _______ _______ _____ _____    ______ ____
ROOT
ATOM      1  C   UNL     1       0.064  -0.102   0.105  0.00  0.00    +0.090 C 
ENDROOT
BRANCH   1   2
ATOM      2  C   UNL     1      -1.007  -0.743  -0.622  0.00  0.00    -0.012 A 
ATOM      3  C   UNL     1      -2.292  -0.281  -0.294  0.00  0.00    -0.004 A 
ATOM      4  C   UNL     1      -3.430  -0.715  -0.906  0.00  0.00    -0.000 A 
ATOM      5  C   UNL     1      -3.328  -1.788  -1.766  0.00  0.00    -0.000 A 
ATOM      6  C   UNL     1      -2.204  -2.597  -1.645  0.00  0.00    -0.000 A 
ATOM      7  C   UNL     1      -1.159  -2.102  -0.894  0.00  0.00    -0.004 A 
ENDBRANCH   1   2
BRANCH   1   8
ATOM      8  C   UNL     1      -0.319   1.370   0.139  0.00  0.00    -0.012 A 
ATOM      9  C   UNL     1      -0.935   1.954  -0.963  0.00  0.00    -0.004 A 
ATOM     10  C   UNL     1      -0.893   3.298  -1.221  0.00  0.00    -0.000 A 
ATOM     11  C   UNL     1      -0.436   4.149  -0.252  0.00  0.00    -0.000 A 
ATOM     12  C   UNL     1       0.161   3.594   0.872  0.00  0.00    -0.000 A 
ATOM     13  C   UNL     1       0.430   2.232   0.922  0.00  0.00    -0.004 A 
ENDBRANCH   1   8
BRANCH   1  14
ATOM     14  C   UNL     1      -0.104  -0.478   1.561  0.00  0.00    +0.157 C 
ATOM     15  O   UNL     1       0.864  -0.388   2.320  0.00  0.00    -0.295 OA
BRANCH  14  17
ATOM     16  C   UNL     1      -1.351  -0.513   3.665  0.00  0.00    +0.008 C 
ATOM     17  C   UNL     1      -1.394  -0.136   2.252  0.00  0.00    +0.065 C 
ENDBRANCH  14  17
ENDBRANCH   1  14
BRANCH   1  18
ATOM     18  C   UNL     1       1.419  -0.025  -0.171  0.00  0.00    +0.031 C 
BRANCH  18  19
ATOM     19  C   UNL     1       2.149  -1.053  -1.187  0.00  0.00    +0.059 C 
ATOM     20  C   UNL     1       1.817  -2.386  -0.285  0.00  0.00    +0.017 C 
BRANCH  19  21
ATOM     21  N   UNL     1       3.542  -0.791  -0.500  0.00  0.00    -0.272 NA
ATOM     22  C   UNL     1       3.884  -1.787   0.404  0.00  0.00    +0.090 C 
ATOM     23  C   UNL     1       4.523  -0.711  -1.535  0.00  0.00    +0.090 C 
ENDBRANCH  19  21
ENDBRANCH  18  19
ENDBRANCH   1  18
TORSDOF 7
