REMARK  Name = 
REMARK  1 active torsions:
REMARK  status: ('A' for Active; 'I' for Inactive)
REMARK    1  A    between atoms: C_7  and  C_9
REMARK                            x       y       z     vdW  Elec       q    Type
REMARK                         _______ _______ _______ _____ _____    ______ ____
ROOT
ATOM      1  C   UNL     1      -0.395  -0.118  -0.226  0.00  0.00    +0.163 C 
ATOM      2  N   UNL     1      -0.830  -1.345  -0.795  0.00  0.00    -0.181 N 
ATOM      3  C   UNL     1       0.078  -2.377  -1.193  0.00  0.00    +0.139 C 
ATOM      4  S   UNL     1      -2.517  -1.757  -0.774  0.00  0.00    +0.077 S 
ATOM      5  O   UNL     1      -3.031  -1.929  -2.179  0.00  0.00    -0.150 OA
ATOM      6  O   UNL     1      -2.776  -2.985   0.031  0.00  0.00    -0.150 OA
ATOM      7  C   UNL     1      -3.302  -0.339  -0.089  0.00  0.00    +0.129 A 
ATOM      8  C   UNL     1      -2.633   0.860  -0.298  0.00  0.00    +0.059 A 
ATOM      9  C   UNL     1      -3.376   1.987   0.036  0.00  0.00    +0.005 A 
ATOM     10  C   UNL     1      -4.511   1.888   0.833  0.00  0.00    +0.000 A 
ATOM     11  C   UNL     1      -4.856   0.678   1.425  0.00  0.00    +0.001 A 
ATOM     12  C   UNL     1      -4.309  -0.465   0.859  0.00  0.00    +0.020 A 
ATOM     13  C   UNL     1      -1.177   0.945  -0.415  0.00  0.00    +0.216 C 
ATOM     14  O   UNL     1      -0.564   2.201  -0.327  0.00  0.00    -0.285 OA
ENDROOT
BRANCH   1  20
ATOM     15  C   UNL     1       7.305   0.776   0.201  0.00  0.00    +0.040 C 
ATOM     16  C   UNL     1       5.869   0.489  -0.050  0.00  0.00    +0.029 A 
ATOM     17  S   UNL     1       4.846  -0.784   0.479  0.00  0.00    -0.054 S 
ATOM     18  C   UNL     1       3.345  -0.131  -0.039  0.00  0.00    +0.186 A 
ATOM     19  N   UNL     1       2.054  -0.723  -0.195  0.00  0.00    -0.149 NA
ATOM     20  C   UNL     1       0.940  -0.025   0.339  0.00  0.00    +0.289 C 
ATOM     21  O   UNL     1       1.161   0.801   1.276  0.00  0.00    -0.266 OA
ATOM     22  N   UNL     1       3.726   1.144  -0.302  0.00  0.00    -0.221 NA
ATOM     23  C   UNL     1       4.952   1.207  -0.809  0.00  0.00    +0.103 A 
ENDBRANCH   1  20
TORSDOF 1
