REMARK  Name = 
REMARK  3 active torsions:
REMARK  status: ('A' for Active; 'I' for Inactive)
REMARK    1  A    between atoms: N_2  and  N_4
REMARK    2  A    between atoms: N_5  and  C_6
REMARK    3  A    between atoms: C_10  and  C_11
REMARK                            x       y       z     vdW  Elec       q    Type
REMARK                         _______ _______ _______ _____ _____    ______ ____
ROOT
ATOM      1  C   UNL     1      -0.394   0.675  -0.136  0.00  0.00    +0.209 A 
ATOM      2  C   UNL     1      -1.641   0.081  -0.278  0.00  0.00    +0.177 A 
ATOM      3  N   UNL     1      -2.475   1.100  -0.540  0.00  0.00    -0.216 NA
ATOM      4  C   UNL     1      -1.696   1.995  -1.195  0.00  0.00    +0.201 A 
ATOM      5  N   UNL     1      -0.509   1.947  -0.548  0.00  0.00    -0.202 NA
ENDROOT
BRANCH   2   6
ATOM      6  C   UNL     1      -1.949  -1.256   0.237  0.00  0.00    +0.305 C 
ATOM      7  O   UNL     1      -1.052  -2.135   0.067  0.00  0.00    -0.265 OA
ATOM      8  N   UNL     1      -2.663  -1.304   1.467  0.00  0.00    -0.082 NA
ENDBRANCH   2   6
BRANCH   1  10
ATOM      9  N   UNL     1       1.739  -0.210  -0.588  0.00  0.00    -0.076 NA
ATOM     10  N   UNL     1       0.803   0.013   0.232  0.00  0.00    -0.111 NA
BRANCH   9  12
ATOM     11  C   UNL     1       3.106  -1.413   1.001  0.00  0.00    +0.136 C 
ATOM     12  N   UNL     1       3.018  -0.369  -0.017  0.00  0.00    -0.211 N 
ATOM     13  C   UNL     1       3.714   0.875   0.297  0.00  0.00    +0.136 C 
ENDBRANCH   9  12
ENDBRANCH   1  10
TORSDOF 3
