REMARK  Name = 
REMARK  9 active torsions:
REMARK  status: ('A' for Active; 'I' for Inactive)
REMARK    1  A    between atoms: C_13  and  C_14
REMARK    2  A    between atoms: C_14  and  N_15
REMARK    3  A    between atoms: N_15  and  C_16
REMARK    4  A    between atoms: C_19  and  C_20
REMARK    5  A    between atoms: N_22  and  CA_23
REMARK    6  A    between atoms: CA_23  and  CB_24
REMARK    7  A    between atoms: CA_23  and  C_29
REMARK    8  A    between atoms: CB_24  and  CG_25
REMARK    9  A    between atoms: CG_25  and  CD_26
REMARK                            x       y       z     vdW  Elec       q    Type
REMARK                         _______ _______ _______ _____ _____    ______ ____
ROOT
ATOM      1  C   UNK A   0      -0.235  -0.134   0.040  0.00  0.00    +0.065 A 
ATOM      2  C   UNK A   0      -0.094  -1.407  -0.501  0.00  0.00    +0.016 A 
ATOM      3  C   UNK A   0       1.198  -1.722  -0.927  0.00  0.00    +0.006 A 
ATOM      4  C   UNK A   0       2.127  -0.728  -1.225  0.00  0.00    +0.055 A 
ATOM      5  C   UNK A   0       1.544   0.530  -1.361  0.00  0.00    +0.006 A 
ATOM      6  C   UNK A   0       0.363   0.866  -0.705  0.00  0.00    +0.016 A 
ENDROOT
BRANCH   4   7
ATOM      7  C   UNK A   0       3.551  -0.868  -0.868  0.00  0.00    +0.265 C 
ATOM      8  N   GLU A   1       4.409   0.063  -1.502  0.00  0.00    -0.192 NA
ATOM      9  O   UNK A   0       3.744  -1.179   0.347  0.00  0.00    -0.268 OA
BRANCH   8  10
ATOM     10  CA  GLU A   1       5.720   0.432  -0.669  0.00  0.00    +0.199 C 
BRANCH  10  11
ATOM     11  C   GLU A   1       6.609   0.608  -2.028  0.00  0.00    +0.384 C 
ATOM     12  OXT GLU A   1       7.323   1.768  -2.098  0.00  0.00    -0.244 OA
ATOM     13  O   GLU A   1       6.501  -0.282  -2.873  0.00  0.00    -0.244 OA
ENDBRANCH  10  11
BRANCH  10  14
ATOM     14  CB  GLU A   1       6.156  -1.169  -0.496  0.00  0.00    +0.045 C 
BRANCH  14  15
ATOM     15  CG  GLU A   1       6.828  -1.252   0.837  0.00  0.00    +0.116 C 
BRANCH  15  16
ATOM     16  CD  GLU A   1       6.850   0.001   1.601  0.00  0.00    +0.365 C 
ATOM     17  OE2 GLU A   1       7.535   1.144   1.273  0.00  0.00    -0.246 OA
ATOM     18  OE1 GLU A   1       6.104   0.079   2.623  0.00  0.00    -0.246 OA
ENDBRANCH  15  16
ENDBRANCH  14  15
ENDBRANCH  10  14
ENDBRANCH   8  10
ENDBRANCH   4   7
BRANCH   1  19
ATOM     19  N   UNK A   0      -0.908   0.111   1.281  0.00  0.00    -0.236 NA
BRANCH  19  20
ATOM     20  C   UNK A   0      -2.280  -0.398   1.243  0.00  0.00    +0.134 C 
BRANCH  20  23
ATOM     21  C   UNK A   0      -3.884   1.605   1.958  0.00  0.00    +0.112 C 
ATOM     22  N   UNK A   0      -4.185   0.847   0.769  0.00  0.00    -0.298 N 
ATOM     23  C   UNK A   0      -2.823   0.573   0.003  0.00  0.00    +0.116 C 
ATOM     24  C   UNK A   0      -3.345  -0.746  -0.869  0.00  0.00    +0.135 C 
ATOM     25  N   UNK A   0      -4.612  -0.304  -1.461  0.00  0.00    -0.217 NA
ATOM     26  C   UNK A   0      -5.672  -0.439  -0.501  0.00  0.00    +0.169 A 
ATOM     27  N   UNK A   0      -6.951  -0.667  -0.786  0.00  0.00    -0.193 NA
ATOM     28  C   UNK A   0      -7.882  -0.456   0.181  0.00  0.00    +0.260 A 
ATOM     29  N   UNK A   0      -7.423  -0.409   1.457  0.00  0.00    -0.171 NA
ATOM     30  C   UNK A   0      -6.162  -0.060   1.764  0.00  0.00    +0.298 A 
ATOM     31  O   UNK A   0      -5.787   0.297   2.911  0.00  0.00    -0.264 OA
ATOM     32  N   UNK A   0      -9.127   0.152  -0.188  0.00  0.00    -0.086 NA
ATOM     33  C   UNK A   0      -5.194  -0.112   0.768  0.00  0.00    +0.140 A 
ENDBRANCH  20  23
ENDBRANCH  19  20
ENDBRANCH   1  19
TORSDOF 9
