REMARK  Name = 
REMARK  5 active torsions:
REMARK  status: ('A' for Active; 'I' for Inactive)
REMARK    1  A    between atoms: C_2  and  C_4
REMARK    2  A    between atoms: C_4  and  C_5
REMARK    3  A    between atoms: C_5  and  C_7
REMARK    4  A    between atoms: C_5  and  C_11
REMARK    5  A    between atoms: C_7  and  C_8
REMARK                            x       y       z     vdW  Elec       q    Type
REMARK                         _______ _______ _______ _____ _____    ______ ____
ROOT
ATOM      1  C   UNL     1       0.144   0.143   0.330  0.00  0.00    +0.240 C 
ATOM      2  O   UNL     1       0.904   0.354   1.492  0.00  0.00    -0.213 OA
ENDROOT
BRANCH   1   3
ATOM      3  C   UNL     1      -0.540   1.422  -0.042  0.00  0.00    +0.393 C 
ATOM      4  O   UNL     1      -1.104   1.437  -1.321  0.00  0.00    -0.243 OA
ATOM      5  O   UNL     1       0.053   2.484   0.315  0.00  0.00    -0.243 OA
ENDBRANCH   1   3
BRANCH   1   6
ATOM      6  C   UNL     1       1.115  -0.140  -0.813  0.00  0.00    +0.156 C 
BRANCH   6   8
ATOM      7  O   UNL     1       2.498  -2.001  -0.563  0.00  0.00    -0.246 OA
ATOM      8  C   UNL     1       2.370  -0.760  -0.338  0.00  0.00    +0.368 C 
ATOM      9  O   UNL     1       3.531   0.014  -0.438  0.00  0.00    -0.246 OA
ENDBRANCH   6   8
ENDBRANCH   1   6
BRANCH   1  10
ATOM     10  C   UNL     1      -0.844  -0.990   0.510  0.00  0.00    +0.156 C 
BRANCH  10  11
ATOM     11  C   UNL     1      -2.256  -0.527   0.353  0.00  0.00    +0.368 C 
ATOM     12  O   UNL     1      -2.875  -0.819  -0.867  0.00  0.00    -0.246 OA
ATOM     13  O   UNL     1      -2.995  -0.618   1.380  0.00  0.00    -0.246 OA
ENDBRANCH  10  11
ENDBRANCH   1  10
TORSDOF 5
