REMARK  Name = 
REMARK  4 active torsions:
REMARK  status: ('A' for Active; 'I' for Inactive)
REMARK    1  A    between atoms: CA_3  and  C_4
REMARK    2  A    between atoms: CA_10  and  N_11
REMARK    3  A    between atoms: C_12  and  CA_14
REMARK    4  A    between atoms: CA_14  and  C_16
REMARK                            x       y       z     vdW  Elec       q    Type
REMARK                         _______ _______ _______ _____ _____    ______ ____
ROOT
ATOM      1  C   UNL     1       5.684  -0.517   0.866  0.00  0.00    +0.029 C 
ATOM      2  C   UNL     1       4.231  -0.550   0.852  0.00  0.00    -0.013 C 
ATOM      3  C   UNL     1       3.618  -1.917   0.938  0.00  0.00    +0.083 C 
ATOM      4  S   UNL     1       1.824  -1.836   0.602  0.00  0.00    -0.114 S 
ATOM      5  C   UNL     1       1.429  -0.089   1.260  0.00  0.00    +0.157 C 
ATOM      6  N   UNL     1       2.183   0.544   0.096  0.00  0.00    -0.242 N 
ATOM      7  C   UNL     1       1.160   0.235  -0.884  0.00  0.00    +0.253 C 
ATOM      8  O   UNL     1       0.959   0.596  -2.055  0.00  0.00    -0.273 OA
ATOM      9  CA  UNL     1       0.087   0.389   0.333  0.00  0.00    +0.200 C 
ATOM     10  CA  UNL     1       3.605   0.438   0.209  0.00  0.00    +0.128 C 
ENDROOT
BRANCH   9  11
ATOM     11  N   UNL     1      -0.542  -1.073   0.130  0.00  0.00    -0.194 NA
ATOM     12  C   UNL     1      -1.626  -0.993  -0.778  0.00  0.00    +0.264 C 
ATOM     13  O   UNL     1      -1.784  -0.143  -1.657  0.00  0.00    -0.271 OA
BRANCH  12  14
ATOM     14  CA  UNL     1      -2.988  -1.764  -0.280  0.00  0.00    +0.191 C 
ATOM     15  N   UNL     1      -3.444  -2.069  -1.792  0.00  0.00    -0.118 NA
BRANCH  14  16
ATOM     16  C   UNL     1      -3.852  -0.367  -0.236  0.00  0.00    +0.004 A 
ATOM     17  C   UNL     1      -5.163  -0.485  -0.573  0.00  0.00    -0.002 A 
ATOM     18  C   UNL     1      -5.931   0.663  -0.408  0.00  0.00    -0.000 A 
ATOM     19  C   UNL     1      -5.384   1.771   0.230  0.00  0.00    -0.000 A 
ATOM     20  C   UNL     1      -4.134   1.683   0.836  0.00  0.00    -0.000 A 
ATOM     21  C   UNL     1      -3.401   0.508   0.732  0.00  0.00    -0.002 A 
ENDBRANCH  14  16
ENDBRANCH  12  14
ENDBRANCH   9  11
BRANCH  10  22
ATOM     22  C   UNL     1       4.350   1.365  -0.653  0.00  0.00    +0.401 C 
ATOM     23  OXT UNL     1       3.864   2.642  -0.914  0.00  0.00    -0.239 OA
ATOM     24  O   UNL     1       5.255   0.971  -1.450  0.00  0.00    -0.239 OA
ENDBRANCH  10  22
TORSDOF 4
