REMARK  Name = 
REMARK  2 active torsions:
REMARK  status: ('A' for Active; 'I' for Inactive)
REMARK    1  A    between atoms: CA_2  and  CB_3
REMARK    2  A    between atoms: CA_2  and  C_5
REMARK                            x       y       z     vdW  Elec       q    Type
REMARK                         _______ _______ _______ _____ _____    ______ ____
ROOT
ATOM      1  N   CYS A   1      -0.509   1.708   0.506  0.00  0.00    -0.120 NA
ATOM      2  CA  CYS A   1       0.148   0.774  -0.582  0.00  0.00    +0.206 C 
ENDROOT
BRANCH   2   3
ATOM      3  C   CYS A   1      -0.751  -0.486  -0.144  0.00  0.00    +0.383 C 
ATOM      4  OXT CYS A   1      -2.039  -0.389  -0.642  0.00  0.00    -0.244 OA
ATOM      5  O   CYS A   1      -0.536  -1.089   0.887  0.00  0.00    -0.244 OA
ENDBRANCH   2   3
BRANCH   2   6
ATOM      6  CB  CYS A   1       1.412   0.411   0.410  0.00  0.00    +0.099 C 
ATOM      7  SG  CYS A   1       2.274  -0.928  -0.434  0.00  0.00    -0.080 S 
ENDBRANCH   2   6
TORSDOF 2
