REMARK  Name = 
REMARK  3 active torsions:
REMARK  status: ('A' for Active; 'I' for Inactive)
REMARK    1  A    between atoms: O_2  and  C_3
REMARK    2  A    between atoms: C_12  and  C_14
REMARK    3  A    between atoms: C_26  and  O_27
REMARK                            x       y       z     vdW  Elec       q    Type
REMARK                         _______ _______ _______ _____ _____    ______ ____
ROOT
ATOM      1  C   UNL     1       4.603  -1.134  -0.029  0.00  0.00    +0.174 A 
ATOM      2  C   UNL     1       5.115   0.087   0.310  0.00  0.00    +0.173 A 
ATOM      3  C   UNL     1       4.201   1.112   0.518  0.00  0.00    +0.044 A 
ATOM      4  C   UNL     1       2.893   1.024   0.068  0.00  0.00    +0.056 A 
ATOM      5  C   UNL     1       2.416  -0.175  -0.427  0.00  0.00    +0.090 A 
ATOM      6  N   UNL     1       1.080  -0.309  -0.463  0.00  0.00    -0.213 NA
ATOM      7  C   UNL     1       0.259   0.580   0.148  0.00  0.00    +0.221 A 
ATOM      8  N   UNL     1       0.706   1.840   0.308  0.00  0.00    -0.195 NA
ATOM      9  N   UNL     1      -1.141   0.364  -0.080  0.00  0.00    -0.275 N 
ATOM     10  C   UNL     1      -1.624  -0.886   0.495  0.00  0.00    +0.115 C 
ATOM     11  C   UNL     1      -3.075  -1.135   0.248  0.00  0.00    +0.115 C 
ATOM     12  N   UNL     1      -3.629  -0.171  -0.680  0.00  0.00    -0.274 N 
ATOM     13  C   UNL     1      -4.434   0.905  -0.316  0.00  0.00    +0.253 C 
ATOM     14  O   UNL     1      -4.727   1.807  -1.148  0.00  0.00    -0.272 OA
ATOM     15  C   UNL     1      -2.789   0.020  -1.863  0.00  0.00    +0.115 C 
ATOM     16  C   UNL     1      -1.631   0.872  -1.358  0.00  0.00    +0.115 C 
ATOM     17  C   UNL     1       2.034   2.090   0.244  0.00  0.00    +0.174 A 
ATOM     18  N   UNL     1       2.559   3.417   0.269  0.00  0.00    -0.107 NA
ATOM     19  C   UNL     1       3.298  -1.225  -0.496  0.00  0.00    +0.059 A 
ENDROOT
BRANCH  13  20
ATOM     20  C   UNL     1      -5.872   0.528   0.409  0.00  0.00    +0.191 C 
ATOM     21  O   UNL     1      -5.183  -0.418   1.428  0.00  0.00    -0.347 OA
ATOM     22  C   UNL     1      -6.323  -1.158   1.744  0.00  0.00    +0.143 C 
ATOM     23  C   UNL     1      -6.916  -1.583   0.410  0.00  0.00    +0.035 C 
ATOM     24  C   UNL     1      -6.169  -0.765  -0.635  0.00  0.00    +0.042 C 
ENDBRANCH  13  20
BRANCH   1  26
ATOM     25  C   UNL     1       4.923  -3.485  -0.298  0.00  0.00    +0.253 C 
ATOM     26  O   UNL     1       5.475  -2.185  -0.212  0.00  0.00    -0.468 OA
ENDBRANCH   1  26
BRANCH   2  27
ATOM     27  O   UNL     1       6.446   0.430   0.261  0.00  0.00    -0.468 OA
ATOM     28  C   UNL     1       7.505  -0.451  -0.006  0.00  0.00    +0.253 C 
ENDBRANCH   2  27
TORSDOF 3
