REMARK  Name = 
REMARK  4 active torsions:
REMARK  status: ('A' for Active; 'I' for Inactive)
REMARK    1  A    between atoms: N_2  and  O_4
REMARK    2  A    between atoms: O_4  and  C_5
REMARK    3  A    between atoms: C_9  and  O_10
REMARK    4  A    between atoms: O_10  and  N_11
REMARK                            x       y       z     vdW  Elec       q    Type
REMARK                         _______ _______ _______ _____ _____    ______ ____
ROOT
ATOM      1  C   UNL     1      -1.388  -1.235  -0.502  0.00  0.00    +0.307 C 
ATOM      2  C   UNL     1      -0.014  -0.290  -0.878  0.00  0.00    +0.196 C 
ATOM      3  C   UNL     1       0.906  -0.978   0.373  0.00  0.00    +0.196 C 
ATOM      4  C   UNL     1       1.208   0.530   1.136  0.00  0.00    +0.307 C 
ATOM      5  C   UNL     1       0.953   1.382  -0.237  0.00  0.00    +0.196 C 
ATOM      6  O   UNL     1      -0.199  -1.256   1.317  0.00  0.00    -0.345 OA
ATOM      7  O   UNL     1      -0.390   0.939  -0.111  0.00  0.00    -0.345 OA
ATOM      8  C   UNL     1      -1.304  -0.722   1.037  0.00  0.00    +0.196 C 
ENDROOT
BRANCH   1   9
ATOM      9  O   UNL     1      -2.380  -0.151  -0.926  0.00  0.00    -0.199 OA
BRANCH   9  11
ATOM     10  O   UNL     1      -3.755   1.013  -0.039  0.00  0.00    +0.093 OA
ATOM     11  N   UNL     1      -3.457   0.085  -0.127  0.00  0.00    +0.285 N 
ATOM     12  O   UNL     1      -4.478  -0.817   0.118  0.00  0.00    -0.534 OA
ENDBRANCH   9  11
ENDBRANCH   1   9
BRANCH   4  13
ATOM     13  O   UNL     1       2.717   0.427   0.983  0.00  0.00    -0.199 OA
BRANCH  13  14
ATOM     14  N   UNL     1       3.408   0.420  -0.126  0.00  0.00    +0.285 N 
ATOM     15  O   UNL     1       4.054  -0.775  -0.454  0.00  0.00    -0.534 OA
ATOM     16  O   UNL     1       4.120   1.430  -0.397  0.00  0.00    +0.093 OA
ENDBRANCH  13  14
ENDBRANCH   4  13
TORSDOF 4
