REMARK  Name = 
REMARK  7 active torsions:
REMARK  status: ('A' for Active; 'I' for Inactive)
REMARK    1  A    between atoms: C_2  and  C_3
REMARK    2  A    between atoms: C_3  and  N_4
REMARK    3  A    between atoms: N_4  and  C_5
REMARK    4  A    between atoms: C_5  and  C_7
REMARK    5  A    between atoms: N_9  and  C_10
REMARK    6  A    between atoms: C_15  and  C_16
REMARK    7  A    between atoms: C_16  and  O_18
REMARK                            x       y       z     vdW  Elec       q    Type
REMARK                         _______ _______ _______ _____ _____    ______ ____
ROOT
ATOM      1  C   UNL     1      -1.167  -0.735  -0.305  0.00  0.00    +0.082 A 
ATOM      2  C   UNL     1      -2.394  -0.410   0.236  0.00  0.00    +0.120 A 
ATOM      3  S   UNL     1      -3.455  -1.437  -0.635  0.00  0.00    -0.079 S 
ATOM      4  C   UNL     1      -2.276  -2.373  -1.456  0.00  0.00    +0.033 A 
ATOM      5  C   UNL     1      -1.120  -2.021  -0.772  0.00  0.00    +0.001 A 
ATOM      6  C   UNL     1       0.125  -2.825  -1.008  0.00  0.00    +0.033 C 
ENDROOT
BRANCH   1   8
ATOM      7  C   UNL     1       0.945   0.313  -0.866  0.00  0.00    +0.261 C 
ATOM      8  N   UNL     1       0.020  -0.073   0.164  0.00  0.00    -0.178 NA
ATOM      9  O   UNL     1       0.439   1.080  -1.742  0.00  0.00    -0.271 OA
BRANCH   7  10
ATOM     10  C   UNL     1       2.315   0.962  -0.230  0.00  0.00    +0.151 C 
ATOM     11  C   UNL     1       3.044   1.030  -1.736  0.00  0.00    +0.029 C 
BRANCH  10  12
ATOM     12  N   UNL     1       2.927  -0.495   0.042  0.00  0.00    -0.210 NA
BRANCH  12  13
ATOM     13  C   UNL     1       4.343  -0.271  -0.120  0.00  0.00    +0.089 C 
BRANCH  13  15
ATOM     14  C   UNL     1       4.615   1.867   1.065  0.00  0.00    +0.002 C 
ATOM     15  C   UNL     1       4.857   0.377   1.157  0.00  0.00    +0.019 C 
ENDBRANCH  13  15
ENDBRANCH  12  13
ENDBRANCH  10  12
ENDBRANCH   7  10
ENDBRANCH   1   8
BRANCH   2  16
ATOM     16  C   UNL     1      -2.722   0.582   1.268  0.00  0.00    +0.349 C 
ATOM     17  O   UNL     1      -3.003   0.123   2.396  0.00  0.00    -0.244 OA
BRANCH  16  18
ATOM     18  O   UNL     1      -3.189   1.857   0.952  0.00  0.00    -0.441 OA
ATOM     19  C   UNL     1      -4.304   2.448   1.588  0.00  0.00    +0.256 C 
ENDBRANCH  16  18
ENDBRANCH   2  16
TORSDOF 7
