REMARK  Name = 
REMARK  2 active torsions:
REMARK  status: ('A' for Active; 'I' for Inactive)
REMARK    1  A    between atoms: C_2  and  C_3
REMARK    2  A    between atoms: C_6  and  C_7
REMARK                            x       y       z     vdW  Elec       q    Type
REMARK                         _______ _______ _______ _____ _____    ______ ____
ROOT
ATOM      1  C   UNL     1       1.681   0.680  -0.445  0.00  0.00    +0.019 C 
ATOM      2  C   UNL     1       0.385   0.932   0.515  0.00  0.00    +0.002 C 
ATOM      3  C   UNL     1      -0.092  -0.387   0.994  0.00  0.00    +0.011 C 
ATOM      4  C   UNL     1      -1.143  -0.965  -0.124  0.00  0.00    +0.103 C 
ATOM      5  C   UNL     1      -0.338  -0.323  -1.399  0.00  0.00    +0.011 C 
ATOM      6  C   UNL     1       1.101  -0.714  -1.067  0.00  0.00    +0.002 C 
ENDROOT
BRANCH   4   7
ATOM      7  C   UNL     1      -2.134   0.293   0.020  0.00  0.00    +0.364 C 
ATOM      8  O   UNL     1      -3.283   0.044  -0.751  0.00  0.00    -0.246 OA
ATOM      9  O   UNL     1      -2.493   0.378   1.241  0.00  0.00    -0.246 OA
ENDBRANCH   4   7
BRANCH   1  11
ATOM     10  N   UNL     1       3.833  -0.041   0.267  0.00  0.00    -0.131 NA
ATOM     11  C   UNL     1       2.483  -0.091   0.750  0.00  0.00    +0.109 C 
ENDBRANCH   1  11
TORSDOF 2
