REMARK  Name = 
REMARK  7 active torsions:
REMARK  status: ('A' for Active; 'I' for Inactive)
REMARK    1  A    between atoms: C_2  and  C_3
REMARK    2  A    between atoms: C_6  and  C_7
REMARK    3  A    between atoms: C_7  and  C_8
REMARK    4  A    between atoms: C_8  and  O_9
REMARK    5  A    between atoms: O_9  and  C_10
REMARK    6  A    between atoms: C_13  and  C_14
REMARK    7  A    between atoms: C_14  and  C_15
REMARK                            x       y       z     vdW  Elec       q    Type
REMARK                         _______ _______ _______ _____ _____    ______ ____
ROOT
ATOM      1  C   UNL     1       0.179   0.930  -0.418  0.00  0.00    +0.139 A 
ATOM      2  C   UNL     1      -0.282  -0.237  -1.010  0.00  0.00    +0.037 A 
ATOM      3  C   UNL     1      -1.585  -0.174  -1.493  0.00  0.00    -0.001 A 
ATOM      4  C   UNL     1      -2.539   0.446  -0.692  0.00  0.00    -0.021 A 
ATOM      5  C   UNL     1      -2.044   1.487   0.088  0.00  0.00    -0.001 A 
ATOM      6  C   UNL     1      -0.724   1.907  -0.012  0.00  0.00    +0.037 A 
ENDROOT
BRANCH   4   7
ATOM      7  C   UNL     1      -3.939   0.606  -1.145  0.00  0.00    +0.047 C 
BRANCH   7   8
ATOM      8  C   UNL     1      -4.533  -0.841  -1.470  0.00  0.00    +0.139 C 
ATOM      9  C   UNL     1      -4.486  -1.340   0.017  0.00  0.00    +0.259 C 
ATOM     10  O   UNL     1      -3.372  -1.822   0.393  0.00  0.00    -0.272 OA
ATOM     11  N   UNL     1      -5.683  -2.106   0.210  0.00  0.00    -0.135 NA
ATOM     12  C   UNL     1      -6.735  -1.131   0.189  0.00  0.00    +0.299 C 
ATOM     13  O   UNL     1      -7.910  -1.452   0.543  0.00  0.00    -0.261 OA
ATOM     14  S   UNL     1      -6.352  -0.250  -1.333  0.00  0.00    -0.046 S 
ENDBRANCH   7   8
ENDBRANCH   4   7
BRANCH   1  15
ATOM     15  O   UNL     1       1.546   1.101  -0.174  0.00  0.00    -0.475 OA
BRANCH  15  16
ATOM     16  C   UNL     1       1.955   2.234   0.583  0.00  0.00    +0.212 C 
BRANCH  16  17
ATOM     17  C   UNL     1       3.338   2.715   0.154  0.00  0.00    +0.093 C 
BRANCH  17  21
ATOM     18  C   UNL     1       5.692  -0.745  -0.507  0.00  0.00    -0.003 A 
ATOM     19  C   UNL     1       5.888   0.445  -1.180  0.00  0.00    +0.094 A 
ATOM     20  N   UNL     1       5.141   1.538  -0.946  0.00  0.00    -0.248 NA
ATOM     21  C   UNL     1       4.134   1.477  -0.066  0.00  0.00    +0.063 A 
ATOM     22  C   UNL     1       4.003   0.364   0.756  0.00  0.00    +0.015 A 
ATOM     23  C   UNL     1       4.807  -0.732   0.565  0.00  0.00    -0.002 A 
BRANCH  18  25
ATOM     24  C   UNL     1       7.278  -2.375  -0.303  0.00  0.00    +0.005 C 
ATOM     25  C   UNL     1       6.220  -2.046  -0.998  0.00  0.00    +0.028 C 
ENDBRANCH  18  25
ENDBRANCH  17  21
ENDBRANCH  16  17
ENDBRANCH  15  16
ENDBRANCH   1  15
TORSDOF 7
