REMARK  Name = 
REMARK  11 active torsions:
REMARK  status: ('A' for Active; 'I' for Inactive)
REMARK    1  A    between atoms: C_2  and  N_24
REMARK    2  A    between atoms: N_3  and  C_4
REMARK    3  A    between atoms: C_4  and  C_5
REMARK    4  A    between atoms: C_5  and  C_6
REMARK    5  A    between atoms: C_6  and  C_7
REMARK    6  A    between atoms: C_7  and  C_8
REMARK    7  A    between atoms: C_8  and  C_9
REMARK    8  A    between atoms: C_9  and  N_10
REMARK    9  A    between atoms: C_11  and  N_13
REMARK   10  A    between atoms: N_16  and  C_17
REMARK   11  A    between atoms: N_27  and  C_28
REMARK                            x       y       z     vdW  Elec       q    Type
REMARK                         _______ _______ _______ _____ _____    ______ ____
ROOT
ATOM      1  C   UNL     1      -0.042  -0.942  -0.331  0.00  0.00    +0.004 C 
ENDROOT
BRANCH   1   2
ATOM      2  C   UNL     1       0.194  -1.087  -1.809  0.00  0.00    +0.047 C 
BRANCH   2   3
ATOM      3  C   UNL     1      -1.064  -0.937  -2.616  0.00  0.00    +0.220 C 
BRANCH   3   6
ATOM      4  N   UNL     1      -3.464  -0.484  -3.842  0.00  0.00    +0.132 NA
ATOM      5  C   UNL     1      -3.244  -0.124  -2.474  0.00  0.00    +0.505 C 
ATOM      6  N   UNL     1      -2.051  -0.091  -1.958  0.00  0.00    -0.089 NA
BRANCH   5   7
ATOM      7  N   UNL     1      -4.415   0.149  -1.702  0.00  0.00    +0.011 NA
ATOM      8  C   UNL     1      -4.312   0.644  -0.504  0.00  0.00    +0.510 C 
ATOM      9  N   UNL     1      -5.280   0.301   0.465  0.00  0.00    -0.063 NA
ATOM     10  N   UNL     1      -3.278   1.593  -0.302  0.00  0.00    +0.133 NA
BRANCH   9  11
ATOM     11  C   UNL     1      -6.628   0.030   0.065  0.00  0.00    +0.159 A 
ATOM     12  C   UNL     1      -7.197  -1.187   0.406  0.00  0.00    +0.038 A 
ATOM     13  C   UNL     1      -8.570  -1.279   0.594  0.00  0.00    +0.014 A 
ATOM     14  C   UNL     1      -9.385  -0.156   0.613  0.00  0.00    +0.058 A 
ATOM     15 CL   UNL     1     -10.728  -0.066   1.748  0.00  0.00    -0.082 Cl
ATOM     16  C   UNL     1      -8.829   1.012   0.137  0.00  0.00    +0.014 A 
ATOM     17  C   UNL     1      -7.504   1.065  -0.236  0.00  0.00    +0.038 A 
ENDBRANCH   9  11
ENDBRANCH   5   7
ENDBRANCH   3   6
ENDBRANCH   2   3
ENDBRANCH   1   2
BRANCH   1  18
ATOM     18  C   UNL     1       0.469  -2.113   0.465  0.00  0.00    +0.004 C 
BRANCH  18  19
ATOM     19  C   UNL     1       1.893  -1.940   0.923  0.00  0.00    +0.047 C 
BRANCH  19  20
ATOM     20  C   UNL     1       2.407  -0.558   0.632  0.00  0.00    +0.220 C 
BRANCH  20  21
ATOM     21  N   UNL     1       3.342  -0.611  -0.488  0.00  0.00    -0.089 NA
ATOM     22  C   UNL     1       4.184   0.356  -0.726  0.00  0.00    +0.505 C 
ATOM     23  N   UNL     1       4.484   0.507  -2.124  0.00  0.00    +0.132 NA
BRANCH  22  24
ATOM     24  N   UNL     1       3.816   1.590  -0.090  0.00  0.00    +0.011 NA
ATOM     25  C   UNL     1       4.793   2.434   0.071  0.00  0.00    +0.510 C 
ATOM     26  N   UNL     1       6.076   1.867   0.310  0.00  0.00    -0.063 NA
ATOM     27  N   UNL     1       4.466   3.785   0.368  0.00  0.00    +0.133 NA
BRANCH  26  28
ATOM     28  C   UNL     1       6.153   0.491   0.717  0.00  0.00    +0.159 A 
ATOM     29  C   UNL     1       7.301  -0.161   0.271  0.00  0.00    +0.038 A 
ATOM     30  C   UNL     1       7.858  -1.222   0.963  0.00  0.00    +0.014 A 
ATOM     31  C   UNL     1       7.528  -1.414   2.280  0.00  0.00    +0.058 A 
ATOM     32 CL   UNL     1       8.704  -2.182   3.343  0.00  0.00    -0.082 Cl
ATOM     33  C   UNL     1       6.388  -0.808   2.751  0.00  0.00    +0.014 A 
ATOM     34  C   UNL     1       5.936   0.309   2.082  0.00  0.00    +0.038 A 
ENDBRANCH  26  28
ENDBRANCH  22  24
ENDBRANCH  20  21
ENDBRANCH  19  20
ENDBRANCH  18  19
ENDBRANCH   1  18
TORSDOF 11
