REMARK  Name = 
REMARK  5 active torsions:
REMARK  status: ('A' for Active; 'I' for Inactive)
REMARK    1  A    between atoms: C_6  and  O_7
REMARK    2  A    between atoms: O_7  and  C_8
REMARK    3  A    between atoms: C_8  and  C_10
REMARK    4  A    between atoms: C_10  and  C_11
REMARK    5  A    between atoms: C_10  and  C_13
REMARK                            x       y       z     vdW  Elec       q    Type
REMARK                         _______ _______ _______ _____ _____    ______ ____
ROOT
ATOM      1  O   UNL     1       0.077   0.568  -0.545  0.00  0.00    -0.452 OA
ENDROOT
BRANCH   1   9
ATOM      2  C   UNL     1      -3.586   1.509  -0.113  0.00  0.00    +0.170 C 
ATOM      3  N   UNL     1      -3.494   0.410   0.288  0.00  0.00    +0.302 N 
ATOM      4  C   UNL     1      -2.869  -0.455  -0.966  0.00  0.00    +0.093 C 
ATOM      5  C   UNL     1      -3.293  -2.108  -0.796  0.00  0.00    +0.197 C 
ATOM      6  C   UNL     1      -3.173  -1.259   0.520  0.00  0.00    +0.197 C 
ATOM      7  O   UNL     1      -4.707  -1.755   0.000  0.00  0.00    -0.342 OA
ATOM      8  C   UNL     1      -1.466  -1.026  -0.244  0.00  0.00    +0.101 C 
ATOM      9  C   UNL     1      -1.281   0.527   0.189  0.00  0.00    +0.180 C 
ATOM     10  C   UNL     1      -2.084   0.667  -1.226  0.00  0.00    +0.101 C 
ATOM     11  C   UNL     1      -3.585  -0.148  -0.926  0.00  0.00    +0.093 C 
ATOM     12  C   UNL     1      -4.683   0.291   0.808  0.00  0.00    +0.170 C 
ENDBRANCH   1   9
BRANCH   1  13
ATOM     13  C   UNL     1       0.898   1.101   0.431  0.00  0.00    +0.323 C 
ATOM     14  O   UNL     1       0.505   2.298   0.674  0.00  0.00    -0.250 OA
BRANCH  13  15
ATOM     15  C   UNL     1       2.435   1.380   0.036  0.00  0.00    +0.154 C 
BRANCH  15  16
ATOM     16  C   UNL     1       3.000  -0.018   0.624  0.00  0.00    -0.009 A 
ATOM     17  C   UNL     1       3.969   0.466   1.501  0.00  0.00    -0.004 A 
ATOM     18  C   UNL     1       5.316   0.348   1.231  0.00  0.00    -0.000 A 
ATOM     19  C   UNL     1       5.689  -0.880   0.685  0.00  0.00    -0.000 A 
ATOM     20  C   UNL     1       4.661  -1.673   0.200  0.00  0.00    -0.000 A 
ATOM     21  C   UNL     1       3.470  -1.016  -0.130  0.00  0.00    -0.004 A 
ENDBRANCH  15  16
BRANCH  15  22
ATOM     22  C   UNL     1       2.352   0.953  -1.535  0.00  0.00    +0.198 C 
ATOM     23  O   UNL     1       1.847  -0.182  -1.812  0.00  0.00    -0.219 OA
ENDBRANCH  15  22
ENDBRANCH  13  15
ENDBRANCH   1  13
TORSDOF 5
