REMARK  Name = 
REMARK  5 active torsions:
REMARK  status: ('A' for Active; 'I' for Inactive)
REMARK    1  A    between atoms: C_7  and  O_8
REMARK    2  A    between atoms: O_8  and  C_9
REMARK    3  A    between atoms: C_9  and  C_11
REMARK    4  A    between atoms: C_11  and  C_13
REMARK    5  A    between atoms: C_11  and  C_19
REMARK                            x       y       z     vdW  Elec       q    Type
REMARK                         _______ _______ _______ _____ _____    ______ ____
ROOT
ATOM      1  C   UNL     1      -1.168  -0.090   0.312  0.00  0.00    +0.252 C 
ATOM      2  O   UNL     1      -1.245   0.052   1.693  0.00  0.00    -0.205 OA
ENDROOT
BRANCH   1   3
ATOM      3  C   UNL     1      -1.911  -1.301  -0.083  0.00  0.00    +0.019 A 
ATOM      4  C   UNL     1      -3.160  -1.492   0.493  0.00  0.00    -0.001 A 
ATOM      5  C   UNL     1      -4.069  -2.369  -0.085  0.00  0.00    -0.000 A 
ATOM      6  C   UNL     1      -3.518  -3.294  -0.963  0.00  0.00    -0.000 A 
ATOM      7  C   UNL     1      -2.148  -3.414  -1.108  0.00  0.00    -0.000 A 
ATOM      8  C   UNL     1      -1.327  -2.411  -0.651  0.00  0.00    -0.001 A 
ENDBRANCH   1   3
BRANCH   1   9
ATOM      9  C   UNL     1      -1.778   1.131  -0.290  0.00  0.00    +0.019 A 
ATOM     10  C   UNL     1      -3.166   1.187  -0.263  0.00  0.00    -0.001 A 
ATOM     11  C   UNL     1      -3.848   2.355  -0.554  0.00  0.00    -0.000 A 
ATOM     12  C   UNL     1      -3.138   3.535  -0.552  0.00  0.00    -0.000 A 
ATOM     13  C   UNL     1      -1.783   3.517  -0.276  0.00  0.00    -0.000 A 
ATOM     14  C   UNL     1      -1.088   2.316  -0.221  0.00  0.00    -0.001 A 
ENDBRANCH   1   9
BRANCH   1  15
ATOM     15  C   UNL     1       0.283  -0.172  -0.019  0.00  0.00    +0.353 C 
ATOM     16  O   UNL     1       0.834  -1.297   0.191  0.00  0.00    -0.247 OA
BRANCH  15  17
ATOM     17  O   UNL     1       1.065   0.893   0.452  0.00  0.00    -0.444 OA
BRANCH  17  21
ATOM     18  C   UNL     1       4.259  -0.674   0.123  0.00  0.00    +0.171 C 
ATOM     19  N   UNL     1       4.225  -0.652   0.121  0.00  0.00    +0.309 N 
ATOM     20  C   UNL     1       2.817  -0.597   0.313  0.00  0.00    +0.153 C 
ATOM     21  C   UNL     1       2.476   0.942  -0.166  0.00  0.00    +0.224 C 
ATOM     22  C   UNL     1       3.114   1.576   1.212  0.00  0.00    +0.056 C 
ATOM     23  C   UNL     1       4.613   1.524   0.997  0.00  0.00    +0.065 C 
ATOM     24  C   UNL     1       4.895   0.574  -0.144  0.00  0.00    +0.109 C 
ATOM     25  C   UNL     1       4.764  -1.841  -0.453  0.00  0.00    +0.171 C 
ENDBRANCH  17  21
ENDBRANCH  15  17
ENDBRANCH   1  15
TORSDOF 5
