REMARK  Name = 
REMARK  26 active torsions:
REMARK  status: ('A' for Active; 'I' for Inactive)
REMARK    1  A    between atoms: O_2  and  C_3
REMARK    2  A    between atoms: C_6  and  C_7
REMARK    3  A    between atoms: C_7  and  C_8
REMARK    4  A    between atoms: C_11  and  O_12
REMARK    5  A    between atoms: C_14  and  O_15
REMARK    6  A    between atoms: N_21  and  C_23
REMARK    7  A    between atoms: C_23  and  C_24
REMARK    8  A    between atoms: C_24  and  C_25
REMARK    9  A    between atoms: C_25  and  O_27
REMARK   10  A    between atoms: O_27  and  C_28
REMARK   11  A    between atoms: C_28  and  C_29
REMARK   12  A    between atoms: C_29  and  C_30
REMARK   13  A    between atoms: C_30  and  C_31
REMARK   14  A    between atoms: C_31  and  C_32
REMARK   15  A    between atoms: C_32  and  O_33
REMARK   16  A    between atoms: O_33  and  C_34
REMARK   17  A    between atoms: C_34  and  C_36
REMARK   18  A    between atoms: C_36  and  C_37
REMARK   19  A    between atoms: C_37  and  N_38
REMARK   20  A    between atoms: C_44  and  O_45
REMARK   21  A    between atoms: C_47  and  O_48
REMARK   22  A    between atoms: C_52  and  C_53
REMARK   23  A    between atoms: C_53  and  C_54
REMARK   24  A    between atoms: C_57  and  O_58
REMARK   25  A    between atoms: C_60  and  O_61
REMARK   26  A    between atoms: C_65  and  O_66
REMARK                            x       y       z     vdW  Elec       q    Type
REMARK                         _______ _______ _______ _____ _____    ______ ____
ROOT
ATOM      1  C   UNL     1      -0.039  -0.486  -0.498  0.00  0.00    +0.008 C 
ENDROOT
BRANCH   1   2
ATOM      2  C   UNL     1       0.284  -0.275   0.975  0.00  0.00    +0.048 C 
BRANCH   2   3
ATOM      3  C   UNL     1      -0.608   0.857   1.454  0.00  0.00    +0.208 C 
BRANCH   3   4
ATOM      4  O   UNL     1      -1.944   0.399   1.249  0.00  0.00    -0.448 OA
BRANCH   4   5
ATOM      5  C   UNL     1      -2.465   0.668  -0.021  0.00  0.00    +0.323 C 
ATOM      6  O   UNL     1      -2.452   1.896  -0.339  0.00  0.00    -0.250 OA
BRANCH   5   7
ATOM      7  C   UNL     1      -3.702  -0.074  -0.393  0.00  0.00    +0.170 C 
BRANCH   7   8
ATOM      8  C   UNL     1      -4.662   0.147   0.771  0.00  0.00    +0.121 C 
BRANCH   8   9
ATOM      9  N   UNL     1      -5.512   1.245   0.409  0.00  0.00    +0.301 N 
ATOM     10  C   UNL     1      -6.945   0.559   0.622  0.00  0.00    +0.086 C 
ATOM     11  C   UNL     1      -7.704   1.734  -0.243  0.00  0.00    +0.027 A 
ATOM     12  C   UNL     1      -7.590   2.975   0.362  0.00  0.00    -0.012 A 
ATOM     13  C   UNL     1      -8.652   3.850   0.173  0.00  0.00    +0.036 A 
ATOM     14  C   UNL     1      -9.924   3.350  -0.088  0.00  0.00    +0.172 A 
ATOM     15  C   UNL     1     -10.090   2.054  -0.564  0.00  0.00    +0.172 A 
ATOM     16  C   UNL     1      -6.228   3.497   0.676  0.00  0.00    +0.087 C 
ATOM     17  C   UNL     1      -8.937   1.284  -0.655  0.00  0.00    +0.041 A 
ATOM     18  C   UNL     1      -5.489   2.341   1.339  0.00  0.00    +0.114 C 
ATOM     19  C   UNL     1      -5.449   1.607  -0.964  0.00  0.00    +0.171 C 
BRANCH  14  20
ATOM     20  O   UNL     1     -11.051   3.950   0.482  0.00  0.00    -0.468 OA
ATOM     21  C   UNL     1     -11.941   3.218   1.310  0.00  0.00    +0.253 C 
ENDBRANCH  14  20
BRANCH  15  22
ATOM     22  O   UNL     1     -11.363   1.506  -0.755  0.00  0.00    -0.468 OA
ATOM     23  C   UNL     1     -11.484   0.124  -0.430  0.00  0.00    +0.253 C 
ENDBRANCH  15  22
BRANCH  10  24
ATOM     24  C   UNL     1      -6.767  -0.398  -0.740  0.00  0.00    +0.086 C 
BRANCH  24  25
ATOM     25  C   UNL     1      -7.293  -1.714  -0.263  0.00  0.00    -0.013 A 
ATOM     26  C   UNL     1      -8.357  -1.812   0.617  0.00  0.00    +0.036 A 
ATOM     27  C   UNL     1      -9.216  -2.899   0.560  0.00  0.00    +0.172 A 
ATOM     28  C   UNL     1      -8.934  -3.981  -0.260  0.00  0.00    +0.172 A 
ATOM     29  C   UNL     1      -7.838  -3.927  -1.113  0.00  0.00    +0.040 A 
ATOM     30  C   UNL     1      -7.127  -2.761  -1.136  0.00  0.00    -0.001 A 
BRANCH  28  31
ATOM     31  O   UNL     1      -9.860  -4.988  -0.435  0.00  0.00    -0.468 OA
ATOM     32  C   UNL     1      -9.487  -6.186  -1.105  0.00  0.00    +0.253 C 
ENDBRANCH  28  31
BRANCH  27  33
ATOM     33  O   UNL     1     -10.463  -2.834   1.187  0.00  0.00    -0.468 OA
ATOM     34  C   UNL     1     -11.538  -3.665   0.805  0.00  0.00    +0.253 C 
ENDBRANCH  27  33
ENDBRANCH  24  25
ENDBRANCH  10  24
ENDBRANCH   8   9
ENDBRANCH   7   8
ENDBRANCH   5   7
ENDBRANCH   4   5
ENDBRANCH   3   4
ENDBRANCH   2   3
ENDBRANCH   1   2
BRANCH   1  35
ATOM     35  C   UNL     1       0.750   0.494  -1.327  0.00  0.00    +0.048 C 
BRANCH  35  36
ATOM     36  C   UNL     1       1.193   1.702  -0.513  0.00  0.00    +0.208 C 
BRANCH  36  37
ATOM     37  O   UNL     1       2.334   2.219  -1.189  0.00  0.00    -0.448 OA
BRANCH  37  38
ATOM     38  C   UNL     1       3.192   1.336  -1.853  0.00  0.00    +0.323 C 
ATOM     39  O   UNL     1       2.824   0.123  -1.911  0.00  0.00    -0.250 OA
BRANCH  38  40
ATOM     40  C   UNL     1       4.672   1.521  -1.723  0.00  0.00    +0.170 C 
BRANCH  40  41
ATOM     41  C   UNL     1       5.144   0.564  -0.632  0.00  0.00    +0.121 C 
BRANCH  41  43
ATOM     42  C   UNL     1       6.948   1.403   0.781  0.00  0.00    +0.086 C 
ATOM     43  N   UNL     1       5.369   1.175   0.608  0.00  0.00    +0.301 N 
ATOM     44  C   UNL     1       4.817   2.529   0.638  0.00  0.00    +0.171 C 
ATOM     45  C   UNL     1       4.925   0.507   1.773  0.00  0.00    +0.114 C 
ATOM     46  C   UNL     1       5.950   0.098   2.771  0.00  0.00    +0.087 C 
ATOM     47  C   UNL     1       6.949  -0.738   2.028  0.00  0.00    -0.012 A 
ATOM     48  C   UNL     1       6.898  -2.128   2.035  0.00  0.00    +0.036 A 
ATOM     49  C   UNL     1       7.461  -2.864   0.997  0.00  0.00    +0.172 A 
ATOM     50  C   UNL     1       7.802  -2.211  -0.184  0.00  0.00    +0.172 A 
ATOM     51  C   UNL     1       7.396  -0.890  -0.344  0.00  0.00    +0.041 A 
ATOM     52  C   UNL     1       7.242  -0.205   0.775  0.00  0.00    +0.027 A 
BRANCH  50  53
ATOM     53  O   UNL     1       8.538  -2.848  -1.189  0.00  0.00    -0.468 OA
ATOM     54  C   UNL     1       9.897  -3.127  -0.915  0.00  0.00    +0.253 C 
ENDBRANCH  50  53
BRANCH  49  55
ATOM     55  O   UNL     1       7.983  -4.141   1.228  0.00  0.00    -0.468 OA
ATOM     56  C   UNL     1       7.188  -5.271   0.976  0.00  0.00    +0.253 C 
ENDBRANCH  49  55
BRANCH  42  57
ATOM     57  C   UNL     1       7.218   1.614  -0.865  0.00  0.00    +0.086 C 
BRANCH  57  61
ATOM     58  C   UNL     1      11.138   0.372  -1.152  0.00  0.00    +0.172 A 
ATOM     59  C   UNL     1      10.866   1.321  -0.173  0.00  0.00    +0.172 A 
ATOM     60  C   UNL     1       9.602   1.887  -0.066  0.00  0.00    +0.036 A 
ATOM     61  C   UNL     1       8.675   1.539  -1.013  0.00  0.00    -0.013 A 
ATOM     62  C   UNL     1       9.172   1.103  -2.237  0.00  0.00    -0.001 A 
ATOM     63  C   UNL     1      10.390   0.434  -2.321  0.00  0.00    +0.040 A 
BRANCH  58  65
ATOM     64  C   UNL     1      11.277  -1.793  -0.116  0.00  0.00    +0.253 C 
ATOM     65  O   UNL     1      11.921  -0.739  -0.824  0.00  0.00    -0.468 OA
ENDBRANCH  58  65
BRANCH  59  66
ATOM     66  O   UNL     1      11.922   1.669   0.666  0.00  0.00    -0.468 OA
ATOM     67  C   UNL     1      13.173   2.081   0.136  0.00  0.00    +0.253 C 
ENDBRANCH  59  66
ENDBRANCH  57  61
ENDBRANCH  42  57
ENDBRANCH  41  43
ENDBRANCH  40  41
ENDBRANCH  38  40
ENDBRANCH  37  38
ENDBRANCH  36  37
ENDBRANCH  35  36
ENDBRANCH   1  35
TORSDOF 26
