REMARK  Name = 
REMARK  4 active torsions:
REMARK  status: ('A' for Active; 'I' for Inactive)
REMARK    1  A    between atoms: C_5  and  C_6
REMARK    2  A    between atoms: C_6  and  C_8
REMARK    3  A    between atoms: C_11  and  C_12
REMARK    4  A    between atoms: C_12  and  C_13
REMARK                            x       y       z     vdW  Elec       q    Type
REMARK                         _______ _______ _______ _____ _____    ______ ____
ROOT
ATOM      1  C   UNL     1      -0.235  -0.586  -1.181  0.00  0.00    +0.099 A 
ATOM      2  N   UNL     1      -1.174   0.366  -0.952  0.00  0.00    -0.326 N 
ATOM      3  C   UNL     1      -1.024   1.651  -0.299  0.00  0.00    +0.130 C 
ATOM      4  C   UNL     1      -2.384  -0.104  -1.332  0.00  0.00    +0.049 A 
ATOM      5  C   UNL     1      -2.154  -1.135  -2.210  0.00  0.00    +0.015 A 
ATOM      6  C   UNL     1      -0.830  -1.504  -2.030  0.00  0.00    +0.022 A 
ENDROOT
BRANCH   1   7
ATOM      7  C   UNL     1       1.188  -0.278  -1.040  0.00  0.00    +0.211 C 
ATOM      8  O   UNL     1       1.987  -0.878  -1.791  0.00  0.00    -0.285 OA
BRANCH   7  13
ATOM      9  C   UNL     1       5.160   0.161   2.440  0.00  0.00    +0.031 C 
ATOM     10  C   UNL     1       3.774   0.561   2.048  0.00  0.00    -0.022 A 
ATOM     11  C   UNL     1       3.557   1.555   1.101  0.00  0.00    -0.004 A 
ATOM     12  C   UNL     1       2.564   1.424   0.138  0.00  0.00    +0.003 A 
ATOM     13  C   UNL     1       1.672   0.360   0.189  0.00  0.00    +0.040 A 
ATOM     14  C   UNL     1       1.595  -0.265   1.428  0.00  0.00    +0.003 A 
ATOM     15  C   UNL     1       2.693  -0.282   2.282  0.00  0.00    -0.004 A 
ENDBRANCH   7  13
ENDBRANCH   1   7
BRANCH   4  16
ATOM     16  C   UNL     1      -3.726   0.465  -1.063  0.00  0.00    +0.158 C 
BRANCH  16  17
ATOM     17  C   UNL     1      -4.042   0.169   0.357  0.00  0.00    +0.371 C 
ATOM     18  O   UNL     1      -4.974   0.974   1.002  0.00  0.00    -0.245 OA
ATOM     19  O   UNL     1      -3.646  -0.873   0.913  0.00  0.00    -0.245 OA
ENDBRANCH  16  17
ENDBRANCH   4  16
TORSDOF 4
