REMARK  Name = 
REMARK  5 active torsions:
REMARK  status: ('A' for Active; 'I' for Inactive)
REMARK    1  A    between atoms: C_8  and  O_9
REMARK    2  A    between atoms: O_9  and  C_10
REMARK    3  A    between atoms: C_10  and  C_12
REMARK    4  A    between atoms: C_12  and  C_13
REMARK    5  A    between atoms: C_12  and  C_15
REMARK                            x       y       z     vdW  Elec       q    Type
REMARK                         _______ _______ _______ _____ _____    ______ ____
ROOT
ATOM      1  C   UNL     1      -0.538  -0.956   0.854  0.00  0.00    +0.323 C 
ATOM      2  O   UNL     1      -0.391   0.147   1.348  0.00  0.00    -0.250 OA
ENDROOT
BRANCH   1   3
ATOM      3  O   UNL     1       0.489  -1.777   1.044  0.00  0.00    -0.452 OA
BRANCH   3   8
ATOM      4  C   UNL     1       4.633  -0.054  -0.797  0.00  0.00    +0.090 C 
ATOM      5  N   UNL     1       3.682  -0.292  -0.280  0.00  0.00    -0.274 NA
ATOM      6  C   UNL     1       3.517   0.427   1.082  0.00  0.00    +0.061 C 
ATOM      7  C   UNL     1       1.908   0.110   1.326  0.00  0.00    +0.060 C 
ATOM      8  C   UNL     1       1.900  -1.367   0.595  0.00  0.00    +0.172 C 
ATOM      9  C   UNL     1       1.382  -0.673  -0.796  0.00  0.00    +0.060 C 
ATOM     10  C   UNL     1       3.359   1.888   0.347  0.00  0.00    +0.017 C 
ATOM     11  C   UNL     1       2.145   1.593  -0.353  0.00  0.00    +0.017 C 
ATOM     12  C   UNL     1       2.625   0.306  -1.247  0.00  0.00    +0.061 C 
ENDBRANCH   3   8
ENDBRANCH   1   3
BRANCH   1  13
ATOM     13  C   UNL     1      -2.037  -1.486   0.666  0.00  0.00    +0.154 C 
BRANCH  13  14
ATOM     14  C   UNL     1      -2.588  -0.091   0.091  0.00  0.00    -0.009 A 
ATOM     15  C   UNL     1      -3.466   0.593   0.905  0.00  0.00    -0.004 A 
ATOM     16  C   UNL     1      -3.787   1.901   0.557  0.00  0.00    -0.000 A 
ATOM     17  C   UNL     1      -3.280   2.433  -0.621  0.00  0.00    -0.000 A 
ATOM     18  C   UNL     1      -2.677   1.605  -1.529  0.00  0.00    -0.000 A 
ATOM     19  C   UNL     1      -2.347   0.331  -1.132  0.00  0.00    -0.004 A 
ENDBRANCH  13  14
BRANCH  13  20
ATOM     20  C   UNL     1      -1.660  -2.121  -0.801  0.00  0.00    +0.198 C 
ATOM     21  O   UNL     1      -2.867  -2.516  -1.260  0.00  0.00    -0.219 OA
ENDBRANCH  13  20
ENDBRANCH   1  13
TORSDOF 5
