REMARK  Name = 
REMARK  6 active torsions:
REMARK  status: ('A' for Active; 'I' for Inactive)
REMARK    1  A    between atoms: C_5  and  C_6
REMARK    2  A    between atoms: C_9  and  C_10
REMARK    3  A    between atoms: C_13  and  N_14
REMARK    4  A    between atoms: C_16  and  C_17
REMARK    5  A    between atoms: C_17  and  O_18
REMARK    6  A    between atoms: O_18  and  P_19
REMARK                            x       y       z     vdW  Elec       q    Type
REMARK                         _______ _______ _______ _____ _____    ______ ____
ROOT
ATOM      1  C   UNL     1       0.895  -0.673   0.260  0.00  0.00    +0.029 A 
ATOM      2  C   UNL     1       0.342  -0.789  -1.010  0.00  0.00    +0.141 A 
ATOM      3  F   UNL     1       0.977  -0.142  -2.021  0.00  0.00    -0.204 F 
ATOM      4  C   UNL     1      -0.985  -1.102  -1.138  0.00  0.00    +0.045 A 
ATOM      5  C   UNL     1      -1.798  -1.443  -0.063  0.00  0.00    +0.059 A 
ATOM      6  C   UNL     1      -1.106  -1.727   1.109  0.00  0.00    +0.015 A 
ATOM      7  C   UNL     1       0.237  -1.393   1.250  0.00  0.00    +0.004 A 
ENDROOT
BRANCH   1  11
ATOM      8  C   UNL     1       4.799   0.990   0.135  0.00  0.00    +0.120 A 
ATOM      9  N   UNL     1       4.285   0.249  -0.854  0.00  0.00    -0.241 NA
ATOM     10  C   UNL     1       3.143  -0.468  -0.708  0.00  0.00    +0.099 A 
ATOM     11  C   UNL     1       2.311  -0.306   0.393  0.00  0.00    +0.021 A 
ATOM     12  C   UNL     1       2.738   0.628   1.330  0.00  0.00    +0.003 A 
ATOM     13  C   UNL     1       4.039   1.087   1.292  0.00  0.00    +0.022 A 
BRANCH   8  17
ATOM     14  C   UNL     1       9.232  -0.859   0.337  0.00  0.00    +0.180 C 
ATOM     15  N   UNL     1       8.257   0.192   0.259  0.00  0.00    -0.149 N 
ATOM     16  N   UNL     1       7.104   0.328   0.907  0.00  0.00    -0.128 NA
ATOM     17  C   UNL     1       6.263   1.104   0.180  0.00  0.00    +0.223 A 
ATOM     18  N   UNL     1       7.046   1.578  -0.819  0.00  0.00    -0.106 NA
ATOM     19  N   UNL     1       8.309   1.241  -0.561  0.00  0.00    -0.045 NA
ENDBRANCH   8  17
ENDBRANCH   1  11
BRANCH   5  20
ATOM     20  N   UNL     1      -3.175  -1.046  -0.000  0.00  0.00    -0.221 N 
ATOM     21  C   UNL     1      -4.236  -1.530  -0.836  0.00  0.00    +0.409 C 
ATOM     22  O   UNL     1      -4.308  -2.752  -1.170  0.00  0.00    -0.226 OA
ATOM     23  O   UNL     1      -5.081  -0.489  -1.193  0.00  0.00    -0.434 OA
ATOM     24  C   UNL     1      -3.995   0.640  -1.268  0.00  0.00    +0.221 C 
ATOM     25  C   UNL     1      -3.528   0.338   0.315  0.00  0.00    +0.148 C 
BRANCH  24  26
ATOM     26  C   UNL     1      -5.091   1.816  -0.794  0.00  0.00    +0.199 C 
BRANCH  26  27
ATOM     27  O   UNL     1      -5.755   1.280   0.275  0.00  0.00    -0.266 OA
BRANCH  27  28
ATOM     28  P   UNL     1      -7.371   0.913  -0.029  0.00  0.00    +0.533 P 
ATOM     29  O   UNL     1      -8.326   1.972   0.853  0.00  0.00    -0.115 OA
ATOM     30  O   UNL     1      -7.601  -0.695   0.473  0.00  0.00    -0.115 OA
ATOM     31  O   UNL     1      -7.621   1.060  -1.512  0.00  0.00    -0.222 OA
ENDBRANCH  27  28
ENDBRANCH  26  27
ENDBRANCH  24  26
ENDBRANCH   5  20
TORSDOF 6
