REMARK  Name = 
REMARK  4 active torsions:
REMARK  status: ('A' for Active; 'I' for Inactive)
REMARK    1  A    between atoms: C_3  and  C_4
REMARK    2  A    between atoms: C_4  and  C_5
REMARK    3  A    between atoms: C_11  and  C_12
REMARK    4  A    between atoms: C_12  and  C_14
REMARK                            x       y       z     vdW  Elec       q    Type
REMARK                         _______ _______ _______ _____ _____    ______ ____
ROOT
ATOM      1  N   UNL     1      -1.794  -1.415   1.437  0.00  0.00    -0.128 NA
ATOM      2  C   UNL     1      -1.603  -0.656   0.237  0.00  0.00    +0.089 A 
ATOM      3  C   UNL     1      -0.312  -0.328  -0.154  0.00  0.00    +0.055 A 
ATOM      4  C   UNL     1      -0.184   0.415  -1.306  0.00  0.00    +0.005 A 
ATOM      5  C   UNL     1      -1.153   0.203  -2.280  0.00  0.00    -0.000 A 
ATOM      6  C   UNL     1      -2.382  -0.371  -1.980  0.00  0.00    -0.002 A 
ATOM      7  C   UNL     1      -2.655  -0.680  -0.670  0.00  0.00    +0.006 A 
ENDROOT
BRANCH   3   8
ATOM      8  C   UNL     1       0.794  -0.754   0.672  0.00  0.00    +0.197 C 
ATOM      9  O   UNL     1       0.594  -1.087   1.871  0.00  0.00    -0.287 OA
BRANCH   8  10
ATOM     10  C   UNL     1       2.182  -0.739   0.229  0.00  0.00    +0.039 A 
ATOM     11  C   UNL     1       2.545  -0.519  -1.095  0.00  0.00    +0.004 A 
ATOM     12  C   UNL     1       3.725   0.155  -1.387  0.00  0.00    +0.007 A 
ATOM     13  C   UNL     1       4.494   0.719  -0.375  0.00  0.00    +0.035 A 
ATOM     14 BR   UNL     1       5.375   2.399  -0.618  0.00  0.00    -0.049 Br
ATOM     15  C   UNL     1       4.344   0.144   0.882  0.00  0.00    +0.007 A 
ATOM     16  C   UNL     1       3.231  -0.648   1.137  0.00  0.00    +0.004 A 
ENDBRANCH   8  10
ENDBRANCH   3   8
BRANCH   7  17
ATOM     17  C   UNL     1      -4.026  -0.624  -0.084  0.00  0.00    +0.142 C 
BRANCH  17  18
ATOM     18  C   UNL     1      -4.425   0.815  -0.068  0.00  0.00    +0.369 C 
ATOM     19  O   UNL     1      -3.812   1.716   0.795  0.00  0.00    -0.245 OA
ATOM     20  O   UNL     1      -4.937   1.254  -1.141  0.00  0.00    -0.245 OA
ENDBRANCH  17  18
ENDBRANCH   7  17
TORSDOF 4
