REMARK  Name = 
REMARK  12 active torsions:
REMARK  status: ('A' for Active; 'I' for Inactive)
REMARK    1  A    between atoms: C_5  and  N_6
REMARK    2  A    between atoms: N_9  and  C_10
REMARK    3  A    between atoms: C_10  and  C_11
REMARK    4  A    between atoms: N_14  and  C_15
REMARK    5  A    between atoms: C_15  and  C_16
REMARK    6  A    between atoms: CA_17  and  C_18
REMARK    7  A    between atoms: CA_24  and  N_25
REMARK    8  A    between atoms: C_26  and  C_28
REMARK    9  A    between atoms: C_28  and  C_37
REMARK   10  A    between atoms: N_29  and  O_30
REMARK   11  A    between atoms: O_30  and  C_31
REMARK   12  A    between atoms: C_31  and  C_34
REMARK                            x       y       z     vdW  Elec       q    Type
REMARK                         _______ _______ _______ _____ _____    ______ ____
ROOT
ATOM      1  C   UNL     1       1.879  -1.367  -0.095  0.00  0.00    +0.067 C 
ATOM      2  C   UNL     1       1.050  -1.796   1.044  0.00  0.00    +0.090 C 
ATOM      3  S   UNL     1      -0.450  -0.873   1.310  0.00  0.00    -0.114 S 
ATOM      4  C   UNL     1      -0.019   0.811   0.529  0.00  0.00    +0.157 C 
ATOM      5  N   UNL     1       0.313   0.254  -0.847  0.00  0.00    -0.242 N 
ATOM      6  C   UNL     1      -0.628   0.985  -1.591  0.00  0.00    +0.253 C 
ATOM      7  O   UNL     1      -0.654   1.691  -2.644  0.00  0.00    -0.273 OA
ATOM      8  CA  UNL     1      -1.457   1.300  -0.230  0.00  0.00    +0.201 C 
ATOM      9  CA  UNL     1       1.636  -0.288  -0.842  0.00  0.00    +0.134 C 
ENDROOT
BRANCH   9  10
ATOM     10  C   UNL     1       2.660   0.140  -1.811  0.00  0.00    +0.401 C 
ATOM     11  OXT UNL     1       2.259   0.114  -3.152  0.00  0.00    -0.239 OA
ATOM     12  O   UNL     1       3.457   1.094  -1.546  0.00  0.00    -0.239 OA
ENDBRANCH   9  10
BRANCH   8  13
ATOM     13  N   UNL     1      -2.187  -0.125  -0.253  0.00  0.00    -0.190 NA
ATOM     14  C   UNL     1      -3.579   0.088  -0.519  0.00  0.00    +0.289 C 
ATOM     15  O   UNL     1      -3.725   0.441  -1.731  0.00  0.00    -0.266 OA
BRANCH  14  16
ATOM     16  C   UNL     1      -4.673  -0.379   0.310  0.00  0.00    +0.210 C 
ATOM     17  N   UNL     1      -5.750  -0.741  -0.328  0.00  0.00    -0.075 NA
BRANCH  16  18
ATOM     18  C   UNL     1      -4.831  -0.004   1.730  0.00  0.00    +0.197 A 
ATOM     19  N   UNL     1      -5.916  -0.104   2.493  0.00  0.00    -0.199 NA
ATOM     20  C   UNL     1      -6.014   0.914   3.384  0.00  0.00    +0.219 A 
ATOM     21  N   UNL     1      -7.196   1.213   4.142  0.00  0.00    -0.098 NA
ATOM     22  S   UNL     1      -4.352   1.042   3.804  0.00  0.00    +0.053 S 
ATOM     23  N   UNL     1      -3.713   0.207   2.471  0.00  0.00    -0.185 NA
ENDBRANCH  16  18
BRANCH  17  24
ATOM     24  O   UNL     1      -6.039  -0.291  -1.602  0.00  0.00    -0.374 OA
BRANCH  24  25
ATOM     25  C   UNL     1      -7.077   0.588  -1.929  0.00  0.00    +0.253 C 
ATOM     26  C   UNL     1      -8.415  -0.025  -1.634  0.00  0.00    +0.058 C 
ATOM     27  C   UNL     1      -6.942   0.862  -3.424  0.00  0.00    +0.058 C 
BRANCH  25  28
ATOM     28  C   UNL     1      -7.010   1.893  -1.247  0.00  0.00    +0.403 C 
ATOM     29  O   UNL     1      -7.591   2.026   0.016  0.00  0.00    -0.242 OA
ATOM     30  O   UNL     1      -6.171   2.778  -1.592  0.00  0.00    -0.242 OA
ENDBRANCH  25  28
ENDBRANCH  24  25
ENDBRANCH  17  24
ENDBRANCH  14  16
ENDBRANCH   8  13
BRANCH   1  31
ATOM     31  C   UNL     1       2.713  -2.467  -0.676  0.00  0.00    +0.374 C 
BRANCH  31  34
ATOM     32  C   UNL     1       3.990  -4.609   1.091  0.00  0.00    +0.204 C 
ATOM     33  N   UNL     1       4.596  -3.459   0.562  0.00  0.00    -0.115 N 
ATOM     34  N   UNL     1       4.056  -2.479  -0.166  0.00  0.00    -0.070 N 
ATOM     35  C   UNL     1       5.114  -2.027  -0.890  0.00  0.00    +0.335 A 
ATOM     36  C   UNL     1       6.141  -2.006   0.047  0.00  0.00    +0.185 A 
ATOM     37  C   UNL     1       5.865  -3.095   0.866  0.00  0.00    +0.226 A 
ATOM     38  N   UNL     1       6.835  -3.829   1.625  0.00  0.00    -0.102 NA
BRANCH  36  39
ATOM     39  N   UNL     1       7.266  -1.135   0.119  0.00  0.00    -0.152 NA
ATOM     40  C   UNL     1       7.191   0.251  -0.133  0.00  0.00    +0.344 C 
ATOM     41  N   UNL     1       8.050   1.206   0.430  0.00  0.00    -0.185 NA
ATOM     42  O   UNL     1       6.179   0.669  -0.759  0.00  0.00    -0.249 OA
BRANCH  41  43
ATOM     43  C   UNL     1       8.309   2.410  -0.332  0.00  0.00    +0.137 C 
BRANCH  43  44
ATOM     44  C   UNL     1       7.630   3.620   0.250  0.00  0.00    +0.133 C 
ATOM     45  N   UNL     1       7.199   4.503  -0.817  0.00  0.00    -0.129 NA
ENDBRANCH  43  44
ENDBRANCH  41  43
ENDBRANCH  36  39
ENDBRANCH  31  34
ENDBRANCH   1  31
TORSDOF 12
