REMARK  Name = 
REMARK  5 active torsions:
REMARK  status: ('A' for Active; 'I' for Inactive)
REMARK    1  A    between atoms: P_2  and  N_3
REMARK    2  A    between atoms: N_3  and  C_4
REMARK    3  A    between atoms: C_4  and  C_5
REMARK    4  A    between atoms: N_11  and  C_12
REMARK    5  A    between atoms: C_12  and  C_13
REMARK                            x       y       z     vdW  Elec       q    Type
REMARK                         _______ _______ _______ _____ _____    ______ ____
ROOT
ATOM      1  O   UNL     1       0.597  -0.194  -1.147  0.00  0.00    -0.253 OA
ATOM      2  P   UNL     1       0.353   0.388   0.191  0.00  0.00    +0.365 P 
ATOM      3  N   UNL     1      -1.254   0.040   0.743  0.00  0.00    -0.196 NA
ATOM      4  C   UNL     1      -2.084   1.198   0.904  0.00  0.00    +0.084 C 
ATOM      5  C   UNL     1      -1.687   2.347   0.010  0.00  0.00    +0.050 C 
ATOM      6  C   UNL     1      -0.344   2.841   0.512  0.00  0.00    +0.153 C 
ATOM      7  O   UNL     1       0.692   2.029   0.096  0.00  0.00    -0.291 OA
ENDROOT
BRANCH   3   8
ATOM      8  C   UNL     1      -1.909  -0.977  -0.037  0.00  0.00    +0.099 C 
BRANCH   8   9
ATOM      9  C   UNL     1      -3.316  -1.138   0.471  0.00  0.00    +0.113 C 
ATOM     10 CL   UNL     1      -3.718  -2.847   0.677  0.00  0.00    -0.112 Cl
ENDBRANCH   8   9
ENDBRANCH   3   8
BRANCH   2  11
ATOM     11  N   UNL     1       1.449  -0.317   1.376  0.00  0.00    -0.132 NA
BRANCH  11  12
ATOM     12  C   UNL     1       2.812  -0.230   0.926  0.00  0.00    +0.117 C 
BRANCH  12  13
ATOM     13  C   UNL     1       3.347  -1.609   0.624  0.00  0.00    +0.114 C 
ATOM     14 CL   UNL     1       5.063  -1.531   0.190  0.00  0.00    -0.112 Cl
ENDBRANCH  12  13
ENDBRANCH  11  12
ENDBRANCH   2  11
TORSDOF 5
