REMARK  Name = 
REMARK  5 active torsions:
REMARK  status: ('A' for Active; 'I' for Inactive)
REMARK    1  A    between atoms: C_2  and  O_4
REMARK    2  A    between atoms: O_4  and  C_5
REMARK    3  A    between atoms: C_5  and  C_6
REMARK    4  A    between atoms: C_23  and  C_24
REMARK    5  A    between atoms: C_27  and  N_28
REMARK                            x       y       z     vdW  Elec       q    Type
REMARK                         _______ _______ _______ _____ _____    ______ ____
ROOT
ATOM      1  C   UNL     1       3.272  -0.473  -0.137  0.00  0.00    +0.186 C 
ATOM      2  C   UNL     1       1.940  -0.432  -0.647  0.00  0.00    +0.041 C 
ATOM      3  C   UNL     1       1.602   1.116  -0.284  0.00  0.00    +0.008 C 
ATOM      4  C   UNL     1       0.334   1.074  -1.449  0.00  0.00    +0.019 C 
ATOM      5  C   UNL     1      -0.743   0.812  -0.292  0.00  0.00    -0.045 C 
ATOM      6  C   UNL     1      -0.189  -0.323   0.748  0.00  0.00    +0.040 C 
ATOM      7  C   UNL     1      -1.401   1.779   0.253  0.00  0.00    -0.033 C 
ATOM      8  C   UNL     1      -0.885   3.144   0.476  0.00  0.00    -0.024 C 
ATOM      9  C   UNL     1      -1.790   4.120   0.388  0.00  0.00    +0.033 C 
ATOM     10  C   UNL     1      -3.093   3.765   0.966  0.00  0.00    +0.173 C 
ATOM     11  C   UNL     1      -3.592   2.366   1.022  0.00  0.00    +0.074 C 
ATOM     12  O   UNL     1      -3.944   4.675   1.200  0.00  0.00    -0.291 OA
ATOM     13  C   UNL     1       0.442   3.292  -0.211  0.00  0.00    +0.026 C 
ATOM     14  C   UNL     1      -2.457   1.369   1.237  0.00  0.00    +0.034 C 
ATOM     15  C   UNL     1       0.179   2.705  -1.547  0.00  0.00    +0.009 C 
ATOM     16  C   UNL     1       2.755   1.601  -1.326  0.00  0.00    +0.004 C 
ATOM     17  C   UNL     1       2.120  -0.483  -2.170  0.00  0.00    +0.004 C 
ATOM     18  C   UNL     1       0.767  -1.132  -0.339  0.00  0.00    +0.012 C 
ATOM     19  C   UNL     1       3.910   0.773  -0.758  0.00  0.00    +0.047 C 
ENDROOT
BRANCH   6  20
ATOM     20  C   UNL     1      -1.460  -1.295   0.471  0.00  0.00    -0.019 A 
ATOM     21  C   UNL     1      -1.776  -1.551  -0.818  0.00  0.00    -0.003 A 
ATOM     22  C   UNL     1      -2.805  -2.456  -1.044  0.00  0.00    +0.014 A 
ATOM     23  C   UNL     1      -3.579  -2.911   0.009  0.00  0.00    +0.048 A 
ATOM     24  C   UNL     1      -3.078  -2.750   1.292  0.00  0.00    +0.014 A 
ATOM     25  C   UNL     1      -1.940  -1.987   1.543  0.00  0.00    -0.003 A 
BRANCH  23  26
ATOM     26  N   UNL     1      -4.939  -3.275  -0.251  0.00  0.00    -0.304 N 
ATOM     27  C   UNL     1      -5.224  -4.489  -0.985  0.00  0.00    +0.112 C 
ATOM     28  C   UNL     1      -5.841  -2.158  -0.524  0.00  0.00    +0.112 C 
ENDBRANCH  23  26
ENDBRANCH   6  20
BRANCH   1  29
ATOM     29  C   UNL     1       3.942  -1.719  -0.639  0.00  0.00    +0.187 C 
ATOM     30  O   UNL     1       3.459  -2.756  -0.278  0.00  0.00    -0.292 OA
ATOM     31  C   UNL     1       4.718  -1.597  -1.888  0.00  0.00    +0.076 C 
ENDBRANCH   1  29
BRANCH   1  32
ATOM     32  O   UNL     1       3.523  -0.403   1.230  0.00  0.00    -0.449 OA
BRANCH  32  34
ATOM     33  C   UNL     1       5.325  -0.622   2.882  0.00  0.00    +0.121 C 
ATOM     34  C   UNL     1       4.862  -0.277   1.625  0.00  0.00    +0.318 C 
ATOM     35  O   UNL     1       5.584   0.499   0.928  0.00  0.00    -0.250 OA
ENDBRANCH  32  34
ENDBRANCH   1  32
TORSDOF 5
