REMARK  Name = 
REMARK  0 active torsions:
REMARK  status: ('A' for Active; 'I' for Inactive)
REMARK                            x       y       z     vdW  Elec       q    Type
REMARK                         _______ _______ _______ _____ _____    ______ ____
ROOT
ATOM      1  C   UNL     1      -4.093  -0.493   1.071  0.00  0.00    +0.033 C 
ATOM      2  C   UNL     1      -3.777   0.177  -0.150  0.00  0.00    +0.127 C 
ATOM      3  C   UNL     1      -2.437   0.671  -0.305  0.00  0.00    +0.028 C 
ATOM      4  C   UNL     1      -1.766  -0.783  -0.548  0.00  0.00    +0.005 C 
ATOM      5  C   UNL     1      -0.366   0.018  -1.065  0.00  0.00    +0.033 C 
ATOM      6  C   UNL     1       0.321  -0.246   0.352  0.00  0.00    +0.164 C 
ATOM      7  C   UNL     1      -0.740   0.179   1.510  0.00  0.00    +0.182 C 
ATOM      8  O   UNL     1       0.156   1.261   2.097  0.00  0.00    -0.220 OA
ATOM      9  F   UNL     1       0.321  -1.611   0.599  0.00  0.00    -0.237 F 
ATOM     10  C   UNL     1       1.628   0.281   0.456  0.00  0.00    +0.046 C 
ATOM     11  C   UNL     1       2.359  -0.409  -0.658  0.00  0.00    -0.039 C 
ATOM     12  C   UNL     1       3.683  -0.514  -0.551  0.00  0.00    +0.029 C 
ATOM     13  C   UNL     1       4.408  -0.337   0.689  0.00  0.00    +0.173 C 
ATOM     14  C   UNL     1       3.681   0.218   1.873  0.00  0.00    +0.070 C 
ATOM     15  O   UNL     1       5.620  -0.611   0.853  0.00  0.00    -0.291 OA
ATOM     16  C   UNL     1       1.736  -0.955  -1.860  0.00  0.00    +0.022 C 
ATOM     17  C   UNL     1       1.862   1.748   0.314  0.00  0.00    +0.007 C 
ATOM     18  C   UNL     1       2.249  -0.217   1.739  0.00  0.00    +0.014 C 
ATOM     19  C   UNL     1       0.282  -1.292  -1.768  0.00  0.00    +0.007 C 
ATOM     20  C   UNL     1      -2.519  -0.870  -1.975  0.00  0.00    +0.003 C 
ATOM     21  C   UNL     1      -2.342   1.437  -1.622  0.00  0.00    +0.003 C 
ATOM     22  C   UNL     1      -1.590   1.301   0.647  0.00  0.00    +0.038 C 
ATOM     23  C   UNL     1      -3.917  -0.749  -1.362  0.00  0.00    +0.030 C 
ATOM     24  O   UNL     1      -4.760   1.164  -0.334  0.00  0.00    -0.226 OA
ENDROOT
TORSDOF 0
