REMARK  Name = 
REMARK  0 active torsions:
REMARK  status: ('A' for Active; 'I' for Inactive)
REMARK                            x       y       z     vdW  Elec       q    Type
REMARK                         _______ _______ _______ _____ _____    ______ ____
ROOT
ATOM      1  C   UNL     1       2.694   0.534  -0.846  0.00  0.00    +0.000 C 
ATOM      2  C   UNL     1       1.385   0.231  -0.377  0.00  0.00    +0.001 C 
ATOM      3  C   UNL     1       0.513   1.462  -0.496  0.00  0.00    +0.000 C 
ATOM      4  C   UNL     1      -0.838   1.171   0.112  0.00  0.00    +0.001 C 
ATOM      5  C   UNL     1      -0.703   0.739   1.546  0.00  0.00    +0.000 C 
ATOM      6  C   UNL     1       0.180  -0.474   1.673  0.00  0.00    +0.001 C 
ATOM      7  C   UNL     1      -0.431  -1.613   0.884  0.00  0.00    +0.018 C 
ATOM      8  C   UNL     1      -0.610  -1.167  -0.542  0.00  0.00    +0.077 C 
ATOM      9  N   UNL     1      -1.246  -2.227  -1.292  0.00  0.00    -0.134 NA
ATOM     10  C   UNL     1      -1.751   2.362   0.057  0.00  0.00    +0.000 C 
ATOM     11  C   UNL     1      -1.479   0.057  -0.666  0.00  0.00    +0.018 C 
ATOM     12  C   UNL     1       0.752  -0.921  -1.140  0.00  0.00    +0.018 C 
ATOM     13  C   UNL     1       1.534  -0.153   1.087  0.00  0.00    +0.000 C 
ENDROOT
TORSDOF 0
