REMARK  Name = 
REMARK  5 active torsions:
REMARK  status: ('A' for Active; 'I' for Inactive)
REMARK    1  A    between atoms: O_2  and  C_3
REMARK    2  A    between atoms: C_7  and  O_8
REMARK    3  A    between atoms: C_10  and  O_11
REMARK    4  A    between atoms: C_16  and  O_17
REMARK    5  A    between atoms: C_23  and  N_24
REMARK                            x       y       z     vdW  Elec       q    Type
REMARK                         _______ _______ _______ _____ _____    ______ ____
ROOT
ATOM      1  C   UNL     1       3.052  -1.792   0.291  0.00  0.00    +0.175 A 
ATOM      2  C   UNL     1       2.853  -0.879  -0.738  0.00  0.00    +0.206 A 
ATOM      3  C   UNL     1       1.652  -0.190  -0.853  0.00  0.00    +0.175 A 
ATOM      4  C   UNL     1       0.602  -0.699  -0.102  0.00  0.00    +0.033 A 
ATOM      5  C   UNL     1      -0.379   0.385   0.043  0.00  0.00    +0.001 A 
ATOM      6  C   UNL     1      -1.652   0.327   0.466  0.00  0.00    +0.001 A 
ATOM      7  C   UNL     1      -2.443  -0.991   1.028  0.00  0.00    +0.118 C 
ATOM      8  C   UNL     1      -1.153  -1.441   1.997  0.00  0.00    +0.031 C 
ATOM      9  C   UNL     1      -0.424  -2.534   1.354  0.00  0.00    +0.029 C 
ATOM     10  C   UNL     1      -2.617   1.271   0.703  0.00  0.00    +0.043 A 
ATOM     11  C   UNL     1      -2.388   2.638   0.563  0.00  0.00    +0.229 A 
ATOM     12  O   UNL     1      -3.333   3.350   0.132  0.00  0.00    -0.283 OA
ATOM     13  C   UNL     1      -1.182   3.323   0.652  0.00  0.00    +0.177 A 
ATOM     14  C   UNL     1       0.101   2.805   0.543  0.00  0.00    +0.040 A 
ATOM     15  C   UNL     1       0.413   1.528   0.091  0.00  0.00    +0.003 A 
ATOM     16  C   UNL     1       0.668  -1.939   0.522  0.00  0.00    -0.016 A 
ATOM     17  C   UNL     1       1.922  -2.418   0.804  0.00  0.00    +0.036 A 
ENDROOT
BRANCH   7  18
ATOM     18  N   UNL     1      -2.003  -1.868  -0.246  0.00  0.00    -0.203 NA
ATOM     19  C   UNL     1      -3.102  -2.598  -0.808  0.00  0.00    +0.242 C 
ATOM     20  O   UNL     1      -4.171  -1.959  -1.027  0.00  0.00    -0.273 OA
ATOM     21  C   UNL     1      -3.138  -4.085  -0.886  0.00  0.00    +0.096 C 
ENDBRANCH   7  18
BRANCH   1  23
ATOM     22  C   UNL     1       4.222  -1.129   2.222  0.00  0.00    +0.253 C 
ATOM     23  O   UNL     1       4.243  -1.744   1.024  0.00  0.00    -0.468 OA
ENDBRANCH   1  23
BRANCH   2  24
ATOM     24  O   UNL     1       3.924  -0.364  -1.427  0.00  0.00    -0.465 OA
ATOM     25  C   UNL     1       3.888   0.832  -2.164  0.00  0.00    +0.253 C 
ENDBRANCH   2  24
BRANCH   3  26
ATOM     26  O   UNL     1       1.274   0.413  -2.058  0.00  0.00    -0.468 OA
ATOM     27  C   UNL     1       0.834  -0.515  -3.048  0.00  0.00    +0.253 C 
ENDBRANCH   3  26
BRANCH  13  28
ATOM     28  O   UNL     1      -1.323   4.688   0.711  0.00  0.00    -0.468 OA
ATOM     29  C   UNL     1      -0.344   5.586   0.207  0.00  0.00    +0.253 C 
ENDBRANCH  13  28
TORSDOF 5
