REMARK  Name = 
REMARK  2 active torsions:
REMARK  status: ('A' for Active; 'I' for Inactive)
REMARK    1  A    between atoms: C_2  and  C_3
REMARK    2  A    between atoms: C_6  and  S_7
REMARK                            x       y       z     vdW  Elec       q    Type
REMARK                         _______ _______ _______ _____ _____    ______ ____
ROOT
ATOM      1  C   UNL     1       2.026  -0.454  -0.157  0.00  0.00    -0.003 A 
ATOM      2  C   UNL     1       1.291  -1.274   0.677  0.00  0.00    -0.001 A 
ATOM      3  C   UNL     1      -0.095  -1.242   0.620  0.00  0.00    +0.020 A 
ATOM      4  C   UNL     1      -0.786  -0.459  -0.295  0.00  0.00    +0.125 A 
ATOM      5  C   UNL     1       0.016   0.234  -1.195  0.00  0.00    +0.020 A 
ATOM      6  C   UNL     1       1.372  -0.012  -1.296  0.00  0.00    -0.001 A 
ENDROOT
BRANCH   4   7
ATOM      7  S   UNL     1      -2.300   0.329   0.144  0.00  0.00    +0.093 S 
ATOM      8  O   UNL     1      -2.774   1.114  -1.041  0.00  0.00    -0.150 OA
ATOM      9  O   UNL     1      -2.052   1.256   1.311  0.00  0.00    -0.150 OA
ATOM     10  N   UNL     1      -3.526  -0.826   0.510  0.00  0.00    +0.039 NA
ENDBRANCH   4   7
BRANCH   1  12
ATOM     11  N   UNL     1       3.405   1.360   0.561  0.00  0.00    -0.126 NA
ATOM     12  C   UNL     1       3.424  -0.027   0.161  0.00  0.00    +0.136 C 
ENDBRANCH   1  12
TORSDOF 2
