REMARK  Name = 
REMARK  5 active torsions:
REMARK  status: ('A' for Active; 'I' for Inactive)
REMARK    1  A    between atoms: C_6  and  O_7
REMARK    2  A    between atoms: O_7  and  C_8
REMARK    3  A    between atoms: C_8  and  C_10
REMARK    4  A    between atoms: C_10  and  C_12
REMARK    5  A    between atoms: C_10  and  C_18
REMARK                            x       y       z     vdW  Elec       q    Type
REMARK                         _______ _______ _______ _____ _____    ______ ____
ROOT
ATOM      1  C   UNL     1      -1.259   0.591   0.075  0.00  0.00    +0.233 C 
ATOM      2  O   UNL     1      -1.945   1.575   0.775  0.00  0.00    -0.210 OA
ENDROOT
BRANCH   1   3
ATOM      3  C   UNL     1      -1.952  -0.708   0.351  0.00  0.00    +0.015 A 
ATOM      4  C   UNL     1      -2.534  -0.877   1.601  0.00  0.00    -0.001 A 
ATOM      5  C   UNL     1      -2.569  -2.106   2.233  0.00  0.00    -0.000 A 
ATOM      6  C   UNL     1      -2.543  -3.234   1.436  0.00  0.00    -0.000 A 
ATOM      7  C   UNL     1      -2.046  -3.111   0.149  0.00  0.00    -0.000 A 
ATOM      8  C   UNL     1      -1.581  -1.880  -0.294  0.00  0.00    -0.001 A 
ENDBRANCH   1   3
BRANCH   1   9
ATOM      9  C   UNL     1      -1.413   0.857  -1.392  0.00  0.00    +0.043 C 
ATOM     10  C   UNL     1      -1.483   2.317  -1.728  0.00  0.00    +0.003 C 
ATOM     11  C   UNL     1      -2.890   2.585  -2.190  0.00  0.00    +0.000 C 
ATOM     12  C   UNL     1      -3.485   1.260  -2.587  0.00  0.00    +0.000 C 
ATOM     13  C   UNL     1      -2.619   0.188  -1.989  0.00  0.00    +0.003 C 
ENDBRANCH   1   9
BRANCH   1  14
ATOM     14  C   UNL     1       0.142   0.431   0.516  0.00  0.00    +0.349 C 
ATOM     15  O   UNL     1       0.400  -0.385   1.456  0.00  0.00    -0.247 OA
BRANCH  14  16
ATOM     16  O   UNL     1       1.215   1.165   0.070  0.00  0.00    -0.444 OA
BRANCH  16  20
ATOM     17  C   UNL     1       4.556   0.391   0.275  0.00  0.00    +0.171 C 
ATOM     18  N   UNL     1       4.542   0.419   0.275  0.00  0.00    +0.309 N 
ATOM     19  C   UNL     1       3.494   1.403   0.048  0.00  0.00    +0.153 C 
ATOM     20  C   UNL     1       2.386   0.264  -0.386  0.00  0.00    +0.229 C 
ATOM     21  C   UNL     1       2.526  -0.426   1.105  0.00  0.00    +0.111 C 
ATOM     22  C   UNL     1       4.012  -0.586   1.180  0.00  0.00    +0.113 C 
ATOM     23  C   UNL     1       5.047  -0.136  -0.980  0.00  0.00    +0.171 C 
ENDBRANCH  16  20
ENDBRANCH  14  16
ENDBRANCH   1  14
TORSDOF 5
