REMARK  Name = 
REMARK  6 active torsions:
REMARK  status: ('A' for Active; 'I' for Inactive)
REMARK    1  A    between atoms: C_2  and  N_4
REMARK    2  A    between atoms: C_11  and  O_12
REMARK    3  A    between atoms: O_12  and  C_13
REMARK    4  A    between atoms: C_13  and  C_15
REMARK    5  A    between atoms: C_15  and  C_16
REMARK    6  A    between atoms: C_15  and  C_18
REMARK                            x       y       z     vdW  Elec       q    Type
REMARK                         _______ _______ _______ _____ _____    ______ ____
ROOT
ATOM      1  N   UNL     1       3.372  -0.143   0.531  0.00  0.00    +0.289 N 
ATOM      2  C   UNL     1       3.069  -0.645  -0.884  0.00  0.00    +0.062 C 
ATOM      3  C   UNL     1       1.475  -1.044  -0.740  0.00  0.00    +0.099 C 
ATOM      4  C   UNL     1       0.949   0.137   0.260  0.00  0.00    +0.180 C 
ATOM      5  C   UNL     1       1.226  -0.776   1.576  0.00  0.00    +0.099 C 
ATOM      6  C   UNL     1       3.578  -2.173  -0.549  0.00  0.00    +0.061 C 
ATOM      7  C   UNL     1       2.635  -2.427   0.531  0.00  0.00    +0.061 C 
ATOM      8  C   UNL     1       2.825  -1.154   1.555  0.00  0.00    +0.062 C 
ATOM      9  C   UNL     1       3.155   1.183   0.769  0.00  0.00    +0.170 C 
ENDROOT
BRANCH   1  11
ATOM     10  C   UNL     1       5.073   0.311   2.098  0.00  0.00    +0.061 C 
ATOM     11  C   UNL     1       4.761  -0.329   0.834  0.00  0.00    +0.058 C 
ATOM     12  C   UNL     1       5.741  -0.790  -0.071  0.00  0.00    +0.061 C 
ENDBRANCH   1  11
BRANCH   4  13
ATOM     13  O   UNL     1      -0.513  -0.351   0.164  0.00  0.00    -0.452 OA
BRANCH  13  14
ATOM     14  C   UNL     1      -1.232   0.104  -0.927  0.00  0.00    +0.323 C 
ATOM     15  O   UNL     1      -0.557   0.223  -1.982  0.00  0.00    -0.250 OA
BRANCH  14  16
ATOM     16  C   UNL     1      -2.260   1.313  -0.639  0.00  0.00    +0.154 C 
BRANCH  16  17
ATOM     17  C   UNL     1      -3.383   0.405   0.050  0.00  0.00    -0.009 A 
ATOM     18  C   UNL     1      -3.433  -0.915  -0.053  0.00  0.00    -0.004 A 
ATOM     19  C   UNL     1      -4.658  -1.553   0.121  0.00  0.00    -0.000 A 
ATOM     20  C   UNL     1      -5.770  -0.768   0.409  0.00  0.00    -0.000 A 
ATOM     21  C   UNL     1      -5.580   0.531   0.867  0.00  0.00    -0.000 A 
ATOM     22  C   UNL     1      -4.372   1.153   0.618  0.00  0.00    -0.004 A 
ENDBRANCH  16  17
BRANCH  16  23
ATOM     23  C   UNL     1      -2.957   1.224  -2.118  0.00  0.00    +0.198 C 
ATOM     24  O   UNL     1      -3.146  -0.094  -2.420  0.00  0.00    -0.219 OA
ENDBRANCH  16  23
ENDBRANCH  14  16
ENDBRANCH  13  14
ENDBRANCH   4  13
TORSDOF 6
