REMARK  Name = 
REMARK  0 active torsions:
REMARK  status: ('A' for Active; 'I' for Inactive)
REMARK                            x       y       z     vdW  Elec       q    Type
REMARK                         _______ _______ _______ _____ _____    ______ ____
ROOT
ATOM      1  C   UNL     1      -1.059   2.481  -0.293  0.00  0.00    +0.032 C 
ATOM      2  C   UNL     1      -0.329   1.192  -0.203  0.00  0.00    -0.008 A 
ATOM      3  C   UNL     1      -1.090   0.037  -0.067  0.00  0.00    +0.050 A 
ATOM      4 CL   UNL     1      -2.522   0.094   0.960  0.00  0.00    -0.083 Cl
ATOM      5  C   UNL     1      -0.407  -1.154  -0.283  0.00  0.00    -0.008 A 
ATOM      6  C   UNL     1      -1.237  -2.393  -0.271  0.00  0.00    +0.032 C 
ATOM      7  C   UNL     1       0.980  -1.211  -0.265  0.00  0.00    +0.039 A 
ATOM      8  C   UNL     1       1.730  -0.063  -0.042  0.00  0.00    +0.195 A 
ATOM      9  O   UNL     1       2.877  -0.110   0.756  0.00  0.00    -0.287 OA
ATOM     10  C   UNL     1       1.056   1.127  -0.291  0.00  0.00    +0.039 A 
ENDROOT
TORSDOF 0
