REMARK  Name = 
REMARK  2 active torsions:
REMARK  status: ('A' for Active; 'I' for Inactive)
REMARK    1  A    between atoms: C_26  and  C_27
REMARK    2  A    between atoms: C_27  and  C_29
REMARK                            x       y       z     vdW  Elec       q    Type
REMARK                         _______ _______ _______ _____ _____    ______ ____
ROOT
ATOM      1  C   UNL     1      -4.407  -2.196  -0.762  0.00  0.00    +0.061 C 
ATOM      2  C   UNL     1      -3.158  -1.944  -0.154  0.00  0.00    +0.188 C 
ATOM      3  O   UNL     1      -3.269  -1.049   0.902  0.00  0.00    -0.330 OA
ATOM      4  C   UNL     1      -2.730   0.139   0.522  0.00  0.00    +0.172 C 
ATOM      5  C   UNL     1      -2.984   0.001  -1.097  0.00  0.00    +0.149 C 
ATOM      6  C   UNL     1      -1.622   0.856  -1.492  0.00  0.00    +0.033 C 
ATOM      7  C   UNL     1      -0.643  -0.136  -0.686  0.00  0.00    +0.008 C 
ATOM      8  C   UNL     1       0.647   0.944  -0.497  0.00  0.00    +0.033 C 
ATOM      9  C   UNL     1       1.492  -0.148   0.314  0.00  0.00    +0.164 C 
ATOM     10  C   UNL     1       0.945  -0.103   1.860  0.00  0.00    +0.182 C 
ATOM     11  C   UNL     1      -0.632  -0.454   1.578  0.00  0.00    +0.038 C 
ATOM     12  O   UNL     1       0.748   1.402   1.876  0.00  0.00    -0.220 OA
ATOM     13  F   UNL     1       1.335  -1.370  -0.163  0.00  0.00    -0.237 F 
ATOM     14  C   UNL     1       2.893   0.356   0.397  0.00  0.00    +0.046 C 
ATOM     15  C   UNL     1       3.466   0.159  -0.973  0.00  0.00    -0.039 C 
ATOM     16  C   UNL     1       4.168  -0.923  -1.220  0.00  0.00    +0.029 C 
ATOM     17  C   UNL     1       5.263  -1.196  -0.278  0.00  0.00    +0.173 C 
ATOM     18  C   UNL     1       5.225  -0.342   0.953  0.00  0.00    +0.070 C 
ATOM     19  O   UNL     1       6.154  -2.041  -0.488  0.00  0.00    -0.291 OA
ATOM     20  C   UNL     1       2.686   0.909  -1.998  0.00  0.00    +0.022 C 
ATOM     21  C   UNL     1       2.957   1.853   0.618  0.00  0.00    +0.007 C 
ATOM     22  C   UNL     1       3.759  -0.343   1.371  0.00  0.00    +0.014 C 
ATOM     23  C   UNL     1       1.262   0.497  -1.928  0.00  0.00    +0.007 C 
ATOM     24  C   UNL     1      -1.314   0.382   0.690  0.00  0.00    +0.034 C 
ATOM     25  C   UNL     1      -1.259   1.876   0.713  0.00  0.00    +0.003 C 
ATOM     26  O   UNL     1      -2.347  -1.377  -1.118  0.00  0.00    -0.334 OA
ATOM     27  C   UNL     1      -2.646  -3.271   0.334  0.00  0.00    +0.061 C 
ENDROOT
BRANCH   4  28
ATOM     28  C   UNL     1      -3.636   1.323   0.742  0.00  0.00    +0.193 C 
ATOM     29  O   UNL     1      -3.804   1.783   1.873  0.00  0.00    -0.292 OA
BRANCH  28  30
ATOM     30  C   UNL     1      -3.724   2.423  -0.285  0.00  0.00    +0.161 C 
ATOM     31 CL   UNL     1      -4.823   1.992  -1.606  0.00  0.00    -0.105 Cl
ENDBRANCH  28  30
ENDBRANCH   4  28
TORSDOF 2
