REMARK  Name = 
REMARK  6 active torsions:
REMARK  status: ('A' for Active; 'I' for Inactive)
REMARK    1  A    between atoms: O_2  and  C_3
REMARK    2  A    between atoms: C_3  and  C_5
REMARK    3  A    between atoms: C_11  and  C_12
REMARK    4  A    between atoms: C_12  and  O_14
REMARK    5  A    between atoms: O_14  and  C_15
REMARK    6  A    between atoms: C_18  and  C_19
REMARK                            x       y       z     vdW  Elec       q    Type
REMARK                         _______ _______ _______ _____ _____    ______ ____
ROOT
ATOM      1  C   UNL     1       0.059   1.699  -0.321  0.00  0.00    +0.073 C 
ATOM      2  C   UNL     1       0.282   0.181   0.264  0.00  0.00    +0.083 C 
ATOM      3  C   UNL     1       1.254  -0.304  -0.957  0.00  0.00    +0.073 C 
ATOM      4  C   UNL     1       2.155   0.541  -1.361  0.00  0.00    +0.051 C 
ATOM      5  C   UNL     1       2.878   0.108  -2.603  0.00  0.00    +0.049 C 
ATOM      6  N   UNL     1       2.299   1.862  -0.861  0.00  0.00    -0.221 NA
ATOM      7  C   UNL     1       1.196   2.382  -0.148  0.00  0.00    +0.051 C 
ATOM      8  C   UNL     1       1.252   3.797   0.272  0.00  0.00    +0.049 C 
ENDROOT
BRANCH   2   9
ATOM      9  C   UNL     1      -1.089  -0.345  -0.454  0.00  0.00    +0.009 A 
ATOM     10  C   UNL     1      -2.170  -0.385   0.423  0.00  0.00    +0.140 A 
ATOM     11  C   UNL     1      -3.302  -1.100   0.050  0.00  0.00    +0.143 A 
ATOM     12  N   UNL     1      -4.112  -1.140   1.136  0.00  0.00    -0.048 NA
ATOM     13  O   UNL     1      -3.612  -0.344   2.024  0.00  0.00    -0.242 OA
ATOM     14  C   UNL     1      -3.206  -2.049  -0.954  0.00  0.00    +0.024 A 
ATOM     15  C   UNL     1      -2.167  -1.883  -1.848  0.00  0.00    +0.001 A 
ATOM     16  N   UNL     1      -2.340  -0.188   1.754  0.00  0.00    -0.049 NA
ATOM     17  C   UNL     1      -0.983  -1.409  -1.296  0.00  0.00    -0.002 A 
ENDBRANCH   2   9
BRANCH   1  18
ATOM     18  C   UNL     1      -1.099   2.360   0.307  0.00  0.00    +0.339 C 
ATOM     19  O   UNL     1      -2.074   2.678  -0.423  0.00  0.00    -0.245 OA
BRANCH  18  21
ATOM     20  C   UNL     1      -2.047   3.752   2.097  0.00  0.00    +0.256 C 
ATOM     21  O   UNL     1      -0.988   3.072   1.502  0.00  0.00    -0.442 OA
ENDBRANCH  18  21
ENDBRANCH   1  18
BRANCH   3  22
ATOM     22  C   UNL     1       1.799  -1.627  -0.592  0.00  0.00    +0.339 C 
ATOM     23  O   UNL     1       2.269  -2.331  -1.518  0.00  0.00    -0.245 OA
BRANCH  22  24
ATOM     24  O   UNL     1       2.150  -1.979   0.694  0.00  0.00    -0.449 OA
BRANCH  24  25
ATOM     25  C   UNL     1       3.347  -2.675   1.032  0.00  0.00    +0.169 C 
ATOM     26  C   UNL     1       4.146  -2.871  -0.245  0.00  0.00    +0.047 C 
ATOM     27  C   UNL     1       4.104  -1.801   2.026  0.00  0.00    +0.047 C 
ENDBRANCH  24  25
ENDBRANCH  22  24
ENDBRANCH   3  22
TORSDOF 6
