REMARK  Name = 
REMARK  4 active torsions:
REMARK  status: ('A' for Active; 'I' for Inactive)
REMARK    1  A    between atoms: C_2  and  C_4
REMARK    2  A    between atoms: C_4  and  C_5
REMARK    3  A    between atoms: C_5  and  C_6
REMARK    4  A    between atoms: C_5  and  C_12
REMARK                            x       y       z     vdW  Elec       q    Type
REMARK                         _______ _______ _______ _____ _____    ______ ____
ROOT
ATOM      1  C   UNL     1       0.368  -0.397   0.385  0.00  0.00    +0.097 A 
ATOM      2  C   UNL     1       0.744  -1.088  -0.691  0.00  0.00    +0.345 A 
ATOM      3  O   UNL     1      -0.162  -1.508  -1.452  0.00  0.00    -0.245 OA
ATOM      4  O   UNL     1       2.030  -1.148  -0.996  0.00  0.00    -0.421 OA
ATOM      5  C   UNL     1       2.933  -0.440  -0.386  0.00  0.00    +0.152 A 
ATOM      6  C   UNL     1       2.568   0.379   0.675  0.00  0.00    +0.073 A 
ATOM      7  C   UNL     1       3.390   1.452   0.988  0.00  0.00    +0.006 A 
ATOM      8  C   UNL     1       4.418   1.852   0.141  0.00  0.00    +0.000 A 
ATOM      9  C   UNL     1       4.915   0.868  -0.705  0.00  0.00    +0.003 A 
ATOM     10  C   UNL     1       4.213  -0.302  -0.888  0.00  0.00    +0.038 A 
ATOM     11  C   UNL     1       1.273   0.271   1.170  0.00  0.00    +0.201 A 
ATOM     12  O   UNL     1       0.988   0.885   2.364  0.00  0.00    -0.287 OA
ENDROOT
BRANCH   1  13
ATOM     13  C   UNL     1      -1.080  -0.660   1.070  0.00  0.00    +0.061 C 
BRANCH  13  14
ATOM     14  C   UNL     1      -1.912   0.218  -0.030  0.00  0.00    -0.018 A 
ATOM     15  C   UNL     1      -1.289   1.402  -0.407  0.00  0.00    -0.004 A 
ATOM     16  C   UNL     1      -2.016   2.510  -0.806  0.00  0.00    -0.000 A 
ATOM     17  C   UNL     1      -3.187   2.739  -0.138  0.00  0.00    -0.000 A 
ATOM     18  C   UNL     1      -3.783   1.698   0.518  0.00  0.00    -0.000 A 
ATOM     19  C   UNL     1      -3.155   0.477   0.552  0.00  0.00    -0.004 A 
ENDBRANCH  13  14
BRANCH  13  20
ATOM     20  C   UNL     1      -1.379  -2.085   0.264  0.00  0.00    +0.074 C 
BRANCH  20  22
ATOM     21  C   UNL     1      -3.631  -2.735   1.234  0.00  0.00    +0.072 C 
ATOM     22  C   UNL     1      -2.832  -2.161   0.101  0.00  0.00    +0.152 C 
ATOM     23  O   UNL     1      -3.414  -2.228  -0.981  0.00  0.00    -0.296 OA
ENDBRANCH  20  22
ENDBRANCH  13  20
ENDBRANCH   1  13
TORSDOF 4
