REMARK  Name = 
REMARK  1 active torsions:
REMARK  status: ('A' for Active; 'I' for Inactive)
REMARK    1  A    between atoms: C_2  and  C_3
REMARK                            x       y       z     vdW  Elec       q    Type
REMARK                         _______ _______ _______ _____ _____    ______ ____
ROOT
ATOM      1  C   UNL     1      -0.370   0.303  -0.375  0.00  0.00    +0.080 C 
ATOM      2  C   UNL     1      -0.384  -0.459   0.911  0.00  0.00    +0.247 C 
ATOM      3  O   UNL     1      -1.396  -1.139   1.259  0.00  0.00    -0.273 OA
ATOM      4  N   UNL     1       0.996  -0.790   1.116  0.00  0.00    -0.145 NA
ATOM      5  C   UNL     1       1.724  -0.613  -0.106  0.00  0.00    +0.248 C 
ATOM      6  O   UNL     1       2.818   0.015  -0.250  0.00  0.00    -0.273 OA
ATOM      7  C   UNL     1       0.655  -0.516  -1.152  0.00  0.00    +0.096 C 
ATOM      8  C   UNL     1       0.255   1.637  -0.097  0.00  0.00    +0.010 C 
ENDROOT
BRANCH   1  10
ATOM      9  C   UNL     1      -2.596   1.197  -0.263  0.00  0.00    +0.001 C 
ATOM     10  C   UNL     1      -1.701   0.364  -1.042  0.00  0.00    +0.009 C 
ENDBRANCH   1  10
TORSDOF 1
