REMARK  Name = 
REMARK  9 active torsions:
REMARK  status: ('A' for Active; 'I' for Inactive)
REMARK    1  A    between atoms: C_6  and  C_8
REMARK    2  A    between atoms: C_8  and  C_9
REMARK    3  A    between atoms: C_8  and  N_16
REMARK    4  A    between atoms: C_9  and  C_10
REMARK    5  A    between atoms: C_10  and  C_11
REMARK    6  A    between atoms: C_11  and  N_12
REMARK    7  A    between atoms: N_16  and  S_17
REMARK    8  A    between atoms: S_17  and  C_20
REMARK    9  A    between atoms: C_31  and  C_32
REMARK                            x       y       z     vdW  Elec       q    Type
REMARK                         _______ _______ _______ _____ _____    ______ ____
ROOT
ATOM      1  C   UNL     1      -1.357   1.131   0.717  0.00  0.00    +0.174 C 
ENDROOT
BRANCH   1   7
ATOM      2  C   UNL     1      -2.161  -5.305  -0.947  0.00  0.00    +0.000 C 
ATOM      3  C   UNL     1      -3.112  -4.080  -0.439  0.00  0.00    +0.004 C 
ATOM      4  C   UNL     1      -2.027  -3.613   0.669  0.00  0.00    +0.032 C 
ATOM      5  C   UNL     1      -2.621  -2.234   1.341  0.00  0.00    +0.179 C 
ATOM      6  N   UNL     1      -2.215  -1.374   0.082  0.00  0.00    -0.270 N 
ATOM      7  C   UNL     1      -2.093  -0.085  -0.021  0.00  0.00    +0.244 C 
ATOM      8  O   UNL     1      -3.010   0.558  -0.644  0.00  0.00    -0.273 OA
ATOM      9  C   UNL     1      -2.867  -1.870  -1.150  0.00  0.00    +0.094 C 
ATOM     10  C   UNL     1      -2.481  -3.151  -1.626  0.00  0.00    +0.022 C 
BRANCH   5  11
ATOM     11  C   UNL     1      -4.167  -2.443   0.906  0.00  0.00    +0.382 C 
ATOM     12  O   UNL     1      -4.858  -3.431   1.565  0.00  0.00    -0.244 OA
ATOM     13  O   UNL     1      -4.763  -1.433   0.515  0.00  0.00    -0.244 OA
ENDBRANCH   5  11
ENDBRANCH   1   7
BRANCH   1  14
ATOM     14  N   UNL     1      -0.137   0.336   1.308  0.00  0.00    -0.070 NA
BRANCH  14  15
ATOM     15  S   UNL     1       0.887  -0.383   0.322  0.00  0.00    +0.078 S 
ATOM     16  O   UNL     1       0.478  -0.794  -1.057  0.00  0.00    -0.152 OA
ATOM     17  O   UNL     1       1.184  -1.704   1.033  0.00  0.00    -0.152 OA
BRANCH  15  18
ATOM     18  C   UNL     1       2.469   0.371   0.032  0.00  0.00    +0.138 A 
ATOM     19  C   UNL     1       3.584  -0.464   0.132  0.00  0.00    +0.080 A 
ATOM     20  N   UNL     1       3.593  -1.246   1.334  0.00  0.00    -0.237 NA
ATOM     21  C   UNL     1       4.694  -1.931   1.857  0.00  0.00    +0.113 C 
ATOM     22  C   UNL     1       6.030  -0.995   1.779  0.00  0.00    +0.026 C 
ATOM     23  C   UNL     1       5.986  -0.860   0.153  0.00  0.00    +0.029 C 
ATOM     24  C   UNL     1       5.243   0.408   2.080  0.00  0.00    +0.002 C 
ATOM     25  C   UNL     1       4.846  -0.081  -0.268  0.00  0.00    -0.006 A 
ATOM     26  C   UNL     1       4.950   1.024  -1.111  0.00  0.00    -0.003 A 
ATOM     27  C   UNL     1       3.821   1.710  -1.492  0.00  0.00    +0.001 A 
ATOM     28  C   UNL     1       2.610   1.269  -1.029  0.00  0.00    +0.021 A 
ENDBRANCH  15  18
ENDBRANCH  14  15
ENDBRANCH   1  14
BRANCH   1  29
ATOM     29  C   UNL     1      -0.570   1.550  -0.677  0.00  0.00    +0.032 C 
BRANCH  29  30
ATOM     30  C   UNL     1      -0.867   3.001  -0.899  0.00  0.00    +0.049 C 
BRANCH  30  31
ATOM     31  C   UNL     1      -2.279   3.311  -1.279  0.00  0.00    +0.220 C 
BRANCH  31  32
ATOM     32  N   UNL     1      -2.737   4.443  -0.511  0.00  0.00    -0.087 NA
ATOM     33  C   UNL     1      -2.100   5.677  -0.808  0.00  0.00    +0.535 C 
ATOM     34  N   UNL     1      -2.049   6.703   0.180  0.00  0.00    +0.135 NA
ATOM     35  N   UNL     1      -1.902   5.987  -2.047  0.00  0.00    +0.135 NA
ENDBRANCH  31  32
ENDBRANCH  30  31
ENDBRANCH  29  30
ENDBRANCH   1  29
TORSDOF 9
