REMARK  Name = 
REMARK  6 active torsions:
REMARK  status: ('A' for Active; 'I' for Inactive)
REMARK    1  A    between atoms: C_9  and  O_10
REMARK    2  A    between atoms: O_10  and  C_11
REMARK    3  A    between atoms: N_13  and  C_14
REMARK    4  A    between atoms: N_13  and  C_17
REMARK    5  A    between atoms: C_14  and  C_15
REMARK    6  A    between atoms: C_17  and  C_18
REMARK                            x       y       z     vdW  Elec       q    Type
REMARK                         _______ _______ _______ _____ _____    ______ ____
ROOT
ATOM      1  C   UNL     1      -4.526  -0.530  -1.665  0.00  0.00    +0.003 C 
ATOM      2  C   UNL     1      -4.665  -0.241  -0.306  0.00  0.00    +0.028 C 
ATOM      3  C   UNL     1      -5.833  -1.095   0.448  0.00  0.00    +0.152 C 
ATOM      4  O   UNL     1      -5.919  -2.150  -0.654  0.00  0.00    -0.223 OA
ATOM      5  C   UNL     1      -4.791  -2.085   1.279  0.00  0.00    +0.033 C 
ATOM      6  C   UNL     1      -3.707  -2.251   0.185  0.00  0.00    +0.003 C 
ATOM      7  C   UNL     1      -3.420  -0.715   0.617  0.00  0.00    +0.003 C 
ATOM      8  C   UNL     1      -2.376  -0.260  -0.618  0.00  0.00    +0.004 C 
ATOM      9  C   UNL     1      -2.172   1.111   0.354  0.00  0.00    +0.022 C 
ATOM     10  C   UNL     1      -0.986   1.745  -0.505  0.00  0.00    -0.026 A 
ATOM     11  C   UNL     1      -0.044   0.873  -1.063  0.00  0.00    -0.023 A 
ATOM     12  C   UNL     1      -0.343  -0.558  -1.354  0.00  0.00    +0.026 C 
ATOM     13  C   UNL     1       1.295   1.261  -0.968  0.00  0.00    +0.033 A 
ATOM     14  C   UNL     1       1.775   1.944   0.145  0.00  0.00    +0.150 A 
ATOM     15  C   UNL     1       0.853   2.790   0.711  0.00  0.00    +0.037 A 
ATOM     16  C   UNL     1      -0.464   2.817   0.231  0.00  0.00    -0.001 A 
ATOM     17  C   UNL     1      -3.443   1.822  -0.388  0.00  0.00    +0.004 C 
ATOM     18  C   UNL     1      -1.081  -1.071  -0.094  0.00  0.00    +0.005 C 
ATOM     19  C   UNL     1      -4.704   1.184   0.200  0.00  0.00    +0.003 C 
ENDROOT
BRANCH  14  20
ATOM     20  O   UNL     1       3.003   1.583   0.721  0.00  0.00    -0.410 OA
BRANCH  20  21
ATOM     21  C   UNL     1       3.583   0.408   0.269  0.00  0.00    +0.409 C 
ATOM     22  N   UNL     1       4.625  -0.329   0.879  0.00  0.00    -0.243 N 
ATOM     23  O   UNL     1       3.289  -0.035  -0.882  0.00  0.00    -0.226 OA
BRANCH  22  24
ATOM     24  C   UNL     1       5.963   0.120   0.471  0.00  0.00    +0.114 C 
BRANCH  24  25
ATOM     25  C   UNL     1       6.173  -0.268  -0.991  0.00  0.00    +0.116 C 
ATOM     26 CL   UNL     1       6.862   1.143  -1.845  0.00  0.00    -0.112 Cl
ENDBRANCH  24  25
ENDBRANCH  22  24
BRANCH  22  27
ATOM     27  C   UNL     1       4.565  -1.794   0.836  0.00  0.00    +0.114 C 
BRANCH  27  28
ATOM     28  C   UNL     1       3.222  -2.342   1.177  0.00  0.00    +0.116 C 
ATOM     29 CL   UNL     1       3.264  -3.075   2.808  0.00  0.00    -0.112 Cl
ENDBRANCH  27  28
ENDBRANCH  22  27
ENDBRANCH  20  21
ENDBRANCH  14  20
TORSDOF 6
