REMARK  Name = 
REMARK  0 active torsions:
REMARK  status: ('A' for Active; 'I' for Inactive)
REMARK                            x       y       z     vdW  Elec       q    Type
REMARK                         _______ _______ _______ _____ _____    ______ ____
ROOT
ATOM      1  N   UNL     1      -4.458   1.487  -0.688  0.00  0.00    -0.128 NA
ATOM      2  C   UNL     1      -3.492   0.517  -0.270  0.00  0.00    +0.091 A 
ATOM      3  C   UNL     1      -2.427   0.955   0.506  0.00  0.00    +0.037 A 
ATOM      4  C   UNL     1      -1.197   0.328   0.497  0.00  0.00    +0.083 A 
ATOM      5  C   UNL     1      -1.208  -1.009   0.123  0.00  0.00    +0.018 A 
ATOM      6  C   UNL     1       0.025  -1.649   0.151  0.00  0.00    +0.003 A 
ATOM      7  C   UNL     1       1.200  -0.914   0.263  0.00  0.00    +0.018 A 
ATOM      8  C   UNL     1       1.169   0.440   0.568  0.00  0.00    +0.083 A 
ATOM      9  C   UNL     1       2.184   1.198  -0.004  0.00  0.00    +0.037 A 
ATOM     10  C   UNL     1       3.375   0.631  -0.364  0.00  0.00    +0.091 A 
ATOM     11  N   UNL     1       4.465   1.375  -0.875  0.00  0.00    -0.128 NA
ATOM     12  C   UNL     1       3.515  -0.747  -0.359  0.00  0.00    +0.018 A 
ATOM     13  C   UNL     1       2.417  -1.523  -0.016  0.00  0.00    +0.003 A 
ATOM     14  C   UNL     1      -2.197  -1.417  -0.762  0.00  0.00    +0.003 A 
ATOM     15  N   UNL     1      -0.046   0.970   0.799  0.00  0.00    -0.245 NA
ATOM     16  C   UNL     1      -3.325  -0.642  -1.003  0.00  0.00    +0.018 A 
ENDROOT
TORSDOF 0
