REMARK  Name = 
REMARK  1 active torsions:
REMARK  status: ('A' for Active; 'I' for Inactive)
REMARK    1  A    between atoms: C_11  and  C_12
REMARK                            x       y       z     vdW  Elec       q    Type
REMARK                         _______ _______ _______ _____ _____    ______ ____
ROOT
ATOM      1  O   UNL     1      -3.363  -2.666   0.211  0.00  0.00    -0.268 OA
ATOM      2  C   UNL     1      -2.366  -1.967  -0.043  0.00  0.00    +0.300 C 
ATOM      3  C   UNL     1      -1.083  -2.866   0.419  0.00  0.00    +0.333 C 
ATOM      4  O   UNL     1      -1.036  -3.628  -0.917  0.00  0.00    -0.186 OA
ATOM      5  N   UNL     1       0.089  -1.876  -0.026  0.00  0.00    -0.233 NA
ATOM      6  C   UNL     1       0.253  -0.727   0.591  0.00  0.00    +0.081 C 
ATOM      7  C   UNL     1      -0.539   0.292  -0.151  0.00  0.00    +0.034 A 
ATOM      8  C   UNL     1      -1.530   0.086  -1.121  0.00  0.00    +0.075 A 
ATOM      9  C   UNL     1      -2.120   1.163  -1.772  0.00  0.00    +0.018 A 
ATOM     10  C   UNL     1      -1.646   2.419  -1.385  0.00  0.00    +0.013 A 
ATOM     11  C   UNL     1      -1.098   2.634  -0.126  0.00  0.00    +0.058 A 
ATOM     12 CL   UNL     1      -1.757   3.774   1.047  0.00  0.00    -0.082 Cl
ATOM     13  C   UNL     1      -0.262   1.591   0.273  0.00  0.00    +0.014 A 
ATOM     14  N   UNL     1      -2.288  -1.128  -1.181  0.00  0.00    -0.175 NA
ENDROOT
BRANCH   6  15
ATOM     15  C   UNL     1       1.649  -0.246   0.534  0.00  0.00    +0.028 A 
ATOM     16  C   UNL     1       2.200   0.672   1.361  0.00  0.00    +0.059 A 
ATOM     17 CL   UNL     1       1.698   0.554   3.027  0.00  0.00    -0.082 Cl
ATOM     18  C   UNL     1       3.381   1.326   1.038  0.00  0.00    +0.011 A 
ATOM     19  C   UNL     1       3.929   1.139  -0.223  0.00  0.00    +0.001 A 
ATOM     20  C   UNL     1       3.497   0.071  -0.975  0.00  0.00    +0.000 A 
ATOM     21  C   UNL     1       2.393  -0.616  -0.580  0.00  0.00    +0.002 A 
ENDBRANCH   6  15
TORSDOF 1
