REMARK  Name = 
REMARK  4 active torsions:
REMARK  status: ('A' for Active; 'I' for Inactive)
REMARK    1  A    between atoms: C_6  and  N_7
REMARK    2  A    between atoms: N_7  and  C_9
REMARK    3  A    between atoms: C_9  and  O_11
REMARK    4  A    between atoms: O_11  and  C_12
REMARK                            x       y       z     vdW  Elec       q    Type
REMARK                         _______ _______ _______ _____ _____    ______ ____
ROOT
ATOM      1  C   UNL     1       0.653   0.403  -0.900  0.00  0.00    +0.241 C 
ATOM      2  S   UNL     1       0.290   1.674   0.039  0.00  0.00    +0.007 S 
ENDROOT
BRANCH   1   3
ATOM      3  N   UNL     1       1.886  -0.301  -0.799  0.00  0.00    -0.251 N 
ATOM      4  C   UNL     1       1.996  -1.681  -1.263  0.00  0.00    +0.121 C 
BRANCH   3   8
ATOM      5  C   UNL     1       6.419  -1.012   0.617  0.00  0.00    +0.031 C 
ATOM      6  C   UNL     1       5.276  -0.046   0.632  0.00  0.00    -0.021 A 
ATOM      7  C   UNL     1       3.995  -0.465   0.359  0.00  0.00    +0.011 A 
ATOM      8  C   UNL     1       3.019   0.331  -0.192  0.00  0.00    +0.054 A 
ATOM      9  C   UNL     1       3.387   1.610  -0.586  0.00  0.00    +0.015 A 
ATOM     10  C   UNL     1       4.630   2.100  -0.233  0.00  0.00    +0.001 A 
ATOM     11  C   UNL     1       5.562   1.297   0.408  0.00  0.00    -0.004 A 
ENDBRANCH   3   8
ENDBRANCH   1   3
BRANCH   1  12
ATOM     12  O   UNL     1      -0.387  -0.186  -1.620  0.00  0.00    -0.434 OA
BRANCH  12  13
ATOM     13  C   UNL     1      -1.399  -0.797  -0.873  0.00  0.00    +0.147 A 
ATOM     14  C   UNL     1      -1.918  -0.201   0.270  0.00  0.00    +0.038 A 
ATOM     15  C   UNL     1      -3.285  -0.203   0.512  0.00  0.00    +0.003 A 
ATOM     16  C   UNL     1      -4.148  -0.951  -0.280  0.00  0.00    +0.000 A 
ATOM     17  C   UNL     1      -5.412  -0.423  -0.505  0.00  0.00    +0.000 A 
ATOM     18  C   UNL     1      -5.846   0.744   0.107  0.00  0.00    +0.000 A 
ATOM     19  C   UNL     1      -5.105   1.162   1.204  0.00  0.00    +0.000 A 
ATOM     20  C   UNL     1      -3.551  -1.835  -1.163  0.00  0.00    +0.003 A 
ATOM     21  C   UNL     1      -3.875   0.576   1.481  0.00  0.00    +0.000 A 
ATOM     22  C   UNL     1      -2.187  -1.797  -1.429  0.00  0.00    +0.038 A 
ENDBRANCH  12  13
ENDBRANCH   1  12
TORSDOF 4
