REMARK  Name = 
REMARK  4 active torsions:
REMARK  status: ('A' for Active; 'I' for Inactive)
REMARK    1  A    between atoms: C_2  and  C_3
REMARK    2  A    between atoms: C_3  and  C_5
REMARK    3  A    between atoms: C_5  and  C_6
REMARK    4  A    between atoms: C_6  and  C_7
REMARK                            x       y       z     vdW  Elec       q    Type
REMARK                         _______ _______ _______ _____ _____    ______ ____
ROOT
ATOM      1  C   UNL     1       0.187   0.065   0.291  0.00  0.00    +0.035 C 
ENDROOT
BRANCH   1   2
ATOM      2  C   UNL     1       1.030  -1.190  -0.396  0.00  0.00    +0.114 C 
ATOM      3  N   UNL     1       1.934  -1.355   0.887  0.00  0.00    -0.128 NA
BRANCH   2   5
ATOM      4  C   UNL     1       2.612   0.715  -0.494  0.00  0.00    -0.003 C 
ATOM      5  C   UNL     1       2.061  -0.199  -1.167  0.00  0.00    -0.008 C 
ENDBRANCH   2   5
ENDBRANCH   1   2
BRANCH   1   6
ATOM      6  C   UNL     1      -0.674   0.159  -0.939  0.00  0.00    +0.116 C 
BRANCH   6   7
ATOM      7  C   UNL     1      -2.083   0.471  -0.737  0.00  0.00    +0.365 C 
ATOM      8  O   UNL     1      -2.805  -0.391   0.043  0.00  0.00    -0.246 OA
ATOM      9  O   UNL     1      -2.261   1.724  -0.794  0.00  0.00    -0.246 OA
ENDBRANCH   6   7
ENDBRANCH   1   6
TORSDOF 4
