REMARK  Name = 
REMARK  2 active torsions:
REMARK  status: ('A' for Active; 'I' for Inactive)
REMARK    1  A    between atoms: C_2  and  C_3
REMARK    2  A    between atoms: C_3  and  C_5
REMARK                            x       y       z     vdW  Elec       q    Type
REMARK                         _______ _______ _______ _____ _____    ______ ____
ROOT
ATOM      1  C   UNL     1       2.972  -0.037  -0.051  0.00  0.00    +0.052 C 
ATOM      2  C   UNL     1       1.584   0.167  -0.348  0.00  0.00    +0.009 C 
ATOM      3  C   UNL     1       1.023  -0.384   1.089  0.00  0.00    +0.001 C 
ATOM      4  C   UNL     1      -0.471   0.373   0.764  0.00  0.00    +0.003 C 
ATOM      5  C   UNL     1      -1.040  -1.082   0.118  0.00  0.00    +0.038 C 
ATOM      6  C   UNL     1      -0.538  -0.765  -1.521  0.00  0.00    +0.153 C 
ATOM      7  O   UNL     1      -0.680   0.765  -1.415  0.00  0.00    -0.223 OA
ATOM      8  C   UNL     1      -2.552  -0.601  -0.095  0.00  0.00    +0.036 C 
ATOM      9  C   UNL     1      -2.921   0.488   0.792  0.00  0.00    -0.038 C 
ATOM     10  C   UNL     1      -4.199   0.844   0.615  0.00  0.00    +0.034 C 
ATOM     11  C   UNL     1      -5.193  -0.093   0.061  0.00  0.00    +0.195 C 
ATOM     12  C   UNL     1      -4.737  -1.490   0.136  0.00  0.00    +0.038 C 
ATOM     13  O   UNL     1      -6.345   0.241  -0.281  0.00  0.00    -0.287 OA
ATOM     14  C   UNL     1      -2.389   0.700   2.175  0.00  0.00    +0.022 C 
ATOM     15  C   UNL     1      -2.911  -0.403  -1.499  0.00  0.00    +0.009 C 
ATOM     16  C   UNL     1      -3.440  -1.732   0.352  0.00  0.00    -0.020 C 
ATOM     17  C   UNL     1      -1.059   0.002   2.221  0.00  0.00    +0.004 C 
ATOM     18  C   UNL     1       1.666   0.954   1.775  0.00  0.00    +0.000 C 
ATOM     19  C   UNL     1       1.346   1.612  -0.433  0.00  0.00    +0.000 C 
ATOM     20  C   UNL     1       1.090  -0.816  -1.200  0.00  0.00    +0.033 C 
ATOM     21  C   UNL     1       3.232   0.497   1.484  0.00  0.00    +0.007 C 
ATOM     22  C   UNL     1       2.979  -0.995   2.173  0.00  0.00    +0.000 C 
ATOM     23  C   UNL     1       3.528  -1.413  -0.160  0.00  0.00    +0.007 C 
ENDROOT
BRANCH   1  24
ATOM     24  C   UNL     1       3.964   0.834  -0.769  0.00  0.00    +0.150 C 
ATOM     25  O   UNL     1       3.755   1.998  -1.055  0.00  0.00    -0.296 OA
BRANCH  24  27
ATOM     26  C   UNL     1       5.947  -0.244  -0.847  0.00  0.00    +0.008 C 
ATOM     27  C   UNL     1       5.391   0.578  -0.371  0.00  0.00    +0.064 C 
ENDBRANCH  24  27
ENDBRANCH   1  24
TORSDOF 2
