REMARK  Name = 
REMARK  5 active torsions:
REMARK  status: ('A' for Active; 'I' for Inactive)
REMARK    1  A    between atoms: N_4  and  CA_5
REMARK    2  A    between atoms: CA_5  and  CB_6
REMARK    3  A    between atoms: CA_5  and  C_11
REMARK    4  A    between atoms: CB_6  and  CG_7
REMARK    5  A    between atoms: CG_7  and  CD_8
REMARK                            x       y       z     vdW  Elec       q    Type
REMARK                         _______ _______ _______ _____ _____    ______ ____
ROOT
ATOM      1  CA  GLU A   1      -0.354  -0.294  -0.683  0.00  0.00    +0.200 C 
ENDROOT
BRANCH   1   4
ATOM      2  N   UNK A   0      -1.509   3.076   0.197  0.00  0.00    -0.068 NA
ATOM      3  C   UNK A   0      -1.573   1.689   0.086  0.00  0.00    +0.359 C 
ATOM      4  N   GLU A   1      -0.547   0.787   0.488  0.00  0.00    -0.176 NA
ATOM      5  O   UNK A   0      -2.702   1.157   0.079  0.00  0.00    -0.247 OA
ENDBRANCH   1   4
BRANCH   1   6
ATOM      6  C   GLU A   1      -1.733  -1.088  -0.269  0.00  0.00    +0.384 C 
ATOM      7  OXT GLU A   1      -1.603  -2.282   0.383  0.00  0.00    -0.244 OA
ATOM      8  O   GLU A   1      -2.328  -1.226  -1.389  0.00  0.00    -0.244 OA
ENDBRANCH   1   6
BRANCH   1   9
ATOM      9  CB  GLU A   1       0.653  -1.211   0.299  0.00  0.00    +0.045 C 
BRANCH   9  10
ATOM     10  CG  GLU A   1       1.999  -1.105  -0.353  0.00  0.00    +0.116 C 
BRANCH  10  11
ATOM     11  CD  GLU A   1       2.914  -0.162   0.357  0.00  0.00    +0.365 C 
ATOM     12  OE2 GLU A   1       4.266  -0.324   0.089  0.00  0.00    -0.246 OA
ATOM     13  OE1 GLU A   1       2.516   0.983   0.687  0.00  0.00    -0.246 OA
ENDBRANCH  10  11
ENDBRANCH   9  10
ENDBRANCH   1   9
TORSDOF 5
