REMARK  Name = 
REMARK  10 active torsions:
REMARK  status: ('A' for Active; 'I' for Inactive)
REMARK    1  A    between atoms: O_2  and  C_3
REMARK    2  A    between atoms: C_3  and  C_4
REMARK    3  A    between atoms: C_4  and  C_5
REMARK    4  A    between atoms: C_5  and  C_6
REMARK    5  A    between atoms: C_6  and  C_7
REMARK    6  A    between atoms: C_7  and  C_13
REMARK    7  A    between atoms: N_8  and  O_9
REMARK    8  A    between atoms: O_9  and  C_10
REMARK    9  A    between atoms: C_10  and  C_11
REMARK   10  A    between atoms: C_16  and  C_17
REMARK                            x       y       z     vdW  Elec       q    Type
REMARK                         _______ _______ _______ _____ _____    ______ ____
ROOT
ATOM      1  C   UNL     1      -0.672   0.405   0.496  0.00  0.00    +0.097 C 
ATOM      2  N   UNL     1      -0.453   1.593   0.011  0.00  0.00    -0.087 NA
ENDROOT
BRANCH   1   3
ATOM      3  C   UNL     1       0.259  -0.646   0.066  0.00  0.00    +0.017 A 
ATOM      4  C   UNL     1       0.793  -1.570   0.953  0.00  0.00    +0.001 A 
ATOM      5  C   UNL     1       2.123  -1.956   0.827  0.00  0.00    +0.004 A 
ATOM      6  C   UNL     1       2.848  -1.566  -0.294  0.00  0.00    +0.071 A 
ATOM      7  C   UNL     1       2.066  -1.271  -1.405  0.00  0.00    +0.004 A 
ATOM      8  C   UNL     1       0.855  -0.619  -1.188  0.00  0.00    +0.001 A 
BRANCH   6   9
ATOM      9  C   UNL     1       4.316  -1.336  -0.259  0.00  0.00    +0.419 C 
ATOM     10  F   UNL     1       4.860  -2.034  -1.312  0.00  0.00    -0.166 F 
ATOM     11  F   UNL     1       4.647  -0.005  -0.387  0.00  0.00    -0.166 F 
ATOM     12  F   UNL     1       4.783  -1.877   0.908  0.00  0.00    -0.166 F 
ENDBRANCH   6   9
ENDBRANCH   1   3
BRANCH   1  13
ATOM     13  C   UNL     1      -2.111  -0.017   0.494  0.00  0.00    +0.049 C 
BRANCH  13  14
ATOM     14  C   UNL     1      -2.537   0.040  -0.968  0.00  0.00    +0.009 C 
BRANCH  14  15
ATOM     15  C   UNL     1      -4.049   0.180  -0.977  0.00  0.00    +0.032 C 
BRANCH  15  16
ATOM     16  C   UNL     1      -4.570  -0.839   0.030  0.00  0.00    +0.142 C 
BRANCH  16  18
ATOM     17  C   UNL     1      -4.763  -3.072   0.294  0.00  0.00    +0.174 C 
ATOM     18  O   UNL     1      -4.618  -2.067  -0.650  0.00  0.00    -0.351 OA
ENDBRANCH  16  18
ENDBRANCH  15  16
ENDBRANCH  14  15
ENDBRANCH  13  14
ENDBRANCH   1  13
BRANCH   2  19
ATOM     19  O   UNL     1      -1.398   2.588   0.068  0.00  0.00    -0.376 OA
BRANCH  19  20
ATOM     20  C   UNL     1      -1.111   3.764   0.789  0.00  0.00    +0.259 C 
BRANCH  20  21
ATOM     21  C   UNL     1      -0.208   4.700   0.032  0.00  0.00    +0.159 C 
ATOM     22  N   UNL     1      -1.060   5.603  -0.723  0.00  0.00    -0.127 NA
ENDBRANCH  20  21
ENDBRANCH  19  20
ENDBRANCH   2  19
TORSDOF 10
