REMARK  Name = 
REMARK  20 active torsions:
REMARK  status: ('A' for Active; 'I' for Inactive)
REMARK    1  A    between atoms: C_2  and  O_3
REMARK    2  A    between atoms: O_3  and  C_4
REMARK    3  A    between atoms: C_7  and  C_8
REMARK    4  A    between atoms: C_8  and  C_9
REMARK    5  A    between atoms: C_9  and  C_10
REMARK    6  A    between atoms: C_9  and  N_27
REMARK    7  A    between atoms: C_10  and  N_11
REMARK    8  A    between atoms: N_11  and  C_12
REMARK    9  A    between atoms: N_11  and  C_23
REMARK   10  A    between atoms: C_12  and  C_13
REMARK   11  A    between atoms: C_13  and  N_14
REMARK   12  A    between atoms: N_14  and  C_15
REMARK   13  A    between atoms: N_14  and  C_19
REMARK   14  A    between atoms: C_15  and  C_16
REMARK   15  A    between atoms: C_19  and  C_20
REMARK   16  A    between atoms: C_23  and  C_24
REMARK   17  A    between atoms: N_27  and  C_28
REMARK   18  A    between atoms: N_27  and  C_32
REMARK   19  A    between atoms: C_28  and  C_29
REMARK   20  A    between atoms: C_32  and  C_33
REMARK                            x       y       z     vdW  Elec       q    Type
REMARK                         _______ _______ _______ _____ _____    ______ ____
ROOT
ATOM      1  C   UNL     1       1.165  -1.334  -0.440  0.00  0.00    +0.079 C 
ENDROOT
BRANCH   1   2
ATOM      2  N   UNL     1       0.851  -2.443   0.643  0.00  0.00    -0.253 NA
BRANCH   2   3
ATOM      3  C   UNL     1       2.008  -3.228   0.219  0.00  0.00    +0.188 C 
BRANCH   3   4
ATOM      4  C   UNL     1       2.712  -4.013   1.193  0.00  0.00    +0.381 C 
ATOM      5  O   UNL     1       3.994  -3.533   1.516  0.00  0.00    -0.244 OA
ATOM      6  O   UNL     1       2.761  -5.251   0.889  0.00  0.00    -0.244 OA
ENDBRANCH   3   4
ENDBRANCH   2   3
BRANCH   2   7
ATOM      7  C   UNL     1      -0.240  -3.238   0.120  0.00  0.00    +0.188 C 
BRANCH   7   8
ATOM      8  C   UNL     1       0.122  -4.014  -1.079  0.00  0.00    +0.381 C 
ATOM      9  O   UNL     1       0.709  -3.343  -2.151  0.00  0.00    -0.244 OA
ATOM     10  O   UNL     1      -0.633  -4.980  -1.385  0.00  0.00    -0.244 OA
ENDBRANCH   7   8
ENDBRANCH   2   7
ENDBRANCH   1   2
BRANCH   1  11
ATOM     11  C   UNL     1       2.370  -0.734   0.514  0.00  0.00    +0.044 C 
BRANCH  11  15
ATOM     12  C   UNL     1       4.614   2.484  -0.861  0.00  0.00    +0.139 A 
ATOM     13  C   UNL     1       3.813   2.713   0.234  0.00  0.00    +0.037 A 
ATOM     14  C   UNL     1       2.947   1.720   0.678  0.00  0.00    -0.001 A 
ATOM     15  C   UNL     1       2.712   0.580  -0.064  0.00  0.00    -0.021 A 
ATOM     16  C   UNL     1       3.387   0.496  -1.278  0.00  0.00    -0.001 A 
ATOM     17  C   UNL     1       4.309   1.423  -1.689  0.00  0.00    +0.037 A 
BRANCH  12  18
ATOM     18  O   UNL     1       5.854   3.064  -1.052  0.00  0.00    -0.475 OA
BRANCH  18  20
ATOM     19  C   UNL     1       7.257   4.055   0.238  0.00  0.00    +0.051 C 
ATOM     20  C   UNL     1       6.284   4.067  -0.169  0.00  0.00    +0.206 C 
ENDBRANCH  18  20
ENDBRANCH  12  18
ENDBRANCH  11  15
ENDBRANCH   1  11
BRANCH   1  21
ATOM     21  C   UNL     1       0.132  -0.195   0.100  0.00  0.00    +0.089 C 
BRANCH  21  22
ATOM     22  N   UNL     1      -1.111  -0.683   0.433  0.00  0.00    -0.261 NA
BRANCH  22  23
ATOM     23  C   UNL     1      -1.641   0.317   1.363  0.00  0.00    +0.188 C 
BRANCH  23  24
ATOM     24  C   UNL     1      -1.013   1.647   1.201  0.00  0.00    +0.381 C 
ATOM     25  O   UNL     1      -1.402   2.591   2.162  0.00  0.00    -0.244 OA
ATOM     26  O   UNL     1      -0.696   2.174   0.094  0.00  0.00    -0.244 OA
ENDBRANCH  23  24
ENDBRANCH  22  23
BRANCH  22  27
ATOM     27  C   UNL     1      -2.119  -0.847  -0.562  0.00  0.00    +0.090 C 
BRANCH  27  28
ATOM     28  C   UNL     1      -2.841   0.334  -1.046  0.00  0.00    +0.091 C 
BRANCH  28  29
ATOM     29  N   UNL     1      -4.069   0.659  -0.346  0.00  0.00    -0.252 NA
BRANCH  29  30
ATOM     30  C   UNL     1      -5.169  -0.207  -0.769  0.00  0.00    +0.188 C 
BRANCH  30  31
ATOM     31  C   UNL     1      -6.080  -0.544   0.341  0.00  0.00    +0.381 C 
ATOM     32  O   UNL     1      -7.366  -0.036   0.476  0.00  0.00    -0.244 OA
ATOM     33  O   UNL     1      -5.813  -1.560   1.047  0.00  0.00    -0.244 OA
ENDBRANCH  30  31
ENDBRANCH  29  30
BRANCH  29  34
ATOM     34  C   UNL     1      -4.430   1.981  -0.859  0.00  0.00    +0.188 C 
BRANCH  34  35
ATOM     35  C   UNL     1      -4.544   2.984   0.226  0.00  0.00    +0.381 C 
ATOM     36  O   UNL     1      -3.879   4.190  -0.022  0.00  0.00    -0.244 OA
ATOM     37  O   UNL     1      -4.957   2.707   1.385  0.00  0.00    -0.244 OA
ENDBRANCH  34  35
ENDBRANCH  29  34
ENDBRANCH  28  29
ENDBRANCH  27  28
ENDBRANCH  22  27
ENDBRANCH  21  22
ENDBRANCH   1  21
TORSDOF 20
