REMARK  Name = 
REMARK  3 active torsions:
REMARK  status: ('A' for Active; 'I' for Inactive)
REMARK    1  A    between atoms: C_2  and  C_3
REMARK    2  A    between atoms: C_3  and  N_4
REMARK    3  A    between atoms: N_4  and  C_5
REMARK                            x       y       z     vdW  Elec       q    Type
REMARK                         _______ _______ _______ _____ _____    ______ ____
ROOT
ATOM      1  C   UNL     1       1.224  -0.781  -0.496  0.00  0.00    +0.078 C 
ATOM      2  C   UNL     1       0.532   0.683  -0.166  0.00  0.00    +0.052 C 
ATOM      3  C   UNL     1      -0.889   0.469  -0.548  0.00  0.00    +0.025 A 
ATOM      4  C   UNL     1      -1.622  -0.648  -0.272  0.00  0.00    +0.063 A 
ATOM      5  N   UNL     1      -2.863  -0.405   0.123  0.00  0.00    -0.226 NA
ATOM      6  C   UNL     1      -3.479   0.585  -0.505  0.00  0.00    +0.200 A 
ATOM      7  N   UNL     1      -4.838   1.009  -0.326  0.00  0.00    -0.100 NA
ATOM      8  C   UNL     1      -0.869  -1.921  -0.009  0.00  0.00    +0.048 C 
ATOM      9  S   UNL     1      -2.141   1.595  -0.889  0.00  0.00    -0.053 S 
ATOM     10  C   UNL     1       0.390  -1.509   0.732  0.00  0.00    +0.024 C 
ENDROOT
BRANCH   1  11
ATOM     11  N   UNL     1       2.452  -0.464   0.455  0.00  0.00    -0.219 NA
BRANCH  11  12
ATOM     12  C   UNL     1       2.947   0.744  -0.188  0.00  0.00    +0.089 C 
BRANCH  12  14
ATOM     13  C   UNL     1       4.700   0.033  -0.295  0.00  0.00    +0.002 C 
ATOM     14  C   UNL     1       4.456   0.611  -0.333  0.00  0.00    +0.019 C 
ENDBRANCH  12  14
ENDBRANCH  11  12
ENDBRANCH   1  11
TORSDOF 3
