REMARK  Name = 
REMARK  6 active torsions:
REMARK  status: ('A' for Active; 'I' for Inactive)
REMARK    1  A    between atoms: C_2  and  C_3
REMARK    2  A    between atoms: C_3  and  N_4
REMARK    3  A    between atoms: N_4  and  C_5
REMARK    4  A    between atoms: N_4  and  C_8
REMARK    5  A    between atoms: C_5  and  C_6
REMARK    6  A    between atoms: C_8  and  C_9
REMARK                            x       y       z     vdW  Elec       q    Type
REMARK                         _______ _______ _______ _____ _____    ______ ____
ROOT
ATOM      1  N   UNL     1       0.001  -0.192   0.303  0.00  0.00    -0.266 NA
ENDROOT
BRANCH   1   2
ATOM      2  C   UNL     1      -0.723   0.908   0.795  0.00  0.00    +0.108 C 
BRANCH   2   4
ATOM      3  O   UNL     1      -0.697   3.311   0.594  0.00  0.00    -0.219 OA
ATOM      4  C   UNL     1      -0.405   2.121  -0.049  0.00  0.00    +0.199 C 
ENDBRANCH   2   4
ENDBRANCH   1   2
BRANCH   1   5
ATOM      5  C   UNL     1      -0.583  -1.034  -0.656  0.00  0.00    +0.108 C 
BRANCH   5   6
ATOM      6  C   UNL     1      -1.445  -2.081   0.025  0.00  0.00    +0.199 C 
ATOM      7  O   UNL     1      -2.682  -1.554   0.359  0.00  0.00    -0.219 OA
ENDBRANCH   5   6
ENDBRANCH   1   5
BRANCH   1   8
ATOM      8  C   UNL     1       1.164  -0.602   0.970  0.00  0.00    +0.108 C 
BRANCH   8   9
ATOM      9  C   UNL     1       2.398   0.046   0.369  0.00  0.00    +0.199 C 
ATOM     10  O   UNL     1       2.971  -0.923  -0.465  0.00  0.00    -0.219 OA
ENDBRANCH   8   9
ENDBRANCH   1   8
TORSDOF 6
