REMARK  Name = 
REMARK  2 active torsions:
REMARK  status: ('A' for Active; 'I' for Inactive)
REMARK    1  A    between atoms: C_4  and  C_5
REMARK    2  A    between atoms: N_7  and  C_8
REMARK                            x       y       z     vdW  Elec       q    Type
REMARK                         _______ _______ _______ _____ _____    ______ ____
ROOT
ATOM      1  C   UNL     1      -0.458   1.425  -0.015  0.00  0.00    +0.284 C 
ATOM      2  N   UNL     1       0.380   0.270  -0.174  0.00  0.00    -0.202 NA
ATOM      3  O   UNL     1      -0.030   2.422   0.627  0.00  0.00    -0.267 OA
ENDROOT
BRANCH   1  11
ATOM      4  C   UNL     1      -5.042   1.981   0.019  0.00  0.00    +0.154 C 
ATOM      5  N   UNL     1      -4.102   1.563   0.018  0.00  0.00    -0.249 N 
ATOM      6  C   UNL     1      -3.838   0.230   0.039  0.00  0.00    +0.080 A 
ATOM      7  C   UNL     1      -2.503   0.003   0.219  0.00  0.00    +0.041 A 
ATOM      8  C   UNL     1      -1.965  -1.151   0.775  0.00  0.00    +0.003 A 
ATOM      9  C   UNL     1      -2.829  -2.135   1.194  0.00  0.00    +0.000 A 
ATOM     10  C   UNL     1      -4.123  -2.073   0.715  0.00  0.00    +0.002 A 
ATOM     11  C   UNL     1      -1.913   1.237  -0.015  0.00  0.00    +0.157 A 
ATOM     12  C   UNL     1      -4.638  -0.902   0.169  0.00  0.00    +0.019 A 
ATOM     13  N   UNL     1      -2.896   2.124  -0.059  0.00  0.00    -0.165 NA
ENDBRANCH   1  11
BRANCH   2  14
ATOM     14  C   UNL     1       1.576   0.217   0.456  0.00  0.00    +0.098 C 
ATOM     15  C   UNL     1       2.568   1.144   0.247  0.00  0.00    +0.038 C 
ATOM     16  C   UNL     1       3.369  -0.167   0.801  0.00  0.00    +0.059 C 
ATOM     17  N   UNL     1       4.539   0.194  -0.130  0.00  0.00    -0.274 NA
ATOM     18  C   UNL     1       3.933  -0.971   0.576  0.00  0.00    +0.059 C 
ATOM     19  C   UNL     1       4.609  -2.022  -0.481  0.00  0.00    +0.016 C 
ATOM     20  C   UNL     1       3.349  -2.679  -0.116  0.00  0.00    +0.003 C 
ATOM     21  C   UNL     1       4.767   1.351   0.648  0.00  0.00    +0.090 C 
ATOM     22  C   UNL     1       2.784  -1.343  -0.273  0.00  0.00    +0.016 C 
ATOM     23  C   UNL     1       2.462  -0.721  -0.261  0.00  0.00    +0.038 C 
ENDBRANCH   2  14
TORSDOF 2
