REMARK  Name = 
REMARK  6 active torsions:
REMARK  status: ('A' for Active; 'I' for Inactive)
REMARK    1  A    between atoms: N_2  and  C_4
REMARK    2  A    between atoms: C_4  and  C_5
REMARK    3  A    between atoms: C_5  and  O_6
REMARK    4  A    between atoms: O_6  and  C_7
REMARK    5  A    between atoms: C_7  and  C_8
REMARK    6  A    between atoms: C_7  and  C_14
REMARK                            x       y       z     vdW  Elec       q    Type
REMARK                         _______ _______ _______ _____ _____    ______ ____
ROOT
ATOM      1  C   UNL     1      -0.451  -0.069  -0.824  0.00  0.00    +0.160 C 
ENDROOT
BRANCH   1   2
ATOM      2  C   UNL     1      -1.481  -1.125  -0.607  0.00  0.00    +0.009 A 
ATOM      3  C   UNL     1      -2.355  -1.099   0.470  0.00  0.00    -0.002 A 
ATOM      4  C   UNL     1      -2.645  -2.223   1.221  0.00  0.00    -0.000 A 
ATOM      5  C   UNL     1      -2.215  -3.457   0.783  0.00  0.00    -0.000 A 
ATOM      6  C   UNL     1      -1.607  -3.529  -0.465  0.00  0.00    -0.000 A 
ATOM      7  C   UNL     1      -1.303  -2.378  -1.184  0.00  0.00    -0.002 A 
ENDBRANCH   1   2
BRANCH   1   8
ATOM      8  C   UNL     1      -0.979   1.290  -0.608  0.00  0.00    +0.009 A 
ATOM      9  C   UNL     1      -2.075   1.592   0.165  0.00  0.00    -0.002 A 
ATOM     10  C   UNL     1      -2.102   2.770   0.899  0.00  0.00    -0.000 A 
ATOM     11  C   UNL     1      -1.199   3.779   0.683  0.00  0.00    -0.000 A 
ATOM     12  C   UNL     1      -0.183   3.547  -0.204  0.00  0.00    -0.000 A 
ATOM     13  C   UNL     1      -0.126   2.342  -0.891  0.00  0.00    -0.002 A 
ENDBRANCH   1   8
BRANCH   1  14
ATOM     14  O   UNL     1       0.597  -0.328   0.046  0.00  0.00    -0.346 OA
BRANCH  14  15
ATOM     15  C   UNL     1       1.717   0.449  -0.193  0.00  0.00    +0.160 C 
BRANCH  15  16
ATOM     16  C   UNL     1       2.804  -0.437  -0.740  0.00  0.00    +0.105 C 
BRANCH  16  18
ATOM     17  C   UNL     1       5.048   0.119  -1.149  0.00  0.00    +0.090 C 
ATOM     18  N   UNL     1       4.062  -0.107  -0.115  0.00  0.00    -0.268 NA
ATOM     19  C   UNL     1       4.492  -1.134   0.807  0.00  0.00    +0.090 C 
ENDBRANCH  16  18
ENDBRANCH  15  16
ENDBRANCH  14  15
ENDBRANCH   1  14
TORSDOF 6
