REMARK  Name = 
REMARK  5 active torsions:
REMARK  status: ('A' for Active; 'I' for Inactive)
REMARK    1  A    between atoms: N_2  and  C_4
REMARK    2  A    between atoms: C_4  and  C_5
REMARK    3  A    between atoms: C_5  and  C_6
REMARK    4  A    between atoms: C_6  and  C_7
REMARK    5  A    between atoms: C_6  and  C_13
REMARK                            x       y       z     vdW  Elec       q    Type
REMARK                         _______ _______ _______ _____ _____    ______ ____
ROOT
ATOM      1  C   UNL     1      -0.202   0.072  -1.239  0.00  0.00    +0.064 C 
ENDROOT
BRANCH   1   2
ATOM      2  C   UNL     1      -0.281   1.260  -0.140  0.00  0.00    +0.063 A 
ATOM      3  N   UNL     1       0.569   2.276  -0.444  0.00  0.00    -0.248 NA
ATOM      4  C   UNL     1       0.227   3.563  -0.416  0.00  0.00    +0.098 A 
ATOM      5  C   UNL     1      -1.061   3.977  -0.111  0.00  0.00    +0.021 A 
ATOM      6  C   UNL     1      -1.971   2.990   0.169  0.00  0.00    +0.003 A 
ATOM      7  C   UNL     1      -1.599   1.689  -0.013  0.00  0.00    +0.015 A 
ENDBRANCH   1   2
BRANCH   1   8
ATOM      8  C   UNL     1      -0.632  -1.072  -0.175  0.00  0.00    -0.017 A 
ATOM      9  C   UNL     1      -1.950  -0.965   0.256  0.00  0.00    -0.004 A 
ATOM     10  C   UNL     1      -2.871  -1.983   0.126  0.00  0.00    -0.000 A 
ATOM     11  C   UNL     1      -2.436  -3.252  -0.171  0.00  0.00    -0.000 A 
ATOM     12  C   UNL     1      -1.059  -3.431  -0.206  0.00  0.00    -0.000 A 
ATOM     13  C   UNL     1      -0.265  -2.352  -0.579  0.00  0.00    -0.004 A 
ENDBRANCH   1   8
BRANCH   1  14
ATOM     14  C   UNL     1       1.411  -0.157  -1.034  0.00  0.00    +0.028 C 
BRANCH  14  15
ATOM     15  C   UNL     1       1.671  -0.513   0.372  0.00  0.00    +0.073 C 
BRANCH  15  17
ATOM     16  C   UNL     1       3.556  -0.452   1.460  0.00  0.00    +0.090 C 
ATOM     17  N   UNL     1       3.085  -0.606   0.537  0.00  0.00    -0.270 NA
ATOM     18  C   UNL     1       3.809  -1.046  -0.625  0.00  0.00    +0.090 C 
ENDBRANCH  15  17
ENDBRANCH  14  15
ENDBRANCH   1  14
TORSDOF 5
