REMARK  Name = 
REMARK  8 active torsions:
REMARK  status: ('A' for Active; 'I' for Inactive)
REMARK    1  A    between atoms: C_2  and  C_3
REMARK    2  A    between atoms: C_3  and  O_5
REMARK    3  A    between atoms: O_5  and  C_6
REMARK    4  A    between atoms: C_6  and  C_7
REMARK    5  A    between atoms: C_7  and  C_9
REMARK    6  A    between atoms: C_9  and  O_10
REMARK    7  A    between atoms: O_10  and  C_11
REMARK    8  A    between atoms: C_11  and  C_13
REMARK                            x       y       z     vdW  Elec       q    Type
REMARK                         _______ _______ _______ _____ _____    ______ ____
ROOT
ATOM      1  C   UNL     1       1.557   0.415  -0.154  0.00  0.00    +0.190 C 
ATOM      2  C   UNL     1       0.277  -0.285  -0.241  0.00  0.00    +0.043 C 
ATOM      3  C   UNL     1      -0.619   1.052  -0.329  0.00  0.00    +0.005 C 
ATOM      4  C   UNL     1      -1.923   0.134  -0.890  0.00  0.00    +0.017 C 
ATOM      5  C   UNL     1      -2.413  -0.203   0.596  0.00  0.00    +0.102 C 
ATOM      6  C   UNL     1      -1.577  -1.533   1.069  0.00  0.00    +0.166 C 
ATOM      7  O   UNL     1      -1.523  -2.144  -0.320  0.00  0.00    -0.222 OA
ATOM      8 CL   UNL     1      -2.146   1.078   1.706  0.00  0.00    -0.113 Cl
ATOM      9  C   UNL     1      -3.853  -0.589   0.564  0.00  0.00    +0.049 C 
ATOM     10  C   UNL     1      -4.557  -0.254  -0.701  0.00  0.00    -0.037 C 
ATOM     11  C   UNL     1      -5.863  -0.542  -0.691  0.00  0.00    +0.034 C 
ATOM     12  C   UNL     1      -6.580  -0.655   0.591  0.00  0.00    +0.195 C 
ATOM     13  C   UNL     1      -5.940   0.114   1.669  0.00  0.00    +0.038 C 
ATOM     14  O   UNL     1      -7.832  -0.853   0.641  0.00  0.00    -0.287 OA
ATOM     15  C   UNL     1      -4.104   0.843  -1.615  0.00  0.00    +0.022 C 
ATOM     16  C   UNL     1      -4.079  -2.071   0.858  0.00  0.00    +0.010 C 
ATOM     17  C   UNL     1      -4.606   0.128   1.645  0.00  0.00    -0.018 C 
ATOM     18  C   UNL     1      -2.873   1.444  -0.985  0.00  0.00    +0.006 C 
ATOM     19  C   UNL     1       0.009   1.326  -1.790  0.00  0.00    +0.004 C 
ATOM     20  C   UNL     1       0.264  -0.994  -1.537  0.00  0.00    +0.004 C 
ATOM     21  C   UNL     1      -0.081  -0.877   0.982  0.00  0.00    +0.038 C 
ATOM     22  C   UNL     1       1.434   1.731  -1.094  0.00  0.00    +0.044 C 
ATOM     23  C   UNL     1       2.287   1.114  -2.340  0.00  0.00    +0.004 C 
ENDROOT
BRANCH   1  24
ATOM     24  C   UNL     1       2.776  -0.308  -0.423  0.00  0.00    +0.230 C 
ATOM     25  O   UNL     1       2.818  -1.146  -1.323  0.00  0.00    -0.288 OA
BRANCH  24  26
ATOM     26  C   UNL     1       3.887  -0.375   0.574  0.00  0.00    +0.276 C 
BRANCH  26  27
ATOM     27  O   UNL     1       4.738  -1.472   0.372  0.00  0.00    -0.440 OA
BRANCH  27  28
ATOM     28  C   UNL     1       6.035  -1.289  -0.058  0.00  0.00    +0.317 C 
ATOM     29  O   UNL     1       6.672  -0.316   0.440  0.00  0.00    -0.250 OA
BRANCH  28  31
ATOM     30  C   UNL     1       7.378  -3.188   0.224  0.00  0.00    +0.012 C 
ATOM     31  C   UNL     1       6.844  -2.385  -0.676  0.00  0.00    +0.110 C 
ENDBRANCH  28  31
ENDBRANCH  27  28
ENDBRANCH  26  27
ENDBRANCH  24  26
ENDBRANCH   1  24
BRANCH   1  32
ATOM     32  O   UNL     1       1.639   1.017   1.138  0.00  0.00    -0.448 OA
BRANCH  32  33
ATOM     33  C   UNL     1       2.602   1.990   1.353  0.00  0.00    +0.317 C 
ATOM     34  O   UNL     1       3.123   2.627   0.398  0.00  0.00    -0.250 OA
BRANCH  33  35
ATOM     35  C   UNL     1       2.855   2.522   2.719  0.00  0.00    +0.110 C 
ATOM     36  C   UNL     1       3.371   3.949   2.677  0.00  0.00    +0.012 C 
ENDBRANCH  33  35
ENDBRANCH  32  33
ENDBRANCH   1  32
TORSDOF 8
