REMARK  Name = 
REMARK  4 active torsions:
REMARK  status: ('A' for Active; 'I' for Inactive)
REMARK    1  A    between atoms: P_2  and  C_5
REMARK    2  A    between atoms: C_5  and  C_7
REMARK    3  A    between atoms: C_5  and  P_14
REMARK    4  A    between atoms: C_7  and  C_8
REMARK                            x       y       z     vdW  Elec       q    Type
REMARK                         _______ _______ _______ _____ _____    ______ ____
ROOT
ATOM      1  C   UNL     1      -0.812   0.137  -0.360  0.00  0.00    +0.220 C 
ATOM      2  O   UNL     1      -0.254  -0.002  -1.616  0.00  0.00    -0.210 OA
ENDROOT
BRANCH   1   4
ATOM      3  O   UNL     1      -2.628   1.624   0.948  0.00  0.00    -0.457 OA
ATOM      4  P   UNL     1      -2.112   1.412  -0.469  0.00  0.00    +0.151 P 
ATOM      5  O   UNL     1      -3.333   0.778  -1.443  0.00  0.00    -0.355 OA
ATOM      6  O   UNL     1      -1.493   2.830  -1.123  0.00  0.00    -0.355 OA
ENDBRANCH   1   4
BRANCH   1   7
ATOM      7  P   UNL     1      -1.551  -1.434   0.135  0.00  0.00    +0.151 P 
ATOM      8  O   UNL     1      -1.927  -1.367   1.793  0.00  0.00    -0.355 OA
ATOM      9  O   UNL     1      -0.491  -2.721  -0.166  0.00  0.00    -0.355 OA
ATOM     10  O   UNL     1      -2.832  -1.593  -0.672  0.00  0.00    -0.457 OA
ENDBRANCH   1   7
BRANCH   1  11
ATOM     11  C   UNL     1       0.156   0.551   0.700  0.00  0.00    +0.073 C 
BRANCH  11  12
ATOM     12  C   UNL     1       1.483  -0.129   0.573  0.00  0.00    +0.000 A 
ATOM     13  C   UNL     1       2.390   0.012   1.615  0.00  0.00    +0.095 A 
ATOM     14  N   UNL     1       3.685   0.355   1.406  0.00  0.00    -0.243 NA
ATOM     15  C   UNL     1       4.236  -0.013   0.230  0.00  0.00    +0.099 A 
ATOM     16  C   UNL     1       3.410  -0.065  -0.887  0.00  0.00    +0.020 A 
ATOM     17  C   UNL     1       2.074  -0.373  -0.661  0.00  0.00    -0.001 A 
ENDBRANCH  11  12
ENDBRANCH   1  11
TORSDOF 4
