REMARK  Name = 
REMARK  7 active torsions:
REMARK  status: ('A' for Active; 'I' for Inactive)
REMARK    1  A    between atoms: C_2  and  C_3
REMARK    2  A    between atoms: C_3  and  C_4
REMARK    3  A    between atoms: C_6  and  C_7
REMARK    4  A    between atoms: N_9  and  C_10
REMARK    5  A    between atoms: C_10  and  C_11
REMARK    6  A    between atoms: C_10  and  C_14
REMARK    7  A    between atoms: C_16  and  S_17
REMARK                            x       y       z     vdW  Elec       q    Type
REMARK                         _______ _______ _______ _____ _____    ______ ____
ROOT
ATOM      1  C   UNL     1      -1.011  -1.301  -1.135  0.00  0.00    +0.140 C 
ENDROOT
BRANCH   1   2
ATOM      2  C   UNL     1      -1.744  -0.743   0.317  0.00  0.00    +0.170 C 
ATOM      3  C   UNL     1      -3.197  -1.551  -0.123  0.00  0.00    +0.213 C 
ATOM      4  O   UNL     1      -3.820  -0.511  -1.016  0.00  0.00    -0.218 OA
ATOM      5  C   UNL     1      -4.037  -1.231   1.341  0.00  0.00    +0.218 C 
ATOM      6  O   UNL     1      -5.247  -0.582   0.689  0.00  0.00    -0.217 OA
ATOM      7  C   UNL     1      -3.460   0.310   1.858  0.00  0.00    +0.222 C 
ATOM      8  O   UNL     1      -2.019  -0.066   2.110  0.00  0.00    -0.217 OA
ATOM      9  C   UNL     1      -3.361   1.021   0.325  0.00  0.00    +0.195 C 
ATOM     10  O   UNL     1      -2.057   0.623  -0.183  0.00  0.00    -0.341 OA
BRANCH   9  11
ATOM     11  S   UNL     1      -2.711   2.670   1.086  0.00  0.00    -0.108 S 
ATOM     12  C   UNL     1      -3.617   4.003   0.270  0.00  0.00    +0.072 C 
ENDBRANCH   9  11
ENDBRANCH   1   2
BRANCH   1  13
ATOM     13  C   UNL     1      -0.009  -2.291  -0.223  0.00  0.00    +0.102 C 
ATOM     14 CL   UNL     1       1.008  -2.913  -1.643  0.00  0.00    -0.113 Cl
ATOM     15  C   UNL     1      -1.000  -3.509  -0.138  0.00  0.00    +0.019 C 
ENDBRANCH   1  13
BRANCH   1  17
ATOM     16  C   UNL     1       0.781   0.444  -0.337  0.00  0.00    +0.256 C 
ATOM     17  N   UNL     1      -0.004  -0.123  -1.297  0.00  0.00    -0.202 NA
ATOM     18  O   UNL     1       0.514   0.079   0.843  0.00  0.00    -0.272 OA
BRANCH  16  23
ATOM     19  C   UNL     1       4.330   1.375   0.157  0.00  0.00    +0.018 C 
ATOM     20  C   UNL     1       3.972   1.236  -1.434  0.00  0.00    +0.073 C 
ATOM     21  N   UNL     1       2.578   1.446  -1.516  0.00  0.00    -0.265 NA
ATOM     22  C   UNL     1       2.097   0.937  -2.757  0.00  0.00    +0.090 C 
ATOM     23  C   UNL     1       2.400   0.253  -0.483  0.00  0.00    +0.137 C 
ATOM     24  C   UNL     1       2.773   1.354   0.692  0.00  0.00    +0.027 C 
BRANCH  19  25
ATOM     25  C   UNL     1       4.516  -0.249   0.358  0.00  0.00    +0.001 C 
BRANCH  25  27
ATOM     26  C   UNL     1       6.480  -0.087  -0.052  0.00  0.00    +0.000 C 
ATOM     27  C   UNL     1       5.847  -0.593  -0.300  0.00  0.00    +0.000 C 
ENDBRANCH  25  27
ENDBRANCH  19  25
ENDBRANCH  16  23
ENDBRANCH   1  17
TORSDOF 7
