REMARK  Name = 
REMARK  10 active torsions:
REMARK  status: ('A' for Active; 'I' for Inactive)
REMARK    1  A    between atoms: C_2  and  N_5
REMARK    2  A    between atoms: N_8  and  C_9
REMARK    3  A    between atoms: C_9  and  C_10
REMARK    4  A    between atoms: C_9  and  C_34
REMARK    5  A    between atoms: C_16  and  C_17
REMARK    6  A    between atoms: N_19  and  C_20
REMARK    7  A    between atoms: C_20  and  C_21
REMARK    8  A    between atoms: C_20  and  C_26
REMARK    9  A    between atoms: C_21  and  C_22
REMARK   10  A    between atoms: C_26  and  C_28
REMARK                            x       y       z     vdW  Elec       q    Type
REMARK                         _______ _______ _______ _____ _____    ______ ____
ROOT
ATOM      1  C   UNL     1       1.491  -1.387  -0.140  0.00  0.00    +0.246 C 
ATOM      2  N   UNL     1       0.186  -0.941   0.252  0.00  0.00    -0.272 N 
ATOM      3  C   UNL     1      -1.111  -1.655  -0.229  0.00  0.00    +0.153 C 
ATOM      4  C   UNL     1      -1.613  -2.206   1.308  0.00  0.00    +0.029 C 
ATOM      5  C   UNL     1      -0.128  -2.294   2.158  0.00  0.00    +0.004 C 
ATOM      6  C   UNL     1      -0.237  -2.212   3.648  0.00  0.00    +0.000 C 
ATOM      7  C   UNL     1      -0.511  -3.688   2.335  0.00  0.00    +0.000 C 
ATOM      8  C   UNL     1      -1.116  -0.915   2.225  0.00  0.00    +0.022 C 
ATOM      9  C   UNL     1      -0.329  -0.056   1.073  0.00  0.00    +0.094 C 
ATOM     10  O   UNL     1       1.980  -2.481  -0.022  0.00  0.00    -0.273 OA
ENDROOT
BRANCH   3  11
ATOM     11  C   UNL     1      -2.106  -0.380  -0.303  0.00  0.00    +0.260 C 
ATOM     12  N   UNL     1      -2.845   0.120   0.610  0.00  0.00    -0.198 NA
ATOM     13  O   UNL     1      -2.459  -0.029  -1.443  0.00  0.00    -0.272 OA
BRANCH  12  14
ATOM     14  C   UNL     1      -4.405   0.110   0.748  0.00  0.00    +0.161 C 
BRANCH  14  15
ATOM     15  C   UNL     1      -4.798  -0.432  -0.734  0.00  0.00    +0.249 C 
ATOM     16  O   UNL     1      -4.516  -1.669  -0.894  0.00  0.00    -0.285 OA
BRANCH  15  17
ATOM     17  C   UNL     1      -6.279  -0.386  -0.648  0.00  0.00    +0.321 C 
ATOM     18  O   UNL     1      -6.976   0.441  -1.260  0.00  0.00    -0.263 OA
ATOM     19  N   UNL     1      -6.942  -1.209   0.324  0.00  0.00    -0.081 NA
ENDBRANCH  15  17
ENDBRANCH  14  15
BRANCH  14  20
ATOM     20  C   UNL     1      -4.669   1.681   0.342  0.00  0.00    +0.030 C 
BRANCH  20  21
ATOM     21  C   UNL     1      -3.463   2.367   0.031  0.00  0.00    +0.002 C 
ATOM     22  C   UNL     1      -2.682   3.166   1.020  0.00  0.00    +0.000 C 
ATOM     23  C   UNL     1      -3.281   4.435   0.429  0.00  0.00    +0.000 C 
ATOM     24  C   UNL     1      -3.754   3.623  -0.763  0.00  0.00    +0.000 C 
ENDBRANCH  20  21
ENDBRANCH  14  20
ENDBRANCH  12  14
ENDBRANCH   3  11
BRANCH   1  25
ATOM     25  C   UNL     1       2.437  -0.077  -0.101  0.00  0.00    +0.173 C 
BRANCH  25  28
ATOM     26  N   UNL     1       6.162   0.112  -0.040  0.00  0.00    -0.191 NA
ATOM     27  C   UNL     1       4.886  -0.130   0.535  0.00  0.00    +0.340 C 
ATOM     28  N   UNL     1       3.821  -0.838  -0.063  0.00  0.00    -0.180 NA
ATOM     29  O   UNL     1       4.631   0.400   1.657  0.00  0.00    -0.249 OA
BRANCH  26  31
ATOM     30  C   UNL     1       6.590   1.510   0.423  0.00  0.00    +0.022 C 
ATOM     31  C   UNL     1       6.833   1.350   0.315  0.00  0.00    +0.080 C 
ATOM     32  C   UNL     1       7.303   2.146  -0.852  0.00  0.00    +0.022 C 
ATOM     33  C   UNL     1       7.782   1.236   1.459  0.00  0.00    +0.022 C 
ENDBRANCH  26  31
ENDBRANCH  25  28
BRANCH  25  34
ATOM     34  C   UNL     1       2.494   0.043  -1.739  0.00  0.00    +0.027 C 
ATOM     35  C   UNL     1       2.753  -1.327  -2.273  0.00  0.00    +0.002 C 
ATOM     36  C   UNL     1       3.676   0.940  -2.022  0.00  0.00    +0.002 C 
ATOM     37  C   UNL     1       1.194   0.633  -2.161  0.00  0.00    +0.002 C 
ENDBRANCH  25  34
ENDBRANCH   1  25
TORSDOF 10
