REMARK  Name = 
REMARK  2 active torsions:
REMARK  status: ('A' for Active; 'I' for Inactive)
REMARK    1  A    between atoms: O_2  and  C_3
REMARK    2  A    between atoms: C_6  and  C_7
REMARK                            x       y       z     vdW  Elec       q    Type
REMARK                         _______ _______ _______ _____ _____    ______ ____
ROOT
ATOM      1  C   UNL     1       0.134  -0.810  -0.069  0.00  0.00    +0.149 A 
ATOM      2  O   UNL     1      -0.738  -0.446  -0.986  0.00  0.00    -0.453 OA
ATOM      3  C   UNL     1      -1.967  -0.080  -0.692  0.00  0.00    +0.155 A 
ATOM      4  C   UNL     1      -2.418  -0.180   0.614  0.00  0.00    +0.113 A 
ATOM      5  C   UNL     1      -3.714   0.213   0.915  0.00  0.00    +0.205 A 
ATOM      6  C   UNL     1      -4.465   0.868  -0.053  0.00  0.00    +0.084 A 
ATOM      7  C   UNL     1      -3.906   1.220  -1.267  0.00  0.00    +0.202 A 
ATOM      8  O   UNL     1      -4.350   2.404  -1.862  0.00  0.00    -0.286 OA
ATOM      9  O   UNL     1      -4.161   0.042   2.214  0.00  0.00    -0.286 OA
ATOM     10  C   UNL     1      -1.480  -0.390   1.618  0.00  0.00    +0.205 A 
ATOM     11  O   UNL     1      -1.770  -0.119   2.821  0.00  0.00    -0.286 OA
ATOM     12  C   UNL     1      -2.751   0.579  -1.630  0.00  0.00    +0.080 A 
ATOM     13  C   UNL     1      -0.155  -0.430   1.234  0.00  0.00    +0.080 A 
ENDROOT
BRANCH   1  18
ATOM     14  C   UNL     1       4.169  -0.150  -0.473  0.00  0.00    +0.177 A 
ATOM     15  C   UNL     1       3.784  -1.207   0.344  0.00  0.00    +0.229 A 
ATOM     16  O   UNL     1       4.609  -1.483   1.432  0.00  0.00    -0.283 OA
ATOM     17  C   UNL     1       2.436  -1.532   0.455  0.00  0.00    +0.048 A 
ATOM     18  C   UNL     1       1.516  -1.087  -0.487  0.00  0.00    +0.038 A 
ATOM     19  C   UNL     1       2.071  -0.466  -1.600  0.00  0.00    +0.006 A 
ATOM     20  C   UNL     1       3.364   0.043  -1.591  0.00  0.00    +0.040 A 
BRANCH  14  22
ATOM     21  C   UNL     1       4.714   2.188   0.101  0.00  0.00    +0.253 C 
ATOM     22  O   UNL     1       5.077   0.824  -0.049  0.00  0.00    -0.468 OA
ENDBRANCH  14  22
ENDBRANCH   1  18
TORSDOF 2
