REMARK  Name = 
REMARK  3 active torsions:
REMARK  status: ('A' for Active; 'I' for Inactive)
REMARK    1  A    between atoms: C_2  and  C_4
REMARK    2  A    between atoms: C_2  and  C_12
REMARK    3  A    between atoms: C_4  and  C_6
REMARK                            x       y       z     vdW  Elec       q    Type
REMARK                         _______ _______ _______ _____ _____    ______ ____
ROOT
ATOM      1  C   UNL     1       0.396  -0.361   1.987  0.00  0.00    +0.012 C 
ATOM      2  C   UNL     1       0.712  -1.061   0.670  0.00  0.00    +0.076 C 
ATOM      3  C   UNL     1       1.193  -2.455   1.060  0.00  0.00    +0.012 C 
ENDROOT
BRANCH   2   4
ATOM      4  C   UNL     1       1.829  -0.353  -0.008  0.00  0.00    +0.003 A 
ATOM      5  C   UNL     1       1.700   0.287  -1.223  0.00  0.00    +0.095 A 
ATOM      6  N   UNL     1       2.297   1.472  -1.471  0.00  0.00    -0.243 NA
ATOM      7  C   UNL     1       3.180   1.966  -0.580  0.00  0.00    +0.099 A 
ATOM      8  C   UNL     1       3.721   1.062   0.326  0.00  0.00    +0.020 A 
ATOM      9  C   UNL     1       2.895   0.042   0.780  0.00  0.00    -0.001 A 
ENDBRANCH   2   4
BRANCH   2  10
ATOM     10  C   UNL     1      -0.496  -1.155  -0.201  0.00  0.00    +0.178 C 
ATOM     11  O   UNL     1      -0.578  -2.224  -0.879  0.00  0.00    -0.291 OA
BRANCH  10  12
ATOM     12  C   UNL     1      -1.576  -0.188  -0.182  0.00  0.00    +0.054 A 
ATOM     13  C   UNL     1      -1.941   0.527   0.952  0.00  0.00    +0.102 A 
ATOM     14  N   UNL     1      -2.944   1.426   0.837  0.00  0.00    -0.242 NA
ATOM     15  C   UNL     1      -3.998   1.119   0.058  0.00  0.00    +0.099 A 
ATOM     16  C   UNL     1      -3.820   0.238  -0.989  0.00  0.00    +0.021 A 
ATOM     17  C   UNL     1      -2.571  -0.343  -1.138  0.00  0.00    +0.006 A 
ENDBRANCH  10  12
ENDBRANCH   2  10
TORSDOF 3
