REMARK  Name = 
REMARK  7 active torsions:
REMARK  status: ('A' for Active; 'I' for Inactive)
REMARK    1  A    between atoms: C_2  and  C_3
REMARK    2  A    between atoms: C_3  and  N_4
REMARK    3  A    between atoms: N_7  and  C_8
REMARK    4  A    between atoms: C_8  and  C_9
REMARK    5  A    between atoms: C_9  and  C_10
REMARK    6  A    between atoms: C_10  and  N_11
REMARK    7  A    between atoms: C_22  and  C_23
REMARK                            x       y       z     vdW  Elec       q    Type
REMARK                         _______ _______ _______ _____ _____    ______ ____
ROOT
ATOM      1  N   UNL     1      -1.366   0.844  -0.960  0.00  0.00    -0.286 N 
ATOM      2  C   UNL     1      -2.455   0.034  -0.508  0.00  0.00    +0.058 A 
ATOM      3  C   UNL     1      -3.757   0.512  -0.610  0.00  0.00    +0.043 A 
ATOM      4  C   UNL     1      -4.794  -0.335  -0.333  0.00  0.00    +0.008 A 
ATOM      5  C   UNL     1      -4.561  -1.671  -0.028  0.00  0.00    +0.004 A 
ATOM      6  C   UNL     1      -3.271  -2.141   0.184  0.00  0.00    +0.073 A 
ATOM      7  S   UNL     1      -3.982   2.240  -0.172  0.00  0.00    -0.084 S 
ATOM      8  C   UNL     1      -2.346   2.974  -0.290  0.00  0.00    +0.043 A 
ATOM      9  C   UNL     1      -2.070   4.236   0.192  0.00  0.00    +0.008 A 
ATOM     10  C   UNL     1      -1.016   4.943  -0.362  0.00  0.00    +0.001 A 
ATOM     11  C   UNL     1      -0.179   4.314  -1.275  0.00  0.00    +0.001 A 
ATOM     12  C   UNL     1      -0.286   2.946  -1.398  0.00  0.00    +0.015 A 
ATOM     13  C   UNL     1      -2.254  -1.325  -0.296  0.00  0.00    +0.019 A 
ATOM     14  C   UNL     1      -1.449   2.257  -1.072  0.00  0.00    +0.058 A 
ENDROOT
BRANCH   6  15
ATOM     15  C   UNL     1      -3.016  -3.240   1.153  0.00  0.00    +0.419 C 
ATOM     16  F   UNL     1      -4.119  -3.465   1.966  0.00  0.00    -0.166 F 
ATOM     17  F   UNL     1      -2.729  -4.422   0.499  0.00  0.00    -0.166 F 
ATOM     18  F   UNL     1      -1.964  -2.940   2.013  0.00  0.00    -0.166 F 
ENDBRANCH   6  15
BRANCH   1  19
ATOM     19  C   UNL     1      -0.224   0.185  -1.591  0.00  0.00    +0.097 C 
BRANCH  19  20
ATOM     20  C   UNL     1       1.070   0.502  -0.889  0.00  0.00    +0.039 C 
BRANCH  20  21
ATOM     21  C   UNL     1       1.115  -0.297   0.381  0.00  0.00    +0.074 C 
BRANCH  21  25
ATOM     22  N   UNL     1       5.007  -0.203  -0.106  0.00  0.00    -0.268 NA
ATOM     23  C   UNL     1       4.487   0.806   0.764  0.00  0.00    +0.090 C 
ATOM     24  C   UNL     1       3.159   0.538   1.357  0.00  0.00    +0.090 C 
ATOM     25  N   UNL     1       2.426  -0.562   0.872  0.00  0.00    -0.270 NA
ATOM     26  C   UNL     1       3.136  -1.609   0.230  0.00  0.00    +0.090 C 
ATOM     27  C   UNL     1       4.624  -1.517   0.400  0.00  0.00    +0.090 C 
BRANCH  22  28
ATOM     28  C   UNL     1       6.434  -0.073  -0.275  0.00  0.00    +0.108 C 
BRANCH  28  30
ATOM     29  O   UNL     1       7.228  -2.355  -0.292  0.00  0.00    -0.219 OA
ATOM     30  C   UNL     1       7.153  -1.179   0.449  0.00  0.00    +0.199 C 
ENDBRANCH  28  30
ENDBRANCH  22  28
ENDBRANCH  21  25
ENDBRANCH  20  21
ENDBRANCH  19  20
ENDBRANCH   1  19
TORSDOF 7
