REMARK  Name = 
REMARK  2 active torsions:
REMARK  status: ('A' for Active; 'I' for Inactive)
REMARK    1  A    between atoms: C_23  and  C_25
REMARK    2  A    between atoms: C_25  and  C_27
REMARK                            x       y       z     vdW  Elec       q    Type
REMARK                         _______ _______ _______ _____ _____    ______ ____
ROOT
ATOM      1  C   UNL     1       3.435   1.702   1.606  0.00  0.00    +0.003 C 
ATOM      2  C   UNL     1       2.964   0.166   1.900  0.00  0.00    +0.035 C 
ATOM      3  C   UNL     1       2.888  -0.281   0.346  0.00  0.00    +0.180 C 
ATOM      4  O   UNL     1       2.806  -1.681   0.528  0.00  0.00    -0.218 OA
ATOM      5  C   UNL     1       1.564   0.100  -0.145  0.00  0.00    +0.035 C 
ATOM      6  C   UNL     1       0.828  -0.582   1.121  0.00  0.00    +0.006 C 
ATOM      7  C   UNL     1      -0.605   0.239   0.754  0.00  0.00    +0.034 C 
ATOM      8  C   UNL     1      -1.086  -0.867  -0.298  0.00  0.00    +0.168 C 
ATOM      9  C   UNL     1      -0.361  -0.565  -1.734  0.00  0.00    +0.182 C 
ATOM     10  O   UNL     1      -0.356   0.944  -1.569  0.00  0.00    -0.220 OA
ATOM     11  F   UNL     1      -0.822  -2.087   0.084  0.00  0.00    -0.237 F 
ATOM     12  C   UNL     1      -2.422  -0.379  -0.565  0.00  0.00    +0.064 C 
ATOM     13  C   UNL     1      -3.377  -0.750   0.534  0.00  0.00    -0.035 C 
ATOM     14  C   UNL     1      -4.566  -0.141   0.450  0.00  0.00    +0.034 C 
ATOM     15  C   UNL     1      -4.848   0.613  -0.786  0.00  0.00    +0.195 C 
ATOM     16  C   UNL     1      -4.278  -0.058  -1.968  0.00  0.00    +0.038 C 
ATOM     17  O   UNL     1      -5.505   1.675  -0.830  0.00  0.00    -0.287 OA
ATOM     18  C   UNL     1      -2.634  -1.027   1.746  0.00  0.00    +0.023 C 
ATOM     19  C   UNL     1      -2.511   1.154  -0.459  0.00  0.00    +0.011 C 
ATOM     20  C   UNL     1      -3.114  -0.708  -1.804  0.00  0.00    -0.017 C 
ATOM     21  C   UNL     1      -1.350  -0.468   2.001  0.00  0.00    +0.007 C 
ATOM     22  C   UNL     1       1.421   1.553  -0.123  0.00  0.00    +0.003 C 
ATOM     23  C   UNL     1       1.177  -0.743  -1.206  0.00  0.00    +0.038 C 
ATOM     24  C   UNL     1       1.396   0.617   2.040  0.00  0.00    +0.003 C 
ENDROOT
BRANCH   3  25
ATOM     25  C   UNL     1       4.068  -0.012  -0.386  0.00  0.00    +0.211 C 
ATOM     26  O   UNL     1       4.349  -0.802  -1.295  0.00  0.00    -0.291 OA
BRANCH  25  27
ATOM     27  C   UNL     1       4.851   1.251  -0.557  0.00  0.00    +0.248 C 
ATOM     28  O   UNL     1       6.089   1.137   0.054  0.00  0.00    -0.212 OA
ENDBRANCH  25  27
ENDBRANCH   3  25
TORSDOF 2
