REMARK  Name = 
REMARK  0 active torsions:
REMARK  status: ('A' for Active; 'I' for Inactive)
REMARK                            x       y       z     vdW  Elec       q    Type
REMARK                         _______ _______ _______ _____ _____    ______ ____
ROOT
ATOM      1  C   UNL     1      -2.503  -3.009  -0.189  0.00  0.00    +0.090 C 
ATOM      2  N   UNL     1      -2.564  -1.780  -0.282  0.00  0.00    -0.272 NA
ATOM      3  C   UNL     1      -1.184  -1.405  -0.979  0.00  0.00    +0.062 C 
ATOM      4  C   UNL     1      -0.384  -1.680   0.437  0.00  0.00    +0.042 C 
ATOM      5  C   UNL     1       0.916  -1.028   0.297  0.00  0.00    -0.025 A 
ATOM      6  C   UNL     1       0.665   0.337   0.458  0.00  0.00    -0.023 A 
ATOM      7  C   UNL     1      -0.744   0.571   0.602  0.00  0.00    +0.021 C 
ATOM      8  C   UNL     1      -1.026   2.034   0.718  0.00  0.00    +0.004 C 
ATOM      9  C   UNL     1      -0.375   2.820  -0.373  0.00  0.00    +0.000 C 
ATOM     10  C   UNL     1      -0.604   2.255  -1.762  0.00  0.00    +0.000 C 
ATOM     11  C   UNL     1      -0.265   0.765  -1.729  0.00  0.00    +0.002 C 
ATOM     12  C   UNL     1      -1.538  -0.316   1.478  0.00  0.00    +0.021 C 
ATOM     13  C   UNL     1       1.703   1.222   0.331  0.00  0.00    +0.037 A 
ATOM     14  C   UNL     1       2.940   0.705  -0.046  0.00  0.00    +0.195 A 
ATOM     15  O   UNL     1       3.829   1.442  -0.840  0.00  0.00    -0.287 OA
ATOM     16  C   UNL     1       3.194  -0.651   0.134  0.00  0.00    +0.042 A 
ATOM     17  C   UNL     1       2.164  -1.561   0.356  0.00  0.00    -0.001 A 
ATOM     18  C   UNL     1      -1.532   0.286  -0.794  0.00  0.00    +0.019 C 
ATOM     19  C   UNL     1      -2.692  -1.006   0.876  0.00  0.00    +0.072 C 
ENDROOT
TORSDOF 0
