REMARK  Name = 
REMARK  2 active torsions:
REMARK  status: ('A' for Active; 'I' for Inactive)
REMARK    1  A    between atoms: C_7  and  C_8
REMARK    2  A    between atoms: C_9  and  C_10
REMARK                            x       y       z     vdW  Elec       q    Type
REMARK                         _______ _______ _______ _____ _____    ______ ____
ROOT
ATOM      1  C   UNL     1      -2.109  -2.086   0.691  0.00  0.00    +0.254 C 
ATOM      2  N   UNL     1      -2.102  -0.653   0.412  0.00  0.00    -0.187 N 
ATOM      3  C   UNL     1      -1.007  -0.156  -0.367  0.00  0.00    +0.319 C 
ATOM      4  N   UNL     1      -1.198   1.039  -0.848  0.00  0.00    -0.065 NA
ATOM      5  C   UNL     1      -1.961   2.023  -0.105  0.00  0.00    +0.267 C 
ATOM      6  C   UNL     1      -3.338   1.457   0.104  0.00  0.00    +0.109 C 
ATOM      7  C   UNL     1      -3.334   0.050   0.616  0.00  0.00    +0.207 C 
ENDROOT
BRANCH   3   8
ATOM      8  C   UNL     1      -0.257  -1.045  -1.263  0.00  0.00    +0.089 C 
ATOM      9  C   UNL     1       0.869  -1.527  -0.811  0.00  0.00    +0.014 C 
BRANCH   9  10
ATOM     10  C   UNL     1       1.804  -0.579  -0.188  0.00  0.00    +0.030 A 
ATOM     11  S   UNL     1       3.383  -1.036   0.313  0.00  0.00    -0.086 S 
ATOM     12  C   UNL     1       4.150   0.500   0.238  0.00  0.00    +0.035 A 
ATOM     13  C   UNL     1       3.030   1.316   0.119  0.00  0.00    +0.007 A 
ATOM     14  C   UNL     1       2.071   0.698  -0.671  0.00  0.00    +0.007 A 
ENDBRANCH   9  10
ENDBRANCH   3   8
TORSDOF 2
