REMARK  Name = 
REMARK  4 active torsions:
REMARK  status: ('A' for Active; 'I' for Inactive)
REMARK    1  A    between atoms: O_2  and  C_3
REMARK    2  A    between atoms: C_9  and  C_10
REMARK    3  A    between atoms: C_10  and  C_11
REMARK    4  A    between atoms: C_17  and  C_19
REMARK                            x       y       z     vdW  Elec       q    Type
REMARK                         _______ _______ _______ _____ _____    ______ ____
ROOT
ATOM      1  C   UNL     1      -2.118  -2.517  -0.272  0.00  0.00    +0.139 A 
ATOM      2  C   UNL     1      -2.207  -1.278   0.351  0.00  0.00    +0.038 A 
ATOM      3  C   UNL     1      -1.574  -0.195  -0.246  0.00  0.00    +0.017 A 
ATOM      4  C   UNL     1      -1.562   1.155   0.084  0.00  0.00    +0.003 A 
ATOM      5  C   UNL     1      -0.598   1.694  -0.760  0.00  0.00    +0.041 A 
ATOM      6  N   UNL     1       0.178   0.712  -1.263  0.00  0.00    -0.279 N 
ATOM      7  C   UNL     1       1.520   0.800  -1.760  0.00  0.00    +0.264 C 
ATOM      8  O   UNL     1       1.713   0.384  -2.943  0.00  0.00    -0.267 OA
ATOM      9  C   UNL     1      -0.383   3.148  -1.038  0.00  0.00    +0.050 C 
ATOM     10  C   UNL     1      -0.539  -0.432  -1.140  0.00  0.00    +0.066 A 
ATOM     11  C   UNL     1      -0.455  -1.649  -1.802  0.00  0.00    +0.021 A 
ATOM     12  C   UNL     1      -1.355  -2.633  -1.427  0.00  0.00    +0.038 A 
ENDROOT
BRANCH   7  13
ATOM     13  C   UNL     1       2.555   0.564  -0.744  0.00  0.00    +0.057 A 
ATOM     14  C   UNL     1       3.326   1.585  -0.225  0.00  0.00    +0.006 A 
ATOM     15  C   UNL     1       4.384   1.245   0.611  0.00  0.00    +0.012 A 
ATOM     16  C   UNL     1       4.486  -0.026   1.163  0.00  0.00    +0.058 A 
ATOM     17 CL   UNL     1       6.046  -0.683   1.646  0.00  0.00    -0.082 Cl
ATOM     18  C   UNL     1       3.403  -0.861   0.934  0.00  0.00    +0.012 A 
ATOM     19  C   UNL     1       2.376  -0.545   0.074  0.00  0.00    +0.006 A 
ENDBRANCH   7  13
BRANCH   1  21
ATOM     20  C   UNL     1      -3.530  -3.799   1.293  0.00  0.00    +0.252 C 
ATOM     21  O   UNL     1      -2.463  -3.701   0.374  0.00  0.00    -0.471 OA
ENDBRANCH   1  21
BRANCH   4  22
ATOM     22  C   UNL     1      -1.937   1.784   1.390  0.00  0.00    +0.142 C 
BRANCH  22  23
ATOM     23  C   UNL     1      -3.364   1.570   1.684  0.00  0.00    +0.369 C 
ATOM     24  O   UNL     1      -3.710   1.456   3.035  0.00  0.00    -0.245 OA
ATOM     25  O   UNL     1      -4.192   2.224   0.980  0.00  0.00    -0.245 OA
ENDBRANCH  22  23
ENDBRANCH   4  22
TORSDOF 4
