REMARK  Name = 
REMARK  7 active torsions:
REMARK  status: ('A' for Active; 'I' for Inactive)
REMARK    1  A    between atoms: O_2  and  C_3
REMARK    2  A    between atoms: C_3  and  C_4
REMARK    3  A    between atoms: CA_5  and  C_6
REMARK    4  A    between atoms: CA_12  and  N_13
REMARK    5  A    between atoms: C_14  and  C_16
REMARK    6  A    between atoms: C_16  and  C_20
REMARK    7  A    between atoms: N_17  and  O_18
REMARK                            x       y       z     vdW  Elec       q    Type
REMARK                         _______ _______ _______ _____ _____    ______ ____
ROOT
ATOM      1  C   UNL     1       2.810   1.812   0.707  0.00  0.00    +0.016 C 
ATOM      2  C   UNL     1       1.791   1.424   1.734  0.00  0.00    +0.085 C 
ATOM      3  S   UNL     1       0.679   0.125   1.125  0.00  0.00    -0.114 S 
ATOM      4  C   UNL     1       0.742   0.407  -0.760  0.00  0.00    +0.157 C 
ATOM      5  N   UNL     1       2.202  -0.014  -0.802  0.00  0.00    -0.242 N 
ATOM      6  C   UNL     1       1.917  -1.425  -0.631  0.00  0.00    +0.253 C 
ATOM      7  O   UNL     1       2.654  -2.373  -1.048  0.00  0.00    -0.273 OA
ATOM      8  CA  UNL     1       0.531  -1.133  -1.404  0.00  0.00    +0.201 C 
ATOM      9  CA  UNL     1       3.078   0.997  -0.306  0.00  0.00    +0.130 C 
ENDROOT
BRANCH   9  10
ATOM     10  C   UNL     1       4.332   1.102  -1.065  0.00  0.00    +0.401 C 
ATOM     11  OXT UNL     1       4.531   2.363  -1.643  0.00  0.00    -0.239 OA
ATOM     12  O   UNL     1       4.814   0.138  -1.707  0.00  0.00    -0.239 OA
ENDBRANCH   9  10
BRANCH   8  13
ATOM     13  N   UNL     1      -0.425  -1.675  -0.262  0.00  0.00    -0.190 NA
ATOM     14  C   UNL     1      -1.745  -1.674  -0.759  0.00  0.00    +0.288 C 
ATOM     15  O   UNL     1      -1.990  -1.972  -1.968  0.00  0.00    -0.267 OA
BRANCH  14  16
ATOM     16  C   UNL     1      -2.943  -1.323   0.015  0.00  0.00    +0.192 C 
ATOM     17  N   UNL     1      -3.842  -2.269   0.011  0.00  0.00    -0.077 NA
BRANCH  16  18
ATOM     18  C   UNL     1      -3.447   0.064  -0.007  0.00  0.00    +0.115 A 
ATOM     19  N   UNL     1      -3.915   0.685   1.073  0.00  0.00    -0.220 NA
ATOM     20  C   UNL     1      -4.798   1.659   0.775  0.00  0.00    +0.201 A 
ATOM     21  N   UNL     1      -5.794   2.252   1.620  0.00  0.00    -0.100 NA
ATOM     22  S   UNL     1      -4.084   2.300  -0.649  0.00  0.00    -0.048 S 
ATOM     23  C   UNL     1      -3.051   0.973  -0.986  0.00  0.00    +0.059 A 
ENDBRANCH  16  18
BRANCH  17  24
ATOM     24  O   UNL     1      -3.773  -3.340  -0.867  0.00  0.00    -0.373 OA
ATOM     25  C   UNL     1      -4.181  -4.643  -0.509  0.00  0.00    +0.288 C 
ENDBRANCH  17  24
ENDBRANCH  14  16
ENDBRANCH   8  13
BRANCH   1  26
ATOM     26  C   UNL     1       3.939   2.609   1.295  0.00  0.00    +0.167 C 
BRANCH  26  28
ATOM     27  C   UNL     1       5.550   1.104   2.005  0.00  0.00    +0.175 C 
ATOM     28  O   UNL     1       4.419   1.828   2.361  0.00  0.00    -0.347 OA
ENDBRANCH  26  28
ENDBRANCH   1  26
TORSDOF 7
