REMARK  Name = 
REMARK  4 active torsions:
REMARK  status: ('A' for Active; 'I' for Inactive)
REMARK    1  A    between atoms: C_2  and  C_3
REMARK    2  A    between atoms: C_2  and  C_7
REMARK    3  A    between atoms: C_3  and  N_4
REMARK    4  A    between atoms: C_7  and  N_8
REMARK                            x       y       z     vdW  Elec       q    Type
REMARK                         _______ _______ _______ _____ _____    ______ ____
ROOT
ATOM      1  N   UNL     1      -0.206  -0.158  -0.227  0.00  0.00    -0.287 N 
ATOM      2  C   UNL     1      -0.667   1.196  -0.146  0.00  0.00    +0.048 A 
ATOM      3  C   UNL     1      -1.957   1.663   0.081  0.00  0.00    -0.008 A 
ATOM      4  C   UNL     1      -2.148   2.972   0.489  0.00  0.00    -0.003 A 
ATOM      5  C   UNL     1      -1.122   3.870   0.280  0.00  0.00    -0.000 A 
ATOM      6  C   UNL     1       0.090   3.421  -0.234  0.00  0.00    +0.001 A 
ATOM      7  C   UNL     1      -3.137   0.841   0.433  0.00  0.00    +0.032 C 
ATOM      8  C   UNL     1      -3.437  -0.233  -0.579  0.00  0.00    +0.032 C 
ATOM      9  C   UNL     1      -2.469  -1.358  -0.394  0.00  0.00    -0.008 A 
ATOM     10  C   UNL     1      -3.129  -2.518  -0.036  0.00  0.00    -0.003 A 
ATOM     11  C   UNL     1      -2.370  -3.582   0.430  0.00  0.00    -0.000 A 
ATOM     12  C   UNL     1      -0.992  -3.591   0.371  0.00  0.00    +0.001 A 
ATOM     13  C   UNL     1      -0.363  -2.451  -0.115  0.00  0.00    +0.015 A 
ATOM     14  C   UNL     1       0.318   2.087  -0.528  0.00  0.00    +0.015 A 
ATOM     15  C   UNL     1      -1.087  -1.287  -0.265  0.00  0.00    +0.048 A 
ENDROOT
BRANCH   1  16
ATOM     16  C   UNL     1       1.065  -0.391  -0.881  0.00  0.00    +0.097 C 
BRANCH  16  18
ATOM     17  C   UNL     1       1.649  -0.314   1.426  0.00  0.00    +0.003 C 
ATOM     18  C   UNL     1       2.163   0.438   0.042  0.00  0.00    +0.036 C 
BRANCH  18  19
ATOM     19  C   UNL     1       3.322  -0.718  -0.212  0.00  0.00    +0.074 C 
BRANCH  19  20
ATOM     20  N   UNL     1       4.378  -0.188   0.626  0.00  0.00    -0.270 NA
ATOM     21  C   UNL     1       5.596  -0.923   0.435  0.00  0.00    +0.090 C 
ATOM     22  C   UNL     1       4.504   1.223   0.335  0.00  0.00    +0.090 C 
ENDBRANCH  19  20
ENDBRANCH  18  19
ENDBRANCH  16  18
ENDBRANCH   1  16
TORSDOF 4
