REMARK  Name = 
REMARK  6 active torsions:
REMARK  status: ('A' for Active; 'I' for Inactive)
REMARK    1  A    between atoms: C_2  and  N_4
REMARK    2  A    between atoms: N_4  and  C_5
REMARK    3  A    between atoms: C_5  and  C_6
REMARK    4  A    between atoms: C_6  and  C_8
REMARK    5  A    between atoms: C_8  and  O_9
REMARK    6  A    between atoms: O_9  and  C_10
REMARK                            x       y       z     vdW  Elec       q    Type
REMARK                         _______ _______ _______ _____ _____    ______ ____
ROOT
ATOM      1  C   UNL     1      -1.175   1.389  -0.451  0.00  0.00    +0.139 A 
ATOM      2  C   UNL     1      -2.014   0.391  -0.018  0.00  0.00    +0.034 A 
ATOM      3  C   UNL     1      -3.277   0.202  -0.571  0.00  0.00    +0.003 A 
ATOM      4  C   UNL     1      -3.946  -0.987  -0.346  0.00  0.00    +0.000 A 
ATOM      5  C   UNL     1      -3.331  -1.982   0.372  0.00  0.00    +0.000 A 
ATOM      6  C   UNL     1      -2.240  -1.673   1.155  0.00  0.00    +0.000 A 
ATOM      7  C   UNL     1      -3.806   1.234  -1.331  0.00  0.00    +0.000 A 
ATOM      8  C   UNL     1      -3.070   2.392  -1.553  0.00  0.00    +0.003 A 
ATOM      9  C   UNL     1      -1.725  -0.406   1.058  0.00  0.00    +0.003 A 
ATOM     10  C   UNL     1      -1.741   2.432  -1.177  0.00  0.00    +0.037 A 
ENDROOT
BRANCH   1  11
ATOM     11  O   UNL     1       0.169   1.251  -0.234  0.00  0.00    -0.473 OA
BRANCH  11  12
ATOM     12  C   UNL     1       0.963   0.131  -0.550  0.00  0.00    +0.240 C 
BRANCH  12  13
ATOM     13  C   UNL     1       1.561  -0.177   0.993  0.00  0.00    +0.213 C 
ATOM     14  O   UNL     1       1.880  -1.647   0.624  0.00  0.00    -0.218 OA
BRANCH  13  15
ATOM     15  C   UNL     1       3.105   0.336   0.574  0.00  0.00    +0.125 C 
BRANCH  15  16
ATOM     16  N   UNL     1       3.400  -0.310  -0.662  0.00  0.00    -0.217 NA
BRANCH  16  18
ATOM     17  C   UNL     1       5.548   0.251   0.293  0.00  0.00    +0.019 C 
ATOM     18  C   UNL     1       4.793  -0.742  -0.581  0.00  0.00    +0.073 C 
ATOM     19  C   UNL     1       4.908  -2.086   0.115  0.00  0.00    +0.019 C 
ENDBRANCH  16  18
ENDBRANCH  15  16
ENDBRANCH  13  15
ENDBRANCH  12  13
ENDBRANCH  11  12
ENDBRANCH   1  11
TORSDOF 6
