REMARK  Name = 
REMARK  6 active torsions:
REMARK  status: ('A' for Active; 'I' for Inactive)
REMARK    1  A    between atoms: O_2  and  C_3
REMARK    2  A    between atoms: C_11  and  N_12
REMARK    3  A    between atoms: N_12  and  C_13
REMARK    4  A    between atoms: C_13  and  C_15
REMARK    5  A    between atoms: C_15  and  C_16
REMARK    6  A    between atoms: C_16  and  C_17
REMARK                            x       y       z     vdW  Elec       q    Type
REMARK                         _______ _______ _______ _____ _____    ______ ____
ROOT
ATOM      1  C   UNL     1      -1.583   1.980  -0.035  0.00  0.00    +0.140 A 
ATOM      2  C   UNL     1      -0.310   1.466   0.190  0.00  0.00    +0.054 A 
ATOM      3  C   UNL     1      -0.090   0.091   0.171  0.00  0.00    +0.086 A 
ATOM      4  C   UNL     1      -1.248  -0.675   0.247  0.00  0.00    +0.096 A 
ATOM      5  C   UNL     1      -2.490  -0.210  -0.171  0.00  0.00    +0.022 A 
ATOM      6  C   UNL     1      -3.560  -1.081  -0.349  0.00  0.00    +0.003 A 
ATOM      7  C   UNL     1      -3.356  -2.367   0.133  0.00  0.00    +0.021 A 
ATOM      8  C   UNL     1      -2.187  -2.701   0.797  0.00  0.00    +0.099 A 
ATOM      9  N   UNL     1      -1.101  -1.917   0.713  0.00  0.00    -0.243 NA
ATOM     10  C   UNL     1      -2.650   1.155  -0.375  0.00  0.00    +0.038 A 
ENDROOT
BRANCH   1  12
ATOM     11  C   UNL     1      -1.608   3.945   0.455  0.00  0.00    +0.252 C 
ATOM     12  O   UNL     1      -1.819   3.339   0.149  0.00  0.00    -0.471 OA
ENDBRANCH   1  12
BRANCH   3  13
ATOM     13  N   UNL     1       1.029  -0.490  -0.514  0.00  0.00    -0.238 NA
BRANCH  13  14
ATOM     14  C   UNL     1       2.028  -1.286   0.441  0.00  0.00    +0.093 C 
ATOM     15  C   UNL     1       1.753  -2.711  -0.385  0.00  0.00    +0.023 C 
BRANCH  14  16
ATOM     16  C   UNL     1       3.324  -0.927  -0.547  0.00  0.00    +0.023 C 
BRANCH  16  17
ATOM     17  C   UNL     1       3.637   0.497  -0.194  0.00  0.00    +0.022 C 
BRANCH  17  18
ATOM     18  C   UNL     1       4.605   0.441   0.985  0.00  0.00    +0.109 C 
ATOM     19  N   UNL     1       5.623   1.450   0.807  0.00  0.00    -0.131 NA
ENDBRANCH  17  18
ENDBRANCH  16  17
ENDBRANCH  14  16
ENDBRANCH  13  14
ENDBRANCH   3  13
TORSDOF 6
