REMARK  Name = 
REMARK  8 active torsions:
REMARK  status: ('A' for Active; 'I' for Inactive)
REMARK    1  A    between atoms: O_2  and  C_3
REMARK    2  A    between atoms: C_6  and  C_7
REMARK    3  A    between atoms: C_7  and  C_8
REMARK    4  A    between atoms: C_8  and  N_10
REMARK    5  A    between atoms: N_10  and  C_11
REMARK    6  A    between atoms: C_11  and  C_12
REMARK    7  A    between atoms: C_12  and  C_14
REMARK    8  A    between atoms: C_19  and  N_20
REMARK                            x       y       z     vdW  Elec       q    Type
REMARK                         _______ _______ _______ _____ _____    ______ ____
ROOT
ATOM      1  C   UNL     1      -0.068   0.230   0.725  0.00  0.00    +0.126 C 
ENDROOT
BRANCH   1   2
ATOM      2  C   UNL     1      -1.032   0.255  -0.665  0.00  0.00    +0.192 C 
ATOM      3  O   UNL     1      -0.871   1.797  -0.806  0.00  0.00    -0.217 OA
BRANCH   2   4
ATOM      4  C   UNL     1      -2.441   0.457   0.166  0.00  0.00    +0.011 A 
ATOM      5  C   UNL     1      -3.554   0.345  -0.643  0.00  0.00    +0.018 A 
ATOM      6  C   UNL     1      -4.776   0.578  -0.023  0.00  0.00    +0.112 A 
ATOM      7  C   UNL     1      -4.815   0.816   1.346  0.00  0.00    +0.211 A 
ATOM      8  O   UNL     1      -5.868   1.536   1.907  0.00  0.00    -0.285 OA
ATOM      9  C   UNL     1      -3.707   0.401   2.073  0.00  0.00    +0.043 A 
ATOM     10  C   UNL     1      -2.530   0.019   1.427  0.00  0.00    +0.002 A 
BRANCH   6  11
ATOM     11  N   UNL     1      -6.016   0.418  -0.689  0.00  0.00    -0.168 NA
ATOM     12  C   UNL     1      -6.025  -0.386  -1.875  0.00  0.00    +0.325 C 
ATOM     13  O   UNL     1      -5.100  -0.259  -2.708  0.00  0.00    -0.263 OA
ENDBRANCH   6  11
ENDBRANCH   2   4
ENDBRANCH   1   2
BRANCH   1  14
ATOM     14  N   UNL     1       1.079  -0.452   0.186  0.00  0.00    -0.216 NA
BRANCH  14  15
ATOM     15  C   UNL     1       1.065  -1.908   0.846  0.00  0.00    +0.077 C 
ATOM     16  C   UNL     1       1.617  -2.635  -0.556  0.00  0.00    +0.019 C 
BRANCH  15  17
ATOM     17  C   UNL     1       2.585  -1.705   1.481  0.00  0.00    +0.044 C 
BRANCH  17  21
ATOM     18  C   UNL     1       5.474   0.455  -0.376  0.00  0.00    +0.139 A 
ATOM     19  C   UNL     1       5.817  -0.613   0.434  0.00  0.00    +0.037 A 
ATOM     20  C   UNL     1       4.847  -1.528   0.838  0.00  0.00    -0.001 A 
ATOM     21  C   UNL     1       3.519  -1.420   0.429  0.00  0.00    -0.021 A 
ATOM     22  C   UNL     1       3.425  -0.688  -0.720  0.00  0.00    -0.001 A 
ATOM     23  C   UNL     1       4.230   0.413  -0.983  0.00  0.00    +0.037 A 
BRANCH  18  25
ATOM     24  C   UNL     1       7.160   2.142  -0.734  0.00  0.00    +0.252 C 
ATOM     25  O   UNL     1       5.984   1.732  -0.123  0.00  0.00    -0.471 OA
ENDBRANCH  18  25
ENDBRANCH  17  21
ENDBRANCH  15  17
ENDBRANCH  14  15
ENDBRANCH   1  14
TORSDOF 8
