REMARK  Name = 
REMARK  9 active torsions:
REMARK  status: ('A' for Active; 'I' for Inactive)
REMARK    1  A    between atoms: C_2  and  C_3
REMARK    2  A    between atoms: C_3  and  S_4
REMARK    3  A    between atoms: S_4  and  C_5
REMARK    4  A    between atoms: N_11  and  C_12
REMARK    5  A    between atoms: C_14  and  O_15
REMARK    6  A    between atoms: O_15  and  C_16
REMARK    7  A    between atoms: C_16  and  C_17
REMARK    8  A    between atoms: N_24  and  C_25
REMARK    9  A    between atoms: C_27  and  C_28
REMARK                            x       y       z     vdW  Elec       q    Type
REMARK                         _______ _______ _______ _____ _____    ______ ____
ROOT
ATOM      1  C   UNL     1      -0.454   1.582  -1.631  0.00  0.00    +0.193 A 
ATOM      2  N   UNL     1       0.552   0.673  -1.614  0.00  0.00    -0.203 NA
ATOM      3  C   UNL     1       0.956   0.077  -0.464  0.00  0.00    +0.172 A 
ATOM      4  N   UNL     1       1.885  -0.927  -0.524  0.00  0.00    -0.220 NA
ATOM      5  C   UNL     1       0.272   0.440   0.697  0.00  0.00    +0.173 A 
ATOM      6  N   UNL     1       0.294  -0.046   1.956  0.00  0.00    -0.124 NA
ATOM      7  N   UNL     1      -0.981  -0.147   2.339  0.00  0.00    -0.062 NA
ATOM      8  N   UNL     1      -1.778   0.614   1.643  0.00  0.00    -0.214 N 
ATOM      9  C   UNL     1      -0.978   1.048   0.629  0.00  0.00    +0.185 A 
ATOM     10  N   UNL     1      -1.091   1.849  -0.460  0.00  0.00    -0.201 NA
ENDROOT
BRANCH   8  11
ATOM     11  C   UNL     1      -3.176   0.137   1.080  0.00  0.00    +0.144 C 
ATOM     12  C   UNL     1      -3.395  -1.137   2.211  0.00  0.00    +0.207 C 
ATOM     13  O   UNL     1      -2.799  -2.188   1.293  0.00  0.00    -0.218 OA
ATOM     14  C   UNL     1      -5.024  -1.315   1.708  0.00  0.00    +0.211 C 
ATOM     15  O   UNL     1      -4.700  -1.679   0.273  0.00  0.00    -0.218 OA
ATOM     16  C   UNL     1      -5.234   0.323   1.193  0.00  0.00    +0.150 C 
ATOM     17  C   UNL     1      -4.083   0.948   2.199  0.00  0.00    +0.059 C 
BRANCH  16  18
ATOM     18  O   UNL     1      -6.359   0.564   2.200  0.00  0.00    -0.351 OA
BRANCH  18  19
ATOM     19  C   UNL     1      -7.246  -0.449   1.819  0.00  0.00    +0.178 C 
BRANCH  19  20
ATOM     20  C   UNL     1      -8.159  -0.035   0.703  0.00  0.00    +0.214 C 
ATOM     21  O   UNL     1      -7.590  -0.174  -0.556  0.00  0.00    -0.218 OA
ENDBRANCH  19  20
ENDBRANCH  18  19
ENDBRANCH  16  18
ENDBRANCH   8  11
BRANCH   4  22
ATOM     22  C   UNL     1       3.175  -0.900   0.431  0.00  0.00    +0.098 C 
ATOM     23  C   UNL     1       4.080   0.092  -0.679  0.00  0.00    +0.044 C 
ATOM     24  C   UNL     1       3.195   0.831   0.622  0.00  0.00    +0.028 C 
BRANCH  23  25
ATOM     25  C   UNL     1       5.479  -0.005   0.173  0.00  0.00    -0.018 A 
ATOM     26  C   UNL     1       6.422   0.903  -0.305  0.00  0.00    +0.028 A 
ATOM     27  C   UNL     1       7.672   0.509  -0.770  0.00  0.00    +0.167 A 
ATOM     28  F   UNL     1       8.563   1.365  -1.332  0.00  0.00    -0.202 F 
ATOM     29  C   UNL     1       7.940  -0.840  -0.981  0.00  0.00    +0.167 A 
ATOM     30  F   UNL     1       8.455  -1.255  -2.179  0.00  0.00    -0.202 F 
ATOM     31  C   UNL     1       7.203  -1.688  -0.166  0.00  0.00    +0.032 A 
ATOM     32  C   UNL     1       5.944  -1.312   0.291  0.00  0.00    -0.002 A 
ENDBRANCH  23  25
ENDBRANCH   4  22
BRANCH   1  33
ATOM     33  S   UNL     1      -1.308   1.752  -3.199  0.00  0.00    -0.076 S 
BRANCH  33  34
ATOM     34  C   UNL     1      -2.097   0.271  -3.764  0.00  0.00    +0.065 C 
BRANCH  34  36
ATOM     35  C   UNL     1      -2.778  -0.765  -2.103  0.00  0.00    +0.001 C 
ATOM     36  C   UNL     1      -2.857  -0.502  -2.732  0.00  0.00    +0.012 C 
ENDBRANCH  34  36
ENDBRANCH  33  34
ENDBRANCH   1  33
TORSDOF 9
