REMARK  Name = 
REMARK  7 active torsions:
REMARK  status: ('A' for Active; 'I' for Inactive)
REMARK    1  A    between atoms: C_5  and  C_6
REMARK    2  A    between atoms: N_8  and  C_9
REMARK    3  A    between atoms: C_9  and  C_10
REMARK    4  A    between atoms: C_10  and  C_11
REMARK    5  A    between atoms: C_14  and  S_15
REMARK    6  A    between atoms: S_15  and  N_18
REMARK    7  A    between atoms: N_21  and  C_22
REMARK                            x       y       z     vdW  Elec       q    Type
REMARK                         _______ _______ _______ _____ _____    ______ ____
ROOT
ATOM      1  C   UNL     1       1.174   0.619   0.480  0.00  0.00    -0.020 A 
ATOM      2  C   UNL     1       0.018   0.783  -0.274  0.00  0.00    -0.003 A 
ATOM      3  C   UNL     1      -0.947  -0.217  -0.320  0.00  0.00    +0.020 A 
ATOM      4  C   UNL     1      -0.808  -1.387   0.417  0.00  0.00    +0.129 A 
ATOM      5  C   UNL     1       0.494  -1.683   0.805  0.00  0.00    +0.020 A 
ATOM      6  C   UNL     1       1.473  -0.697   0.816  0.00  0.00    -0.003 A 
ENDROOT
BRANCH   4   7
ATOM      7  S   UNL     1      -2.198  -2.135   1.196  0.00  0.00    +0.104 S 
ATOM      8  O   UNL     1      -2.181  -1.837   2.678  0.00  0.00    -0.146 OA
ATOM      9  O   UNL     1      -2.178  -3.622   1.058  0.00  0.00    -0.146 OA
BRANCH   7  10
ATOM     10  N   UNL     1      -3.615  -1.417   0.549  0.00  0.00    -0.071 NA
ATOM     11  C   UNL     1      -4.497  -2.061  -0.132  0.00  0.00    +0.371 C 
ATOM     12  N   UNL     1      -5.566  -1.314  -0.690  0.00  0.00    -0.185 NA
ATOM     13  O   UNL     1      -4.578  -3.436   0.109  0.00  0.00    -0.244 OA
BRANCH  12  14
ATOM     14  C   UNL     1      -5.662   0.139  -0.574  0.00  0.00    +0.097 C 
ATOM     15  C   UNL     1      -6.216   0.533   0.790  0.00  0.00    +0.022 C 
ATOM     16  C   UNL     1      -6.752   1.953   0.659  0.00  0.00    +0.002 C 
ATOM     17  C   UNL     1      -6.034   2.695  -0.440  0.00  0.00    +0.000 C 
ATOM     18  C   UNL     1      -6.501   2.156  -1.787  0.00  0.00    +0.002 C 
ATOM     19  C   UNL     1      -6.631   0.649  -1.626  0.00  0.00    +0.022 C 
ENDBRANCH  12  14
ENDBRANCH   7  10
ENDBRANCH   4   7
BRANCH   1  20
ATOM     20  C   UNL     1       1.732   1.766   1.262  0.00  0.00    +0.050 C 
BRANCH  20  21
ATOM     21  C   UNL     1       2.534   2.709   0.398  0.00  0.00    +0.120 C 
BRANCH  21  23
ATOM     22  C   UNL     1       5.007   2.505  -0.090  0.00  0.00    +0.284 C 
ATOM     23  N   UNL     1       3.926   2.579   0.821  0.00  0.00    -0.200 NA
ATOM     24  O   UNL     1       4.857   3.115  -1.191  0.00  0.00    -0.267 OA
BRANCH  22  29
ATOM     25  C   UNL     1       5.517  -2.650  -0.101  0.00  0.00    +0.054 C 
ATOM     26  C   UNL     1       6.254  -1.348  -0.139  0.00  0.00    +0.079 A 
ATOM     27  N   UNL     1       6.377  -0.629  -1.282  0.00  0.00    -0.245 NA
ATOM     28  C   UNL     1       6.319   0.725  -1.251  0.00  0.00    +0.122 A 
ATOM     29  C   UNL     1       5.986   1.408  -0.086  0.00  0.00    +0.155 A 
ATOM     30  N   UNL     1       6.225   0.718   1.056  0.00  0.00    -0.236 NA
ATOM     31  C   UNL     1       6.472  -0.615   1.022  0.00  0.00    +0.114 A 
ENDBRANCH  22  29
ENDBRANCH  21  23
ENDBRANCH  20  21
ENDBRANCH   1  20
TORSDOF 7
