REMARK  Name = 
REMARK  5 active torsions:
REMARK  status: ('A' for Active; 'I' for Inactive)
REMARK    1  A    between atoms: C_2  and  C_3
REMARK    2  A    between atoms: C_3  and  C_5
REMARK    3  A    between atoms: C_5  and  C_7
REMARK    4  A    between atoms: C_7  and  C_9
REMARK    5  A    between atoms: C_9  and  C_11
REMARK                            x       y       z     vdW  Elec       q    Type
REMARK                         _______ _______ _______ _____ _____    ______ ____
ROOT
ATOM      1  C   UNL     1       1.365   0.121  -0.457  0.00  0.00    +0.217 C 
ATOM      2  O   UNL     1       1.877  -0.412  -1.764  0.00  0.00    -0.217 OA
ENDROOT
BRANCH   1   3
ATOM      3  C   UNL     1       1.673  -1.382   0.312  0.00  0.00    +0.217 C 
ATOM      4  O   UNL     1       0.352  -2.055   0.052  0.00  0.00    -0.217 OA
BRANCH   3   6
ATOM      5  O   UNL     1       1.959   0.341   1.935  0.00  0.00    -0.217 OA
ATOM      6  C   UNL     1       1.169  -0.754   1.749  0.00  0.00    +0.217 C 
ENDBRANCH   3   6
ENDBRANCH   1   3
BRANCH   1   7
ATOM      7  C   UNL     1      -0.238  -0.156  -0.956  0.00  0.00    +0.217 C 
ATOM      8  O   UNL     1      -0.172   1.100  -1.769  0.00  0.00    -0.217 OA
BRANCH   7   9
ATOM      9  C   UNL     1      -0.935   0.535   0.459  0.00  0.00    +0.217 C 
ATOM     10  O   UNL     1      -2.020  -0.523   0.409  0.00  0.00    -0.217 OA
BRANCH   9  11
ATOM     11  C   UNL     1      -1.899   1.620  -0.309  0.00  0.00    +0.217 C 
ATOM     12  O   UNL     1      -3.130   1.565   0.338  0.00  0.00    -0.217 OA
ENDBRANCH   9  11
ENDBRANCH   7   9
ENDBRANCH   1   7
TORSDOF 5
