REMARK  Name = 
REMARK  4 active torsions:
REMARK  status: ('A' for Active; 'I' for Inactive)
REMARK    1  A    between atoms: C_2  and  C_3
REMARK    2  A    between atoms: C_2  and  C_6
REMARK    3  A    between atoms: C_10  and  C_11
REMARK    4  A    between atoms: C_11  and  C_13
REMARK                            x       y       z     vdW  Elec       q    Type
REMARK                         _______ _______ _______ _____ _____    ______ ____
ROOT
ATOM      1  C   UNL     1      -2.197   0.216   0.104  0.00  0.00    -0.012 A 
ATOM      2  C   UNL     1      -1.109  -0.468  -0.444  0.00  0.00    -0.001 A 
ATOM      3  C   UNL     1       0.201  -0.182  -0.140  0.00  0.00    +0.039 A 
ATOM      4  C   UNL     1       0.468   0.872   0.727  0.00  0.00    +0.003 A 
ATOM      5  C   UNL     1      -0.569   1.371   1.503  0.00  0.00    -0.000 A 
ATOM      6  C   UNL     1      -1.835   1.215   0.969  0.00  0.00    -0.004 A 
ENDROOT
BRANCH   1   8
ATOM      7  C   UNL     1      -4.179   1.600  -0.051  0.00  0.00    +0.017 C 
ATOM      8  C   UNL     1      -3.235   0.682  -1.076  0.00  0.00    +0.126 C 
BRANCH   8   9
ATOM      9  C   UNL     1      -4.187  -0.625  -0.825  0.00  0.00    +0.368 C 
ATOM     10  O   UNL     1      -5.508  -0.403  -1.227  0.00  0.00    -0.245 OA
ATOM     11  O   UNL     1      -3.606  -1.707  -1.045  0.00  0.00    -0.245 OA
ENDBRANCH   8   9
ENDBRANCH   1   8
BRANCH   3  12
ATOM     12  C   UNL     1       1.310  -1.123  -0.365  0.00  0.00    +0.196 C 
ATOM     13  O   UNL     1       1.183  -2.272   0.161  0.00  0.00    -0.287 OA
BRANCH  12  14
ATOM     14  C   UNL     1       2.678  -0.588  -0.302  0.00  0.00    +0.039 A 
ATOM     15  C   UNL     1       3.101   0.183   0.776  0.00  0.00    +0.003 A 
ATOM     16  C   UNL     1       4.065   1.163   0.592  0.00  0.00    +0.000 A 
ATOM     17  C   UNL     1       5.068   0.845  -0.315  0.00  0.00    +0.000 A 
ATOM     18  C   UNL     1       4.742   0.010  -1.354  0.00  0.00    +0.000 A 
ATOM     19  C   UNL     1       3.607  -0.788  -1.285  0.00  0.00    +0.003 A 
ENDBRANCH  12  14
ENDBRANCH   3  12
TORSDOF 4
