REMARK  Name = 
REMARK  0 active torsions:
REMARK  status: ('A' for Active; 'I' for Inactive)
REMARK                            x       y       z     vdW  Elec       q    Type
REMARK                         _______ _______ _______ _____ _____    ______ ____
ROOT
ATOM      1  C   UNL     1      -4.028  -0.851   1.291  0.00  0.00    +0.033 C 
ATOM      2  C   UNL     1      -3.811   0.099   0.145  0.00  0.00    +0.127 C 
ATOM      3  C   UNL     1      -2.390   0.522  -0.016  0.00  0.00    +0.026 C 
ATOM      4  C   UNL     1      -1.828  -1.005   0.056  0.00  0.00    +0.002 C 
ATOM      5  C   UNL     1      -0.345  -0.579  -0.638  0.00  0.00    +0.001 C 
ATOM      6  C   UNL     1       0.239  -0.040   0.857  0.00  0.00    +0.003 C 
ATOM      7  C   UNL     1      -0.307   1.476   0.601  0.00  0.00    +0.000 C 
ATOM      8  C   UNL     1       1.718   0.296   0.270  0.00  0.00    +0.016 C 
ATOM      9  C   UNL     1       2.437  -0.999   0.178  0.00  0.00    -0.042 C 
ATOM     10  C   UNL     1       3.759  -0.911   0.096  0.00  0.00    +0.029 C 
ATOM     11  C   UNL     1       4.438   0.379   0.291  0.00  0.00    +0.173 C 
ATOM     12  C   UNL     1       3.675   1.629   0.596  0.00  0.00    +0.069 C 
ATOM     13  O   UNL     1       5.623   0.375   0.744  0.00  0.00    -0.291 OA
ATOM     14  C   UNL     1       1.740  -1.999  -0.691  0.00  0.00    +0.022 C 
ATOM     15  C   UNL     1       1.562   1.002  -1.020  0.00  0.00    +0.004 C 
ATOM     16  C   UNL     1       2.375   1.218   1.274  0.00  0.00    +0.012 C 
ATOM     17  C   UNL     1       0.269  -2.048  -0.416  0.00  0.00    +0.004 C 
ATOM     18  C   UNL     1      -2.543  -1.324  -1.373  0.00  0.00    +0.003 C 
ATOM     19  C   UNL     1      -2.229   1.003  -1.418  0.00  0.00    +0.002 C 
ATOM     20  C   UNL     1      -1.763   1.311   1.041  0.00  0.00    +0.002 C 
ATOM     21  C   UNL     1      -3.933  -0.738  -1.129  0.00  0.00    +0.030 C 
ATOM     22  O   UNL     1      -4.658   1.185   0.150  0.00  0.00    -0.226 OA
ENDROOT
TORSDOF 0
