REMARK  Name = 
REMARK  6 active torsions:
REMARK  status: ('A' for Active; 'I' for Inactive)
REMARK    1  A    between atoms: N_2  and  C_3
REMARK    2  A    between atoms: C_3  and  C_4
REMARK    3  A    between atoms: C_4  and  C_5
REMARK    4  A    between atoms: C_5  and  O_6
REMARK    5  A    between atoms: C_5  and  C_17
REMARK    6  A    between atoms: O_6  and  C_7
REMARK                            x       y       z     vdW  Elec       q    Type
REMARK                         _______ _______ _______ _____ _____    ______ ____
ROOT
ATOM      1  O   UNL     1       0.345  -0.028  -0.331  0.00  0.00    -0.474 OA
ENDROOT
BRANCH   1   2
ATOM      2  C   UNL     1      -0.961   0.150   0.063  0.00  0.00    +0.139 A 
ATOM      3  C   UNL     1      -1.906  -0.808  -0.258  0.00  0.00    +0.034 A 
ATOM      4  C   UNL     1      -3.243  -0.541   0.011  0.00  0.00    +0.003 A 
ATOM      5  C   UNL     1      -4.128  -1.588   0.227  0.00  0.00    +0.000 A 
ATOM      6  C   UNL     1      -3.620  -2.868   0.038  0.00  0.00    +0.000 A 
ATOM      7  C   UNL     1      -2.574  -3.013  -0.863  0.00  0.00    +0.000 A 
ATOM      8  C   UNL     1      -3.692   0.737   0.284  0.00  0.00    +0.000 A 
ATOM      9  C   UNL     1      -2.771   1.751   0.339  0.00  0.00    +0.003 A 
ATOM     10  C   UNL     1      -1.607  -2.011  -0.854  0.00  0.00    +0.003 A 
ATOM     11  C   UNL     1      -1.449   1.423   0.271  0.00  0.00    +0.037 A 
ENDBRANCH   1   2
BRANCH   1  12
ATOM     12  C   UNL     1       1.404   0.434   0.735  0.00  0.00    +0.195 C 
BRANCH  12  13
ATOM     13  C   UNL     1       1.802   1.761  -0.163  0.00  0.00    +0.047 A 
ATOM     14  S   UNL     1       1.274   3.223   0.598  0.00  0.00    -0.087 S 
ATOM     15  C   UNL     1       2.446   4.279  -0.084  0.00  0.00    +0.035 A 
ATOM     16  C   UNL     1       3.157   3.356  -0.844  0.00  0.00    +0.007 A 
ATOM     17  C   UNL     1       3.147   2.118  -0.246  0.00  0.00    +0.006 A 
ENDBRANCH  12  13
BRANCH  12  18
ATOM     18  C   UNL     1       2.577  -0.531   0.009  0.00  0.00    +0.068 C 
BRANCH  18  19
ATOM     19  C   UNL     1       2.613  -1.762   0.901  0.00  0.00    +0.093 C 
BRANCH  19  21
ATOM     20  C   UNL     1       4.303  -3.138  -0.112  0.00  0.00    +0.107 C 
ATOM     21  N   UNL     1       2.884  -2.941   0.087  0.00  0.00    -0.216 NA
ENDBRANCH  19  21
ENDBRANCH  18  19
ENDBRANCH  12  18
ENDBRANCH   1  12
TORSDOF 6
