REMARK  Name = 
REMARK  6 active torsions:
REMARK  status: ('A' for Active; 'I' for Inactive)
REMARK    1  A    between atoms: C_2  and  C_3
REMARK    2  A    between atoms: C_2  and  C_22
REMARK    3  A    between atoms: C_3  and  C_4
REMARK    4  A    between atoms: C_4  and  C_5
REMARK    5  A    between atoms: C_5  and  N_6
REMARK    6  A    between atoms: C_9  and  N_10
REMARK                            x       y       z     vdW  Elec       q    Type
REMARK                         _______ _______ _______ _____ _____    ______ ____
ROOT
ATOM      1  N   UNL     1       0.022  -1.458  -0.483  0.00  0.00    -0.269 NA
ATOM      2  C   UNL     1      -0.154  -0.033  -0.436  0.00  0.00    +0.079 C 
ATOM      3  C   UNL     1      -1.543   0.397  -0.061  0.00  0.00    +0.061 C 
ATOM      4  C   UNL     1      -2.417  -0.748   0.323  0.00  0.00    +0.044 C 
ATOM      5  C   UNL     1      -1.863  -1.710   1.033  0.00  0.00    +0.004 C 
ATOM      6  C   UNL     1      -0.478  -2.134   0.700  0.00  0.00    +0.100 C 
ENDROOT
BRANCH   4   7
ATOM      7  N   UNL     1      -3.825  -0.692   0.064  0.00  0.00    -0.261 N 
ATOM      8  C   UNL     1      -4.595   0.367   0.414  0.00  0.00    +0.086 A 
ATOM      9  C   UNL     1      -5.760   0.375  -0.335  0.00  0.00    +0.102 A 
ATOM     10  C   UNL     1      -6.458   1.574  -0.411  0.00  0.00    +0.021 A 
ATOM     11  C   UNL     1      -6.060   2.709   0.269  0.00  0.00    +0.002 A 
ATOM     12  C   UNL     1      -5.143   2.558   1.296  0.00  0.00    +0.002 A 
ATOM     13  N   UNL     1      -5.579  -0.600  -1.255  0.00  0.00    -0.191 NA
ATOM     14  C   UNL     1      -4.360   1.414   1.289  0.00  0.00    +0.019 A 
ATOM     15  C   UNL     1      -4.334  -1.106  -1.119  0.00  0.00    +0.354 A 
ATOM     16  O   UNL     1      -3.780  -1.923  -1.911  0.00  0.00    -0.244 OA
ENDBRANCH   4   7
BRANCH   1  17
ATOM     17  C   UNL     1       1.458  -1.722  -0.522  0.00  0.00    +0.073 C 
BRANCH  17  18
ATOM     18  C   UNL     1       2.179  -0.782  -1.457  0.00  0.00    +0.025 C 
BRANCH  18  19
ATOM     19  C   UNL     1       2.523   0.531  -0.811  0.00  0.00    +0.071 C 
BRANCH  19  21
ATOM     20  O   UNL     1       2.759   1.098   1.440  0.00  0.00    -0.291 OA
ATOM     21  C   UNL     1       3.194   0.351   0.512  0.00  0.00    +0.173 C 
BRANCH  21  22
ATOM     22  C   UNL     1       4.580  -0.134   0.551  0.00  0.00    +0.035 A 
ATOM     23  C   UNL     1       5.372   0.050   1.679  0.00  0.00    +0.005 A 
ATOM     24  C   UNL     1       6.740   0.274   1.581  0.00  0.00    +0.030 A 
ATOM     25  C   UNL     1       7.320   0.464   0.333  0.00  0.00    +0.140 A 
ATOM     26  F   UNL     1       8.261   1.427   0.113  0.00  0.00    -0.204 F 
ATOM     27  C   UNL     1       6.648  -0.137  -0.726  0.00  0.00    +0.030 A 
ATOM     28  C   UNL     1       5.290  -0.411  -0.612  0.00  0.00    +0.005 A 
ENDBRANCH  21  22
ENDBRANCH  19  21
ENDBRANCH  18  19
ENDBRANCH  17  18
ENDBRANCH   1  17
TORSDOF 6
