REMARK  Name = 
REMARK  5 active torsions:
REMARK  status: ('A' for Active; 'I' for Inactive)
REMARK    1  A    between atoms: C_2  and  N_5
REMARK    2  A    between atoms: N_5  and  C_6
REMARK    3  A    between atoms: C_6  and  C_7
REMARK    4  A    between atoms: C_7  and  C_9
REMARK    5  A    between atoms: C_14  and  C_15
REMARK                            x       y       z     vdW  Elec       q    Type
REMARK                         _______ _______ _______ _____ _____    ______ ____
ROOT
ATOM      1  C   UNL     1      -0.437  -1.019  -0.200  0.00  0.00    +0.009 A 
ATOM      2  C   UNL     1      -1.200   0.048  -0.523  0.00  0.00    -0.000 A 
ATOM      3  C   UNL     1      -2.583  -0.031  -0.343  0.00  0.00    +0.049 A 
ATOM      4  C   UNL     1      -3.065  -0.829   0.694  0.00  0.00    +0.194 A 
ATOM      5  O   UNL     1      -3.902  -0.321   1.694  0.00  0.00    -0.287 OA
ATOM      6  C   UNL     1      -2.307  -1.969   0.935  0.00  0.00    +0.042 A 
ATOM      7  C   UNL     1      -1.035  -2.132   0.390  0.00  0.00    +0.001 A 
ENDROOT
BRANCH   1   8
ATOM      8  C   UNL     1       1.068  -0.738   0.359  0.00  0.00    +0.192 C 
ATOM      9  O   UNL     1       0.799   0.689   0.849  0.00  0.00    -0.217 OA
BRANCH   8  10
ATOM     10  C   UNL     1       1.606  -0.237  -1.122  0.00  0.00    +0.126 C 
BRANCH  10  11
ATOM     11  N   UNL     1       2.422   0.892  -0.899  0.00  0.00    -0.218 NA
BRANCH  11  13
ATOM     12  C   UNL     1       3.611  -0.048   0.977  0.00  0.00    +0.017 C 
ATOM     13  C   UNL     1       3.594   0.719  -0.116  0.00  0.00    +0.060 C 
ATOM     14  C   UNL     1       3.980   2.121   0.344  0.00  0.00    +0.017 C 
ATOM     15  C   UNL     1       4.786   0.222  -0.931  0.00  0.00    +0.017 C 
ENDBRANCH  11  13
ENDBRANCH  10  11
ENDBRANCH   8  10
ENDBRANCH   1   8
BRANCH   3  16
ATOM     16  C   UNL     1      -3.297   1.281  -0.466  0.00  0.00    +0.212 C 
ATOM     17  O   UNL     1      -4.041   1.353  -1.644  0.00  0.00    -0.215 OA
ENDBRANCH   3  16
TORSDOF 5
