REMARK  Name = 
REMARK  7 active torsions:
REMARK  status: ('A' for Active; 'I' for Inactive)
REMARK    1  A    between atoms: C_2  and  C_3
REMARK    2  A    between atoms: C_3  and  C_4
REMARK    3  A    between atoms: C_4  and  C_5
REMARK    4  A    between atoms: N_14  and  C_15
REMARK    5  A    between atoms: C_15  and  C_16
REMARK    6  A    between atoms: C_19  and  C_20
REMARK    7  A    between atoms: C_25  and  C_26
REMARK                            x       y       z     vdW  Elec       q    Type
REMARK                         _______ _______ _______ _____ _____    ______ ____
ROOT
ATOM      1  C   UNL     1       0.267  -0.049  -1.343  0.00  0.00    +0.025 A 
ATOM      2  C   UNL     1       0.089  -0.879  -0.273  0.00  0.00    -0.000 A 
ATOM      3  C   UNL     1      -1.145  -0.865   0.363  0.00  0.00    -0.000 A 
ATOM      4  C   UNL     1      -2.291  -0.357  -0.234  0.00  0.00    -0.001 A 
ATOM      5  C   UNL     1      -2.112   0.152  -1.514  0.00  0.00    -0.000 A 
ATOM      6  C   UNL     1      -0.859   0.216  -2.111  0.00  0.00    -0.000 A 
ENDROOT
BRANCH   4   7
ATOM      7  C   UNL     1      -3.300   0.192   0.682  0.00  0.00    -0.006 A 
ATOM      8  C   UNL     1      -4.526   0.537   0.180  0.00  0.00    -0.015 A 
ATOM      9  C   UNL     1      -5.230   1.520   0.842  0.00  0.00    -0.007 A 
ATOM     10  C   UNL     1      -4.690   2.204   1.924  0.00  0.00    -0.001 A 
ATOM     11  C   UNL     1      -3.733   1.503   2.647  0.00  0.00    -0.000 A 
ATOM     12  C   UNL     1      -2.988   0.568   1.983  0.00  0.00    -0.001 A 
BRANCH   8  13
ATOM     13  C   UNL     1      -5.130  -0.324  -0.843  0.00  0.00    +0.044 A 
ATOM     14  N   UNL     1      -4.794  -1.600  -1.153  0.00  0.00    -0.289 NA
ATOM     15  N   UNL     1      -5.801  -2.140  -1.838  0.00  0.00    -0.218 NA
ATOM     16  N   UNL     1      -6.892  -1.503  -1.416  0.00  0.00    -0.218 NA
ATOM     17  N   UNL     1      -6.454  -0.276  -1.131  0.00  0.00    -0.289 NA
ENDBRANCH   8  13
ENDBRANCH   4   7
BRANCH   1  18
ATOM     18  C   UNL     1       1.544   0.484  -1.828  0.00  0.00    +0.237 C 
BRANCH  18  20
ATOM     19  C   UNL     1       3.762  -0.435  -1.087  0.00  0.00    +0.301 C 
ATOM     20  N   UNL     1       2.617   0.392  -0.852  0.00  0.00    -0.137 N 
ATOM     21  C   UNL     1       3.100   1.400   0.044  0.00  0.00    +0.358 C 
ATOM     22  O   UNL     1       2.385   2.331   0.461  0.00  0.00    -0.242 OA
ATOM     23  C   UNL     1       4.574   1.314   0.092  0.00  0.00    +0.264 C 
ATOM     24  C   UNL     1       5.119   1.188   1.489  0.00  0.00    +0.061 C 
ATOM     25  C   UNL     1       6.587   1.489   1.281  0.00  0.00    +0.005 C 
ATOM     26  C   UNL     1       6.681   2.349   0.041  0.00  0.00    +0.005 C 
ATOM     27  C   UNL     1       5.263   2.529  -0.459  0.00  0.00    +0.061 C 
ATOM     28  N   UNL     1       4.832   0.116  -0.658  0.00  0.00    -0.067 NA
BRANCH  19  29
ATOM     29  C   UNL     1       3.733  -1.836  -1.610  0.00  0.00    +0.117 C 
BRANCH  29  30
ATOM     30  C   UNL     1       4.202  -2.753  -0.486  0.00  0.00    +0.013 C 
BRANCH  30  32
ATOM     31  C   UNL     1       1.895  -3.492  -0.272  0.00  0.00    +0.000 C 
ATOM     32  C   UNL     1       3.293  -3.974  -0.546  0.00  0.00    +0.001 C 
ENDBRANCH  30  32
ENDBRANCH  29  30
ENDBRANCH  19  29
ENDBRANCH  18  20
ENDBRANCH   1  18
TORSDOF 7
