REMARK  Name = 
REMARK  4 active torsions:
REMARK  status: ('A' for Active; 'I' for Inactive)
REMARK    1  A    between atoms: CD_2  and  CG_4
REMARK    2  A    between atoms: CG_4  and  CB_5
REMARK    3  A    between atoms: CB_5  and  CA_6
REMARK    4  A    between atoms: CA_6  and  C_8
REMARK                            x       y       z     vdW  Elec       q    Type
REMARK                         _______ _______ _______ _____ _____    ______ ____
ROOT
ATOM      1  CB  GLN A   1       0.006   0.686  -0.389  0.00  0.00    +0.040 C 
ENDROOT
BRANCH   1   2
ATOM      2  CA  GLN A   1       0.903   0.328   0.958  0.00  0.00    +0.195 C 
ATOM      3  N   GLN A   1       1.599   1.756   0.942  0.00  0.00    -0.121 NA
BRANCH   2   4
ATOM      4  C   GLN A   1       2.087  -0.359   0.088  0.00  0.00    +0.382 C 
ATOM      5  OXT GLN A   1       1.837  -1.725  -0.043  0.00  0.00    -0.244 OA
ATOM      6  O   GLN A   1       2.493   0.257  -0.896  0.00  0.00    -0.244 OA
ENDBRANCH   2   4
ENDBRANCH   1   2
BRANCH   1   7
ATOM      7  CG  GLN A   1      -0.871  -0.541  -0.448  0.00  0.00    +0.091 C 
BRANCH   7   9
ATOM      8  NE2 GLN A   1      -3.238  -1.089  -0.335  0.00  0.00    -0.088 NA
ATOM      9  CD  GLN A   1      -2.272  -0.147  -0.169  0.00  0.00    +0.261 C 
ATOM     10  OE1 GLN A   1      -2.545   0.834   0.585  0.00  0.00    -0.272 OA
ENDBRANCH   7   9
ENDBRANCH   1   7
TORSDOF 4
