REMARK  Name = 
REMARK  3 active torsions:
REMARK  status: ('A' for Active; 'I' for Inactive)
REMARK    1  A    between atoms: O_2  and  C_3
REMARK    2  A    between atoms: C_12  and  C_14
REMARK    3  A    between atoms: C_26  and  O_27
REMARK                            x       y       z     vdW  Elec       q    Type
REMARK                         _______ _______ _______ _____ _____    ______ ____
ROOT
ATOM      1  C   UNL     1       4.528   0.617   1.191  0.00  0.00    +0.174 A 
ATOM      2  C   UNL     1       4.600   0.915  -0.165  0.00  0.00    +0.173 A 
ATOM      3  C   UNL     1       3.823   0.249  -1.106  0.00  0.00    +0.044 A 
ATOM      4  C   UNL     1       2.768  -0.493  -0.606  0.00  0.00    +0.056 A 
ATOM      5  C   UNL     1       2.388  -0.352   0.724  0.00  0.00    +0.090 A 
ATOM      6  N   UNL     1       1.100  -0.595   1.069  0.00  0.00    -0.213 NA
ATOM      7  C   UNL     1       0.213  -0.929   0.100  0.00  0.00    +0.221 A 
ATOM      8  N   UNL     1       0.713  -1.516  -1.012  0.00  0.00    -0.195 NA
ATOM      9  N   UNL     1      -1.145  -0.482   0.185  0.00  0.00    -0.275 N 
ATOM     10  C   UNL     1      -1.739   0.202  -0.939  0.00  0.00    +0.115 C 
ATOM     11  C   UNL     1      -2.951  -0.577  -1.441  0.00  0.00    +0.115 C 
ATOM     12  N   UNL     1      -3.721  -0.885  -0.236  0.00  0.00    -0.274 N 
ATOM     13  C   UNL     1      -4.478   0.110   0.457  0.00  0.00    +0.253 C 
ATOM     14  O   UNL     1      -4.288   0.367   1.686  0.00  0.00    -0.272 OA
ATOM     15  C   UNL     1      -3.033  -1.849   0.626  0.00  0.00    +0.115 C 
ATOM     16  C   UNL     1      -1.927  -1.033   1.288  0.00  0.00    +0.115 C 
ATOM     17  C   UNL     1       2.016  -1.362  -1.357  0.00  0.00    +0.174 A 
ATOM     18  N   UNL     1       2.534  -1.786  -2.612  0.00  0.00    -0.107 NA
ATOM     19  C   UNL     1       3.328   0.084   1.650  0.00  0.00    +0.059 A 
ENDROOT
BRANCH  13  20
ATOM     20  C   UNL     1      -4.555   1.534  -0.390  0.00  0.00    +0.191 C 
ATOM     21  O   UNL     1      -5.481   0.932  -1.481  0.00  0.00    -0.347 OA
ATOM     22  C   UNL     1      -6.285   0.138  -0.738  0.00  0.00    +0.143 C 
ATOM     23  C   UNL     1      -6.702   0.839   0.508  0.00  0.00    +0.035 C 
ATOM     24  C   UNL     1      -5.885   2.078   0.493  0.00  0.00    +0.042 C 
ENDBRANCH  13  20
BRANCH   1  26
ATOM     25  C   UNL     1       6.249  -0.744   2.019  0.00  0.00    +0.253 C 
ATOM     26  O   UNL     1       5.713   0.504   1.928  0.00  0.00    -0.468 OA
ENDBRANCH   1  26
BRANCH   2  27
ATOM     27  O   UNL     1       5.562   1.825  -0.568  0.00  0.00    -0.468 OA
ATOM     28  C   UNL     1       6.652   2.210   0.230  0.00  0.00    +0.253 C 
ENDBRANCH   2  27
TORSDOF 3
