REMARK  Name = 
REMARK  5 active torsions:
REMARK  status: ('A' for Active; 'I' for Inactive)
REMARK    1  A    between atoms: N_12  and  C_13
REMARK    2  A    between atoms: C_13  and  C_14
REMARK    3  A    between atoms: C_14  and  C_15
REMARK    4  A    between atoms: C_15  and  C_16
REMARK    5  A    between atoms: C_16  and  N_17
REMARK                            x       y       z     vdW  Elec       q    Type
REMARK                         _______ _______ _______ _____ _____    ______ ____
ROOT
ATOM      1  C   UNL     1       0.207  -1.136   0.780  0.00  0.00    +0.023 C 
ENDROOT
BRANCH   1   2
ATOM      2  C   UNL     1       1.572  -1.756   0.894  0.00  0.00    +0.101 C 
BRANCH   2   5
ATOM      3  O   UNL     1       2.006  -0.285  -1.482  0.00  0.00    -0.274 OA
ATOM      4  C   UNL     1       2.944  -0.284  -0.637  0.00  0.00    +0.231 C 
ATOM      5  N   UNL     1       2.620  -0.794   0.661  0.00  0.00    -0.230 N 
ATOM      6  C   UNL     1       3.609  -0.545   1.668  0.00  0.00    +0.231 C 
ATOM      7  O   UNL     1       3.406  -0.999   2.823  0.00  0.00    -0.274 OA
ATOM      8  C   UNL     1       4.443   0.665   1.444  0.00  0.00    +0.086 C 
ATOM      9  C   UNL     1       5.138   0.628   0.119  0.00  0.00    +0.017 C 
ATOM     10  C   UNL     1       5.524   2.016  -0.368  0.00  0.00    +0.001 C 
ATOM     11  C   UNL     1       6.407   1.651  -1.555  0.00  0.00    +0.000 C 
ATOM     12  C   UNL     1       7.067   0.335  -1.182  0.00  0.00    +0.000 C 
ATOM     13  C   UNL     1       6.497  -0.044   0.180  0.00  0.00    +0.001 C 
ATOM     14  C   UNL     1       4.357  -0.032  -0.976  0.00  0.00    +0.086 C 
ENDBRANCH   2   5
ENDBRANCH   1   2
BRANCH   1  15
ATOM     15  C   UNL     1       0.037  -0.134   1.888  0.00  0.00    +0.019 C 
BRANCH  15  16
ATOM     16  C   UNL     1      -0.507   1.147   1.265  0.00  0.00    +0.072 C 
BRANCH  16  17
ATOM     17  N   UNL     1      -1.848   0.886   0.872  0.00  0.00    -0.270 NA
ATOM     18  C   UNL     1      -2.841   1.779   1.301  0.00  0.00    +0.094 C 
ATOM     19  C   UNL     1      -3.809   2.270   0.283  0.00  0.00    +0.111 C 
ATOM     20  N   UNL     1      -4.026   1.334  -0.812  0.00  0.00    -0.275 N 
ATOM     21  C   UNL     1      -5.188   0.532  -0.882  0.00  0.00    +0.220 A 
ATOM     22  N   UNL     1      -6.342   1.079  -0.440  0.00  0.00    -0.212 NA
ATOM     23  C   UNL     1      -7.405   0.283  -0.228  0.00  0.00    +0.103 A 
ATOM     24  C   UNL     1      -7.454  -0.962  -0.841  0.00  0.00    +0.041 A 
ATOM     25  C   UNL     1      -6.350  -1.359  -1.568  0.00  0.00    +0.103 A 
ATOM     26  N   UNL     1      -5.215  -0.648  -1.507  0.00  0.00    -0.212 NA
ATOM     27  C   UNL     1      -2.798   0.810  -1.404  0.00  0.00    +0.111 C 
ATOM     28  C   UNL     1      -2.050   0.131  -0.296  0.00  0.00    +0.094 C 
ENDBRANCH  16  17
ENDBRANCH  15  16
ENDBRANCH   1  15
TORSDOF 5
