REMARK  Name = 
REMARK  4 active torsions:
REMARK  status: ('A' for Active; 'I' for Inactive)
REMARK    1  A    between atoms: C_2  and  C_3
REMARK    2  A    between atoms: C_2  and  N_12
REMARK    3  A    between atoms: C_2  and  C_14
REMARK    4  A    between atoms: C_3  and  C_4
REMARK                            x       y       z     vdW  Elec       q    Type
REMARK                         _______ _______ _______ _____ _____    ______ ____
ROOT
ATOM      1  C   UNL     1       0.790  -0.416  -0.627  0.00  0.00    +0.055 C 
ENDROOT
BRANCH   1   2
ATOM      2  C   UNL     1      -0.552  -0.527  -0.034  0.00  0.00    -0.017 A 
ATOM      3  C   UNL     1      -1.233   0.525   0.550  0.00  0.00    +0.041 A 
ATOM      4  C   UNL     1      -2.616   0.643   0.471  0.00  0.00    +0.234 A 
ATOM      5  O   UNL     1      -3.272   1.733   1.002  0.00  0.00    -0.283 OA
ATOM      6  C   UNL     1      -3.343  -0.234  -0.325  0.00  0.00    +0.234 A 
ATOM      7  O   UNL     1      -4.414   0.225  -1.098  0.00  0.00    -0.283 OA
ATOM      8  C   UNL     1      -2.726  -1.452  -0.584  0.00  0.00    +0.045 A 
ATOM      9  C   UNL     1      -1.351  -1.593  -0.433  0.00  0.00    -0.001 A 
ENDBRANCH   1   2
BRANCH   1  11
ATOM     10  C   UNL     1       1.549  -0.085   1.744  0.00  0.00    +0.031 C 
ATOM     11  C   UNL     1       1.829   0.155   0.285  0.00  0.00    +0.175 C 
BRANCH  11  12
ATOM     12  C   UNL     1       3.106  -0.568  -0.016  0.00  0.00    +0.380 C 
ATOM     13  O   UNL     1       3.861  -0.111  -1.101  0.00  0.00    -0.244 OA
ATOM     14  O   UNL     1       3.042  -1.831   0.088  0.00  0.00    -0.244 OA
ENDBRANCH  11  12
BRANCH  11  15
ATOM     15  N   UNL     1       2.004   1.554  -0.032  0.00  0.00    -0.104 NA
ATOM     16  N   UNL     1       3.326   1.984   0.112  0.00  0.00    -0.020 NA
ENDBRANCH  11  15
ENDBRANCH   1  11
TORSDOF 4
