REMARK  Name = 
REMARK  4 active torsions:
REMARK  status: ('A' for Active; 'I' for Inactive)
REMARK    1  A    between atoms: S_2  and  C_3
REMARK    2  A    between atoms: N_9  and  C_10
REMARK    3  A    between atoms: C_10  and  C_11
REMARK    4  A    between atoms: C_11  and  C_12
REMARK                            x       y       z     vdW  Elec       q    Type
REMARK                         _______ _______ _______ _____ _____    ______ ____
ROOT
ATOM      1  C   UNL     1      -2.424  -2.351  -1.049  0.00  0.00    +0.027 A 
ATOM      2  C   UNL     1      -1.395  -1.445  -1.187  0.00  0.00    +0.021 A 
ATOM      3  C   UNL     1      -1.201  -0.541  -0.149  0.00  0.00    +0.058 A 
ATOM      4  N   UNL     1      -0.395   0.599  -0.417  0.00  0.00    -0.286 N 
ATOM      5  C   UNL     1      -0.510   1.829   0.268  0.00  0.00    +0.058 A 
ATOM      6  C   UNL     1      -1.431   2.095   1.255  0.00  0.00    +0.043 A 
ATOM      7  S   UNL     1      -1.976   0.670   2.203  0.00  0.00    -0.084 S 
ATOM      8  C   UNL     1      -2.037   3.320   1.328  0.00  0.00    +0.008 A 
ATOM      9  C   UNL     1      -1.479   4.399   0.654  0.00  0.00    +0.001 A 
ATOM     10  C   UNL     1      -0.323   4.215  -0.082  0.00  0.00    +0.001 A 
ATOM     11  C   UNL     1       0.193   2.930  -0.207  0.00  0.00    +0.015 A 
ATOM     12  C   UNL     1      -1.757  -0.731   1.099  0.00  0.00    +0.043 A 
ATOM     13  C   UNL     1      -2.511  -1.843   1.305  0.00  0.00    +0.008 A 
ATOM     14  C   UNL     1      -2.717  -2.731   0.255  0.00  0.00    +0.007 A 
ENDROOT
BRANCH   1  16
ATOM     15  C   UNL     1      -5.034  -2.215  -2.226  0.00  0.00    +0.074 C 
ATOM     16  S   UNL     1      -3.414  -2.916  -2.426  0.00  0.00    -0.113 S 
ENDBRANCH   1  16
BRANCH   4  17
ATOM     17  C   UNL     1       0.830   0.418  -1.198  0.00  0.00    +0.097 C 
BRANCH  17  18
ATOM     18  C   UNL     1       1.948   0.432  -0.176  0.00  0.00    +0.038 C 
BRANCH  18  19
ATOM     19  C   UNL     1       2.127  -1.190   0.202  0.00  0.00    +0.059 C 
ATOM     20  N   UNL     1       3.415  -0.936   1.099  0.00  0.00    -0.273 NA
ATOM     21  C   UNL     1       3.389   0.291   1.685  0.00  0.00    +0.090 C 
ATOM     22  C   UNL     1       4.495  -1.638   0.660  0.00  0.00    +0.072 C 
ATOM     23  C   UNL     1       5.197  -0.841  -0.439  0.00  0.00    +0.017 C 
ATOM     24  C   UNL     1       4.006  -0.353  -1.262  0.00  0.00    +0.003 C 
ATOM     25  C   UNL     1       3.005  -1.466  -1.195  0.00  0.00    +0.016 C 
ENDBRANCH  18  19
ENDBRANCH  17  18
ENDBRANCH   4  17
TORSDOF 4
