REMARK  Name = 
REMARK  7 active torsions:
REMARK  status: ('A' for Active; 'I' for Inactive)
REMARK    1  A    between atoms: C_4  and  O_5
REMARK    2  A    between atoms: O_5  and  C_6
REMARK    3  A    between atoms: C_10  and  O_11
REMARK    4  A    between atoms: O_11  and  C_12
REMARK    5  A    between atoms: C_16  and  O_17
REMARK    6  A    between atoms: O_17  and  C_18
REMARK    7  A    between atoms: C_33  and  C_34
REMARK                            x       y       z     vdW  Elec       q    Type
REMARK                         _______ _______ _______ _____ _____    ______ ____
ROOT
ATOM      1  O   UNL     1       0.030   0.917   0.358  0.00  0.00    -0.333 OA
ENDROOT
BRANCH   1   2
ATOM      2  C   UNL     1      -1.469   0.826   0.538  0.00  0.00    +0.118 C 
ATOM      3  C   UNL     1      -1.752   2.263  -0.225  0.00  0.00    +0.030 C 
ATOM      4  C   UNL     1      -3.355   2.091  -0.556  0.00  0.00    +0.002 C 
ATOM      5  C   UNL     1      -3.098   0.558  -1.038  0.00  0.00    +0.000 C 
ATOM      6  C   UNL     1      -4.079  -0.410  -0.647  0.00  0.00    +0.002 C 
ATOM      7  C   UNL     1      -5.278   0.671  -0.527  0.00  0.00    +0.028 C 
ATOM      8  C   UNL     1      -6.396  -0.462  -0.418  0.00  0.00    +0.129 C 
ATOM      9  C   UNL     1      -7.539   0.292  -0.018  0.00  0.00    +0.057 C 
ATOM     10  C   UNL     1      -8.710  -0.818   0.109  0.00  0.00    +0.027 C 
ATOM     11  C   UNL     1      -7.681  -2.081   0.269  0.00  0.00    +0.007 C 
ATOM     12  C   UNL     1      -7.856   1.463  -0.709  0.00  0.00    +0.005 C 
ATOM     13  C   UNL     1      -7.313   0.543   1.588  0.00  0.00    +0.154 C 
ATOM     14  O   UNL     1      -8.470   1.521   1.678  0.00  0.00    -0.223 OA
ATOM     15  C   UNL     1      -6.226   1.750   1.318  0.00  0.00    +0.033 C 
ATOM     16  O   UNL     1      -6.294  -1.025  -1.646  0.00  0.00    -0.226 OA
ATOM     17  C   UNL     1      -6.354  -1.413   0.647  0.00  0.00    +0.031 C 
ATOM     18  C   UNL     1      -4.927   0.791   1.125  0.00  0.00    +0.005 C 
ATOM     19  C   UNL     1      -3.799   1.920   0.980  0.00  0.00    +0.000 C 
ATOM     20  C   UNL     1      -4.459   3.298   1.114  0.00  0.00    +0.000 C 
ATOM     21  C   UNL     1      -2.861   1.957   2.006  0.00  0.00    +0.002 C 
ATOM     22  C   UNL     1      -1.454   1.589   1.994  0.00  0.00    +0.030 C 
BRANCH  10  23
ATOM     23  C   UNL     1      -8.806  -0.995  -1.480  0.00  0.00    +0.005 C 
ATOM     24  C   UNL     1      -9.363   0.094  -2.348  0.00  0.00    +0.231 C 
ATOM     25  O   UNL     1      -8.945  -0.428  -3.591  0.00  0.00    -0.441 OA
ATOM     26  C   UNL     1      -9.250  -1.794  -3.496  0.00  0.00    +0.341 C 
ATOM     27  O   UNL     1      -8.809  -2.545  -4.427  0.00  0.00    -0.245 OA
ATOM     28  C   UNL     1      -9.329  -2.088  -2.052  0.00  0.00    +0.077 C 
ENDBRANCH  10  23
ENDBRANCH   1   2
BRANCH   1  33
ATOM     29  C   UNL     1       2.693  -1.659  -0.947  0.00  0.00    +0.175 C 
ATOM     30  C   UNL     1       1.269  -2.486  -0.491  0.00  0.00    +0.186 C 
ATOM     31  O   UNL     1       1.466  -2.511   1.010  0.00  0.00    -0.220 OA
ATOM     32  C   UNL     1       0.214  -1.248  -0.635  0.00  0.00    +0.097 C 
ATOM     33  C   UNL     1       0.221  -0.532   0.848  0.00  0.00    +0.238 C 
ATOM     34  O   UNL     1       1.691  -0.420   0.912  0.00  0.00    -0.330 OA
ATOM     35  C   UNL     1       2.507  -0.098  -0.251  0.00  0.00    +0.147 C 
ATOM     36  C   UNL     1       1.452   0.438  -1.401  0.00  0.00    +0.035 C 
BRANCH  29  37
ATOM     37  O   UNL     1       3.530  -2.134   0.207  0.00  0.00    -0.328 OA
BRANCH  37  42
ATOM     38  C   UNL     1       7.380  -1.686   0.006  0.00  0.00    +0.175 C 
ATOM     39  C   UNL     1       6.833  -0.859   1.402  0.00  0.00    +0.186 C 
ATOM     40  O   UNL     1       6.241   0.371   0.770  0.00  0.00    -0.220 OA
ATOM     41  C   UNL     1       5.447  -1.733   1.368  0.00  0.00    +0.097 C 
ATOM     42  C   UNL     1       4.570  -1.018   0.158  0.00  0.00    +0.238 C 
ATOM     43  O   UNL     1       5.331  -1.756  -0.947  0.00  0.00    -0.330 OA
ATOM     44  C   UNL     1       6.469  -0.784  -1.124  0.00  0.00    +0.147 C 
ATOM     45  C   UNL     1       7.101  -1.653  -2.355  0.00  0.00    +0.035 C 
BRANCH  38  46
ATOM     46  O   UNL     1       8.642  -0.953  -0.251  0.00  0.00    -0.328 OA
BRANCH  46  54
ATOM     47  C   UNL     1      11.236   2.610  -0.348  0.00  0.00    +0.035 C 
ATOM     48  C   UNL     1       9.776   2.239   0.306  0.00  0.00    +0.151 C 
ATOM     49  C   UNL     1      10.495   2.011   1.842  0.00  0.00    +0.209 C 
ATOM     50  O   UNL     1       9.175   1.799   2.508  0.00  0.00    -0.218 OA
ATOM     51  C   UNL     1      10.943   0.372   1.630  0.00  0.00    +0.190 C 
ATOM     52  O   UNL     1      11.218   0.253   3.111  0.00  0.00    -0.220 OA
ATOM     53  C   UNL     1       9.481  -0.331   1.779  0.00  0.00    +0.097 C 
ATOM     54  C   UNL     1       8.606   0.335   0.539  0.00  0.00    +0.238 C 
ATOM     55  O   UNL     1       9.860   0.823  -0.193  0.00  0.00    -0.330 OA
ENDBRANCH  46  54
ENDBRANCH  38  46
ENDBRANCH  37  42
ENDBRANCH  29  37
ENDBRANCH   1  33
TORSDOF 7
