REMARK  Name = 
REMARK  7 active torsions:
REMARK  status: ('A' for Active; 'I' for Inactive)
REMARK    1  A    between atoms: C_2  and  O_3
REMARK    2  A    between atoms: O_3  and  C_4
REMARK    3  A    between atoms: C_10  and  C_11
REMARK    4  A    between atoms: N_15  and  C_16
REMARK    5  A    between atoms: C_16  and  C_17
REMARK    6  A    between atoms: C_20  and  C_21
REMARK    7  A    between atoms: C_26  and  C_27
REMARK                            x       y       z     vdW  Elec       q    Type
REMARK                         _______ _______ _______ _____ _____    ______ ____
ROOT
ATOM      1  C   UNL     1      -0.305  -0.576  -0.875  0.00  0.00    +0.001 A 
ATOM      2  C   UNL     1       0.670   0.363  -1.194  0.00  0.00    -0.002 A 
ATOM      3  C   UNL     1       1.789   0.516  -0.383  0.00  0.00    -0.000 A 
ATOM      4  C   UNL     1       1.985  -0.293   0.730  0.00  0.00    -0.001 A 
ATOM      5  C   UNL     1       0.841  -0.920   1.208  0.00  0.00    -0.000 A 
ATOM      6  C   UNL     1      -0.330  -0.952   0.462  0.00  0.00    -0.002 A 
ENDROOT
BRANCH   4   7
ATOM      7  C   UNL     1       3.303  -0.848   1.063  0.00  0.00    -0.006 A 
ATOM      8  C   UNL     1       4.416  -0.413   0.354  0.00  0.00    -0.015 A 
ATOM      9  C   UNL     1       5.488  -1.269   0.131  0.00  0.00    -0.007 A 
ATOM     10  C   UNL     1       5.388  -2.628   0.400  0.00  0.00    -0.001 A 
ATOM     11  C   UNL     1       4.395  -3.007   1.285  0.00  0.00    -0.000 A 
ATOM     12  C   UNL     1       3.443  -2.080   1.690  0.00  0.00    -0.001 A 
BRANCH   8  13
ATOM     13  C   UNL     1       4.453   0.995  -0.040  0.00  0.00    +0.044 A 
ATOM     14  N   UNL     1       4.745   1.516  -1.249  0.00  0.00    -0.289 NA
ATOM     15  N   UNL     1       4.805   2.813  -1.084  0.00  0.00    -0.218 NA
ATOM     16  N   UNL     1       4.475   3.159   0.158  0.00  0.00    -0.218 NA
ATOM     17  N   UNL     1       4.445   2.021   0.846  0.00  0.00    -0.289 NA
ENDBRANCH   8  13
ENDBRANCH   4   7
BRANCH   1  18
ATOM     18  C   UNL     1      -1.631  -0.514  -1.555  0.00  0.00    +0.137 C 
BRANCH  18  20
ATOM     19  C   UNL     1      -2.422   1.627  -0.589  0.00  0.00    +0.301 A 
ATOM     20  N   UNL     1      -2.482   0.283  -0.676  0.00  0.00    -0.277 N 
ATOM     21  C   UNL     1      -3.070  -0.234   0.427  0.00  0.00    +0.088 A 
ATOM     22  C   UNL     1      -3.487   0.879   1.141  0.00  0.00    +0.102 A 
ATOM     23  C   UNL     1      -4.319   0.656   2.231  0.00  0.00    +0.021 A 
ATOM     24  C   UNL     1      -4.913  -0.587   2.386  0.00  0.00    +0.002 A 
ATOM     25  C   UNL     1      -4.510  -1.669   1.619  0.00  0.00    +0.008 A 
ATOM     26  C   UNL     1      -3.736  -1.449   0.508  0.00  0.00    +0.097 A 
ATOM     27  N   UNL     1      -3.049   2.008   0.535  0.00  0.00    -0.194 NA
BRANCH  26  28
ATOM     28  C   UNL     1      -3.796  -2.392  -0.595  0.00  0.00    +0.389 C 
ATOM     29  O   UNL     1      -3.675  -3.746  -0.292  0.00  0.00    -0.240 OA
ATOM     30  O   UNL     1      -4.572  -2.110  -1.552  0.00  0.00    -0.240 OA
ENDBRANCH  26  28
BRANCH  19  31
ATOM     31  O   UNL     1      -1.978   2.411  -1.659  0.00  0.00    -0.448 OA
BRANCH  31  33
ATOM     32  C   UNL     1      -3.516   3.897  -2.656  0.00  0.00    +0.051 C 
ATOM     33  C   UNL     1      -2.853   2.544  -2.775  0.00  0.00    +0.209 C 
ENDBRANCH  31  33
ENDBRANCH  19  31
ENDBRANCH  18  20
ENDBRANCH   1  18
TORSDOF 7
