REMARK  Name = 
REMARK  4 active torsions:
REMARK  status: ('A' for Active; 'I' for Inactive)
REMARK    1  A    between atoms: C_2  and  N_4
REMARK    2  A    between atoms: N_4  and  C_5
REMARK    3  A    between atoms: C_5  and  C_6
REMARK    4  A    between atoms: C_6  and  C_8
REMARK                            x       y       z     vdW  Elec       q    Type
REMARK                         _______ _______ _______ _____ _____    ______ ____
ROOT
ATOM      1  C   UNL     1      -0.580  -0.510  -0.399  0.00  0.00    +0.015 A 
ATOM      2  C   UNL     1      -1.223   0.418  -1.149  0.00  0.00    +0.040 A 
ATOM      3  C   UNL     1      -2.564   0.616  -0.825  0.00  0.00    +0.199 A 
ATOM      4  O   UNL     1      -3.171   1.852  -0.812  0.00  0.00    -0.286 OA
ATOM      5  C   UNL     1      -3.227  -0.382  -0.119  0.00  0.00    +0.084 A 
ATOM      6  C   UNL     1      -2.578  -1.571   0.188  0.00  0.00    +0.199 A 
ATOM      7  O   UNL     1      -3.169  -2.568   0.957  0.00  0.00    -0.286 OA
ATOM      8  C   UNL     1      -1.213  -1.675  -0.061  0.00  0.00    +0.040 A 
ENDROOT
BRANCH   1   9
ATOM      9  C   UNL     1       1.033  -0.615  -0.537  0.00  0.00    +0.192 C 
ATOM     10  O   UNL     1       1.173  -0.869   0.966  0.00  0.00    -0.217 OA
BRANCH   9  11
ATOM     11  C   UNL     1       1.243   1.021  -0.335  0.00  0.00    +0.126 C 
BRANCH  11  12
ATOM     12  N   UNL     1       2.409   1.154   0.489  0.00  0.00    -0.216 NA
BRANCH  12  14
ATOM     13  C   UNL     1       4.070  -0.214  -0.679  0.00  0.00    +0.019 C 
ATOM     14  C   UNL     1       3.651   1.057  -0.190  0.00  0.00    +0.073 C 
ATOM     15  C   UNL     1       4.147   2.284  -0.845  0.00  0.00    +0.019 C 
ENDBRANCH  12  14
ENDBRANCH  11  12
ENDBRANCH   9  11
ENDBRANCH   1   9
TORSDOF 4
