REMARK  Name = 
REMARK  5 active torsions:
REMARK  status: ('A' for Active; 'I' for Inactive)
REMARK    1  A    between atoms: C_6  and  C_7
REMARK    2  A    between atoms: C_7  and  N_8
REMARK    3  A    between atoms: N_11  and  C_12
REMARK    4  A    between atoms: C_12  and  C_13
REMARK    5  A    between atoms: C_12  and  C_19
REMARK                            x       y       z     vdW  Elec       q    Type
REMARK                         _______ _______ _______ _____ _____    ______ ____
ROOT
ATOM      1  N   UNL     1       2.138   0.272  -0.627  0.00  0.00    -0.267 NA
ATOM      2  C   UNL     1       1.048   1.182  -0.988  0.00  0.00    +0.090 C 
ATOM      3  C   UNL     1       0.353   1.423   0.350  0.00  0.00    +0.090 C 
ATOM      4  N   UNL     1      -0.516   0.266   0.578  0.00  0.00    -0.264 NA
ATOM      5  C   UNL     1       0.381  -0.837   0.711  0.00  0.00    +0.090 C 
ATOM      6  C   UNL     1       1.442  -0.969  -0.308  0.00  0.00    +0.090 C 
ENDROOT
BRANCH   1   7
ATOM      7  C   UNL     1       2.736   0.860   0.572  0.00  0.00    +0.099 C 
BRANCH   7  11
ATOM      8  C   UNL     1       6.744  -0.735  -1.556  0.00  0.00    +0.031 C 
ATOM      9  C   UNL     1       6.054  -0.512  -0.476  0.00  0.00    -0.022 A 
ATOM     10  C   UNL     1       4.913   0.270  -0.464  0.00  0.00    -0.007 A 
ATOM     11  C   UNL     1       4.177   0.482   0.691  0.00  0.00    -0.006 A 
ATOM     12  C   UNL     1       4.597  -0.072   1.880  0.00  0.00    -0.003 A 
ATOM     13  C   UNL     1       5.758  -0.833   1.905  0.00  0.00    -0.001 A 
ATOM     14  C   UNL     1       6.482  -1.025   0.736  0.00  0.00    -0.004 A 
ENDBRANCH   7  11
ENDBRANCH   1   7
BRANCH   4  15
ATOM     15  C   UNL     1      -1.270   0.091  -0.806  0.00  0.00    +0.103 C 
BRANCH  15  16
ATOM     16  C   UNL     1      -2.111   1.475  -0.696  0.00  0.00    -0.004 A 
ATOM     17  C   UNL     1      -2.239   2.098   0.484  0.00  0.00    -0.002 A 
ATOM     18  C   UNL     1      -3.211   3.082   0.619  0.00  0.00    +0.011 A 
ATOM     19  C   UNL     1      -4.425   2.834  -0.011  0.00  0.00    +0.058 A 
ATOM     20 CL   UNL     1      -5.970   3.068   0.771  0.00  0.00    -0.082 Cl
ATOM     21  C   UNL     1      -4.297   2.363  -1.312  0.00  0.00    +0.011 A 
ATOM     22  C   UNL     1      -3.247   1.468  -1.503  0.00  0.00    -0.002 A 
ENDBRANCH  15  16
BRANCH  15  23
ATOM     23  C   UNL     1      -2.481  -0.782  -0.162  0.00  0.00    -0.004 A 
ATOM     24  C   UNL     1      -2.071  -1.873   0.591  0.00  0.00    -0.003 A 
ATOM     25  C   UNL     1      -3.076  -2.761   0.954  0.00  0.00    -0.000 A 
ATOM     26  C   UNL     1      -4.276  -2.772   0.252  0.00  0.00    -0.000 A 
ATOM     27  C   UNL     1      -4.323  -2.124  -0.978  0.00  0.00    -0.000 A 
ATOM     28  C   UNL     1      -3.311  -1.197  -1.207  0.00  0.00    -0.003 A 
ENDBRANCH  15  23
ENDBRANCH   4  15
TORSDOF 5
