REMARK  Name = 
REMARK  4 active torsions:
REMARK  status: ('A' for Active; 'I' for Inactive)
REMARK    1  A    between atoms: C_2  and  C_3
REMARK    2  A    between atoms: C_2  and  C_8
REMARK    3  A    between atoms: C_3  and  C_4
REMARK    4  A    between atoms: C_4  and  C_5
REMARK                            x       y       z     vdW  Elec       q    Type
REMARK                         _______ _______ _______ _____ _____    ______ ____
ROOT
ATOM      1  C   UNL     1       2.069   1.106  -1.278  0.00  0.00    +0.002 C 
ATOM      2  C   UNL     1       1.066   0.152  -0.498  0.00  0.00    +0.028 C 
ATOM      3  C   UNL     1      -0.010   0.466  -1.664  0.00  0.00    +0.002 C 
ATOM      4  C   UNL     1      -1.052  -0.762  -1.169  0.00  0.00    +0.000 C 
ATOM      5  C   UNL     1      -1.715   0.316  -0.050  0.00  0.00    +0.003 C 
ATOM      6  C   UNL     1      -0.664  -0.098   1.095  0.00  0.00    +0.033 C 
ATOM      7  C   UNL     1      -2.858  -0.727   0.365  0.00  0.00    +0.000 C 
ATOM      8  C   UNL     1      -4.097  -0.248  -0.587  0.00  0.00    +0.003 C 
ATOM      9  C   UNL     1      -4.252   1.155   0.232  0.00  0.00    +0.033 C 
ATOM     10  C   UNL     1      -5.460   0.778   1.289  0.00  0.00    +0.152 C 
ATOM     11  C   UNL     1      -4.794  -0.660   1.734  0.00  0.00    +0.033 C 
ATOM     12  O   UNL     1      -4.757   1.478   2.439  0.00  0.00    -0.223 OA
ATOM     13  C   UNL     1      -3.219   0.445  -1.773  0.00  0.00    +0.000 C 
ATOM     14  C   UNL     1      -2.561  -2.117   0.108  0.00  0.00    +0.000 C 
ATOM     15  C   UNL     1      -3.288  -0.437   1.788  0.00  0.00    +0.003 C 
ATOM     16  C   UNL     1      -2.183  -0.459  -2.257  0.00  0.00    +0.000 C 
ATOM     17  C   UNL     1       0.842  -0.494  -2.652  0.00  0.00    +0.000 C 
ATOM     18  C   UNL     1       1.140  -1.207  -0.439  0.00  0.00    +0.003 C 
ATOM     19  C   UNL     1       0.598   0.949   0.828  0.00  0.00    +0.152 C 
ATOM     20  O   UNL     1      -0.182   2.023   0.073  0.00  0.00    -0.223 OA
ATOM     21  C   UNL     1       2.258  -0.064  -2.392  0.00  0.00    +0.000 C 
ENDROOT
BRANCH   1  23
ATOM     22  C   UNL     1       4.398   0.249  -1.609  0.00  0.00    +0.000 C 
ATOM     23  C   UNL     1       3.521   0.913  -0.404  0.00  0.00    +0.001 C 
BRANCH  23  24
ATOM     24  C   UNL     1       3.293  -0.511   0.298  0.00  0.00    +0.012 C 
BRANCH  24  25
ATOM     25  C   UNL     1       4.083  -0.661   1.495  0.00  0.00    +0.114 C 
BRANCH  25  26
ATOM     26  C   UNL     1       5.469  -0.266   1.558  0.00  0.00    +0.365 C 
ATOM     27  O   UNL     1       6.063  -0.493   2.810  0.00  0.00    -0.246 OA
ATOM     28  O   UNL     1       6.292  -0.043   0.660  0.00  0.00    -0.246 OA
ENDBRANCH  25  26
ENDBRANCH  24  25
ENDBRANCH  23  24
ENDBRANCH   1  23
TORSDOF 4
