REMARK  Name = 
REMARK  8 active torsions:
REMARK  status: ('A' for Active; 'I' for Inactive)
REMARK    1  A    between atoms: C_2  and  C_3
REMARK    2  A    between atoms: C_3  and  C_4
REMARK    3  A    between atoms: C_4  and  O_6
REMARK    4  A    between atoms: O_6  and  C_7
REMARK    5  A    between atoms: C_7  and  C_8
REMARK    6  A    between atoms: C_8  and  C_10
REMARK    7  A    between atoms: C_10  and  O_11
REMARK    8  A    between atoms: O_11  and  C_12
REMARK                            x       y       z     vdW  Elec       q    Type
REMARK                         _______ _______ _______ _____ _____    ______ ____
ROOT
ATOM      1  C   UNL     1      -2.168  -0.066   0.150  0.00  0.00    +0.190 C 
ATOM      2  C   UNL     1      -0.801  -0.371  -0.367  0.00  0.00    +0.043 C 
ATOM      3  C   UNL     1      -0.116   0.216   0.973  0.00  0.00    +0.007 C 
ATOM      4  C   UNL     1       1.365  -0.539   0.660  0.00  0.00    +0.036 C 
ATOM      5  C   UNL     1       1.899   0.593  -0.356  0.00  0.00    +0.168 C 
ATOM      6  C   UNL     1       1.208   0.278  -1.814  0.00  0.00    +0.182 C 
ATOM      7  O   UNL     1       1.167  -1.227  -1.615  0.00  0.00    -0.220 OA
ATOM      8  F   UNL     1       1.522   1.798   0.032  0.00  0.00    -0.237 F 
ATOM      9  C   UNL     1       3.280   0.216  -0.547  0.00  0.00    +0.066 C 
ATOM     10  C   UNL     1       3.753  -0.683   0.517  0.00  0.00    -0.003 C 
ATOM     11  C   UNL     1       4.904  -1.325   0.298  0.00  0.00    +0.036 C 
ATOM     12  C   UNL     1       5.728  -0.843  -0.832  0.00  0.00    +0.195 C 
ATOM     13  C   UNL     1       5.560   0.622  -0.937  0.00  0.00    +0.038 C 
ATOM     14  O   UNL     1       6.775  -1.448  -1.128  0.00  0.00    -0.287 OA
ATOM     15  C   UNL     1       3.535  -0.258   2.064  0.00  0.00    +0.180 C 
ATOM     16  F   UNL     1       4.014   1.161   1.824  0.00  0.00    -0.233 F 
ATOM     17  C   UNL     1       3.492  -0.638  -1.809  0.00  0.00    +0.011 C 
ATOM     18  C   UNL     1       4.359   1.191  -0.723  0.00  0.00    -0.017 C 
ATOM     19  C   UNL     1       1.976   0.243   1.929  0.00  0.00    +0.042 C 
ATOM     20  C   UNL     1      -0.696  -1.033   1.820  0.00  0.00    +0.004 C 
ATOM     21  C   UNL     1      -0.736  -1.834  -0.395  0.00  0.00    +0.004 C 
ATOM     22  C   UNL     1      -0.344   0.505  -1.346  0.00  0.00    +0.039 C 
ATOM     23  C   UNL     1      -2.146  -1.052   1.330  0.00  0.00    +0.048 C 
ENDROOT
BRANCH   1  24
ATOM     24  C   UNL     1      -3.305  -0.378  -0.712  0.00  0.00    +0.230 C 
ATOM     25  O   UNL     1      -4.368   0.155  -0.377  0.00  0.00    -0.288 OA
BRANCH  24  26
ATOM     26  C   UNL     1      -3.532  -1.643  -1.442  0.00  0.00    +0.276 C 
BRANCH  26  27
ATOM     27  O   UNL     1      -3.593  -2.779  -0.632  0.00  0.00    -0.440 OA
BRANCH  27  28
ATOM     28  C   UNL     1      -4.735  -3.241  -0.025  0.00  0.00    +0.318 C 
ATOM     29  O   UNL     1      -5.512  -2.364   0.406  0.00  0.00    -0.250 OA
ATOM     30  C   UNL     1      -5.186  -4.646  -0.030  0.00  0.00    +0.121 C 
ENDBRANCH  27  28
ENDBRANCH  26  27
ENDBRANCH  24  26
ENDBRANCH   1  24
BRANCH   1  31
ATOM     31  O   UNL     1      -2.275   1.171   0.768  0.00  0.00    -0.448 OA
BRANCH  31  32
ATOM     32  C   UNL     1      -2.492   2.386   0.175  0.00  0.00    +0.317 C 
ATOM     33  O   UNL     1      -2.766   2.404  -1.038  0.00  0.00    -0.250 OA
BRANCH  32  34
ATOM     34  C   UNL     1      -2.656   3.521   1.109  0.00  0.00    +0.110 C 
BRANCH  34  36
ATOM     35  C   UNL     1      -3.299   5.520   0.317  0.00  0.00    +0.001 C 
ATOM     36  C   UNL     1      -3.812   4.387   0.656  0.00  0.00    +0.012 C 
ENDBRANCH  34  36
ENDBRANCH  32  34
ENDBRANCH  31  32
ENDBRANCH   1  31
TORSDOF 8
