REMARK  Name = 
REMARK  15 active torsions:
REMARK  status: ('A' for Active; 'I' for Inactive)
REMARK    1  A    between atoms: C_2  and  C_3
REMARK    2  A    between atoms: C_3  and  C_4
REMARK    3  A    between atoms: C_4  and  C_5
REMARK    4  A    between atoms: C_5  and  C_6
REMARK    5  A    between atoms: C_6  and  C_7
REMARK    6  A    between atoms: C_7  and  C_8
REMARK    7  A    between atoms: C_8  and  C_10
REMARK    8  A    between atoms: C_10  and  C_11
REMARK    9  A    between atoms: C_11  and  C_12
REMARK   10  A    between atoms: C_18  and  C_19
REMARK   11  A    between atoms: C_19  and  C_20
REMARK   12  A    between atoms: C_21  and  C_22
REMARK   13  A    between atoms: C_22  and  C_23
REMARK   14  A    between atoms: C_23  and  C_24
REMARK   15  A    between atoms: C_24  and  C_25
REMARK                            x       y       z     vdW  Elec       q    Type
REMARK                         _______ _______ _______ _____ _____    ______ ____
ROOT
ATOM      1  C   UNL     1      -0.237  -0.599  -0.484  0.00  0.00    +0.034 C 
ATOM      2  C   UNL     1      -0.846  -1.278   0.855  0.00  0.00    +0.037 C 
ATOM      3  C   UNL     1      -1.431  -2.473  -0.262  0.00  0.00    +0.155 C 
ATOM      4  O   UNL     1      -1.968  -1.525  -1.349  0.00  0.00    -0.223 OA
ATOM      5  C   UNL     1       0.066  -2.931  -0.890  0.00  0.00    +0.066 C 
ATOM      6  C   UNL     1      -1.039  -2.004  -1.034  0.00  0.00    +0.155 C 
ATOM      7  O   UNL     1      -1.342  -2.670   0.399  0.00  0.00    -0.223 OA
ENDROOT
BRANCH   2   8
ATOM      8  C   UNL     1      -2.198  -0.419   0.741  0.00  0.00    +0.028 C 
BRANCH   8   9
ATOM      9  C   UNL     1      -3.237  -0.924   1.602  0.00  0.00    -0.031 C 
ATOM     10  C   UNL     1      -4.465  -1.284   1.225  0.00  0.00    -0.031 C 
BRANCH  10  11
ATOM     11  C   UNL     1      -4.937  -0.715  -0.037  0.00  0.00    +0.026 C 
BRANCH  11  12
ATOM     12  C   UNL     1      -5.392   0.609  -0.054  0.00  0.00    +0.016 C 
BRANCH  12  13
ATOM     13  C   UNL     1      -4.739   1.823  -0.340  0.00  0.00    +0.114 C 
BRANCH  13  14
ATOM     14  C   UNL     1      -5.387   3.082  -0.059  0.00  0.00    +0.365 C 
ATOM     15  O   UNL     1      -6.778   3.040   0.032  0.00  0.00    -0.246 OA
ATOM     16  O   UNL     1      -4.904   4.228  -0.011  0.00  0.00    -0.246 OA
ENDBRANCH  13  14
ENDBRANCH  12  13
ENDBRANCH  11  12
ENDBRANCH  10  11
ENDBRANCH   8   9
ENDBRANCH   2   8
BRANCH   1  17
ATOM     17  C   UNL     1       1.126  -1.452  -0.281  0.00  0.00    +0.010 C 
BRANCH  17  18
ATOM     18  C   UNL     1       1.978  -0.488   0.007  0.00  0.00    +0.065 C 
BRANCH  18  19
ATOM     19  C   UNL     1       1.848   0.820  -0.594  0.00  0.00    +0.151 C 
ATOM     20  O   UNL     1       1.113   1.569  -0.015  0.00  0.00    -0.296 OA
BRANCH  19  21
ATOM     21  C   UNL     1       3.207   1.206  -1.123  0.00  0.00    +0.065 C 
BRANCH  21  22
ATOM     22  C   UNL     1       4.103   0.595  -0.175  0.00  0.00    +0.008 C 
BRANCH  22  23
ATOM     23  C   UNL     1       5.224   0.037  -0.038  0.00  0.00    +0.000 C 
BRANCH  23  24
ATOM     24  C   UNL     1       6.425  -0.568  -0.006  0.00  0.00    +0.000 C 
BRANCH  24  25
ATOM     25  C   UNL     1       7.585   0.103  -0.085  0.00  0.00    +0.000 C 
BRANCH  25  27
ATOM     26  C   UNL     1       7.847   1.179  -0.529  0.00  0.00    +0.000 C 
ATOM     27  C   UNL     1       8.378   1.041  -0.637  0.00  0.00    +0.000 C 
ENDBRANCH  25  27
ENDBRANCH  24  25
ENDBRANCH  23  24
ENDBRANCH  22  23
ENDBRANCH  21  22
ENDBRANCH  19  21
ENDBRANCH  18  19
ENDBRANCH  17  18
ENDBRANCH   1  17
TORSDOF 15
