REMARK  Name = 
REMARK  1 active torsions:
REMARK  status: ('A' for Active; 'I' for Inactive)
REMARK    1  A    between atoms: O_2  and  C_3
REMARK                            x       y       z     vdW  Elec       q    Type
REMARK                         _______ _______ _______ _____ _____    ______ ____
ROOT
ATOM      1  C   UNL     1       2.573  -0.474  -0.894  0.00  0.00    +0.172 A 
ATOM      2  C   UNL     1       1.607   0.249  -0.196  0.00  0.00    +0.168 A 
ATOM      3  O   UNL     1       1.441   1.534   0.194  0.00  0.00    -0.474 OA
ATOM      4  C   UNL     1       0.252   1.600   1.163  0.00  0.00    +0.200 C 
ATOM      5  C   UNL     1      -0.485   0.248   0.672  0.00  0.00    +0.063 C 
ATOM      6  C   UNL     1      -1.910   0.689   0.113  0.00  0.00    +0.022 C 
ATOM      7  C   UNL     1      -2.512  -0.811  -0.421  0.00  0.00    +0.062 C 
ATOM      8  N   UNL     1      -3.018  -1.200   1.010  0.00  0.00    -0.272 NA
ATOM      9  C   UNL     1      -2.282  -0.626   2.024  0.00  0.00    +0.073 C 
ATOM     10  C   UNL     1      -3.100  -2.625   1.061  0.00  0.00    +0.090 C 
ATOM     11  C   UNL     1      -1.247  -1.811  -0.296  0.00  0.00    +0.042 C 
ATOM     12  C   UNL     1      -0.115  -1.278  -1.070  0.00  0.00    -0.022 A 
ATOM     13  C   UNL     1       0.877  -2.037  -1.668  0.00  0.00    -0.001 A 
ATOM     14  C   UNL     1      -1.390   1.061  -1.385  0.00  0.00    +0.005 C 
ATOM     15  C   UNL     1      -0.334   2.110  -1.236  0.00  0.00    +0.037 C 
ATOM     16  C   UNL     1      -0.807  -0.498   1.919  0.00  0.00    +0.025 C 
ATOM     17  C   UNL     1      -0.681   2.725   0.239  0.00  0.00    +0.192 C 
ATOM     18  O   UNL     1       0.459   3.710   0.178  0.00  0.00    -0.219 OA
ATOM     19  C   UNL     1       0.373  -0.270  -0.285  0.00  0.00    +0.014 A 
ATOM     20  C   UNL     1       2.206  -1.605  -1.622  0.00  0.00    +0.040 A 
ENDROOT
BRANCH   1  22
ATOM     21  C   UNL     1       4.219  -0.421   0.925  0.00  0.00    +0.253 C 
ATOM     22  O   UNL     1       3.875  -0.271  -0.424  0.00  0.00    -0.468 OA
ENDBRANCH   1  22
TORSDOF 1
