REMARK  Name = 
REMARK  5 active torsions:
REMARK  status: ('A' for Active; 'I' for Inactive)
REMARK    1  A    between atoms: C_2  and  C_3
REMARK    2  A    between atoms: C_2  and  N_10
REMARK    3  A    between atoms: C_3  and  C_4
REMARK    4  A    between atoms: N_10  and  C_12
REMARK    5  A    between atoms: C_12  and  C_13
REMARK                            x       y       z     vdW  Elec       q    Type
REMARK                         _______ _______ _______ _____ _____    ______ ____
ROOT
ATOM      1  C   UNL     1       0.448  -2.630  -0.583  0.00  0.00    +0.018 C 
ATOM      2  C   UNL     1       0.875  -1.542   0.599  0.00  0.00    +0.062 C 
ENDROOT
BRANCH   2   3
ATOM      3  N   UNL     1      -0.626  -1.042   0.751  0.00  0.00    -0.269 NA
ATOM      4  C   UNL     1      -1.352  -2.284   1.024  0.00  0.00    +0.090 C 
BRANCH   3   5
ATOM      5  C   UNL     1      -1.057  -0.617  -0.546  0.00  0.00    +0.099 C 
BRANCH   5   6
ATOM      6  C   UNL     1      -2.322   0.090  -0.325  0.00  0.00    -0.006 A 
ATOM      7  C   UNL     1      -3.450  -0.690  -0.116  0.00  0.00    -0.003 A 
ATOM      8  C   UNL     1      -4.714  -0.231  -0.467  0.00  0.00    -0.000 A 
ATOM      9  C   UNL     1      -4.840   1.074  -0.905  0.00  0.00    -0.000 A 
ATOM     10  C   UNL     1      -3.768   1.913  -0.645  0.00  0.00    -0.000 A 
ATOM     11  C   UNL     1      -2.510   1.439  -0.294  0.00  0.00    -0.003 A 
ENDBRANCH   5   6
ENDBRANCH   3   5
ENDBRANCH   2   3
BRANCH   2  12
ATOM     12  C   UNL     1       1.266  -0.386  -0.528  0.00  0.00    +0.042 C 
BRANCH  12  13
ATOM     13  C   UNL     1       2.556   0.184  -0.039  0.00  0.00    -0.021 A 
ATOM     14  C   UNL     1       2.985   1.294  -0.727  0.00  0.00    -0.004 A 
ATOM     15  C   UNL     1       4.070   1.995  -0.243  0.00  0.00    -0.000 A 
ATOM     16  C   UNL     1       4.725   1.514   0.855  0.00  0.00    -0.000 A 
ATOM     17  C   UNL     1       4.407   0.309   1.435  0.00  0.00    -0.000 A 
ATOM     18  C   UNL     1       3.305  -0.390   0.965  0.00  0.00    -0.004 A 
ENDBRANCH  12  13
ENDBRANCH   2  12
TORSDOF 5
