REMARK  Name = 
REMARK  1 active torsions:
REMARK  status: ('A' for Active; 'I' for Inactive)
REMARK    1  A    between atoms: C_2  and  C_4
REMARK                            x       y       z     vdW  Elec       q    Type
REMARK                         _______ _______ _______ _____ _____    ______ ____
ROOT
ATOM      1  C   UNL     1       0.274   0.078  -0.123  0.00  0.00    +0.080 A 
ATOM      2  C   UNL     1      -0.326  -1.168  -0.018  0.00  0.00    +0.007 A 
ATOM      3  C   UNL     1      -1.711  -1.226  -0.099  0.00  0.00    +0.000 A 
ATOM      4  C   UNL     1      -2.413  -0.088   0.279  0.00  0.00    +0.000 A 
ATOM      5  C   UNL     1      -1.842   1.119  -0.109  0.00  0.00    +0.000 A 
ATOM      6  C   UNL     1      -0.465   1.243  -0.006  0.00  0.00    +0.007 A 
ENDROOT
BRANCH   1   8
ATOM      7  O   UNL     1       2.220   0.029   1.172  0.00  0.00    -0.241 OA
ATOM      8  C   UNL     1       1.730   0.141   0.009  0.00  0.00    +0.388 C 
ATOM      9  O   UNL     1       2.533  -0.128  -1.104  0.00  0.00    -0.241 OA
ENDBRANCH   1   8
TORSDOF 1
