REMARK  Name = 
REMARK  10 active torsions:
REMARK  status: ('A' for Active; 'I' for Inactive)
REMARK    1  A    between atoms: O_2  and  C_3
REMARK    2  A    between atoms: C_8  and  O_9
REMARK    3  A    between atoms: O_9  and  C_10
REMARK    4  A    between atoms: N_12  and  S_13
REMARK    5  A    between atoms: S_13  and  C_16
REMARK    6  A    between atoms: C_19  and  C_20
REMARK    7  A    between atoms: C_27  and  C_28
REMARK    8  A    between atoms: C_35  and  O_36
REMARK    9  A    between atoms: O_36  and  C_37
REMARK   10  A    between atoms: C_37  and  C_38
REMARK                            x       y       z     vdW  Elec       q    Type
REMARK                         _______ _______ _______ _____ _____    ______ ____
ROOT
ATOM      1  C   UNL     1      -2.008  -0.351  -0.600  0.00  0.00    +0.233 A 
ATOM      2  C   UNL     1      -3.094   0.508  -0.535  0.00  0.00    +0.265 A 
ATOM      3  N   UNL     1      -2.873   1.790  -0.153  0.00  0.00    -0.187 NA
ATOM      4  C   UNL     1      -1.700   2.392  -0.367  0.00  0.00    +0.203 A 
ATOM      5  N   UNL     1      -0.645   1.580  -0.623  0.00  0.00    -0.203 NA
ATOM      6  C   UNL     1      -0.758   0.245  -0.710  0.00  0.00    +0.212 A 
ATOM      7  N   UNL     1       0.385  -0.610  -0.583  0.00  0.00    -0.074 NA
ENDROOT
BRANCH   4   8
ATOM      8  C   UNL     1      -1.415   3.770   0.054  0.00  0.00    +0.199 A 
ATOM      9  N   UNL     1      -2.474   4.597   0.231  0.00  0.00    -0.222 NA
ATOM     10  C   UNL     1      -2.225   5.912   0.424  0.00  0.00    +0.102 A 
ATOM     11  C   UNL     1      -1.012   6.479   0.137  0.00  0.00    +0.041 A 
ATOM     12  C   UNL     1      -0.005   5.642  -0.311  0.00  0.00    +0.102 A 
ATOM     13  N   UNL     1      -0.288   4.342  -0.397  0.00  0.00    -0.222 NA
ENDBRANCH   4   8
BRANCH   7  14
ATOM     14  S   UNL     1       1.706   0.018   0.310  0.00  0.00    +0.094 S 
ATOM     15  O   UNL     1       1.268   0.186   1.727  0.00  0.00    -0.148 OA
ATOM     16  O   UNL     1       2.110   1.379  -0.205  0.00  0.00    -0.148 OA
BRANCH  14  17
ATOM     17  C   UNL     1       3.103  -1.023   0.279  0.00  0.00    +0.127 A 
ATOM     18  C   UNL     1       3.739  -1.375  -0.905  0.00  0.00    +0.020 A 
ATOM     19  C   UNL     1       5.120  -1.526  -0.943  0.00  0.00    -0.003 A 
ATOM     20  C   UNL     1       5.916  -1.194   0.147  0.00  0.00    -0.023 A 
ATOM     21  C   UNL     1       5.265  -1.234   1.374  0.00  0.00    -0.003 A 
ATOM     22  C   UNL     1       3.879  -1.146   1.425  0.00  0.00    +0.020 A 
BRANCH  20  23
ATOM     23  C   UNL     1       7.200  -0.444  -0.018  0.00  0.00    +0.019 C 
ATOM     24  C   UNL     1       8.046  -1.000  -1.129  0.00  0.00    +0.004 C 
ATOM     25  C   UNL     1       7.974  -0.507   1.269  0.00  0.00    +0.004 C 
ATOM     26  C   UNL     1       6.887   1.018  -0.281  0.00  0.00    +0.004 C 
ENDBRANCH  20  23
ENDBRANCH  14  17
ENDBRANCH   7  14
BRANCH   2  27
ATOM     27  O   UNL     1      -4.338   0.113  -1.034  0.00  0.00    -0.455 OA
BRANCH  27  28
ATOM     28  C   UNL     1      -5.476   0.782  -0.507  0.00  0.00    +0.243 C 
BRANCH  28  29
ATOM     29  C   UNL     1      -5.703   0.444   0.947  0.00  0.00    +0.229 C 
ATOM     30  O   UNL     1      -5.353   1.537   1.751  0.00  0.00    -0.216 OA
ENDBRANCH  28  29
ENDBRANCH  27  28
ENDBRANCH   2  27
BRANCH   1  31
ATOM     31  O   UNL     1      -2.209  -1.540  -1.291  0.00  0.00    -0.443 OA
BRANCH  31  33
ATOM     32  C   UNL     1      -2.795  -3.415   0.069  0.00  0.00    +0.173 A 
ATOM     33  C   UNL     1      -1.916  -2.789  -0.785  0.00  0.00    +0.179 A 
ATOM     34  C   UNL     1      -1.125  -3.616  -1.575  0.00  0.00    +0.041 A 
ATOM     35  C   UNL     1      -1.288  -4.995  -1.585  0.00  0.00    +0.003 A 
ATOM     36  C   UNL     1      -2.299  -5.575  -0.829  0.00  0.00    +0.003 A 
ATOM     37  C   UNL     1      -2.963  -4.792   0.085  0.00  0.00    +0.040 A 
BRANCH  32  39
ATOM     38  C   UNL     1      -5.015  -2.951   0.848  0.00  0.00    +0.253 C 
ATOM     39  O   UNL     1      -3.622  -2.650   0.886  0.00  0.00    -0.468 OA
ENDBRANCH  32  39
ENDBRANCH  31  33
ENDBRANCH   1  31
TORSDOF 10
