REMARK  Name = 
REMARK  5 active torsions:
REMARK  status: ('A' for Active; 'I' for Inactive)
REMARK    1  A    between atoms: C_2  and  N_3
REMARK    2  A    between atoms: N_3  and  C_4
REMARK    3  A    between atoms: C_6  and  C_8
REMARK    4  A    between atoms: C_8  and  C_9
REMARK    5  A    between atoms: C_16  and  C_17
REMARK                            x       y       z     vdW  Elec       q    Type
REMARK                         _______ _______ _______ _____ _____    ______ ____
ROOT
ATOM      1  C   UNL     1      -0.225   0.642  -0.197  0.00  0.00    +0.089 C 
ATOM      2  C   UNL     1      -0.566   2.263  -0.054  0.00  0.00    +0.032 C 
ATOM      3  C   UNL     1      -0.794   1.470  -1.496  0.00  0.00    +0.015 C 
ENDROOT
BRANCH   1   4
ATOM      4  C   UNL     1      -1.366  -0.215   0.178  0.00  0.00    -0.015 A 
ATOM      5  C   UNL     1      -1.582  -0.508   1.495  0.00  0.00    -0.004 A 
ATOM      6  C   UNL     1      -2.670  -1.244   1.898  0.00  0.00    -0.000 A 
ATOM      7  C   UNL     1      -3.690  -1.453   0.985  0.00  0.00    -0.000 A 
ATOM      8  C   UNL     1      -3.307  -1.512  -0.342  0.00  0.00    -0.000 A 
ATOM      9  C   UNL     1      -2.099  -0.955  -0.749  0.00  0.00    -0.004 A 
ENDBRANCH   1   4
BRANCH   1  11
ATOM     10  N   UNL     1       1.719  -0.984  -0.059  0.00  0.00    -0.279 N 
ATOM     11  C   UNL     1       1.131   0.333  -0.012  0.00  0.00    +0.229 C 
ATOM     12  O   UNL     1       1.696   1.045   0.889  0.00  0.00    -0.275 OA
BRANCH  10  14
ATOM     13  C   UNL     1       3.722  -0.367   1.117  0.00  0.00    +0.023 C 
ATOM     14  C   UNL     1       2.653  -1.423   0.983  0.00  0.00    +0.093 C 
ENDBRANCH  10  14
BRANCH  10  15
ATOM     15  C   UNL     1       1.995  -1.384  -1.395  0.00  0.00    +0.093 C 
ATOM     16  C   UNL     1       1.707  -2.749  -1.825  0.00  0.00    +0.023 C 
ENDBRANCH  10  15
ENDBRANCH   1  11
BRANCH   2  17
ATOM     17  C   UNL     1       0.942   2.836  -0.536  0.00  0.00    +0.110 C 
ATOM     18  N   UNL     1       0.733   4.206  -0.879  0.00  0.00    -0.131 NA
ENDBRANCH   2  17
TORSDOF 5
