REMARK  Name = 
REMARK  4 active torsions:
REMARK  status: ('A' for Active; 'I' for Inactive)
REMARK    1  A    between atoms: O_2  and  C_3
REMARK    2  A    between atoms: C_3  and  C_5
REMARK    3  A    between atoms: C_5  and  C_6
REMARK    4  A    between atoms: C_5  and  C_12
REMARK                            x       y       z     vdW  Elec       q    Type
REMARK                         _______ _______ _______ _____ _____    ______ ____
ROOT
ATOM      1  C   UNL     1      -0.178   0.550   0.715  0.00  0.00    +0.137 C 
ENDROOT
BRANCH   1   2
ATOM      2  C   UNL     1      -1.039  -0.388  -0.448  0.00  0.00    +0.087 C 
ATOM      3  N   UNL     1      -1.123  -1.599   0.545  0.00  0.00    -0.219 NA
ATOM      4  C   UNL     1      -2.003  -2.562  -0.009  0.00  0.00    +0.089 C 
ATOM      5  C   UNL     1      -3.165  -2.077  -0.769  0.00  0.00    +0.019 C 
ATOM      6  C   UNL     1      -3.460  -0.625  -0.706  0.00  0.00    +0.003 C 
ATOM      7  C   UNL     1      -2.478   0.202   0.066  0.00  0.00    +0.018 C 
ENDBRANCH   1   2
BRANCH   1   8
ATOM      8  C   UNL     1       1.250  -0.039   0.293  0.00  0.00    -0.011 A 
ATOM      9  C   UNL     1       2.099  -0.391   1.316  0.00  0.00    -0.004 A 
ATOM     10  C   UNL     1       3.226  -1.157   1.042  0.00  0.00    -0.000 A 
ATOM     11  C   UNL     1       3.316  -1.672  -0.237  0.00  0.00    -0.000 A 
ATOM     12  C   UNL     1       2.685  -1.004  -1.279  0.00  0.00    -0.000 A 
ATOM     13  C   UNL     1       1.537  -0.266  -1.000  0.00  0.00    -0.004 A 
ENDBRANCH   1   8
BRANCH   1  14
ATOM     14  C   UNL     1      -0.032   1.831  -0.252  0.00  0.00    +0.322 C 
ATOM     15  O   UNL     1      -1.105   2.153  -0.855  0.00  0.00    -0.250 OA
BRANCH  14  17
ATOM     16  C   UNL     1       0.051   4.138   0.356  0.00  0.00    +0.256 C 
ATOM     17  O   UNL     1       0.418   2.907   0.535  0.00  0.00    -0.444 OA
ENDBRANCH  14  17
ENDBRANCH   1  14
TORSDOF 4
