REMARK  Name = 
REMARK  16 active torsions:
REMARK  status: ('A' for Active; 'I' for Inactive)
REMARK    1  A    between atoms: C_2  and  C_4
REMARK    2  A    between atoms: C_4  and  N_5
REMARK    3  A    between atoms: N_5  and  C_6
REMARK    4  A    between atoms: N_5  and  C_17
REMARK    5  A    between atoms: C_6  and  C_7
REMARK    6  A    between atoms: C_7  and  N_8
REMARK    7  A    between atoms: N_8  and  C_9
REMARK    8  A    between atoms: N_8  and  C_13
REMARK    9  A    between atoms: C_9  and  C_10
REMARK   10  A    between atoms: C_13  and  C_14
REMARK   11  A    between atoms: C_17  and  C_18
REMARK   12  A    between atoms: C_18  and  N_19
REMARK   13  A    between atoms: N_19  and  C_20
REMARK   14  A    between atoms: N_19  and  C_24
REMARK   15  A    between atoms: C_20  and  C_21
REMARK   16  A    between atoms: C_24  and  C_25
REMARK                            x       y       z     vdW  Elec       q    Type
REMARK                         _______ _______ _______ _____ _____    ______ ____
ROOT
ATOM      1  N   UNL     1      -0.220  -0.411  -0.258  0.00  0.00    -0.261 NA
ENDROOT
BRANCH   1   2
ATOM      2  C   UNL     1      -1.430  -1.121   0.101  0.00  0.00    +0.090 C 
BRANCH   2   3
ATOM      3  C   UNL     1      -2.585  -0.222  -0.321  0.00  0.00    +0.091 C 
BRANCH   3   4
ATOM      4  N   UNL     1      -3.391   0.004   0.852  0.00  0.00    -0.252 NA
BRANCH   4   5
ATOM      5  C   UNL     1      -4.737  -0.549   0.712  0.00  0.00    +0.188 C 
BRANCH   5   6
ATOM      6  C   UNL     1      -4.819  -1.469  -0.467  0.00  0.00    +0.381 C 
ATOM      7  O   UNL     1      -5.378  -2.732  -0.294  0.00  0.00    -0.244 OA
ATOM      8  O   UNL     1      -5.072  -0.903  -1.573  0.00  0.00    -0.244 OA
ENDBRANCH   5   6
ENDBRANCH   4   5
BRANCH   4   9
ATOM      9  C   UNL     1      -3.494   1.395   1.217  0.00  0.00    +0.188 C 
BRANCH   9  10
ATOM     10  C   UNL     1      -3.844   2.186   0.013  0.00  0.00    +0.381 C 
ATOM     11  O   UNL     1      -4.956   3.019  -0.011  0.00  0.00    -0.244 OA
ATOM     12  O   UNL     1      -3.020   2.237  -0.948  0.00  0.00    -0.244 OA
ENDBRANCH   9  10
ENDBRANCH   4   9
ENDBRANCH   3   4
ENDBRANCH   2   3
ENDBRANCH   1   2
BRANCH   1  13
ATOM     13  C   UNL     1       0.851  -1.292  -0.636  0.00  0.00    +0.090 C 
BRANCH  13  14
ATOM     14  C   UNL     1       2.001  -0.425  -1.133  0.00  0.00    +0.091 C 
BRANCH  14  15
ATOM     15  N   UNL     1       3.168  -0.823  -0.423  0.00  0.00    -0.252 NA
BRANCH  15  16
ATOM     16  C   UNL     1       3.904   0.210   0.217  0.00  0.00    +0.188 C 
BRANCH  16  17
ATOM     17  C   UNL     1       4.568   1.161  -0.699  0.00  0.00    +0.381 C 
ATOM     18  O   UNL     1       5.956   1.042  -0.827  0.00  0.00    -0.244 OA
ATOM     19  O   UNL     1       4.150   2.358  -0.656  0.00  0.00    -0.244 OA
ENDBRANCH  16  17
ENDBRANCH  15  16
BRANCH  15  20
ATOM     20  C   UNL     1       3.939  -1.864  -1.022  0.00  0.00    +0.188 C 
BRANCH  20  21
ATOM     21  C   UNL     1       4.441  -2.732   0.091  0.00  0.00    +0.381 C 
ATOM     22  O   UNL     1       4.826  -4.056  -0.144  0.00  0.00    -0.244 OA
ATOM     23  O   UNL     1       4.246  -2.438   1.309  0.00  0.00    -0.244 OA
ENDBRANCH  20  21
ENDBRANCH  15  20
ENDBRANCH  14  15
ENDBRANCH  13  14
ENDBRANCH   1  13
BRANCH   1  24
ATOM     24  C   UNL     1       0.158   0.569   0.732  0.00  0.00    +0.188 C 
BRANCH  24  26
ATOM     25  O   UNL     1       0.579   2.951   0.608  0.00  0.00    -0.244 OA
ATOM     26  C   UNL     1       0.199   1.890   0.036  0.00  0.00    +0.381 C 
ATOM     27  O   UNL     1      -0.041   2.015  -1.336  0.00  0.00    -0.244 OA
ENDBRANCH  24  26
ENDBRANCH   1  24
TORSDOF 16
