REMARK  Name = 
REMARK  6 active torsions:
REMARK  status: ('A' for Active; 'I' for Inactive)
REMARK    1  A    between atoms: C_2  and  N_4
REMARK    2  A    between atoms: N_4  and  C_5
REMARK    3  A    between atoms: C_5  and  C_6
REMARK    4  A    between atoms: C_6  and  C_8
REMARK    5  A    between atoms: C_8  and  O_9
REMARK    6  A    between atoms: O_9  and  C_10
REMARK                            x       y       z     vdW  Elec       q    Type
REMARK                         _______ _______ _______ _____ _____    ______ ____
ROOT
ATOM      1  O   UNL     1      -0.269  -0.650  -0.647  0.00  0.00    -0.473 OA
ENDROOT
BRANCH   1   2
ATOM      2  C   UNL     1      -1.454   0.072  -0.630  0.00  0.00    +0.140 A 
ATOM      3  C   UNL     1      -2.633  -0.625  -0.418  0.00  0.00    +0.053 A 
ATOM      4  C   UNL     1      -3.756   0.060   0.010  0.00  0.00    +0.084 A 
ATOM      5  N   UNL     1      -4.713  -0.893   0.111  0.00  0.00    -0.244 NA
ATOM      6  C   UNL     1      -4.418  -1.947  -0.651  0.00  0.00    +0.099 A 
ATOM      7  C   UNL     1      -3.662   1.393   0.342  0.00  0.00    +0.019 A 
ATOM      8  C   UNL     1      -2.557   2.136   0.001  0.00  0.00    +0.005 A 
ATOM      9  C   UNL     1      -3.051  -1.859  -0.880  0.00  0.00    +0.025 A 
ATOM     10  C   UNL     1      -1.484   1.450  -0.552  0.00  0.00    +0.037 A 
ENDBRANCH   1   2
BRANCH   1  11
ATOM     11  C   UNL     1       0.796  -0.200   0.189  0.00  0.00    +0.240 C 
BRANCH  11  12
ATOM     12  C   UNL     1       1.845   0.435  -0.965  0.00  0.00    +0.213 C 
ATOM     13  O   UNL     1       1.583   1.876  -0.457  0.00  0.00    -0.218 OA
BRANCH  12  14
ATOM     14  C   UNL     1       3.152   0.267   0.084  0.00  0.00    +0.125 C 
BRANCH  14  15
ATOM     15  N   UNL     1       3.977  -0.674  -0.671  0.00  0.00    -0.217 NA
BRANCH  15  17
ATOM     16  C   UNL     1       5.783  -1.387   0.749  0.00  0.00    +0.019 C 
ATOM     17  C   UNL     1       5.366  -0.419  -0.297  0.00  0.00    +0.073 C 
ATOM     18  C   UNL     1       5.494   0.964   0.330  0.00  0.00    +0.019 C 
ENDBRANCH  15  17
ENDBRANCH  14  15
ENDBRANCH  12  14
ENDBRANCH  11  12
ENDBRANCH   1  11
TORSDOF 6
