REMARK  Name = 
REMARK  15 active torsions:
REMARK  status: ('A' for Active; 'I' for Inactive)
REMARK    1  A    between atoms: C_2  and  C_3
REMARK    2  A    between atoms: C_3  and  O_5
REMARK    3  A    between atoms: O_5  and  C_6
REMARK    4  A    between atoms: C_6  and  O_7
REMARK    5  A    between atoms: C_6  and  C_37
REMARK    6  A    between atoms: O_7  and  P_8
REMARK    7  A    between atoms: P_8  and  C_10
REMARK    8  A    between atoms: P_8  and  C_20
REMARK    9  A    between atoms: C_10  and  C_11
REMARK   10  A    between atoms: C_11  and  C_12
REMARK   11  A    between atoms: C_12  and  C_13
REMARK   12  A    between atoms: C_13  and  C_14
REMARK   13  A    between atoms: C_20  and  C_21
REMARK   14  A    between atoms: C_25  and  C_26
REMARK   15  A    between atoms: C_33  and  C_34
REMARK                            x       y       z     vdW  Elec       q    Type
REMARK                         _______ _______ _______ _____ _____    ______ ____
ROOT
ATOM      1  P   UNL     1       1.482   0.618  -0.160  0.00  0.00    +0.234 P 
ATOM      2  O   UNL     1       2.356   1.535   0.626  0.00  0.00    -0.289 OA
ENDROOT
BRANCH   1   3
ATOM      3  C   UNL     1      -0.245   0.614   0.439  0.00  0.00    +0.172 C 
BRANCH   3   4
ATOM      4  C   UNL     1      -0.947  -0.438  -0.363  0.00  0.00    +0.236 C 
ATOM      5  N   UNL     1      -2.138  -1.060  -0.006  0.00  0.00    -0.271 N 
ATOM      6  C   UNL     1      -3.591  -0.515  -0.416  0.00  0.00    +0.179 C 
ATOM      7  C   UNL     1      -3.332   0.714   0.692  0.00  0.00    +0.033 C 
ATOM      8  C   UNL     1      -3.336  -0.319   1.986  0.00  0.00    +0.022 C 
ATOM      9  C   UNL     1      -2.520  -1.538   1.230  0.00  0.00    +0.094 C 
ATOM     10  O   UNL     1      -0.448  -0.827  -1.464  0.00  0.00    -0.274 OA
BRANCH   8  11
ATOM     11  C   UNL     1      -4.807  -0.961   1.550  0.00  0.00    +0.002 C 
ATOM     12  C   UNL     1      -5.701   0.230   1.344  0.00  0.00    +0.000 C 
ATOM     13  C   UNL     1      -7.124  -0.213   1.580  0.00  0.00    +0.000 C 
ATOM     14  C   UNL     1      -7.335  -0.312   3.071  0.00  0.00    +0.000 C 
ATOM     15  C   UNL     1      -5.999  -0.649   3.706  0.00  0.00    +0.000 C 
ATOM     16  C   UNL     1      -5.214  -1.631   2.856  0.00  0.00    +0.000 C 
ENDBRANCH   8  11
BRANCH   6  17
ATOM     17  C   UNL     1      -3.046   0.344  -1.708  0.00  0.00    +0.382 C 
ATOM     18  O   UNL     1      -2.445   1.518  -1.519  0.00  0.00    -0.244 OA
ATOM     19  O   UNL     1      -3.611   0.018  -2.775  0.00  0.00    -0.244 OA
ENDBRANCH   6  17
ENDBRANCH   3   4
ENDBRANCH   1   3
BRANCH   1  20
ATOM     20  O   UNL     1       1.384   1.063  -1.803  0.00  0.00    -0.276 OA
BRANCH  20  21
ATOM     21  C   UNL     1       0.482   2.341  -1.672  0.00  0.00    +0.295 C 
BRANCH  21  22
ATOM     22  C   UNL     1       0.744   2.745  -3.308  0.00  0.00    +0.071 C 
ATOM     23  C   UNL     1       0.585   4.259  -3.260  0.00  0.00    +0.006 C 
ATOM     24  C   UNL     1      -0.482   2.153  -3.975  0.00  0.00    +0.006 C 
ENDBRANCH  21  22
BRANCH  21  25
ATOM     25  O   UNL     1       1.730   3.223  -1.215  0.00  0.00    -0.424 OA
BRANCH  25  26
ATOM     26  C   UNL     1       1.261   4.399  -0.613  0.00  0.00    +0.319 C 
ATOM     27  O   UNL     1       0.161   4.426   0.018  0.00  0.00    -0.250 OA
BRANCH  26  29
ATOM     28  C   UNL     1       2.884   5.423   0.146  0.00  0.00    +0.012 C 
ATOM     29  C   UNL     1       2.295   5.378  -0.161  0.00  0.00    +0.110 C 
ENDBRANCH  26  29
ENDBRANCH  25  26
ENDBRANCH  21  25
ENDBRANCH  20  21
ENDBRANCH   1  20
BRANCH   1  30
ATOM     30  C   UNL     1       1.986  -1.113  -0.074  0.00  0.00    +0.088 C 
BRANCH  30  31
ATOM     31  C   UNL     1       3.463  -1.294   0.113  0.00  0.00    +0.011 C 
BRANCH  31  32
ATOM     32  C   UNL     1       3.939  -2.155  -1.051  0.00  0.00    +0.005 C 
BRANCH  32  33
ATOM     33  C   UNL     1       5.444  -2.304  -0.884  0.00  0.00    +0.026 C 
BRANCH  33  34
ATOM     34  C   UNL     1       5.638  -3.318   0.200  0.00  0.00    -0.022 A 
ATOM     35  C   UNL     1       5.316  -4.624  -0.148  0.00  0.00    -0.004 A 
ATOM     36  C   UNL     1       5.058  -5.574   0.827  0.00  0.00    -0.000 A 
ATOM     37  C   UNL     1       5.208  -5.258   2.160  0.00  0.00    -0.000 A 
ATOM     38  C   UNL     1       5.430  -3.934   2.499  0.00  0.00    -0.000 A 
ATOM     39  C   UNL     1       5.474  -2.960   1.533  0.00  0.00    -0.004 A 
ENDBRANCH  33  34
ENDBRANCH  32  33
ENDBRANCH  31  32
ENDBRANCH  30  31
ENDBRANCH   1  30
TORSDOF 15
