REMARK  Name = 
REMARK  3 active torsions:
REMARK  status: ('A' for Active; 'I' for Inactive)
REMARK    1  A    between atoms: C_2  and  C_3
REMARK    2  A    between atoms: C_11  and  C_12
REMARK    3  A    between atoms: C_12  and  N_13
REMARK                            x       y       z     vdW  Elec       q    Type
REMARK                         _______ _______ _______ _____ _____    ______ ____
ROOT
ATOM      1  C   UNL     1      -2.999   0.090   0.099  0.00  0.00    -0.005 A 
ATOM      2  C   UNL     1      -1.662   0.046  -0.192  0.00  0.00    +0.045 A 
ATOM      3  C   UNL     1      -0.634  -0.872   0.324  0.00  0.00    +0.175 C 
ATOM      4  C   UNL     1       0.806  -0.203  -0.029  0.00  0.00    +0.078 C 
ATOM      5  C   UNL     1       0.522  -0.340  -1.664  0.00  0.00    +0.015 C 
ATOM      6  C   UNL     1      -0.167   1.006  -1.896  0.00  0.00    +0.046 C 
ATOM      7  O   UNL     1      -0.811  -2.063   0.156  0.00  0.00    -0.291 OA
ATOM      8  C   UNL     1      -1.345   1.146  -0.980  0.00  0.00    +0.061 A 
ATOM      9  N   UNL     1      -2.363   1.985  -0.820  0.00  0.00    -0.254 NA
ATOM     10  C   UNL     1      -3.420   1.375  -0.228  0.00  0.00    +0.055 A 
ATOM     11  C   UNL     1      -4.571   1.999   0.497  0.00  0.00    +0.052 C 
ENDROOT
BRANCH   1  13
ATOM     12  C   UNL     1      -3.553  -1.620   1.712  0.00  0.00    +0.005 C 
ATOM     13  C   UNL     1      -3.780  -1.095   0.485  0.00  0.00    +0.028 C 
ENDBRANCH   1  13
BRANCH   4  14
ATOM     14  C   UNL     1       1.649  -1.637   0.013  0.00  0.00    +0.080 C 
BRANCH  14  15
ATOM     15  N   UNL     1       3.019  -1.169  -0.114  0.00  0.00    -0.268 NA
ATOM     16  C   UNL     1       3.090   0.129  -0.760  0.00  0.00    +0.105 C 
ATOM     17  C   UNL     1       3.205   1.192   0.309  0.00  0.00    +0.159 C 
ATOM     18  O   UNL     1       4.512   1.180   0.794  0.00  0.00    -0.351 OA
ATOM     19  C   UNL     1       4.846  -0.120   1.114  0.00  0.00    +0.159 C 
ATOM     20  C   UNL     1       3.656  -1.028   1.179  0.00  0.00    +0.105 C 
ENDBRANCH  14  15
ENDBRANCH   4  14
TORSDOF 3
