REMARK  Name = 
REMARK  5 active torsions:
REMARK  status: ('A' for Active; 'I' for Inactive)
REMARK    1  A    between atoms: N_10  and  C_11
REMARK    2  A    between atoms: C_11  and  C_12
REMARK    3  A    between atoms: C_12  and  C_13
REMARK    4  A    between atoms: C_13  and  N_14
REMARK    5  A    between atoms: N_17  and  C_18
REMARK                            x       y       z     vdW  Elec       q    Type
REMARK                         _______ _______ _______ _____ _____    ______ ____
ROOT
ATOM      1  C   UNL     1       0.741  -0.329  -0.486  0.00  0.00    +0.074 C 
ENDROOT
BRANCH   1   2
ATOM      2  N   UNL     1       0.812  -1.780  -0.336  0.00  0.00    -0.270 NA
ATOM      3  C   UNL     1       1.799  -2.334  -1.226  0.00  0.00    +0.094 C 
ATOM      4  C   UNL     1       3.148  -2.175  -0.582  0.00  0.00    +0.108 C 
ATOM      5  N   UNL     1       3.083  -1.216   0.513  0.00  0.00    -0.305 N 
ATOM      6  C   UNL     1       2.243  -1.601   1.641  0.00  0.00    +0.108 C 
ATOM      7  C   UNL     1       0.972  -2.185   1.034  0.00  0.00    +0.094 C 
BRANCH   5   8
ATOM      8  C   UNL     1       4.148  -0.271   0.670  0.00  0.00    +0.049 A 
ATOM      9  C   UNL     1       5.135  -0.186  -0.286  0.00  0.00    +0.026 A 
ATOM     10  C   UNL     1       5.957   0.917  -0.435  0.00  0.00    +0.059 A 
ATOM     11 CL   UNL     1       6.558   1.399  -2.016  0.00  0.00    -0.082 Cl
ATOM     12  C   UNL     1       6.043   1.755   0.669  0.00  0.00    +0.011 A 
ATOM     13  C   UNL     1       5.138   1.609   1.713  0.00  0.00    +0.002 A 
ATOM     14  C   UNL     1       4.094   0.695   1.643  0.00  0.00    +0.015 A 
ENDBRANCH   5   8
ENDBRANCH   1   2
BRANCH   1  15
ATOM     15  C   UNL     1      -0.645  -0.044  -1.052  0.00  0.00    +0.044 C 
BRANCH  15  16
ATOM     16  C   UNL     1      -1.600  -0.957  -0.294  0.00  0.00    +0.134 C 
BRANCH  16  19
ATOM     17  O   UNL     1      -2.560   1.350   1.317  0.00  0.00    -0.244 OA
ATOM     18  C   UNL     1      -3.254   0.751   0.441  0.00  0.00    +0.352 A 
ATOM     19  N   UNL     1      -2.921  -0.385  -0.209  0.00  0.00    -0.201 N 
ATOM     20  N   UNL     1      -3.874  -0.632  -1.099  0.00  0.00    -0.147 NA
ATOM     21  C   UNL     1      -4.975  -0.030  -0.642  0.00  0.00    +0.171 A 
ATOM     22  C   UNL     1      -6.341  -0.258  -0.682  0.00  0.00    +0.039 A 
ATOM     23  C   UNL     1      -7.155   0.858  -0.681  0.00  0.00    +0.005 A 
ATOM     24  C   UNL     1      -6.661   1.996  -0.081  0.00  0.00    +0.019 A 
ATOM     25  C   UNL     1      -5.340   2.062   0.335  0.00  0.00    +0.086 A 
ATOM     26  N   UNL     1      -4.542   0.992   0.132  0.00  0.00    -0.241 N 
ENDBRANCH  16  19
ENDBRANCH  15  16
ENDBRANCH   1  15
TORSDOF 5
