REMARK  Name = 
REMARK  1 active torsions:
REMARK  status: ('A' for Active; 'I' for Inactive)
REMARK    1  A    between atoms: N_4  and  C_5
REMARK                            x       y       z     vdW  Elec       q    Type
REMARK                         _______ _______ _______ _____ _____    ______ ____
ROOT
ATOM      1  C   UNL     1       0.274  -0.256  -0.314  0.00  0.00    +0.084 A 
ATOM      2  C   UNL     1      -0.238  -0.110   0.969  0.00  0.00    +0.022 A 
ATOM      3  C   UNL     1      -1.580   0.168   1.194  0.00  0.00    +0.044 A 
ATOM      4  C   UNL     1      -2.479   0.045   0.142  0.00  0.00    +0.196 A 
ATOM      5  O   UNL     1      -3.617   0.857   0.111  0.00  0.00    -0.287 OA
ATOM      6  C   UNL     1      -2.005  -0.587  -1.003  0.00  0.00    +0.044 A 
ATOM      7  C   UNL     1      -0.650  -0.648  -1.276  0.00  0.00    +0.022 A 
ENDROOT
BRANCH   1  10
ATOM      8  C   UNL     1       2.727  -1.175   0.645  0.00  0.00    +0.100 C 
ATOM      9  C   UNL     1       2.542   0.181   0.063  0.00  0.00    +0.256 C 
ATOM     10  N   UNL     1       1.510   0.347  -0.710  0.00  0.00    -0.212 NA
ATOM     11  O   UNL     1       3.516   1.178   0.179  0.00  0.00    -0.270 OA
ENDBRANCH   1  10
TORSDOF 1
