REMARK  Name = 
REMARK  11 active torsions:
REMARK  status: ('A' for Active; 'I' for Inactive)
REMARK    1  A    between atoms: O_2  and  C_3
REMARK    2  A    between atoms: C_3  and  C_5
REMARK    3  A    between atoms: C_5  and  C_6
REMARK    4  A    between atoms: C_6  and  C_8
REMARK    5  A    between atoms: C_6  and  C_15
REMARK    6  A    between atoms: C_8  and  C_9
REMARK    7  A    between atoms: C_9  and  C_10
REMARK    8  A    between atoms: C_10  and  C_11
REMARK    9  A    between atoms: C_15  and  O_17
REMARK   10  A    between atoms: O_17  and  C_18
REMARK   11  A    between atoms: C_19  and  O_20
REMARK                            x       y       z     vdW  Elec       q    Type
REMARK                         _______ _______ _______ _____ _____    ______ ____
ROOT
ATOM      1  C   UNL     1      -0.881  -0.771   1.332  0.00  0.00    +0.230 C 
ATOM      2  C   UNL     1      -1.766  -0.378  -0.123  0.00  0.00    +0.087 C 
ATOM      3  C   UNL     1      -2.463  -1.850  -0.041  0.00  0.00    +0.074 C 
ATOM      4  N   UNL     1      -3.229  -2.088  -1.190  0.00  0.00    -0.271 NA
ATOM      5  C   UNL     1      -3.933  -0.970  -1.750  0.00  0.00    +0.077 C 
ATOM      6  C   UNL     1      -4.960  -0.564  -0.699  0.00  0.00    +0.043 C 
ATOM      7  C   UNL     1      -4.243   0.404   0.194  0.00  0.00    -0.021 A 
ATOM      8  C   UNL     1      -5.085   1.452   0.547  0.00  0.00    +0.036 A 
ATOM      9  C   UNL     1      -4.539   2.705   0.707  0.00  0.00    +0.176 A 
ATOM     10  O   UNL     1      -5.054   4.003   0.626  0.00  0.00    -0.435 OA
ATOM     11  C   UNL     1      -3.942   4.886   0.572  0.00  0.00    +0.429 C 
ATOM     12  O   UNL     1      -2.958   4.118   1.258  0.00  0.00    -0.435 OA
ATOM     13  C   UNL     1      -3.216   2.760   1.091  0.00  0.00    +0.176 A 
ATOM     14  C   UNL     1      -2.430   1.617   1.052  0.00  0.00    +0.036 A 
ATOM     15  C   UNL     1      -4.238  -3.021  -0.739  0.00  0.00    +0.072 C 
ATOM     16  C   UNL     1      -4.418  -2.851   0.736  0.00  0.00    +0.019 C 
ATOM     17  C   UNL     1      -3.273  -1.953   1.186  0.00  0.00    +0.021 C 
ATOM     18  C   UNL     1      -1.284  -2.711   0.130  0.00  0.00    +0.024 C 
ATOM     19  C   UNL     1      -2.941   0.375   0.689  0.00  0.00    -0.018 A 
ATOM     20  C   UNL     1      -0.240  -2.084   0.588  0.00  0.00    +0.153 C 
ENDROOT
BRANCH  20  21
ATOM     21  O   UNL     1       0.979  -2.563   1.063  0.00  0.00    -0.472 OA
ATOM     22  C   UNL     1       1.248  -3.943   1.061  0.00  0.00    +0.252 C 
ENDBRANCH  20  21
BRANCH   1  23
ATOM     23  O   UNL     1       0.334   0.133   0.959  0.00  0.00    -0.442 OA
BRANCH  23  24
ATOM     24  C   UNL     1       0.773   0.107  -0.320  0.00  0.00    +0.346 C 
ATOM     25  O   UNL     1       0.010  -0.275  -1.235  0.00  0.00    -0.247 OA
BRANCH  24  26
ATOM     26  C   UNL     1       2.089   0.772  -0.598  0.00  0.00    +0.225 C 
ATOM     27  O   UNL     1       1.965   2.153  -0.666  0.00  0.00    -0.214 OA
BRANCH  26  28
ATOM     28  C   UNL     1       3.007   0.450   0.575  0.00  0.00    +0.042 C 
BRANCH  28  29
ATOM     29  C   UNL     1       3.813   1.639   1.017  0.00  0.00    +0.006 C 
BRANCH  29  30
ATOM     30  C   UNL     1       5.072   1.839   0.218  0.00  0.00    +0.031 C 
BRANCH  30  31
ATOM     31  C   UNL     1       6.183   0.902   0.619  0.00  0.00    +0.127 C 
ATOM     32  O   UNL     1       6.029  -0.304  -0.069  0.00  0.00    -0.226 OA
ATOM     33  C   UNL     1       7.523   1.497   0.209  0.00  0.00    +0.033 C 
ATOM     34  C   UNL     1       6.235   0.700   2.107  0.00  0.00    +0.033 C 
ENDBRANCH  30  31
ENDBRANCH  29  30
ENDBRANCH  28  29
ENDBRANCH  26  28
BRANCH  26  35
ATOM     35  C   UNL     1       2.737   0.197  -1.827  0.00  0.00    +0.151 C 
BRANCH  35  36
ATOM     36  C   UNL     1       3.537  -1.033  -1.535  0.00  0.00    +0.320 C 
ATOM     37  O   UNL     1       2.962  -2.162  -1.460  0.00  0.00    -0.250 OA
BRANCH  36  39
ATOM     38  C   UNL     1       5.718  -2.105  -1.488  0.00  0.00    +0.256 C 
ATOM     39  O   UNL     1       4.878  -1.080  -1.931  0.00  0.00    -0.444 OA
ENDBRANCH  36  39
ENDBRANCH  35  36
ENDBRANCH  26  35
ENDBRANCH  24  26
ENDBRANCH  23  24
ENDBRANCH   1  23
TORSDOF 11
