REMARK  Name = 
REMARK  10 active torsions:
REMARK  status: ('A' for Active; 'I' for Inactive)
REMARK    1  A    between atoms: C_2  and  C_3
REMARK    2  A    between atoms: C_3  and  C_4
REMARK    3  A    between atoms: C_4  and  C_5
REMARK    4  A    between atoms: C_5  and  C_6
REMARK    5  A    between atoms: C_5  and  C_8
REMARK    6  A    between atoms: C_8  and  O_9
REMARK    7  A    between atoms: O_9  and  C_10
REMARK    8  A    between atoms: C_10  and  C_12
REMARK    9  A    between atoms: C_13  and  C_14
REMARK   10  A    between atoms: C_17  and  O_18
REMARK                            x       y       z     vdW  Elec       q    Type
REMARK                         _______ _______ _______ _____ _____    ______ ____
ROOT
ATOM      1  C   UNL     1       1.079  -0.078  -1.040  0.00  0.00    +0.341 C 
ATOM      2  O   UNL     1       1.097  -0.617  -2.162  0.00  0.00    -0.245 OA
ENDROOT
BRANCH   1   3
ATOM      3  C   UNL     1      -0.081  -0.059  -0.149  0.00  0.00    +0.082 C 
ATOM      4  C   UNL     1      -1.234   0.429  -0.555  0.00  0.00    +0.007 C 
BRANCH   4   5
ATOM      5  C   UNL     1      -2.479  -0.170  -0.058  0.00  0.00    +0.000 A 
ATOM      6  C   UNL     1      -3.021  -1.215  -0.776  0.00  0.00    +0.003 A 
ATOM      7  C   UNL     1      -4.375  -1.473  -0.770  0.00  0.00    +0.037 A 
ATOM      8  C   UNL     1      -5.215  -0.649  -0.054  0.00  0.00    +0.139 A 
ATOM      9  C   UNL     1      -4.650   0.289   0.767  0.00  0.00    +0.037 A 
ATOM     10  C   UNL     1      -3.281   0.458   0.856  0.00  0.00    +0.003 A 
BRANCH   8  11
ATOM     11  O   UNL     1      -6.542  -0.529  -0.458  0.00  0.00    -0.471 OA
ATOM     12  C   UNL     1      -6.939   0.753  -0.936  0.00  0.00    +0.252 C 
ENDBRANCH   8  11
ENDBRANCH   4   5
ENDBRANCH   1   3
BRANCH   1  13
ATOM     13  O   UNL     1       2.237   0.473  -0.558  0.00  0.00    -0.445 OA
BRANCH  13  14
ATOM     14  C   UNL     1       3.426   0.399  -1.282  0.00  0.00    +0.209 C 
BRANCH  14  15
ATOM     15  C   UNL     1       4.445  -0.558  -0.412  0.00  0.00    +0.044 C 
BRANCH  15  16
ATOM     16  C   UNL     1       3.300  -1.726  -0.218  0.00  0.00    +0.004 C 
ATOM     17  C   UNL     1       3.639  -2.340   1.135  0.00  0.00    +0.000 C 
ENDBRANCH  15  16
BRANCH  15  18
ATOM     18  C   UNL     1       4.056   0.152   1.021  0.00  0.00    +0.004 C 
BRANCH  18  19
ATOM     19  C   UNL     1       4.092   1.631   0.784  0.00  0.00    +0.000 C 
BRANCH  19  21
ATOM     20  C   UNL     1       5.205   2.786  -0.426  0.00  0.00    +0.000 C 
ATOM     21  C   UNL     1       5.241   2.042  -0.108  0.00  0.00    +0.000 C 
ENDBRANCH  19  21
ENDBRANCH  18  19
ENDBRANCH  15  18
ENDBRANCH  14  15
ENDBRANCH  13  14
ENDBRANCH   1  13
TORSDOF 10
