REMARK  Name = 
REMARK  7 active torsions:
REMARK  status: ('A' for Active; 'I' for Inactive)
REMARK    1  A    between atoms: O_2  and  C_3
REMARK    2  A    between atoms: C_6  and  C_7
REMARK    3  A    between atoms: C_7  and  N_8
REMARK    4  A    between atoms: C_16  and  C_17
REMARK    5  A    between atoms: C_21  and  C_22
REMARK    6  A    between atoms: N_24  and  C_25
REMARK    7  A    between atoms: C_25  and  C_26
REMARK                            x       y       z     vdW  Elec       q    Type
REMARK                         _______ _______ _______ _____ _____    ______ ____
ROOT
ATOM      1  N   UNL     1      -0.472  -0.641   1.290  0.00  0.00    -0.215 NA
ATOM      2  C   UNL     1      -0.214   0.215   0.193  0.00  0.00    +0.157 A 
ATOM      3  C   UNL     1       0.836  -0.135  -0.649  0.00  0.00    +0.110 A 
ATOM      4  C   UNL     1       1.608   0.829  -1.287  0.00  0.00    +0.109 A 
ATOM      5  N   UNL     1       1.448   2.126  -0.924  0.00  0.00    -0.212 NA
ATOM      6  C   UNL     1       0.317   2.480  -0.268  0.00  0.00    +0.221 A 
ATOM      7  N   UNL     1      -0.021   3.874  -0.313  0.00  0.00    -0.277 N 
ATOM      8  C   UNL     1       0.910   4.778   0.618  0.00  0.00    +0.108 C 
ATOM      9  C   UNL     1       2.025   4.993  -0.603  0.00  0.00    +0.024 C 
ATOM     10  C   UNL     1       1.132   5.368  -1.729  0.00  0.00    +0.023 C 
ATOM     11  C   UNL     1      -0.142   4.615  -1.525  0.00  0.00    +0.094 C 
ATOM     12  N   UNL     1      -0.497   1.541   0.225  0.00  0.00    -0.197 NA
ENDROOT
BRANCH   3  13
ATOM     13  C   UNL     1       1.452  -1.460  -0.500  0.00  0.00    +0.280 C 
ATOM     14  N   UNL     1       1.802  -1.764   0.714  0.00  0.00    -0.226 NA
ATOM     15  O   UNL     1       0.851  -2.493  -1.225  0.00  0.00    -0.265 OA
BRANCH  14  16
ATOM     16  C   UNL     1       2.611  -2.969   0.859  0.00  0.00    +0.194 C 
BRANCH  16  17
ATOM     17  C   UNL     1       3.984  -2.635   0.403  0.00  0.00    +0.164 A 
ATOM     18  N   UNL     1       4.958  -3.549   0.632  0.00  0.00    -0.227 NA
ATOM     19  C   UNL     1       6.260  -3.205   0.650  0.00  0.00    +0.102 A 
ATOM     20  C   UNL     1       6.594  -1.861   0.550  0.00  0.00    +0.041 A 
ATOM     21  C   UNL     1       5.635  -0.955   0.142  0.00  0.00    +0.102 A 
ATOM     22  N   UNL     1       4.366  -1.373   0.112  0.00  0.00    -0.227 NA
ENDBRANCH  16  17
ENDBRANCH  14  16
ENDBRANCH   3  13
BRANCH   8  23
ATOM     23  C   UNL     1       0.092   6.177   0.215  0.00  0.00    +0.202 C 
ATOM     24  O   UNL     1      -1.214   5.901   0.633  0.00  0.00    -0.219 OA
ENDBRANCH   8  23
BRANCH   1  25
ATOM     25  C   UNL     1      -1.765  -1.031   1.763  0.00  0.00    +0.140 C 
BRANCH  25  30
ATOM     26  C   UNL     1      -5.185  -1.912  -0.389  0.00  0.00    +0.149 A 
ATOM     27  C   UNL     1      -4.661  -2.932   0.393  0.00  0.00    +0.091 A 
ATOM     28 CL   UNL     1      -5.456  -4.497   0.528  0.00  0.00    -0.079 Cl
ATOM     29  C   UNL     1      -3.425  -2.755   1.005  0.00  0.00    +0.012 A 
ATOM     30  C   UNL     1      -2.617  -1.659   0.721  0.00  0.00    +0.000 A 
ATOM     31  C   UNL     1      -3.010  -0.924  -0.391  0.00  0.00    +0.001 A 
ATOM     32  C   UNL     1      -4.291  -1.025  -0.920  0.00  0.00    +0.038 A 
BRANCH  26  34
ATOM     33  C   UNL     1      -7.378  -1.171   0.180  0.00  0.00    +0.253 C 
ATOM     34  O   UNL     1      -6.531  -1.949  -0.645  0.00  0.00    -0.471 OA
ENDBRANCH  26  34
ENDBRANCH  25  30
ENDBRANCH   1  25
TORSDOF 7
