REMARK  Name = 
REMARK  5 active torsions:
REMARK  status: ('A' for Active; 'I' for Inactive)
REMARK    1  A    between atoms: C_2  and  C_4
REMARK    2  A    between atoms: C_4  and  C_5
REMARK    3  A    between atoms: C_5  and  C_6
REMARK    4  A    between atoms: C_8  and  C_9
REMARK    5  A    between atoms: C_15  and  C_16
REMARK                            x       y       z     vdW  Elec       q    Type
REMARK                         _______ _______ _______ _____ _____    ______ ____
ROOT
ATOM      1  C   UNL     1       1.548  -0.214  -0.002  0.00  0.00    +0.206 A 
ATOM      2  O   UNL     1       0.854   0.747  -0.541  0.00  0.00    -0.438 OA
ATOM      3  C   UNL     1      -0.443   0.497  -0.466  0.00  0.00    +0.164 A 
ATOM      4  C   UNL     1      -0.570  -0.553   0.435  0.00  0.00    +0.118 A 
ATOM      5  N   UNL     1       0.693  -0.870   0.814  0.00  0.00    -0.212 NA
ENDROOT
BRANCH   3   6
ATOM      6  C   UNL     1      -1.486   1.494  -0.745  0.00  0.00    +0.036 A 
ATOM      7  C   UNL     1      -1.417   2.232  -1.921  0.00  0.00    +0.003 A 
ATOM      8  C   UNL     1      -1.930   3.520  -2.010  0.00  0.00    +0.000 A 
ATOM      9  C   UNL     1      -2.133   4.237  -0.838  0.00  0.00    +0.000 A 
ATOM     10  C   UNL     1      -2.443   3.475   0.280  0.00  0.00    +0.000 A 
ATOM     11  C   UNL     1      -2.164   2.116   0.296  0.00  0.00    +0.003 A 
ENDBRANCH   3   6
BRANCH   4  12
ATOM     12  C   UNL     1      -1.750  -1.429   0.418  0.00  0.00    +0.021 A 
ATOM     13  C   UNL     1      -2.197  -2.038  -0.749  0.00  0.00    +0.002 A 
ATOM     14  C   UNL     1      -2.482  -3.396  -0.797  0.00  0.00    +0.000 A 
ATOM     15  C   UNL     1      -2.713  -4.079   0.389  0.00  0.00    +0.000 A 
ATOM     16  C   UNL     1      -2.651  -3.367   1.556  0.00  0.00    +0.000 A 
ATOM     17  C   UNL     1      -1.995  -2.144   1.583  0.00  0.00    +0.002 A 
ENDBRANCH   4  12
BRANCH   1  18
ATOM     18  C   UNL     1       3.012  -0.463  -0.184  0.00  0.00    +0.097 C 
BRANCH  18  19
ATOM     19  C   UNL     1       3.740   0.598   0.591  0.00  0.00    +0.124 C 
BRANCH  19  21
ATOM     20  O   UNL     1       5.295  -0.987   1.314  0.00  0.00    -0.246 OA
ATOM     21  C   UNL     1       5.142   0.148   0.772  0.00  0.00    +0.365 C 
ATOM     22  O   UNL     1       6.090   0.476  -0.196  0.00  0.00    -0.246 OA
ENDBRANCH  19  21
ENDBRANCH  18  19
ENDBRANCH   1  18
TORSDOF 5
