REMARK  Name = 
REMARK  3 active torsions:
REMARK  status: ('A' for Active; 'I' for Inactive)
REMARK    1  A    between atoms: C_2  and  O_4
REMARK    2  A    between atoms: O_4  and  C_5
REMARK    3  A    between atoms: C_5  and  C_7
REMARK                            x       y       z     vdW  Elec       q    Type
REMARK                         _______ _______ _______ _____ _____    ______ ____
ROOT
ATOM      1  C   UNL     1      -0.140   0.796   0.408  0.00  0.00    +0.294 C 
ATOM      2 CL   UNL     1      -1.106   2.112  -0.565  0.00  0.00    -0.073 Cl
ENDROOT
BRANCH   1   3
ATOM      3  C   UNL     1      -1.244  -0.363   0.197  0.00  0.00    +0.437 C 
ATOM      4  F   UNL     1      -2.176  -0.223   1.179  0.00  0.00    -0.166 F 
ATOM      5  F   UNL     1      -0.503  -1.528   0.355  0.00  0.00    -0.166 F 
ATOM      6  F   UNL     1      -1.706  -0.297  -1.075  0.00  0.00    -0.166 F 
ENDBRANCH   1   3
BRANCH   1   7
ATOM      7  O   UNL     1       0.655   0.370  -0.775  0.00  0.00    -0.278 OA
BRANCH   7   9
ATOM      8  F   UNL     1       2.055   0.357   1.034  0.00  0.00    -0.166 F 
ATOM      9  C   UNL     1       1.848   0.001  -0.204  0.00  0.00    +0.451 C 
ATOM     10  F   UNL     1       2.316  -1.226  -0.556  0.00  0.00    -0.166 F 
ENDBRANCH   7   9
ENDBRANCH   1   7
TORSDOF 3
