REMARK  Name = 
REMARK  1 active torsions:
REMARK  status: ('A' for Active; 'I' for Inactive)
REMARK    1  A    between atoms: CA_2  and  C_3
REMARK                            x       y       z     vdW  Elec       q    Type
REMARK                         _______ _______ _______ _____ _____    ______ ____
ROOT
ATOM      1  C   GLY A   1      -0.456   0.036  -0.050  0.00  0.00    +0.384 C 
ATOM      2  OXT GLY A   1      -1.346  -1.040  -0.115  0.00  0.00    -0.244 OA
ATOM      3  O   GLY A   1      -1.005   1.179  -0.043  0.00  0.00    -0.244 OA
ENDROOT
BRANCH   1   5
ATOM      4  N   GLY A   1       1.928  -0.038  -0.397  0.00  0.00    -0.119 NA
ATOM      5  CA  GLY A   1       0.879  -0.136   0.605  0.00  0.00    +0.223 C 
ENDBRANCH   1   5
TORSDOF 1
