REMARK  Name = 
REMARK  0 active torsions:
REMARK  status: ('A' for Active; 'I' for Inactive)
REMARK                            x       y       z     vdW  Elec       q    Type
REMARK                         _______ _______ _______ _____ _____    ______ ____
ROOT
ATOM      1  N   UNL     1      -1.107  -0.841  -0.042  0.00  0.00    -0.066 NA
ATOM      2  C   UNL     1       0.002   0.037   0.002  0.00  0.00    +0.379 C 
ATOM      3  O   UNL     1      -0.233   1.271  -0.010  0.00  0.00    -0.246 OA
ATOM      4  N   UNL     1       1.338  -0.467   0.050  0.00  0.00    -0.066 NA
ENDROOT
TORSDOF 0
