REMARK  Name = 
REMARK  4 active torsions:
REMARK  status: ('A' for Active; 'I' for Inactive)
REMARK    1  A    between atoms: C_2  and  O_3
REMARK    2  A    between atoms: O_3  and  C_4
REMARK    3  A    between atoms: C_4  and  C_6
REMARK    4  A    between atoms: C_6  and  C_7
REMARK                            x       y       z     vdW  Elec       q    Type
REMARK                         _______ _______ _______ _____ _____    ______ ____
ROOT
ATOM      1  C   UNL     1      -0.366   0.162   0.049  0.00  0.00    +0.111 C 
ATOM      2  C   UNL     1      -0.486   1.254   1.098  0.00  0.00    +0.032 C 
ATOM      3  C   UNL     1       0.032   2.510   0.446  0.00  0.00    +0.073 C 
ATOM      4  N   UNL     1      -0.822   2.895  -0.628  0.00  0.00    -0.271 NA
ATOM      5  C   UNL     1      -1.897   3.769  -0.269  0.00  0.00    +0.090 C 
ATOM      6  C   UNL     1      -1.109   1.918  -1.605  0.00  0.00    +0.073 C 
ATOM      7  C   UNL     1      -1.153   0.504  -1.171  0.00  0.00    +0.032 C 
ENDROOT
BRANCH   1   8
ATOM      8  C   UNL     1       1.089  -0.028  -0.225  0.00  0.00    -0.013 A 
ATOM      9  C   UNL     1       1.884  -0.259   0.891  0.00  0.00    -0.004 A 
ATOM     10  C   UNL     1       3.258  -0.284   0.725  0.00  0.00    -0.000 A 
ATOM     11  C   UNL     1       3.755  -0.328  -0.567  0.00  0.00    -0.000 A 
ATOM     12  C   UNL     1       2.902  -0.789  -1.549  0.00  0.00    -0.000 A 
ATOM     13  C   UNL     1       1.535  -0.588  -1.415  0.00  0.00    -0.004 A 
ENDBRANCH   1   8
BRANCH   1  14
ATOM     14  C   UNL     1      -0.893  -1.143   0.561  0.00  0.00    +0.320 C 
ATOM     15  O   UNL     1      -0.675  -1.525   1.742  0.00  0.00    -0.250 OA
BRANCH  14  16
ATOM     16  O   UNL     1      -1.431  -2.076  -0.331  0.00  0.00    -0.448 OA
BRANCH  16  18
ATOM     17  C   UNL     1      -3.475  -2.779   0.644  0.00  0.00    +0.051 C 
ATOM     18  C   UNL     1      -2.149  -3.211   0.084  0.00  0.00    +0.209 C 
ENDBRANCH  16  18
ENDBRANCH  14  16
ENDBRANCH   1  14
TORSDOF 4
