REMARK  Name = 
REMARK  6 active torsions:
REMARK  status: ('A' for Active; 'I' for Inactive)
REMARK    1  A    between atoms: C_2  and  C_4
REMARK    2  A    between atoms: C_2  and  C_6
REMARK    3  A    between atoms: C_6  and  C_8
REMARK    4  A    between atoms: N_10  and  C_11
REMARK    5  A    between atoms: C_11  and  C_12
REMARK    6  A    between atoms: C_12  and  C_13
REMARK                            x       y       z     vdW  Elec       q    Type
REMARK                         _______ _______ _______ _____ _____    ______ ____
ROOT
ATOM      1  C   UNL     1      -1.334  -0.226   0.743  0.00  0.00    +0.231 C 
ATOM      2  O   UNL     1      -1.057  -1.703   0.346  0.00  0.00    -0.213 OA
ENDROOT
BRANCH   1   4
ATOM      3  C   UNL     1      -1.935   1.202  -0.901  0.00  0.00    +0.006 C 
ATOM      4  C   UNL     1      -2.126   0.131  -0.703  0.00  0.00    +0.067 C 
ATOM      5  C   UNL     1      -1.580  -0.752  -1.734  0.00  0.00    +0.006 C 
BRANCH   4   6
ATOM      6  C   UNL     1      -3.544  -0.175  -0.258  0.00  0.00    +0.185 C 
ATOM      7  O   UNL     1      -4.461   0.369  -1.150  0.00  0.00    -0.220 OA
ENDBRANCH   4   6
ENDBRANCH   1   4
BRANCH   1   8
ATOM      8  C   UNL     1       0.123   0.280   0.137  0.00  0.00    +0.272 C 
ATOM      9  N   UNL     1       1.231  -0.278   0.844  0.00  0.00    -0.203 NA
ATOM     10  O   UNL     1       0.100   1.551   0.112  0.00  0.00    -0.271 OA
BRANCH   9  11
ATOM     11  C   UNL     1       2.208   0.525   1.571  0.00  0.00    +0.118 C 
BRANCH  11  12
ATOM     12  C   UNL     1       3.517   0.650   0.860  0.00  0.00    +0.059 C 
BRANCH  12  13
ATOM     13  C   UNL     1       4.046  -0.757   0.638  0.00  0.00    +0.184 C 
ATOM     14  O   UNL     1       4.811  -0.744  -0.504  0.00  0.00    -0.220 OA
ENDBRANCH  12  13
ENDBRANCH  11  12
ENDBRANCH   9  11
ENDBRANCH   1   8
TORSDOF 6
