REMARK  Name = 
REMARK  3 active torsions:
REMARK  status: ('A' for Active; 'I' for Inactive)
REMARK    1  A    between atoms: N_4  and  N_5
REMARK    2  A    between atoms: C_6  and  C_7
REMARK    3  A    between atoms: C_10  and  N_11
REMARK                            x       y       z     vdW  Elec       q    Type
REMARK                         _______ _______ _______ _____ _____    ______ ____
ROOT
ATOM      1  N   UNL     1      -1.364  -1.009  -2.031  0.00  0.00    -0.169 NA
ATOM      2  C   UNL     1      -0.099  -1.143  -1.929  0.00  0.00    +0.155 C 
ENDROOT
BRANCH   1   8
ATOM      3  O   UNL     1      -3.389   2.316   0.375  0.00  0.00    -0.271 OA
ATOM      4  C   UNL     1      -3.405   1.077   0.113  0.00  0.00    +0.272 C 
ATOM      5  N   UNL     1      -3.097  -0.012   0.984  0.00  0.00    -0.125 NA
ATOM      6  C   UNL     1      -2.453  -1.043   0.226  0.00  0.00    +0.349 C 
ATOM      7  O   UNL     1      -1.938  -2.107   0.675  0.00  0.00    -0.249 OA
ATOM      8  N   UNL     1      -2.061  -0.388  -0.987  0.00  0.00    -0.154 N 
ATOM      9  C   UNL     1      -3.148   0.548  -1.259  0.00  0.00    +0.208 C 
ENDBRANCH   1   8
BRANCH   2  10
ATOM     10  C   UNL     1       0.715  -0.520  -0.885  0.00  0.00    +0.172 A 
ATOM     11  O   UNL     1       2.007  -0.771  -0.785  0.00  0.00    -0.397 OA
ATOM     12  C   UNL     1       2.620   0.163  -0.121  0.00  0.00    +0.447 A 
ATOM     13  C   UNL     1       1.703   1.093   0.289  0.00  0.00    +0.121 A 
ATOM     14  C   UNL     1       0.477   0.601  -0.135  0.00  0.00    +0.049 A 
BRANCH  12  15
ATOM     15  N   UNL     1       4.048   0.202   0.003  0.00  0.00    +0.119 N 
ATOM     16  O   UNL     1       4.661   0.787   1.095  0.00  0.00    -0.573 OA
ATOM     17  O   UNL     1       4.721   0.205  -1.058  0.00  0.00    +0.045 OA
ENDBRANCH  12  15
ENDBRANCH   2  10
TORSDOF 3
