REMARK  Name = 
REMARK  9 active torsions:
REMARK  status: ('A' for Active; 'I' for Inactive)
REMARK    1  A    between atoms: N_5  and  C_6
REMARK    2  A    between atoms: C_12  and  C_13
REMARK    3  A    between atoms: C_13  and  O_14
REMARK    4  A    between atoms: C_13  and  C_34
REMARK    5  A    between atoms: O_14  and  C_15
REMARK    6  A    between atoms: C_17  and  C_18
REMARK    7  A    between atoms: C_21  and  C_22
REMARK    8  A    between atoms: C_22  and  CA_23
REMARK    9  A    between atoms: CA_23  and  C_25
REMARK                            x       y       z     vdW  Elec       q    Type
REMARK                         _______ _______ _______ _____ _____    ______ ____
ROOT
ATOM      1  O   UNL     1      -1.872  -0.360  -0.064  0.00  0.00    -0.450 OA
ENDROOT
BRANCH   1   2
ATOM      2  C   UNL     1      -0.936  -1.274   0.465  0.00  0.00    +0.229 A 
ATOM      3  N   UNL     1      -0.769  -1.406   1.803  0.00  0.00    -0.176 NA
ATOM      4  C   UNL     1       0.362  -1.880   2.380  0.00  0.00    +0.259 A 
ATOM      5  N   UNL     1       0.798  -1.277   3.610  0.00  0.00    -0.086 NA
ATOM      6  N   UNL     1       1.215  -2.492   1.562  0.00  0.00    -0.211 NA
ATOM      7  C   UNL     1       1.218  -2.381   0.220  0.00  0.00    +0.089 A 
ATOM      8  C   UNL     1       0.102  -1.758  -0.324  0.00  0.00    +0.077 A 
BRANCH   7   9
ATOM      9  C   UNL     1       2.503  -2.268  -0.499  0.00  0.00    +0.018 A 
ATOM     10  C   UNL     1       3.587  -3.043  -0.095  0.00  0.00    +0.001 A 
ATOM     11  C   UNL     1       4.893  -2.562  -0.131  0.00  0.00    -0.004 A 
ATOM     12  C   UNL     1       5.059  -1.202  -0.079  0.00  0.00    -0.020 A 
ATOM     13  C   UNL     1       4.109  -0.462  -0.761  0.00  0.00    -0.004 A 
ATOM     14  C   UNL     1       2.889  -1.058  -1.072  0.00  0.00    +0.001 A 
BRANCH  12  15
ATOM     15  C   UNL     1       6.330  -0.680   0.433  0.00  0.00    +0.057 C 
BRANCH  15  16
ATOM     16  CA  UNL     1       6.197   0.956   0.252  0.00  0.00    +0.199 C 
ATOM     17  N   UNL     1       6.347   0.860  -1.323  0.00  0.00    -0.120 NA
BRANCH  16  18
ATOM     18  C   UNL     1       7.785   1.198   0.472  0.00  0.00    +0.382 C 
ATOM     19  OXT UNL     1       8.033   2.561   0.264  0.00  0.00    -0.244 OA
ATOM     20  O   UNL     1       8.553   0.433  -0.139  0.00  0.00    -0.244 OA
ENDBRANCH  16  18
ENDBRANCH  15  16
ENDBRANCH  12  15
ENDBRANCH   7   9
ENDBRANCH   1   2
BRANCH   1  21
ATOM     21  C   UNL     1      -1.431   1.009   0.531  0.00  0.00    +0.285 C 
BRANCH  21  23
ATOM     22  C   UNL     1      -3.938   1.155   0.029  0.00  0.00    +0.083 A 
ATOM     23  C   UNL     1      -2.921   1.603   0.772  0.00  0.00    +0.044 A 
ATOM     24  C   UNL     1      -2.913   2.767   1.535  0.00  0.00    +0.002 A 
ATOM     25  C   UNL     1      -4.123   3.441   1.644  0.00  0.00    +0.011 A 
ATOM     26  C   UNL     1      -5.113   3.173   0.709  0.00  0.00    +0.059 A 
ATOM     27 CL   UNL     1      -6.261   4.393   0.177  0.00  0.00    -0.082 Cl
ATOM     28  C   UNL     1      -5.062   1.976   0.004  0.00  0.00    +0.030 A 
BRANCH  22  32
ATOM     29  C   UNL     1      -5.913  -2.945   1.317  0.00  0.00    +0.054 C 
ATOM     30  C   UNL     1      -5.199  -2.067   0.623  0.00  0.00    +0.081 A 
ATOM     31  N   UNL     1      -4.633  -0.916   1.004  0.00  0.00    -0.169 NA
ATOM     32  N   UNL     1      -4.053  -0.282  -0.022  0.00  0.00    -0.229 N 
ATOM     33  C   UNL     1      -4.826  -0.751  -1.048  0.00  0.00    +0.102 A 
ATOM     34  C   UNL     1      -5.205  -2.058  -0.768  0.00  0.00    +0.037 A 
ENDBRANCH  22  32
ENDBRANCH  21  23
BRANCH  21  35
ATOM     35  C   UNL     1      -1.258   1.761  -0.936  0.00  0.00    +0.438 C 
ATOM     36  F   UNL     1      -2.139   1.284  -1.792  0.00  0.00    -0.166 F 
ATOM     37  F   UNL     1      -1.428   3.087  -0.588  0.00  0.00    -0.166 F 
ATOM     38  F   UNL     1       0.017   1.467  -1.339  0.00  0.00    -0.166 F 
ENDBRANCH  21  35
ENDBRANCH   1  21
TORSDOF 9
