REMARK  Name = 
REMARK  9 active torsions:
REMARK  status: ('A' for Active; 'I' for Inactive)
REMARK    1  A    between atoms: C_2  and  O_4
REMARK    2  A    between atoms: O_4  and  C_5
REMARK    3  A    between atoms: C_5  and  C_6
REMARK    4  A    between atoms: C_6  and  C_7
REMARK    5  A    between atoms: C_6  and  C_19
REMARK    6  A    between atoms: C_7  and  C_8
REMARK    7  A    between atoms: C_8  and  N_9
REMARK    8  A    between atoms: C_19  and  O_20
REMARK    9  A    between atoms: O_20  and  C_21
REMARK                            x       y       z     vdW  Elec       q    Type
REMARK                         _______ _______ _______ _____ _____    ______ ____
ROOT
ATOM      1  C   UNL     1      -0.411   0.065  -0.737  0.00  0.00    +0.032 C 
ENDROOT
BRANCH   1   2
ATOM      2  C   UNL     1      -1.887  -0.300  -0.627  0.00  0.00    +0.090 C 
BRANCH   2   3
ATOM      3  C   UNL     1      -2.013  -1.673  -1.271  0.00  0.00    +0.212 C 
BRANCH   3   4
ATOM      4  O   UNL     1      -2.522  -2.641  -0.387  0.00  0.00    -0.448 OA
BRANCH   4   5
ATOM      5  C   UNL     1      -3.570  -2.400   0.491  0.00  0.00    +0.318 C 
ATOM      6  O   UNL     1      -3.661  -1.240   0.940  0.00  0.00    -0.250 OA
ATOM      7  C   UNL     1      -4.734  -3.294   0.656  0.00  0.00    +0.121 C 
ENDBRANCH   4   5
ENDBRANCH   3   4
ENDBRANCH   2   3
BRANCH   2   8
ATOM      8  C   UNL     1      -2.768   0.622  -1.415  0.00  0.00    +0.212 C 
BRANCH   8   9
ATOM      9  O   UNL     1      -2.493   1.987  -1.222  0.00  0.00    -0.448 OA
BRANCH   9  11
ATOM     10  C   UNL     1      -3.821   3.990  -0.410  0.00  0.00    +0.121 C 
ATOM     11  C   UNL     1      -3.196   2.647  -0.214  0.00  0.00    +0.318 C 
ATOM     12  O   UNL     1      -3.121   2.107   0.926  0.00  0.00    -0.250 OA
ENDBRANCH   9  11
ENDBRANCH   8   9
ENDBRANCH   2   8
ENDBRANCH   1   2
BRANCH   1  13
ATOM     13  C   UNL     1       0.179  -0.014   0.647  0.00  0.00    +0.109 C 
BRANCH  13  14
ATOM     14  N   UNL     1       1.469  -0.696   0.648  0.00  0.00    -0.294 N 
ATOM     15  C   UNL     1       2.618  -0.147   0.200  0.00  0.00    +0.167 A 
ATOM     16  C   UNL     1       3.682  -0.682   0.902  0.00  0.00    +0.136 A 
ATOM     17  C   UNL     1       4.942  -0.185   0.670  0.00  0.00    +0.124 A 
ATOM     18  N   UNL     1       5.135   0.606  -0.395  0.00  0.00    -0.208 NA
ATOM     19  C   UNL     1       4.078   1.231  -0.967  0.00  0.00    +0.258 A 
ATOM     20  N   UNL     1       4.298   2.477  -1.626  0.00  0.00    -0.086 NA
ATOM     21  N   UNL     1       3.133  -1.559   1.755  0.00  0.00    -0.221 NA
ATOM     22  N   UNL     1       2.830   0.812  -0.729  0.00  0.00    -0.192 NA
ATOM     23  C   UNL     1       1.833  -1.711   1.466  0.00  0.00    +0.180 A 
ENDBRANCH  13  14
ENDBRANCH   1  13
TORSDOF 9
