REMARK  Name = 
REMARK  3 active torsions:
REMARK  status: ('A' for Active; 'I' for Inactive)
REMARK    1  A    between atoms: C_6  and  O_8
REMARK    2  A    between atoms: O_8  and  C_9
REMARK    3  A    between atoms: N_18  and  C_19
REMARK                            x       y       z     vdW  Elec       q    Type
REMARK                         _______ _______ _______ _____ _____    ______ ____
ROOT
ATOM      1  C   UNL     1      -0.068  -0.492  -0.640  0.00  0.00    +0.299 C 
ATOM      2  N   UNL     1      -1.510  -0.770   0.049  0.00  0.00    -0.200 N 
ATOM      3  C   UNL     1      -1.806  -1.964  -0.688  0.00  0.00    +0.276 C 
ATOM      4  O   UNL     1      -2.898  -2.357  -1.185  0.00  0.00    -0.268 OA
ATOM      5  C   UNL     1      -0.598  -2.788  -0.569  0.00  0.00    +0.154 A 
ATOM      6  N   UNL     1      -0.358  -4.120  -0.515  0.00  0.00    -0.236 NA
ATOM      7  C   UNL     1       0.744  -4.591   0.123  0.00  0.00    +0.120 A 
ATOM      8  C   UNL     1       1.500  -3.669   0.841  0.00  0.00    +0.119 A 
ATOM      9  N   UNL     1       1.497  -2.346   0.518  0.00  0.00    -0.239 NA
ATOM     10  C   UNL     1       0.448  -1.986  -0.162  0.00  0.00    +0.141 A 
ENDROOT
BRANCH   2  11
ATOM     11  C   UNL     1      -2.429   0.286   0.171  0.00  0.00    +0.141 A 
ATOM     12  N   UNL     1      -3.142   0.346   1.323  0.00  0.00    -0.228 NA
ATOM     13  C   UNL     1      -4.402   0.807   1.384  0.00  0.00    +0.112 A 
ATOM     14  C   UNL     1      -4.927   1.555   0.338  0.00  0.00    +0.077 A 
ATOM     15 CL   UNL     1      -6.016   2.888   0.707  0.00  0.00    -0.081 Cl
ATOM     16  C   UNL     1      -4.285   1.436  -0.887  0.00  0.00    +0.016 A 
ATOM     17  C   UNL     1      -3.091   0.729  -0.967  0.00  0.00    +0.036 A 
ENDBRANCH   2  11
BRANCH   1  18
ATOM     18  O   UNL     1       0.499   0.226   0.658  0.00  0.00    -0.412 OA
BRANCH  18  24
ATOM     19  C   UNL     1       6.062   1.988   1.069  0.00  0.00    +0.090 C 
ATOM     20  N   UNL     1       5.337   1.969  -0.053  0.00  0.00    -0.269 NA
ATOM     21  C   UNL     1       4.563   0.740  -0.063  0.00  0.00    +0.094 C 
ATOM     22  C   UNL     1       3.478   0.869   1.002  0.00  0.00    +0.114 C 
ATOM     23  N   UNL     1       2.471   1.759   0.429  0.00  0.00    -0.243 N 
ATOM     24  C   UNL     1       1.105   1.432   0.363  0.00  0.00    +0.407 C 
ATOM     25  O   UNL     1       0.328   2.245  -0.222  0.00  0.00    -0.226 OA
ATOM     26  C   UNL     1       3.051   2.716  -0.514  0.00  0.00    +0.114 C 
ATOM     27  C   UNL     1       4.450   3.095  -0.051  0.00  0.00    +0.094 C 
ENDBRANCH  18  24
ENDBRANCH   1  18
TORSDOF 3
