REMARK  Name = 
REMARK  5 active torsions:
REMARK  status: ('A' for Active; 'I' for Inactive)
REMARK    1  A    between atoms: N_8  and  C_9
REMARK    2  A    between atoms: C_9  and  O_10
REMARK    3  A    between atoms: O_10  and  C_11
REMARK    4  A    between atoms: C_11  and  C_12
REMARK    5  A    between atoms: C_11  and  C_14
REMARK                            x       y       z     vdW  Elec       q    Type
REMARK                         _______ _______ _______ _____ _____    ______ ____
ROOT
ATOM      1  N   UNL     1      -4.091   2.092  -0.253  0.00  0.00    -0.086 NA
ATOM      2  C   UNL     1      -3.276   0.914  -0.248  0.00  0.00    +0.261 A 
ATOM      3  N   UNL     1      -3.813  -0.320  -0.091  0.00  0.00    -0.171 NA
ATOM      4  C   UNL     1      -2.975  -1.373   0.068  0.00  0.00    +0.302 A 
ATOM      5  O   UNL     1      -3.284  -2.542  -0.316  0.00  0.00    -0.263 OA
ATOM      6  C   UNL     1      -1.618  -1.156   0.268  0.00  0.00    +0.175 A 
ATOM      7  N   UNL     1      -0.769  -1.840   1.062  0.00  0.00    -0.217 NA
ATOM      8  C   UNL     1       0.298  -1.046   1.299  0.00  0.00    +0.182 A 
ATOM      9  N   UNL     1       0.109   0.168   0.775  0.00  0.00    -0.268 N 
ATOM     10  C   UNL     1      -1.079   0.103   0.126  0.00  0.00    +0.172 A 
ATOM     11  N   UNL     1      -1.942   1.087  -0.223  0.00  0.00    -0.192 NA
ENDROOT
BRANCH   9  12
ATOM     12  C   UNL     1       1.157   1.088   0.376  0.00  0.00    +0.258 C 
BRANCH  12  13
ATOM     13  O   UNL     1       2.100   0.437  -0.399  0.00  0.00    -0.329 OA
BRANCH  13  14
ATOM     14  C   UNL     1       3.368   0.413   0.201  0.00  0.00    +0.183 C 
BRANCH  14  15
ATOM     15  C   UNL     1       4.102   1.704  -0.146  0.00  0.00    +0.214 C 
ATOM     16  O   UNL     1       3.369   2.808   0.256  0.00  0.00    -0.218 OA
ENDBRANCH  14  15
BRANCH  14  17
ATOM     17  C   UNL     1       4.139  -0.690  -0.517  0.00  0.00    +0.214 C 
ATOM     18  O   UNL     1       4.205  -1.846   0.237  0.00  0.00    -0.218 OA
ENDBRANCH  14  17
ENDBRANCH  13  14
ENDBRANCH  12  13
ENDBRANCH   9  12
TORSDOF 5
