REMARK  Name = 
REMARK  4 active torsions:
REMARK  status: ('A' for Active; 'I' for Inactive)
REMARK    1  A    between atoms: C_2  and  C_3
REMARK    2  A    between atoms: C_3  and  C_4
REMARK    3  A    between atoms: C_4  and  C_6
REMARK    4  A    between atoms: C_6  and  C_7
REMARK                            x       y       z     vdW  Elec       q    Type
REMARK                         _______ _______ _______ _____ _____    ______ ____
ROOT
ATOM      1  C   UNL     1       0.018   0.710   0.449  0.00  0.00    +0.141 C 
ATOM      2  C   UNL     1      -0.614  -0.207   1.421  0.00  0.00    +0.257 C 
ATOM      3  O   UNL     1      -0.615   0.086   2.656  0.00  0.00    -0.272 OA
ATOM      4  N   UNL     1      -1.633  -1.137   1.034  0.00  0.00    -0.125 NA
ATOM      5  C   UNL     1      -2.241  -1.057  -0.260  0.00  0.00    +0.352 C 
ATOM      6  O   UNL     1      -2.825  -2.116  -0.644  0.00  0.00    -0.248 OA
ATOM      7  N   UNL     1      -1.502  -0.311  -1.236  0.00  0.00    -0.125 NA
ATOM      8  C   UNL     1      -0.604   0.739  -0.863  0.00  0.00    +0.257 C 
ATOM      9  O   UNL     1      -0.756   1.836  -1.483  0.00  0.00    -0.272 OA
ENDROOT
BRANCH   1  10
ATOM     10  C   UNL     1       1.544   0.102   0.256  0.00  0.00    +0.017 C 
ATOM     11  C   UNL     1       1.842   1.053  -1.065  0.00  0.00    +0.001 C 
BRANCH  10  12
ATOM     12  C   UNL     1       1.012  -1.145  -0.695  0.00  0.00    +0.001 C 
BRANCH  12  14
ATOM     13  C   UNL     1       3.431  -1.550  -0.261  0.00  0.00    +0.000 C 
ATOM     14  C   UNL     1       2.096  -2.186  -0.598  0.00  0.00    +0.000 C 
ENDBRANCH  12  14
ENDBRANCH  10  12
ENDBRANCH   1  10
BRANCH   1  15
ATOM     15  C   UNL     1       0.201   2.044   1.103  0.00  0.00    +0.018 C 
ATOM     16  C   UNL     1       0.645   3.139   0.187  0.00  0.00    +0.001 C 
ENDBRANCH   1  15
TORSDOF 4
