REMARK  Name = 
REMARK  6 active torsions:
REMARK  status: ('A' for Active; 'I' for Inactive)
REMARK    1  A    between atoms: C_5  and  N_6
REMARK    2  A    between atoms: C_7  and  C_9
REMARK    3  A    between atoms: C_12  and  C_13
REMARK    4  A    between atoms: C_13  and  N_14
REMARK    5  A    between atoms: C_24  and  N_25
REMARK    6  A    between atoms: C_30  and  C_31
REMARK                            x       y       z     vdW  Elec       q    Type
REMARK                         _______ _______ _______ _____ _____    ______ ____
ROOT
ATOM      1  C   UNL     1      -2.743   3.281   1.768  0.00  0.00    +0.032 C 
ATOM      2  C   UNL     1      -2.215   2.760   0.468  0.00  0.00    -0.006 A 
ATOM      3  C   UNL     1      -2.188   1.402   0.178  0.00  0.00    +0.071 A 
ATOM      4  C   UNL     1      -1.062   0.820  -0.391  0.00  0.00    +0.033 A 
ATOM      5  C   UNL     1      -0.001   1.599  -0.837  0.00  0.00    +0.075 A 
ATOM      6  C   UNL     1      -0.278   2.957  -0.950  0.00  0.00    +0.016 A 
ATOM      7  C   UNL     1      -1.341   3.545  -0.274  0.00  0.00    -0.002 A 
ENDROOT
BRANCH   3   8
ATOM      8  N   UNL     1      -3.247   0.625   0.734  0.00  0.00    -0.178 NA
ATOM      9  C   UNL     1      -4.615   0.835   0.425  0.00  0.00    +0.241 A 
ATOM     10  N   UNL     1      -5.293   0.081  -0.474  0.00  0.00    -0.212 NA
ATOM     11  C   UNL     1      -6.538   0.415  -0.895  0.00  0.00    +0.087 A 
ATOM     12  C   UNL     1      -7.032   1.603  -0.369  0.00  0.00    +0.040 A 
ATOM     13  C   UNL     1      -6.494   2.096   0.814  0.00  0.00    +0.103 A 
ATOM     14  N   UNL     1      -5.389   1.497   1.321  0.00  0.00    -0.211 NA
BRANCH  11  15
ATOM     15  C   UNL     1      -7.428  -0.600  -1.475  0.00  0.00    +0.037 A 
ATOM     16  C   UNL     1      -8.678  -0.177  -1.882  0.00  0.00    +0.100 A 
ATOM     17  N   UNL     1      -9.714  -1.044  -1.987  0.00  0.00    -0.242 NA
ATOM     18  C   UNL     1      -9.742  -2.102  -1.141  0.00  0.00    +0.099 A 
ATOM     19  C   UNL     1      -8.512  -2.665  -0.827  0.00  0.00    +0.021 A 
ATOM     20  C   UNL     1      -7.364  -1.899  -0.984  0.00  0.00    +0.005 A 
ENDBRANCH  11  15
ENDBRANCH   3   8
BRANCH   5  21
ATOM     21  N   UNL     1       1.353   1.168  -0.753  0.00  0.00    -0.175 NA
ATOM     22  C   UNL     1       1.890   0.512   0.393  0.00  0.00    +0.269 C 
ATOM     23  O   UNL     1       1.079  -0.218   1.038  0.00  0.00    -0.268 OA
BRANCH  22  24
ATOM     24  C   UNL     1       3.316   0.185   0.511  0.00  0.00    +0.055 A 
ATOM     25  C   UNL     1       4.270   1.013  -0.065  0.00  0.00    +0.004 A 
ATOM     26  C   UNL     1       5.445   0.475  -0.572  0.00  0.00    -0.003 A 
ATOM     27  C   UNL     1       5.698  -0.891  -0.551  0.00  0.00    -0.006 A 
ATOM     28  C   UNL     1       4.884  -1.635   0.292  0.00  0.00    -0.003 A 
ATOM     29  C   UNL     1       3.757  -1.077   0.876  0.00  0.00    +0.004 A 
BRANCH  27  30
ATOM     30  C   UNL     1       6.388  -1.534  -1.685  0.00  0.00    +0.099 C 
BRANCH  30  31
ATOM     31  N   UNL     1       7.663  -2.094  -1.363  0.00  0.00    -0.267 NA
ATOM     32  C   UNL     1       8.776  -1.215  -1.539  0.00  0.00    +0.090 C 
ATOM     33  C   UNL     1       9.226  -0.524  -0.284  0.00  0.00    +0.090 C 
ATOM     34  N   UNL     1       9.589  -1.574   0.665  0.00  0.00    -0.269 NA
ATOM     35  C   UNL     1      10.486  -2.467  -0.064  0.00  0.00    +0.090 C 
ATOM     36  C   UNL     1       8.358  -2.255   0.996  0.00  0.00    +0.090 C 
ATOM     37  C   UNL     1       7.696  -2.899  -0.185  0.00  0.00    +0.090 C 
ENDBRANCH  30  31
ENDBRANCH  27  30
ENDBRANCH  22  24
ENDBRANCH   5  21
TORSDOF 6
