REMARK  Name = 
REMARK  4 active torsions:
REMARK  status: ('A' for Active; 'I' for Inactive)
REMARK    1  A    between atoms: S_2  and  C_5
REMARK    2  A    between atoms: C_10  and  C_11
REMARK    3  A    between atoms: C_16  and  C_17
REMARK    4  A    between atoms: C_17  and  C_18
REMARK                            x       y       z     vdW  Elec       q    Type
REMARK                         _______ _______ _______ _____ _____    ______ ____
ROOT
ATOM      1  C   UNL     1      -2.833   0.214  -0.319  0.00  0.00    +0.130 A 
ATOM      2  C   UNL     1      -2.741  -1.053   0.243  0.00  0.00    +0.091 A 
ATOM      3  C   UNL     1      -1.503  -1.627   0.523  0.00  0.00    +0.023 A 
ATOM      4  C   UNL     1      -0.347  -1.095  -0.011  0.00  0.00    +0.086 A 
ATOM      5  N   UNL     1       0.882  -0.958   0.723  0.00  0.00    -0.218 NA
ATOM      6  C   UNL     1       2.118  -1.411  -0.155  0.00  0.00    +0.193 C 
ATOM      7  N   UNL     1       2.349  -0.016  -0.853  0.00  0.00    -0.057 NA
ATOM      8  S   UNL     1       1.013   0.927  -0.880  0.00  0.00    +0.080 S 
ATOM      9  O   UNL     1       0.975   1.778  -2.103  0.00  0.00    -0.152 OA
ATOM     10  O   UNL     1       1.015   1.752   0.391  0.00  0.00    -0.152 OA
ATOM     11  C   UNL     1      -0.477  -0.033  -0.909  0.00  0.00    +0.140 A 
ATOM     12  C   UNL     1      -1.685   0.603  -1.005  0.00  0.00    +0.041 A 
ENDROOT
BRANCH   1  14
ATOM     13  N   UNL     1      -4.045   1.823  -0.279  0.00  0.00    +0.039 NA
ATOM     14  S   UNL     1      -3.895   1.444   0.231  0.00  0.00    +0.094 S 
ATOM     15  O   UNL     1      -5.249   1.115   0.633  0.00  0.00    -0.150 OA
ATOM     16  O   UNL     1      -3.208   2.482   1.099  0.00  0.00    -0.150 OA
ENDBRANCH   1  14
BRANCH   2  17
ATOM     17  C   UNL     1      -4.027  -1.647   0.642  0.00  0.00    +0.420 C 
ATOM     18  F   UNL     1      -3.767  -3.019   0.685  0.00  0.00    -0.166 F 
ATOM     19  F   UNL     1      -5.018  -1.542  -0.302  0.00  0.00    -0.166 F 
ATOM     20  F   UNL     1      -4.425  -1.320   1.913  0.00  0.00    -0.166 F 
ENDBRANCH   2  17
BRANCH   6  21
ATOM     21  C   UNL     1       3.158  -1.048   1.077  0.00  0.00    +0.068 C 
BRANCH  21  22
ATOM     22  C   UNL     1       4.322  -0.388   0.503  0.00  0.00    -0.019 A 
ATOM     23  C   UNL     1       4.623   0.883   0.980  0.00  0.00    -0.004 A 
ATOM     24  C   UNL     1       5.605   1.666   0.410  0.00  0.00    -0.000 A 
ATOM     25  C   UNL     1       6.352   1.189  -0.659  0.00  0.00    -0.000 A 
ATOM     26  C   UNL     1       5.816   0.079  -1.300  0.00  0.00    -0.000 A 
ATOM     27  C   UNL     1       4.992  -0.796  -0.627  0.00  0.00    -0.004 A 
ENDBRANCH  21  22
ENDBRANCH   6  21
TORSDOF 4
