REMARK  Name = 
REMARK  4 active torsions:
REMARK  status: ('A' for Active; 'I' for Inactive)
REMARK    1  A    between atoms: C_4  and  C_5
REMARK    2  A    between atoms: N_7  and  C_8
REMARK    3  A    between atoms: C_20  and  C_21
REMARK    4  A    between atoms: C_21  and  C_22
REMARK                            x       y       z     vdW  Elec       q    Type
REMARK                         _______ _______ _______ _____ _____    ______ ____
ROOT
ATOM      1  C   UNL     1      -0.983  -1.028   0.166  0.00  0.00    +0.243 C 
ATOM      2  C   UNL     1      -2.049  -0.809   1.161  0.00  0.00    +0.274 C 
ATOM      3  O   UNL     1      -1.920  -0.999   2.398  0.00  0.00    -0.270 OA
ATOM      4  N   UNL     1      -3.157  -0.249   0.431  0.00  0.00    -0.225 N 
ATOM      5  C   UNL     1      -2.891  -0.555  -0.914  0.00  0.00    +0.307 C 
ATOM      6  C   UNL     1      -3.510  -2.084  -1.019  0.00  0.00    +0.149 C 
ATOM      7  N   UNL     1      -4.980  -1.546  -1.258  0.00  0.00    -0.273 N 
ATOM      8  C   UNL     1      -5.381  -0.481  -0.386  0.00  0.00    +0.244 C 
ATOM      9  O   UNL     1      -6.635  -0.564  -0.181  0.00  0.00    -0.273 OA
ATOM     10  C   UNL     1      -5.558  -2.606  -2.020  0.00  0.00    +0.094 C 
ATOM     11  C   UNL     1      -4.443  -3.087  -2.905  0.00  0.00    +0.023 C 
ATOM     12  C   UNL     1      -3.258  -2.161  -2.655  0.00  0.00    +0.029 C 
ATOM     13  O   UNL     1      -3.423   0.169  -1.907  0.00  0.00    -0.172 OA
ATOM     14  C   UNL     1      -4.577  -0.665   1.028  0.00  0.00    +0.160 C 
ATOM     15  O   UNL     1      -1.552  -0.653  -1.030  0.00  0.00    -0.294 OA
ATOM     16  C   UNL     1      -0.662  -2.509  -0.007  0.00  0.00    +0.063 C 
ENDROOT
BRANCH   1  18
ATOM     17  C   UNL     1       1.368  -1.028   0.855  0.00  0.00    +0.249 C 
ATOM     18  N   UNL     1       0.218  -0.265   0.495  0.00  0.00    -0.173 NA
ATOM     19  O   UNL     1       1.576  -2.032   0.159  0.00  0.00    -0.273 OA
BRANCH  17  34
ATOM     20  C   UNL     1       5.069  -0.639   1.615  0.00  0.00    +0.090 C 
ATOM     21  N   UNL     1       4.931  -1.139   1.493  0.00  0.00    -0.268 NA
ATOM     22  C   UNL     1       4.896  -1.675  -0.015  0.00  0.00    +0.084 C 
ATOM     23  C   UNL     1       4.459  -0.193  -0.525  0.00  0.00    -0.011 C 
ATOM     24  C   UNL     1       5.432   0.772  -0.894  0.00  0.00    -0.002 A 
ATOM     25  C   UNL     1       6.758   0.787  -0.451  0.00  0.00    +0.015 A 
ATOM     26  C   UNL     1       7.398   1.888   0.042  0.00  0.00    +0.081 A 
ATOM     27  N   UNL     1       8.204   1.431   1.032  0.00  0.00    -0.244 NA
ATOM     28  C   UNL     1       8.040   0.095   1.194  0.00  0.00    +0.095 A 
ATOM     29  C   UNL     1       6.843   3.119  -0.291  0.00  0.00    +0.019 A 
ATOM     30  C   UNL     1       5.681   3.162  -1.058  0.00  0.00    +0.002 A 
ATOM     31  C   UNL     1       6.966  -0.299   0.405  0.00  0.00    +0.000 A 
ATOM     32  C   UNL     1       4.938   2.007  -1.307  0.00  0.00    -0.000 A 
ATOM     33  C   UNL     1       3.199  -0.091  -0.291  0.00  0.00    -0.019 C 
ATOM     34  C   UNL     1       2.664  -0.133   1.248  0.00  0.00    +0.116 C 
ATOM     35  C   UNL     1       6.536  -1.529  -0.234  0.00  0.00    +0.048 C 
ATOM     36  C   UNL     1       3.526  -1.470   1.706  0.00  0.00    +0.086 C 
ENDBRANCH  17  34
ENDBRANCH   1  18
BRANCH  14  37
ATOM     37  C   UNL     1      -4.821   0.876   1.589  0.00  0.00    +0.056 C 
BRANCH  37  38
ATOM     38  C   UNL     1      -5.735   1.601   0.752  0.00  0.00    -0.020 A 
ATOM     39  C   UNL     1      -6.906   2.059   1.361  0.00  0.00    -0.004 A 
ATOM     40  C   UNL     1      -7.756   2.937   0.715  0.00  0.00    -0.000 A 
ATOM     41  C   UNL     1      -7.343   3.435  -0.514  0.00  0.00    -0.000 A 
ATOM     42  C   UNL     1      -5.971   3.539  -0.693  0.00  0.00    -0.000 A 
ATOM     43  C   UNL     1      -5.192   2.611  -0.044  0.00  0.00    -0.004 A 
ENDBRANCH  37  38
ENDBRANCH  14  37
TORSDOF 4
