REMARK  Name = 
REMARK  4 active torsions:
REMARK  status: ('A' for Active; 'I' for Inactive)
REMARK    1  A    between atoms: C_2  and  N_5
REMARK    2  A    between atoms: N_5  and  C_6
REMARK    3  A    between atoms: C_6  and  C_7
REMARK    4  A    between atoms: C_7  and  C_9
REMARK                            x       y       z     vdW  Elec       q    Type
REMARK                         _______ _______ _______ _____ _____    ______ ____
ROOT
ATOM      1  C   UNL     1      -0.370  -0.941   0.506  0.00  0.00    +0.192 C 
ATOM      2  O   UNL     1      -0.463  -1.410  -0.946  0.00  0.00    -0.217 OA
ENDROOT
BRANCH   1   3
ATOM      3  C   UNL     1       1.095  -0.285   0.287  0.00  0.00    +0.015 A 
ATOM      4  C   UNL     1       2.105  -1.178   0.423  0.00  0.00    +0.040 A 
ATOM      5  C   UNL     1       3.362  -0.751   0.021  0.00  0.00    +0.199 A 
ATOM      6  O   UNL     1       4.318  -1.730  -0.241  0.00  0.00    -0.286 OA
ATOM      7  C   UNL     1       3.518   0.561  -0.404  0.00  0.00    +0.084 A 
ATOM      8  C   UNL     1       2.482   1.459  -0.273  0.00  0.00    +0.199 A 
ATOM      9  O   UNL     1       2.635   2.701  -0.873  0.00  0.00    -0.286 OA
ATOM     10  C   UNL     1       1.239   1.016   0.156  0.00  0.00    +0.040 A 
ENDBRANCH   1   3
BRANCH   1  11
ATOM     11  C   UNL     1      -1.262   0.434   0.168  0.00  0.00    +0.126 C 
BRANCH  11  12
ATOM     12  N   UNL     1      -2.438  -0.228   0.282  0.00  0.00    -0.218 NA
BRANCH  12  14
ATOM     13  C   UNL     1      -4.247   0.860   0.801  0.00  0.00    +0.017 C 
ATOM     14  C   UNL     1      -3.707   0.108  -0.123  0.00  0.00    +0.060 C 
ATOM     15  C   UNL     1      -4.380  -1.272  -0.153  0.00  0.00    +0.017 C 
ATOM     16  C   UNL     1      -3.887   0.656  -1.523  0.00  0.00    +0.017 C 
ENDBRANCH  12  14
ENDBRANCH  11  12
ENDBRANCH   1  11
TORSDOF 4
