REMARK  Name = 
REMARK  7 active torsions:
REMARK  status: ('A' for Active; 'I' for Inactive)
REMARK    1  A    between atoms: O_2  and  C_3
REMARK    2  A    between atoms: C_7  and  C_8
REMARK    3  A    between atoms: C_8  and  S_9
REMARK    4  A    between atoms: S_9  and  C_11
REMARK    5  A    between atoms: C_16  and  O_17
REMARK    6  A    between atoms: O_17  and  C_18
REMARK    7  A    between atoms: C_24  and  O_25
REMARK                            x       y       z     vdW  Elec       q    Type
REMARK                         _______ _______ _______ _____ _____    ______ ____
ROOT
ATOM      1  S   UNL     1       0.923   0.679   1.949  0.00  0.00    +0.107 S 
ATOM      2  O   UNL     1       0.402  -0.243   3.092  0.00  0.00    -0.248 OA
ENDROOT
BRANCH   1   3
ATOM      3  C   UNL     1      -0.405   0.470   0.734  0.00  0.00    +0.221 A 
ATOM      4  N   UNL     1      -1.445   1.320   0.548  0.00  0.00    -0.218 NA
ATOM      5  C   UNL     1      -2.499   0.648   0.024  0.00  0.00    +0.104 A 
ATOM      6  C   UNL     1      -1.921  -0.479  -0.548  0.00  0.00    +0.101 A 
ATOM      7  C   UNL     1      -2.788  -1.408  -1.106  0.00  0.00    +0.024 A 
ATOM      8  C   UNL     1      -4.156  -1.363  -0.868  0.00  0.00    +0.039 A 
ATOM      9  C   UNL     1      -4.686  -0.411  -0.005  0.00  0.00    +0.146 A 
ATOM     10  C   UNL     1      -3.874   0.691   0.229  0.00  0.00    +0.058 A 
ATOM     11  N   UNL     1      -0.714  -0.632   0.050  0.00  0.00    -0.218 NA
BRANCH   9  12
ATOM     12  O   UNL     1      -5.720  -0.768   0.866  0.00  0.00    -0.424 OA
BRANCH  12  13
ATOM     13  C   UNL     1      -7.066  -0.437   0.636  0.00  0.00    +0.509 C 
ATOM     14  F   UNL     1      -7.592  -1.094  -0.446  0.00  0.00    -0.155 F 
ATOM     15  F   UNL     1      -7.263   0.921   0.604  0.00  0.00    -0.155 F 
ENDBRANCH  12  13
ENDBRANCH   9  12
ENDBRANCH   1   3
BRANCH   1  16
ATOM     16  C   UNL     1       2.232  -0.407   1.245  0.00  0.00    +0.148 C 
BRANCH  16  19
ATOM     17  C   UNL     1       5.400   0.356  -0.555  0.00  0.00    +0.175 A 
ATOM     18  C   UNL     1       4.103  -0.060  -0.297  0.00  0.00    +0.187 A 
ATOM     19  C   UNL     1       3.378   0.414   0.787  0.00  0.00    +0.110 A 
ATOM     20  N   UNL     1       3.913   1.356   1.579  0.00  0.00    -0.244 NA
ATOM     21  C   UNL     1       5.124   1.883   1.292  0.00  0.00    +0.102 A 
ATOM     22  C   UNL     1       5.919   1.314   0.305  0.00  0.00    +0.061 A 
BRANCH  17  24
ATOM     23  C   UNL     1       6.321  -1.666  -1.170  0.00  0.00    +0.253 C 
ATOM     24  O   UNL     1       6.240  -0.399  -1.378  0.00  0.00    -0.468 OA
ENDBRANCH  17  24
BRANCH  18  25
ATOM     25  O   UNL     1       3.433  -0.725  -1.327  0.00  0.00    -0.467 OA
ATOM     26  C   UNL     1       2.742   0.040  -2.283  0.00  0.00    +0.253 C 
ENDBRANCH  18  25
ENDBRANCH  16  19
ENDBRANCH   1  16
TORSDOF 7
