REMARK  Name = 
REMARK  4 active torsions:
REMARK  status: ('A' for Active; 'I' for Inactive)
REMARK    1  A    between atoms: C_2  and  C_3
REMARK    2  A    between atoms: C_3  and  C_4
REMARK    3  A    between atoms: C_3  and  C_8
REMARK    4  A    between atoms: C_4  and  C_5
REMARK                            x       y       z     vdW  Elec       q    Type
REMARK                         _______ _______ _______ _____ _____    ______ ____
ROOT
ATOM      1  C   UNL     1       1.157   1.163  -0.050  0.00  0.00    +0.053 C 
ENDROOT
BRANCH   1   2
ATOM      2  C   UNL     1      -0.111   0.290  -0.514  0.00  0.00    -0.020 A 
ATOM      3  C   UNL     1      -0.461  -0.810   0.176  0.00  0.00    -0.003 A 
ATOM      4  C   UNL     1      -1.702  -1.376  -0.089  0.00  0.00    +0.011 A 
ATOM      5  C   UNL     1      -2.753  -0.487  -0.288  0.00  0.00    +0.058 A 
ATOM      6 CL   UNL     1      -4.339  -0.922   0.274  0.00  0.00    -0.082 Cl
ATOM      7  C   UNL     1      -2.466   0.639  -1.029  0.00  0.00    +0.011 A 
ATOM      8  C   UNL     1      -1.157   1.103  -0.943  0.00  0.00    -0.003 A 
ENDBRANCH   1   2
BRANCH   1  10
ATOM      9  N   UNL     1       1.385   2.539   1.944  0.00  0.00    -0.131 NA
ATOM     10  C   UNL     1       0.430   1.668   1.335  0.00  0.00    +0.114 C 
ENDBRANCH   1  10
BRANCH   1  11
ATOM     11  C   UNL     1       1.912  -0.069   0.734  0.00  0.00    +0.120 C 
BRANCH  11  12
ATOM     12  C   UNL     1       2.343  -1.008  -0.348  0.00  0.00    +0.365 C 
ATOM     13  O   UNL     1       3.357  -0.507  -1.171  0.00  0.00    -0.246 OA
ATOM     14  O   UNL     1       2.405  -2.224  -0.032  0.00  0.00    -0.246 OA
ENDBRANCH  11  12
ENDBRANCH   1  11
TORSDOF 4
