REMARK  Name = 
REMARK  1 active torsions:
REMARK  status: ('A' for Active; 'I' for Inactive)
REMARK    1  A    between atoms: C_3  and  C_4
REMARK                            x       y       z     vdW  Elec       q    Type
REMARK                         _______ _______ _______ _____ _____    ______ ____
ROOT
ATOM      1  C   UNL     1      -1.055   1.975  -0.350  0.00  0.00    +0.020 C 
ATOM      2  C   UNL     1      -1.313   0.574   0.476  0.00  0.00    +0.089 C 
ATOM      3  N   UNL     1      -2.714   0.284  -0.168  0.00  0.00    -0.268 NA
ATOM      4  C   UNL     1      -3.284   1.385  -0.747  0.00  0.00    +0.090 C 
ATOM      5  C   UNL     1      -2.711  -0.980  -0.757  0.00  0.00    +0.105 C 
ATOM      6  C   UNL     1      -1.935  -1.963   0.071  0.00  0.00    +0.160 C 
ATOM      7  O   UNL     1      -0.573  -1.624   0.141  0.00  0.00    -0.349 OA
ATOM      8  C   UNL     1      -0.467  -0.366  -0.736  0.00  0.00    +0.152 C 
ENDROOT
BRANCH   8   9
ATOM      9  C   UNL     1       0.981   0.075  -0.116  0.00  0.00    +0.006 A 
ATOM     10  C   UNL     1       1.850  -0.949   0.159  0.00  0.00    -0.002 A 
ATOM     11  C   UNL     1       3.182  -0.580   0.322  0.00  0.00    -0.000 A 
ATOM     12  C   UNL     1       3.699   0.101  -0.775  0.00  0.00    -0.000 A 
ATOM     13  C   UNL     1       2.848   1.053  -1.327  0.00  0.00    -0.000 A 
ATOM     14  C   UNL     1       1.492   1.015  -1.016  0.00  0.00    -0.002 A 
ENDBRANCH   8   9
TORSDOF 1
