REMARK  Name = 
REMARK  9 active torsions:
REMARK  status: ('A' for Active; 'I' for Inactive)
REMARK    1  A    between atoms: C_2  and  C_4
REMARK    2  A    between atoms: C_4  and  C_5
REMARK    3  A    between atoms: C_5  and  N_6
REMARK    4  A    between atoms: C_5  and  B_26
REMARK    5  A    between atoms: C_7  and  C_9
REMARK    6  A    between atoms: C_9  and  C_10
REMARK    7  A    between atoms: C_9  and  N_17
REMARK    8  A    between atoms: C_10  and  C_11
REMARK    9  A    between atoms: C_18  and  C_20
REMARK                            x       y       z     vdW  Elec       q    Type
REMARK                         _______ _______ _______ _____ _____    ______ ____
ROOT
ATOM      1  C   UNL     1      -0.394  -0.935  -0.254  0.00  0.00    +0.000 C 
ENDROOT
BRANCH   1   3
ATOM      2  N   UNL     1       2.048  -0.401   0.051  0.00  0.00    +0.000 NA
ATOM      3  C   UNL     1       0.888  -0.008  -0.671  0.00  0.00    +0.000 C 
ATOM      4  O   UNL     1       0.865   0.489  -1.795  0.00  0.00    +0.000 OA
BRANCH   2   5
ATOM      5  C   UNL     1       3.357   0.149  -0.641  0.00  0.00    +0.000 C 
BRANCH   5   6
ATOM      6  B   UNL     1       4.384  -0.480   0.594  0.00  0.00    +0.000 B 
ATOM      7  O   UNL     1       4.027  -0.235   1.955  0.00  0.00    +0.000 OA
ATOM      8  O   UNL     1       5.234  -1.550   0.102  0.00  0.00    +0.000 OA
ENDBRANCH   5   6
BRANCH   5   9
ATOM      9  C   UNL     1       3.212   1.617   0.097  0.00  0.00    +0.000 C 
BRANCH   9  11
ATOM     10  C   UNL     1       4.971   2.958   1.176  0.00  0.00    +0.000 C 
ATOM     11  C   UNL     1       4.555   2.237   0.094  0.00  0.00    +0.000 C 
ATOM     12  C   UNL     1       5.561   1.637  -0.819  0.00  0.00    +0.000 C 
ENDBRANCH   9  11
ENDBRANCH   5   9
ENDBRANCH   2   5
ENDBRANCH   1   3
BRANCH   1  13
ATOM     13  N   UNL     1      -1.443   0.203  -0.661  0.00  0.00    +0.000 NA
ATOM     14  C   UNL     1      -1.446   1.239   0.298  0.00  0.00    +0.000 C 
ATOM     15  O   UNL     1      -0.339   1.823   0.447  0.00  0.00    +0.000 OA
BRANCH  14  16
ATOM     16  C   UNL     1      -2.618   1.801   0.933  0.00  0.00    +0.000 A 
ATOM     17  N   UNL     1      -2.459   2.683   1.946  0.00  0.00    +0.000 NA
ATOM     18  C   UNL     1      -3.405   3.612   2.225  0.00  0.00    +0.000 A 
ATOM     19  C   UNL     1      -4.539   3.592   1.422  0.00  0.00    +0.000 A 
ATOM     20  N   UNL     1      -4.922   2.361   1.002  0.00  0.00    +0.000 NA
ATOM     21  C   UNL     1      -3.910   1.610   0.503  0.00  0.00    +0.000 A 
ENDBRANCH  14  16
ENDBRANCH   1  13
BRANCH   1  22
ATOM     22  C   UNL     1      -0.495  -1.642  -1.765  0.00  0.00    +0.000 C 
BRANCH  22  23
ATOM     23  C   UNL     1      -1.465  -2.737  -1.574  0.00  0.00    +0.000 A 
ATOM     24  C   UNL     1      -1.132  -4.040  -1.858  0.00  0.00    +0.000 A 
ATOM     25  C   UNL     1      -1.703  -5.071  -1.125  0.00  0.00    +0.000 A 
ATOM     26  C   UNL     1      -2.715  -4.780  -0.219  0.00  0.00    +0.000 A 
ATOM     27  C   UNL     1      -3.409  -3.602  -0.467  0.00  0.00    +0.000 A 
ATOM     28  C   UNL     1      -2.707  -2.530  -0.996  0.00  0.00    +0.000 A 
ENDBRANCH  22  23
ENDBRANCH   1  22
TORSDOF 9
