REMARK  Name = 
REMARK  4 active torsions:
REMARK  status: ('A' for Active; 'I' for Inactive)
REMARK    1  A    between atoms: O_2  and  C_3
REMARK    2  A    between atoms: C_3  and  C_5
REMARK    3  A    between atoms: C_5  and  C_6
REMARK    4  A    between atoms: C_5  and  C_12
REMARK                            x       y       z     vdW  Elec       q    Type
REMARK                         _______ _______ _______ _____ _____    ______ ____
ROOT
ATOM      1  C   UNL     1       0.033   0.283  -0.609  0.00  0.00    +0.137 C 
ENDROOT
BRANCH   1   2
ATOM      2  C   UNL     1       1.202  -0.200   0.589  0.00  0.00    +0.087 C 
ATOM      3  N   UNL     1       2.353   0.566  -0.175  0.00  0.00    -0.219 NA
ATOM      4  C   UNL     1       3.588   0.130   0.419  0.00  0.00    +0.089 C 
ATOM      5  C   UNL     1       3.903  -1.233  -0.185  0.00  0.00    +0.019 C 
ATOM      6  C   UNL     1       2.777  -2.144   0.291  0.00  0.00    +0.003 C 
ATOM      7  C   UNL     1       1.492  -1.598  -0.233  0.00  0.00    +0.018 C 
ENDBRANCH   1   2
BRANCH   1   8
ATOM      8  C   UNL     1      -1.155  -0.507   0.142  0.00  0.00    -0.011 A 
ATOM      9  C   UNL     1      -1.714  -1.440  -0.692  0.00  0.00    -0.004 A 
ATOM     10  C   UNL     1      -2.930  -1.976  -0.319  0.00  0.00    -0.000 A 
ATOM     11  C   UNL     1      -3.648  -1.442   0.740  0.00  0.00    -0.000 A 
ATOM     12  C   UNL     1      -2.954  -0.627   1.592  0.00  0.00    -0.000 A 
ATOM     13  C   UNL     1      -1.705  -0.096   1.271  0.00  0.00    -0.004 A 
ENDBRANCH   1   8
BRANCH   1  14
ATOM     14  C   UNL     1      -0.279   1.715   0.077  0.00  0.00    +0.322 C 
ATOM     15  O   UNL     1      -0.096   1.843   1.277  0.00  0.00    -0.250 OA
BRANCH  14  17
ATOM     16  C   UNL     1      -0.529   4.020  -0.424  0.00  0.00    +0.256 C 
ATOM     17  O   UNL     1      -0.338   2.704  -0.879  0.00  0.00    -0.444 OA
ENDBRANCH  14  17
ENDBRANCH   1  14
TORSDOF 4
