REMARK  Name = 
REMARK  4 active torsions:
REMARK  status: ('A' for Active; 'I' for Inactive)
REMARK    1  A    between atoms: C_9  and  O_10
REMARK    2  A    between atoms: O_10  and  C_11
REMARK    3  A    between atoms: C_11  and  C_13
REMARK    4  A    between atoms: C_13  and  C_15
REMARK                            x       y       z     vdW  Elec       q    Type
REMARK                         _______ _______ _______ _____ _____    ______ ____
ROOT
ATOM      1  O   UNL     1       0.346   0.230   0.106  0.00  0.00    -0.450 OA
ENDROOT
BRANCH   1   6
ATOM      2  C   UNL     1      -2.912   1.798  -0.614  0.00  0.00    +0.170 C 
ATOM      3  N   UNL     1      -3.410   0.904  -0.356  0.00  0.00    +0.298 N 
ATOM      4  C   UNL     1      -2.530  -0.393  -0.218  0.00  0.00    +0.062 C 
ATOM      5  C   UNL     1      -1.537   0.076  -1.424  0.00  0.00    +0.099 C 
ATOM      6  C   UNL     1      -0.955   0.631  -0.086  0.00  0.00    +0.180 C 
ATOM      7  C   UNL     1      -1.641   0.095   1.167  0.00  0.00    +0.099 C 
ATOM      8  C   UNL     1      -3.678  -1.321  -0.847  0.00  0.00    +0.061 C 
ATOM      9  C   UNL     1      -3.779  -1.226   0.721  0.00  0.00    +0.061 C 
ATOM     10  C   UNL     1      -3.280   0.318   1.130  0.00  0.00    +0.062 C 
ATOM     11  C   UNL     1      -4.693   1.038  -0.019  0.00  0.00    +0.170 C 
ENDBRANCH   1   6
BRANCH   1  12
ATOM     12  C   UNL     1       0.669  -1.081   0.306  0.00  0.00    +0.352 C 
ATOM     13  O   UNL     1      -0.095  -1.985   0.596  0.00  0.00    -0.247 OA
BRANCH  12  14
ATOM     14  C   UNL     1       2.104  -1.323   1.051  0.00  0.00    +0.272 C 
ATOM     15  O   UNL     1       2.441  -2.444   0.063  0.00  0.00    -0.206 OA
BRANCH  14  16
ATOM     16  C   UNL     1       2.884  -0.208   0.136  0.00  0.00    +0.019 A 
ATOM     17  C   UNL     1       2.628   1.102   0.563  0.00  0.00    -0.001 A 
ATOM     18  C   UNL     1       3.535   2.087   0.305  0.00  0.00    -0.000 A 
ATOM     19  C   UNL     1       4.715   1.758  -0.345  0.00  0.00    -0.000 A 
ATOM     20  C   UNL     1       5.009   0.449  -0.630  0.00  0.00    -0.000 A 
ATOM     21  C   UNL     1       4.178  -0.506  -0.120  0.00  0.00    -0.001 A 
ENDBRANCH  14  16
ENDBRANCH  12  14
ENDBRANCH   1  12
TORSDOF 4
