REMARK  Name = 
REMARK  22 active torsions:
REMARK  status: ('A' for Active; 'I' for Inactive)
REMARK    1  A    between atoms: O_2  and  C_3
REMARK    2  A    between atoms: C_3  and  C_4
REMARK    3  A    between atoms: C_4  and  N_5
REMARK    4  A    between atoms: C_6  and  C_8
REMARK    5  A    between atoms: C_8  and  N_9
REMARK    6  A    between atoms: N_9  and  C_10
REMARK    7  A    between atoms: N_9  and  C_32
REMARK    8  A    between atoms: C_10  and  C_11
REMARK    9  A    between atoms: C_11  and  N_12
REMARK   10  A    between atoms: N_12  and  C_13
REMARK   11  A    between atoms: N_12  and  C_28
REMARK   12  A    between atoms: C_13  and  C_14
REMARK   13  A    between atoms: C_14  and  N_15
REMARK   14  A    between atoms: N_15  and  C_16
REMARK   15  A    between atoms: N_15  and  C_20
REMARK   16  A    between atoms: C_16  and  C_17
REMARK   17  A    between atoms: C_20  and  C_21
REMARK   18  A    between atoms: N_23  and  C_24
REMARK   19  A    between atoms: C_24  and  C_25
REMARK   20  A    between atoms: C_25  and  O_26
REMARK   21  A    between atoms: C_28  and  C_29
REMARK   22  A    between atoms: C_32  and  C_33
REMARK                            x       y       z     vdW  Elec       q    Type
REMARK                         _______ _______ _______ _____ _____    ______ ____
ROOT
ATOM      1  N   UNL     1      -0.200  -0.367   0.643  0.00  0.00    -0.261 NA
ENDROOT
BRANCH   1   2
ATOM      2  C   UNL     1      -1.606  -0.120   0.667  0.00  0.00    +0.090 C 
BRANCH   2   3
ATOM      3  C   UNL     1      -2.340  -0.543  -0.569  0.00  0.00    +0.090 C 
BRANCH   3   4
ATOM      4  N   UNL     1      -3.504  -1.341  -0.282  0.00  0.00    -0.254 NA
BRANCH   4   5
ATOM      5  C   UNL     1      -4.747  -0.645  -0.474  0.00  0.00    +0.161 C 
BRANCH   5   7
ATOM      6  N   UNL     1      -4.333   1.802  -0.811  0.00  0.00    -0.202 NA
ATOM      7  C   UNL     1      -4.731   0.740   0.052  0.00  0.00    +0.258 C 
ATOM      8  O   UNL     1      -4.776   0.995   1.289  0.00  0.00    -0.272 OA
BRANCH   6   9
ATOM      9  C   UNL     1      -4.385   3.168  -0.347  0.00  0.00    +0.147 C 
BRANCH   9  10
ATOM     10  C   UNL     1      -5.813   3.677  -0.473  0.00  0.00    +0.166 C 
BRANCH  10  12
ATOM     11  C   UNL     1      -7.128   4.143   1.328  0.00  0.00    +0.174 C 
ATOM     12  O   UNL     1      -6.562   3.144   0.559  0.00  0.00    -0.349 OA
ENDBRANCH  10  12
ENDBRANCH   9  10
ENDBRANCH   6   9
ENDBRANCH   5   7
ENDBRANCH   4   5
BRANCH   4  13
ATOM     13  C   UNL     1      -3.447  -1.968   1.029  0.00  0.00    +0.188 C 
BRANCH  13  14
ATOM     14  C   UNL     1      -3.569  -3.440   0.779  0.00  0.00    +0.381 C 
ATOM     15  O   UNL     1      -4.845  -3.863   0.392  0.00  0.00    -0.244 OA
ATOM     16  O   UNL     1      -2.617  -3.940   0.107  0.00  0.00    -0.244 OA
ENDBRANCH  13  14
ENDBRANCH   4  13
ENDBRANCH   3   4
ENDBRANCH   2   3
ENDBRANCH   1   2
BRANCH   1  17
ATOM     17  C   UNL     1       0.474  -0.023  -0.564  0.00  0.00    +0.090 C 
BRANCH  17  18
ATOM     18  C   UNL     1       1.877  -0.556  -0.502  0.00  0.00    +0.090 C 
BRANCH  18  19
ATOM     19  N   UNL     1       2.802   0.303   0.180  0.00  0.00    -0.254 NA
BRANCH  19  20
ATOM     20  C   UNL     1       3.892  -0.489   0.716  0.00  0.00    +0.161 C 
BRANCH  20  21
ATOM     21  C   UNL     1       4.892  -0.849  -0.321  0.00  0.00    +0.258 C 
ATOM     22  N   UNL     1       6.247  -1.121   0.057  0.00  0.00    -0.202 NA
ATOM     23  O   UNL     1       4.662  -0.732  -1.562  0.00  0.00    -0.272 OA
BRANCH  22  24
ATOM     24  C   UNL     1       7.301  -0.930  -0.934  0.00  0.00    +0.147 C 
BRANCH  24  25
ATOM     25  C   UNL     1       7.497   0.541  -1.162  0.00  0.00    +0.166 C 
BRANCH  25  26
ATOM     26  O   UNL     1       7.824   1.125   0.071  0.00  0.00    -0.349 OA
ATOM     27  C   UNL     1       6.914   2.144   0.380  0.00  0.00    +0.174 C 
ENDBRANCH  25  26
ENDBRANCH  24  25
ENDBRANCH  22  24
ENDBRANCH  20  21
ENDBRANCH  19  20
BRANCH  19  28
ATOM     28  C   UNL     1       2.201   1.135   1.188  0.00  0.00    +0.188 C 
BRANCH  28  29
ATOM     29  C   UNL     1       2.355   2.556   0.794  0.00  0.00    +0.381 C 
ATOM     30  O   UNL     1       1.787   3.552   1.565  0.00  0.00    -0.244 OA
ATOM     31  O   UNL     1       2.928   2.887  -0.286  0.00  0.00    -0.244 OA
ENDBRANCH  28  29
ENDBRANCH  19  28
ENDBRANCH  18  19
ENDBRANCH  17  18
ENDBRANCH   1  17
BRANCH   1  32
ATOM     32  C   UNL     1       0.231  -1.555   1.290  0.00  0.00    +0.188 C 
BRANCH  32  33
ATOM     33  C   UNL     1       0.342  -2.741   0.431  0.00  0.00    +0.381 C 
ATOM     34  O   UNL     1      -0.175  -2.843  -0.854  0.00  0.00    -0.244 OA
ATOM     35  O   UNL     1       0.553  -3.847   1.015  0.00  0.00    -0.244 OA
ENDBRANCH  32  33
ENDBRANCH   1  32
TORSDOF 22
