REMARK  Name = 
REMARK  0 active torsions:
REMARK  status: ('A' for Active; 'I' for Inactive)
REMARK                            x       y       z     vdW  Elec       q    Type
REMARK                         _______ _______ _______ _____ _____    ______ ____
ROOT
ATOM      1  O   UNL     1      -1.323   2.331   0.287  0.00  0.00    -0.285 OA
ATOM      2  C   UNL     1      -1.197   0.970   0.008  0.00  0.00    +0.213 A 
ATOM      3  C   UNL     1       0.020   0.408  -0.350  0.00  0.00    +0.120 A 
ATOM      4  C   UNL     1       0.262  -0.923  -0.044  0.00  0.00    +0.021 A 
ATOM      5  C   UNL     1       1.489  -1.380   0.382  0.00  0.00    +0.003 A 
ATOM      6  C   UNL     1       2.568  -0.523   0.330  0.00  0.00    +0.021 A 
ATOM      7  C   UNL     1       2.348   0.739  -0.195  0.00  0.00    +0.099 A 
ATOM      8  C   UNL     1      -0.856  -1.737   0.052  0.00  0.00    +0.002 A 
ATOM      9  C   UNL     1      -2.120  -1.221   0.057  0.00  0.00    +0.003 A 
ATOM     10  N   UNL     1       1.110   1.181  -0.512  0.00  0.00    -0.241 NA
ATOM     11  C   UNL     1      -2.301   0.155  -0.015  0.00  0.00    +0.044 A 
ENDROOT
TORSDOF 0
