REMARK  Name = 
REMARK  2 active torsions:
REMARK  status: ('A' for Active; 'I' for Inactive)
REMARK    1  A    between atoms: C_27  and  C_28
REMARK    2  A    between atoms: C_28  and  C_30
REMARK                            x       y       z     vdW  Elec       q    Type
REMARK                         _______ _______ _______ _____ _____    ______ ____
ROOT
ATOM      1  C   UNL     1      -2.788  -2.285  -0.135  0.00  0.00    +0.061 C 
ATOM      2  C   UNL     1      -3.250  -1.650  -0.269  0.00  0.00    +0.188 C 
ATOM      3  O   UNL     1      -3.368  -0.929   0.898  0.00  0.00    -0.330 OA
ATOM      4  C   UNL     1      -2.712   0.236   0.715  0.00  0.00    +0.173 C 
ATOM      5  C   UNL     1      -3.183   0.564  -0.827  0.00  0.00    +0.149 C 
ATOM      6  C   UNL     1      -1.712   1.137  -1.330  0.00  0.00    +0.033 C 
ATOM      7  C   UNL     1      -0.890  -0.086  -0.677  0.00  0.00    +0.008 C 
ATOM      8  C   UNL     1       0.585   0.714  -0.470  0.00  0.00    +0.036 C 
ATOM      9  C   UNL     1       1.299  -0.679  -0.112  0.00  0.00    +0.168 C 
ATOM     10  C   UNL     1       0.389  -1.387   1.040  0.00  0.00    +0.182 C 
ATOM     11  C   UNL     1      -0.335  -0.034   1.652  0.00  0.00    +0.038 C 
ATOM     12  O   UNL     1       1.473  -1.325   2.109  0.00  0.00    -0.220 OA
ATOM     13  F   UNL     1       1.102  -1.565  -1.127  0.00  0.00    -0.237 F 
ATOM     14  C   UNL     1       2.630  -0.331   0.242  0.00  0.00    +0.066 C 
ATOM     15  C   UNL     1       3.194   0.137  -1.072  0.00  0.00    -0.003 C 
ATOM     16  C   UNL     1       4.484   0.476  -0.962  0.00  0.00    +0.036 C 
ATOM     17  C   UNL     1       5.383  -0.220  -0.036  0.00  0.00    +0.195 C 
ATOM     18  C   UNL     1       4.792  -1.350   0.694  0.00  0.00    +0.038 C 
ATOM     19  O   UNL     1       6.639  -0.062  -0.113  0.00  0.00    -0.287 OA
ATOM     20  C   UNL     1       2.461   1.456  -1.677  0.00  0.00    +0.180 C 
ATOM     21  F   UNL     1       3.011   1.183  -3.058  0.00  0.00    -0.233 F 
ATOM     22  C   UNL     1       2.697   0.763   1.264  0.00  0.00    +0.011 C 
ATOM     23  C   UNL     1       3.481  -1.503   0.563  0.00  0.00    -0.017 C 
ATOM     24  C   UNL     1       1.050   0.657  -2.027  0.00  0.00    +0.042 C 
ATOM     25  C   UNL     1      -1.346   0.457   0.779  0.00  0.00    +0.034 C 
ATOM     26  C   UNL     1      -1.158   1.984   0.768  0.00  0.00    +0.003 C 
ATOM     27  O   UNL     1      -2.917  -0.845  -1.312  0.00  0.00    -0.334 OA
ATOM     28  C   UNL     1      -4.591  -2.356  -0.448  0.00  0.00    +0.061 C 
ENDROOT
BRANCH   4  29
ATOM     29  C   UNL     1      -3.476   1.312   1.436  0.00  0.00    +0.210 C 
ATOM     30  O   UNL     1      -3.078   1.785   2.499  0.00  0.00    -0.291 OA
BRANCH  29  31
ATOM     31  C   UNL     1      -4.893   1.651   1.088  0.00  0.00    +0.248 C 
ATOM     32  O   UNL     1      -4.974   2.402  -0.094  0.00  0.00    -0.212 OA
ENDBRANCH  29  31
ENDBRANCH   4  29
TORSDOF 2
