REMARK  Name = 
REMARK  5 active torsions:
REMARK  status: ('A' for Active; 'I' for Inactive)
REMARK    1  A    between atoms: C_2  and  C_3
REMARK    2  A    between atoms: C_4  and  C_5
REMARK    3  A    between atoms: C_6  and  C_8
REMARK    4  A    between atoms: C_9  and  C_10
REMARK    5  A    between atoms: C_19  and  C_20
REMARK                            x       y       z     vdW  Elec       q    Type
REMARK                         _______ _______ _______ _____ _____    ______ ____
ROOT
ATOM      1  C   UNL     1      -1.002  -0.584  -1.942  0.00  0.00    -0.004 C 
ATOM      2  C   UNL     1       0.246  -0.759  -1.523  0.00  0.00    -0.022 C 
ATOM      3  C   UNL     1       1.163  -1.471  -2.459  0.00  0.00    +0.031 C 
ENDROOT
BRANCH   1   5
ATOM      4  C   UNL     1      -2.678  -0.907  -0.178  0.00  0.00    -0.004 C 
ATOM      5  C   UNL     1      -2.097  -0.174  -1.093  0.00  0.00    -0.001 C 
BRANCH   4   7
ATOM      6  C   UNL     1      -4.533  -2.597  -0.289  0.00  0.00    +0.031 C 
ATOM      7  C   UNL     1      -4.118  -1.173  -0.120  0.00  0.00    -0.015 C 
ATOM      8  C   UNL     1      -5.033  -0.243  -0.273  0.00  0.00    +0.082 C 
BRANCH   8   9
ATOM      9  C   UNL     1      -4.657   1.133  -0.044  0.00  0.00    +0.388 C 
ATOM     10  O   UNL     1      -5.339   2.110  -0.777  0.00  0.00    -0.241 OA
ATOM     11  O   UNL     1      -4.169   1.532   1.056  0.00  0.00    -0.241 OA
ENDBRANCH   8   9
ENDBRANCH   4   7
ENDBRANCH   1   5
BRANCH   2  12
ATOM     12  C   UNL     1       0.411  -1.072  -0.099  0.00  0.00    -0.005 C 
ATOM     13  C   UNL     1       1.149  -0.231   0.595  0.00  0.00    -0.005 C 
BRANCH  13  14
ATOM     14  C   UNL     1       2.464   0.108   0.038  0.00  0.00    -0.031 C 
ATOM     15  C   UNL     1       3.620  -0.527   0.743  0.00  0.00    +0.018 C 
ATOM     16  C   UNL     1       3.333  -0.426   2.236  0.00  0.00    +0.004 C 
ATOM     17  C   UNL     1       3.741  -1.990   0.416  0.00  0.00    +0.004 C 
ATOM     18  C   UNL     1       4.924   0.153   0.448  0.00  0.00    +0.004 C 
ATOM     19  C   UNL     1       4.754   1.665   0.411  0.00  0.00    +0.005 C 
ATOM     20  C   UNL     1       3.882   1.956  -0.800  0.00  0.00    +0.022 C 
ATOM     21  C   UNL     1       2.562   1.291  -0.561  0.00  0.00    -0.048 C 
ATOM     22  C   UNL     1       1.377   2.206  -0.622  0.00  0.00    +0.026 C 
ENDBRANCH  13  14
ENDBRANCH   2  12
TORSDOF 5
