REMARK  Name = 
REMARK  2 active torsions:
REMARK  status: ('A' for Active; 'I' for Inactive)
REMARK    1  A    between atoms: C_5  and  C_6
REMARK    2  A    between atoms: C_15  and  N_16
REMARK                            x       y       z     vdW  Elec       q    Type
REMARK                         _______ _______ _______ _____ _____    ______ ____
ROOT
ATOM      1  O   UNL     1       0.193   4.564  -0.016  0.00  0.00    -0.271 OA
ATOM      2  C   UNL     1       0.293   3.376   0.416  0.00  0.00    +0.270 C 
ATOM      3  N   UNL     1       1.544   2.703   0.229  0.00  0.00    -0.177 NA
ATOM      4  C   UNL     1       1.657   1.274   0.263  0.00  0.00    +0.075 A 
ATOM      5  C   UNL     1       0.676   0.296   0.398  0.00  0.00    +0.039 A 
ATOM      6  C   UNL     1       0.917  -0.976  -0.111  0.00  0.00    +0.078 A 
ATOM      7  C   UNL     1       2.248  -1.300  -0.345  0.00  0.00    +0.290 A 
ATOM      8  C   UNL     1       3.248  -0.493   0.184  0.00  0.00    +0.077 A 
ATOM      9  C   UNL     1      -0.765   0.569   0.471  0.00  0.00    +0.079 C 
ATOM     10  N   UNL     1      -1.294   1.612   0.990  0.00  0.00    -0.260 NA
ATOM     11  C   UNL     1       2.985   0.868   0.229  0.00  0.00    +0.023 A 
ATOM     12  C   UNL     1      -0.830   2.936   1.299  0.00  0.00    +0.212 C 
ENDROOT
BRANCH   9  13
ATOM     13  C   UNL     1      -1.662  -0.364  -0.224  0.00  0.00    +0.028 A 
ATOM     14  C   UNL     1      -2.443  -1.186   0.545  0.00  0.00    +0.059 A 
ATOM     15 CL   UNL     1      -2.014  -1.537   2.204  0.00  0.00    -0.082 Cl
ATOM     16  C   UNL     1      -3.643  -1.677   0.056  0.00  0.00    +0.011 A 
ATOM     17  C   UNL     1      -3.987  -1.442  -1.265  0.00  0.00    +0.001 A 
ATOM     18  C   UNL     1      -3.444  -0.308  -1.852  0.00  0.00    +0.000 A 
ATOM     19  C   UNL     1      -2.167   0.051  -1.450  0.00  0.00    +0.002 A 
ENDBRANCH   9  13
BRANCH   7  20
ATOM     20  N   UNL     1       2.541  -2.653  -0.712  0.00  0.00    +0.081 N 
ATOM     21  O   UNL     1       2.997  -3.452   0.322  0.00  0.00    -0.576 OA
ATOM     22  O   UNL     1       2.951  -2.861  -1.881  0.00  0.00    +0.041 OA
ENDBRANCH   7  20
TORSDOF 2
