REMARK  Name = 
REMARK  17 active torsions:
REMARK  status: ('A' for Active; 'I' for Inactive)
REMARK    1  A    between atoms: C_2  and  O_4
REMARK    2  A    between atoms: O_4  and  C_5
REMARK    3  A    between atoms: C_5  and  O_7
REMARK    4  A    between atoms: O_7  and  C_8
REMARK    5  A    between atoms: C_8  and  O_9
REMARK    6  A    between atoms: O_9  and  P_10
REMARK    7  A    between atoms: P_10  and  C_12
REMARK    8  A    between atoms: P_10  and  O_27
REMARK    9  A    between atoms: C_12  and  O_13
REMARK   10  A    between atoms: O_13  and  C_14
REMARK   11  A    between atoms: C_14  and  C_16
REMARK   12  A    between atoms: C_16  and  N_17
REMARK   13  A    between atoms: O_27  and  C_28
REMARK   14  A    between atoms: C_28  and  O_29
REMARK   15  A    between atoms: O_29  and  C_30
REMARK   16  A    between atoms: C_30  and  O_32
REMARK   17  A    between atoms: O_32  and  C_33
REMARK                            x       y       z     vdW  Elec       q    Type
REMARK                         _______ _______ _______ _____ _____    ______ ____
ROOT
ATOM      1  P   UNL     1       1.286  -0.121   1.029  0.00  0.00    +0.378 P 
ATOM      2  O   UNL     1       1.419  -0.145   2.524  0.00  0.00    -0.255 OA
ENDROOT
BRANCH   1   3
ATOM      3  O   UNL     1       2.217   1.077   0.302  0.00  0.00    -0.250 OA
BRANCH   3   4
ATOM      4  C   UNL     1       2.598   2.065   1.187  0.00  0.00    +0.372 C 
BRANCH   4   5
ATOM      5  O   UNL     1       1.693   3.167   1.207  0.00  0.00    -0.387 OA
BRANCH   5   6
ATOM      6  C   UNL     1       1.790   4.231   0.318  0.00  0.00    +0.514 C 
ATOM      7  O   UNL     1       2.202   3.937  -0.843  0.00  0.00    -0.203 OA
BRANCH   6   8
ATOM      8  O   UNL     1       1.578   5.556   0.695  0.00  0.00    -0.422 OA
BRANCH   8   9
ATOM      9  C   UNL     1       2.080   6.574  -0.139  0.00  0.00    +0.173 C 
ATOM     10  C   UNL     1       3.584   6.560  -0.245  0.00  0.00    +0.047 C 
ATOM     11  C   UNL     1       1.513   7.926   0.161  0.00  0.00    +0.047 C 
ENDBRANCH   8   9
ENDBRANCH   6   8
ENDBRANCH   5   6
ENDBRANCH   4   5
ENDBRANCH   3   4
ENDBRANCH   1   3
BRANCH   1  12
ATOM     12  O   UNL     1       1.686  -1.640   0.391  0.00  0.00    -0.250 OA
BRANCH  12  13
ATOM     13  C   UNL     1       2.137  -1.461  -0.904  0.00  0.00    +0.372 C 
BRANCH  13  14
ATOM     14  O   UNL     1       3.537  -1.730  -0.884  0.00  0.00    -0.387 OA
BRANCH  14  15
ATOM     15  C   UNL     1       3.924  -2.986  -0.421  0.00  0.00    +0.514 C 
ATOM     16  O   UNL     1       3.358  -3.489   0.569  0.00  0.00    -0.203 OA
BRANCH  15  17
ATOM     17  O   UNL     1       5.011  -3.656  -0.948  0.00  0.00    -0.422 OA
BRANCH  17  19
ATOM     18  C   UNL     1       6.324  -5.011  -0.620  0.00  0.00    +0.047 C 
ATOM     19  C   UNL     1       5.900  -4.399  -0.138  0.00  0.00    +0.173 C 
ATOM     20  C   UNL     1       6.845  -3.425   0.555  0.00  0.00    +0.047 C 
ENDBRANCH  17  19
ENDBRANCH  15  17
ENDBRANCH  14  15
ENDBRANCH  13  14
ENDBRANCH  12  13
ENDBRANCH   1  12
BRANCH   1  21
ATOM     21  C   UNL     1      -0.436   0.196   0.600  0.00  0.00    +0.258 C 
BRANCH  21  22
ATOM     22  O   UNL     1      -0.810  -0.553  -0.529  0.00  0.00    -0.343 OA
BRANCH  22  23
ATOM     23  C   UNL     1      -1.012  -1.908   0.178  0.00  0.00    +0.139 C 
ATOM     24  C   UNL     1      -1.920  -2.515  -1.093  0.00  0.00    +0.034 C 
BRANCH  23  25
ATOM     25  C   UNL     1      -2.349  -1.335   0.998  0.00  0.00    +0.138 C 
BRANCH  25  26
ATOM     26  N   UNL     1      -3.279  -0.874   0.043  0.00  0.00    -0.292 N 
ATOM     27  C   UNL     1      -4.608  -0.946   0.312  0.00  0.00    +0.167 A 
ATOM     28  N   UNL     1      -5.340  -0.968   1.453  0.00  0.00    -0.205 NA
ATOM     29  C   UNL     1      -6.682  -0.780   1.448  0.00  0.00    +0.202 A 
ATOM     30  N   UNL     1      -7.363  -0.757   0.294  0.00  0.00    -0.204 NA
ATOM     31  C   UNL     1      -6.674  -0.697  -0.869  0.00  0.00    +0.192 A 
ATOM     32  N   UNL     1      -7.322  -0.876  -2.117  0.00  0.00    -0.105 NA
ATOM     33  C   UNL     1      -5.300  -0.549  -0.826  0.00  0.00    +0.152 A 
ATOM     34  N   UNL     1      -4.364  -0.336  -1.763  0.00  0.00    -0.219 NA
ATOM     35  C   UNL     1      -3.224  -0.131  -1.072  0.00  0.00    +0.180 A 
ENDBRANCH  25  26
ENDBRANCH  23  25
ENDBRANCH  22  23
ENDBRANCH  21  22
ENDBRANCH   1  21
TORSDOF 17
