REMARK  Name = 
REMARK  12 active torsions:
REMARK  status: ('A' for Active; 'I' for Inactive)
REMARK    1  A    between atoms: C_2  and  C_3
REMARK    2  A    between atoms: C_3  and  C_4
REMARK    3  A    between atoms: C_4  and  C_5
REMARK    4  A    between atoms: C_5  and  C_6
REMARK    5  A    between atoms: C_6  and  C_7
REMARK    6  A    between atoms: C_16  and  C_17
REMARK    7  A    between atoms: C_17  and  C_18
REMARK    8  A    between atoms: C_17  and  C_20
REMARK    9  A    between atoms: C_24  and  N_25
REMARK   10  A    between atoms: N_25  and  S_26
REMARK   11  A    between atoms: S_26  and  C_29
REMARK   12  A    between atoms: C_32  and  C_33
REMARK                            x       y       z     vdW  Elec       q    Type
REMARK                         _______ _______ _______ _____ _____    ______ ____
ROOT
ATOM      1  C   UNL     1       0.288   0.552   0.911  0.00  0.00    +0.054 C 
ENDROOT
BRANCH   1   6
ATOM      2  C   UNL     1      -3.966  -0.521   1.452  0.00  0.00    +0.144 C 
ATOM      3  O   UNL     1      -2.894  -1.306   1.886  0.00  0.00    -0.452 OA
ATOM      4  C   UNL     1      -1.596  -0.812   2.036  0.00  0.00    +0.340 C 
ATOM      5  O   UNL     1      -0.799  -1.265   2.886  0.00  0.00    -0.245 OA
ATOM      6  C   UNL     1      -1.294   0.415   1.296  0.00  0.00    +0.092 C 
ATOM      7  C   UNL     1      -2.148   0.854   0.432  0.00  0.00    +0.179 C 
ATOM      8  O   UNL     1      -1.778   1.961  -0.340  0.00  0.00    -0.291 OA
ATOM      9  C   UNL     1      -3.593   0.730   0.732  0.00  0.00    +0.109 C 
BRANCH   2  10
ATOM     10  C   UNL     1      -4.749  -0.099   2.691  0.00  0.00    +0.041 C 
BRANCH  10  12
ATOM     11  C   UNL     1      -4.036   1.648   3.376  0.00  0.00    +0.000 C 
ATOM     12  C   UNL     1      -4.133   1.221   3.139  0.00  0.00    +0.004 C 
ENDBRANCH  10  12
ENDBRANCH   2  10
BRANCH   2  13
ATOM     13  C   UNL     1      -4.899  -1.419   0.664  0.00  0.00    +0.045 C 
BRANCH  13  14
ATOM     14  C   UNL     1      -5.173  -0.866  -0.721  0.00  0.00    +0.030 C 
BRANCH  14  15
ATOM     15  C   UNL     1      -6.620  -0.489  -0.743  0.00  0.00    -0.022 A 
ATOM     16  C   UNL     1      -7.479  -1.164  -1.572  0.00  0.00    -0.004 A 
ATOM     17  C   UNL     1      -8.830  -1.208  -1.304  0.00  0.00    -0.000 A 
ATOM     18  C   UNL     1      -9.292  -0.811  -0.064  0.00  0.00    -0.000 A 
ATOM     19  C   UNL     1      -8.549   0.173   0.574  0.00  0.00    -0.000 A 
ATOM     20  C   UNL     1      -7.196   0.256   0.279  0.00  0.00    -0.004 A 
ENDBRANCH  14  15
ENDBRANCH  13  14
ENDBRANCH   2  13
ENDBRANCH   1   6
BRANCH   1  21
ATOM     21  C   UNL     1       0.068   0.083  -0.645  0.00  0.00    -0.017 A 
ATOM     22  C   UNL     1       1.307   0.073  -1.280  0.00  0.00    +0.014 A 
ATOM     23  C   UNL     1       1.560  -0.711  -2.400  0.00  0.00    +0.091 A 
ATOM     24  C   UNL     1       0.520  -1.558  -2.762  0.00  0.00    +0.018 A 
ATOM     25  C   UNL     1      -0.632  -1.681  -2.017  0.00  0.00    +0.001 A 
ATOM     26  C   UNL     1      -0.619  -1.125  -0.742  0.00  0.00    -0.004 A 
BRANCH  23  27
ATOM     27  N   UNL     1       2.911  -1.002  -2.785  0.00  0.00    -0.095 NA
BRANCH  27  28
ATOM     28  S   UNL     1       3.918  -1.650  -1.527  0.00  0.00    +0.109 S 
ATOM     29  O   UNL     1       3.125  -2.524  -0.605  0.00  0.00    -0.147 OA
ATOM     30  O   UNL     1       5.033  -2.424  -2.186  0.00  0.00    -0.147 OA
BRANCH  28  31
ATOM     31  C   UNL     1       4.605  -0.318  -0.602  0.00  0.00    +0.208 A 
ATOM     32  N   UNL     1       5.101   0.778  -1.229  0.00  0.00    -0.224 NA
ATOM     33  C   UNL     1       6.273   1.349  -0.854  0.00  0.00    +0.104 A 
ATOM     34  C   UNL     1       7.047   0.825   0.174  0.00  0.00    +0.091 A 
ATOM     35  C   UNL     1       6.346   0.010   1.058  0.00  0.00    +0.008 A 
ATOM     36  C   UNL     1       5.123  -0.528   0.672  0.00  0.00    +0.040 A 
BRANCH  34  37
ATOM     37  C   UNL     1       8.527   0.688  -0.001  0.00  0.00    +0.420 C 
ATOM     38  F   UNL     1       8.956   1.774  -0.718  0.00  0.00    -0.166 F 
ATOM     39  F   UNL     1       9.153   0.545   1.208  0.00  0.00    -0.166 F 
ATOM     40  F   UNL     1       8.801  -0.441  -0.763  0.00  0.00    -0.166 F 
ENDBRANCH  34  37
ENDBRANCH  28  31
ENDBRANCH  27  28
ENDBRANCH  23  27
ENDBRANCH   1  21
BRANCH   1  41
ATOM     41  C   UNL     1       0.129   2.161   0.501  0.00  0.00    +0.009 C 
ATOM     42  C   UNL     1       1.483   2.510  -0.107  0.00  0.00    +0.001 C 
ENDBRANCH   1  41
TORSDOF 12
