REMARK  Name = 
REMARK  1 active torsions:
REMARK  status: ('A' for Active; 'I' for Inactive)
REMARK    1  A    between atoms: N_10  and  C_11
REMARK                            x       y       z     vdW  Elec       q    Type
REMARK                         _______ _______ _______ _____ _____    ______ ____
ROOT
ATOM      1  N   UNL     1       2.968   0.937  -2.100  0.00  0.00    -0.128 NA
ATOM      2  C   UNL     1       2.796   0.776  -0.689  0.00  0.00    +0.094 A 
ATOM      3  C   UNL     1       1.874  -0.197  -0.322  0.00  0.00    +0.075 A 
ATOM      4  C   UNL     1       0.482  -0.276  -0.790  0.00  0.00    +0.257 C 
ATOM      5  N   UNL     1      -0.212  -1.105   0.065  0.00  0.00    -0.216 N 
ATOM      6  C   UNL     1       0.658  -1.392   1.167  0.00  0.00    +0.255 C 
ATOM      7  O   UNL     1       0.485  -2.342   1.991  0.00  0.00    -0.269 OA
ATOM      8  O   UNL     1       0.121  -0.114  -1.988  0.00  0.00    -0.269 OA
ATOM      9  C   UNL     1       1.977  -0.784   0.933  0.00  0.00    +0.060 A 
ATOM     10  C   UNL     1       2.756  -0.120   1.876  0.00  0.00    +0.005 A 
ATOM     11  C   UNL     1       3.522   0.991   1.565  0.00  0.00    +0.002 A 
ATOM     12  C   UNL     1       3.687   1.325   0.226  0.00  0.00    +0.018 A 
ENDROOT
BRANCH   5  13
ATOM     13  C   UNL     1      -1.767  -1.217   0.237  0.00  0.00    +0.162 C 
ATOM     14  C   UNL     1      -2.141  -0.502  -1.154  0.00  0.00    +0.266 C 
ATOM     15  O   UNL     1      -2.450  -1.403  -1.995  0.00  0.00    -0.271 OA
ATOM     16  N   UNL     1      -2.804   0.703  -1.207  0.00  0.00    -0.143 NA
ATOM     17  C   UNL     1      -3.440   1.366  -0.104  0.00  0.00    +0.248 C 
ATOM     18  O   UNL     1      -3.367   2.629  -0.012  0.00  0.00    -0.273 OA
ATOM     19  C   UNL     1      -3.293   0.569   1.159  0.00  0.00    +0.089 C 
ATOM     20  C   UNL     1      -1.852   0.155   1.142  0.00  0.00    +0.039 C 
ENDBRANCH   5  13
TORSDOF 1
