REMARK  Name = 
REMARK  6 active torsions:
REMARK  status: ('A' for Active; 'I' for Inactive)
REMARK    1  A    between atoms: N_2  and  C_4
REMARK    2  A    between atoms: C_4  and  C_5
REMARK    3  A    between atoms: C_5  and  O_6
REMARK    4  A    between atoms: O_6  and  C_7
REMARK    5  A    between atoms: C_7  and  C_8
REMARK    6  A    between atoms: C_7  and  C_15
REMARK                            x       y       z     vdW  Elec       q    Type
REMARK                         _______ _______ _______ _____ _____    ______ ____
ROOT
ATOM      1  C   UNL     1       0.282  -0.762   0.521  0.00  0.00    +0.177 C 
ENDROOT
BRANCH   1   2
ATOM      2  C   UNL     1      -0.171   0.797   0.263  0.00  0.00    +0.010 A 
ATOM      3  C   UNL     1       0.613   1.528  -0.566  0.00  0.00    -0.001 A 
ATOM      4  C   UNL     1       0.126   2.814  -0.802  0.00  0.00    +0.011 A 
ATOM      5  C   UNL     1      -0.842   3.380   0.019  0.00  0.00    +0.058 A 
ATOM      6 CL   UNL     1      -1.747   4.816  -0.449  0.00  0.00    -0.082 Cl
ATOM      7  C   UNL     1      -1.188   2.688   1.172  0.00  0.00    +0.011 A 
ATOM      8  C   UNL     1      -0.679   1.411   1.381  0.00  0.00    -0.001 A 
ENDBRANCH   1   2
BRANCH   1   9
ATOM      9  C   UNL     1      -1.278  -1.286   0.467  0.00  0.00    +0.090 A 
ATOM     10  N   UNL     1      -2.007  -0.829  -0.536  0.00  0.00    -0.245 NA
ATOM     11  C   UNL     1      -3.296  -1.247  -0.571  0.00  0.00    +0.099 A 
ATOM     12  C   UNL     1      -3.655  -2.399   0.116  0.00  0.00    +0.021 A 
ATOM     13  C   UNL     1      -2.771  -2.991   1.011  0.00  0.00    +0.003 A 
ATOM     14  C   UNL     1      -1.469  -2.504   1.069  0.00  0.00    +0.018 A 
ENDBRANCH   1   9
BRANCH   1  15
ATOM     15  O   UNL     1       0.504  -1.041  -0.986  0.00  0.00    -0.344 OA
BRANCH  15  16
ATOM     16  C   UNL     1       1.882  -0.869  -1.105  0.00  0.00    +0.160 C 
BRANCH  16  17
ATOM     17  C   UNL     1       2.596  -1.121   0.191  0.00  0.00    +0.105 C 
BRANCH  17  19
ATOM     18  C   UNL     1       4.368   0.211   0.088  0.00  0.00    +0.090 C 
ATOM     19  N   UNL     1       3.982  -0.776   0.073  0.00  0.00    -0.268 NA
ATOM     20  C   UNL     1       4.750  -1.819   0.749  0.00  0.00    +0.090 C 
ENDBRANCH  17  19
ENDBRANCH  16  17
ENDBRANCH  15  16
ENDBRANCH   1  15
TORSDOF 6
