REMARK  Name = 
REMARK  26 active torsions:
REMARK  status: ('A' for Active; 'I' for Inactive)
REMARK    1  A    between atoms: O_2  and  C_3
REMARK    2  A    between atoms: C_6  and  C_7
REMARK    3  A    between atoms: C_7  and  C_8
REMARK    4  A    between atoms: C_11  and  O_12
REMARK    5  A    between atoms: C_14  and  O_15
REMARK    6  A    between atoms: N_21  and  C_23
REMARK    7  A    between atoms: C_23  and  C_24
REMARK    8  A    between atoms: C_24  and  C_25
REMARK    9  A    between atoms: C_25  and  O_27
REMARK   10  A    between atoms: O_27  and  C_28
REMARK   11  A    between atoms: C_28  and  C_29
REMARK   12  A    between atoms: C_29  and  C_30
REMARK   13  A    between atoms: C_30  and  C_31
REMARK   14  A    between atoms: C_31  and  C_32
REMARK   15  A    between atoms: C_32  and  O_33
REMARK   16  A    between atoms: O_33  and  C_34
REMARK   17  A    between atoms: C_34  and  C_36
REMARK   18  A    between atoms: C_36  and  C_37
REMARK   19  A    between atoms: C_37  and  N_38
REMARK   20  A    between atoms: C_44  and  O_45
REMARK   21  A    between atoms: C_47  and  O_48
REMARK   22  A    between atoms: C_52  and  C_53
REMARK   23  A    between atoms: C_53  and  C_54
REMARK   24  A    between atoms: C_57  and  O_58
REMARK   25  A    between atoms: C_60  and  O_61
REMARK   26  A    between atoms: C_65  and  O_66
REMARK                            x       y       z     vdW  Elec       q    Type
REMARK                         _______ _______ _______ _____ _____    ______ ____
ROOT
ATOM      1  C   UNL     1       0.940  -1.431   1.666  0.00  0.00    +0.008 C 
ENDROOT
BRANCH   1   2
ATOM      2  C   UNL     1       1.552  -2.600   0.901  0.00  0.00    +0.048 C 
BRANCH   2   3
ATOM      3  C   UNL     1       1.368  -2.239  -0.570  0.00  0.00    +0.208 C 
BRANCH   3   4
ATOM      4  O   UNL     1       1.835  -0.894  -0.681  0.00  0.00    -0.448 OA
BRANCH   4   5
ATOM      5  C   UNL     1       2.871  -0.594  -1.539  0.00  0.00    +0.323 C 
ATOM      6  O   UNL     1       3.030  -1.399  -2.509  0.00  0.00    -0.250 OA
BRANCH   5   7
ATOM      7  C   UNL     1       3.628   0.646  -1.596  0.00  0.00    +0.170 C 
BRANCH   7   8
ATOM      8  C   UNL     1       4.463   1.031  -0.465  0.00  0.00    +0.121 C 
BRANCH   8   9
ATOM      9  N   UNL     1       5.093   0.029   0.320  0.00  0.00    +0.301 N 
ATOM     10  C   UNL     1       6.600   0.482   0.400  0.00  0.00    +0.086 C 
ATOM     11  C   UNL     1       7.181  -0.956   0.832  0.00  0.00    +0.027 A 
ATOM     12  C   UNL     1       6.453  -1.779   1.613  0.00  0.00    -0.012 A 
ATOM     13  C   UNL     1       7.143  -2.896   2.087  0.00  0.00    +0.036 A 
ATOM     14  C   UNL     1       8.475  -3.131   1.767  0.00  0.00    +0.172 A 
ATOM     15  C   UNL     1       9.194  -2.152   1.090  0.00  0.00    +0.172 A 
ATOM     16  C   UNL     1       5.075  -2.126   1.108  0.00  0.00    +0.087 C 
ATOM     17  C   UNL     1       8.560  -0.917   1.004  0.00  0.00    +0.041 A 
ATOM     18  C   UNL     1       5.058  -1.295  -0.177  0.00  0.00    +0.114 C 
ATOM     19  C   UNL     1       4.572   0.178   1.673  0.00  0.00    +0.171 C 
BRANCH  14  20
ATOM     20  O   UNL     1       9.053  -4.403   1.848  0.00  0.00    -0.468 OA
ATOM     21  C   UNL     1       8.285  -5.510   1.382  0.00  0.00    +0.253 C 
ENDBRANCH  14  20
BRANCH  15  22
ATOM     22  O   UNL     1      10.488  -2.365   0.647  0.00  0.00    -0.468 OA
ATOM     23  C   UNL     1      10.775  -2.648  -0.720  0.00  0.00    +0.253 C 
ENDBRANCH  15  22
BRANCH  10  24
ATOM     24  C   UNL     1       6.829   0.157  -1.199  0.00  0.00    +0.086 C 
BRANCH  24  25
ATOM     25  C   UNL     1       7.823   1.168  -1.608  0.00  0.00    -0.013 A 
ATOM     26  C   UNL     1       9.184   0.980  -1.595  0.00  0.00    +0.036 A 
ATOM     27  C   UNL     1      10.050   2.001  -1.237  0.00  0.00    +0.172 A 
ATOM     28  C   UNL     1       9.607   3.298  -1.466  0.00  0.00    +0.172 A 
ATOM     29  C   UNL     1       8.301   3.511  -1.866  0.00  0.00    +0.040 A 
ATOM     30  C   UNL     1       7.386   2.465  -1.851  0.00  0.00    -0.001 A 
BRANCH  28  31
ATOM     31  O   UNL     1      10.421   4.390  -1.151  0.00  0.00    -0.468 OA
ATOM     32  C   UNL     1      11.728   4.536  -1.694  0.00  0.00    +0.253 C 
ENDBRANCH  28  31
BRANCH  27  33
ATOM     33  O   UNL     1      11.153   1.793  -0.404  0.00  0.00    -0.468 OA
ATOM     34  C   UNL     1      10.938   1.581   0.990  0.00  0.00    +0.253 C 
ENDBRANCH  27  33
ENDBRANCH  24  25
ENDBRANCH  10  24
ENDBRANCH   8   9
ENDBRANCH   7   8
ENDBRANCH   5   7
ENDBRANCH   4   5
ENDBRANCH   3   4
ENDBRANCH   2   3
ENDBRANCH   1   2
BRANCH   1  35
ATOM     35  C   UNL     1      -0.343  -1.111   0.915  0.00  0.00    +0.048 C 
BRANCH  35  36
ATOM     36  C   UNL     1      -1.318  -2.232   1.243  0.00  0.00    +0.208 C 
BRANCH  36  37
ATOM     37  O   UNL     1      -2.613  -1.664   1.389  0.00  0.00    -0.448 OA
BRANCH  37  38
ATOM     38  C   UNL     1      -3.104  -0.911   0.332  0.00  0.00    +0.323 C 
ATOM     39  O   UNL     1      -3.004  -1.381  -0.814  0.00  0.00    -0.250 OA
BRANCH  38  40
ATOM     40  C   UNL     1      -4.058   0.154   0.665  0.00  0.00    +0.170 C 
BRANCH  40  41
ATOM     41  C   UNL     1      -4.900   0.659  -0.246  0.00  0.00    +0.121 C 
BRANCH  41  43
ATOM     42  C   UNL     1      -6.534   2.008  -1.346  0.00  0.00    +0.086 C 
ATOM     43  N   UNL     1      -5.125   1.286  -1.373  0.00  0.00    +0.301 N 
ATOM     44  C   UNL     1      -4.217   2.417  -1.582  0.00  0.00    +0.171 C 
ATOM     45  C   UNL     1      -5.079   0.532  -2.596  0.00  0.00    +0.114 C 
ATOM     46  C   UNL     1      -6.324   0.664  -3.454  0.00  0.00    +0.087 C 
ATOM     47  C   UNL     1      -7.402   0.113  -2.562  0.00  0.00    -0.012 A 
ATOM     48  C   UNL     1      -7.749  -1.231  -2.624  0.00  0.00    +0.036 A 
ATOM     49  C   UNL     1      -8.165  -1.937  -1.502  0.00  0.00    +0.172 A 
ATOM     50  C   UNL     1      -8.006  -1.355  -0.252  0.00  0.00    +0.172 A 
ATOM     51  C   UNL     1      -7.381  -0.137  -0.183  0.00  0.00    +0.041 A 
ATOM     52  C   UNL     1      -7.347   0.624  -1.267  0.00  0.00    +0.027 A 
BRANCH  50  53
ATOM     53  O   UNL     1      -8.618  -1.910   0.877  0.00  0.00    -0.468 OA
ATOM     54  C   UNL     1      -8.333  -1.339   2.140  0.00  0.00    +0.253 C 
ENDBRANCH  50  53
BRANCH  49  55
ATOM     55  O   UNL     1      -8.771  -3.191  -1.597  0.00  0.00    -0.468 OA
ATOM     56  C   UNL     1      -8.705  -4.074  -0.480  0.00  0.00    +0.253 C 
ENDBRANCH  49  55
BRANCH  42  57
ATOM     57  C   UNL     1      -6.484   2.267   0.279  0.00  0.00    +0.086 C 
BRANCH  57  61
ATOM     58  C   UNL     1     -10.413   2.101   1.690  0.00  0.00    +0.172 A 
ATOM     59  C   UNL     1     -10.160   2.881   0.567  0.00  0.00    +0.172 A 
ATOM     60  C   UNL     1      -8.861   3.054   0.099  0.00  0.00    +0.036 A 
ATOM     61  C   UNL     1      -7.849   2.387   0.752  0.00  0.00    -0.013 A 
ATOM     62  C   UNL     1      -8.080   2.090   2.091  0.00  0.00    -0.001 A 
ATOM     63  C   UNL     1      -9.360   1.777   2.537  0.00  0.00    +0.040 A 
BRANCH  58  65
ATOM     64  C   UNL     1     -11.489   0.089   1.022  0.00  0.00    +0.253 C 
ATOM     65  O   UNL     1     -11.597   1.355   1.658  0.00  0.00    -0.468 OA
ENDBRANCH  58  65
BRANCH  59  66
ATOM     66  O   UNL     1     -11.193   3.751   0.200  0.00  0.00    -0.468 OA
ATOM     67  C   UNL     1     -12.531   3.355   0.060  0.00  0.00    +0.253 C 
ENDBRANCH  59  66
ENDBRANCH  57  61
ENDBRANCH  42  57
ENDBRANCH  41  43
ENDBRANCH  40  41
ENDBRANCH  38  40
ENDBRANCH  37  38
ENDBRANCH  36  37
ENDBRANCH  35  36
ENDBRANCH   1  35
TORSDOF 26
