REMARK  Name = 
REMARK  0 active torsions:
REMARK  status: ('A' for Active; 'I' for Inactive)
REMARK                            x       y       z     vdW  Elec       q    Type
REMARK                         _______ _______ _______ _____ _____    ______ ____
ROOT
ATOM      1  C   UNL     1      -1.922  -2.243  -2.023  0.00  0.00    -0.005 C 
ATOM      2  C   UNL     1      -1.329  -1.589  -1.088  0.00  0.00    -0.026 C 
ATOM      3  C   UNL     1      -2.052  -0.778  -0.140  0.00  0.00    -0.020 C 
ATOM      4  C   UNL     1      -1.471   0.523   0.252  0.00  0.00    +0.037 C 
ATOM      5  C   UNL     1      -2.398   1.587  -0.202  0.00  0.00    -0.019 C 
ATOM      6  C   UNL     1      -3.597   1.486   0.383  0.00  0.00    +0.038 C 
ATOM      7  C   UNL     1      -4.177   0.153   0.596  0.00  0.00    +0.195 C 
ATOM      8  O   UNL     1      -5.083  -0.065   1.457  0.00  0.00    -0.287 OA
ATOM      9  C   UNL     1      -1.157   0.528   1.678  0.00  0.00    +0.009 C 
ATOM     10  C   UNL     1      -0.111   0.685  -0.641  0.00  0.00    +0.008 C 
ATOM     11  C   UNL     1       0.647  -0.639   0.122  0.00  0.00    +0.005 C 
ATOM     12  C   UNL     1       2.063  -0.370  -0.790  0.00  0.00    +0.007 C 
ATOM     13  C   UNL     1       2.693   0.638   0.337  0.00  0.00    +0.052 C 
ATOM     14  C   UNL     1       1.997   1.886   0.059  0.00  0.00    +0.007 C 
ATOM     15  C   UNL     1       2.562  -0.008   1.647  0.00  0.00    +0.007 C 
ATOM     16  C   UNL     1       4.072   0.481  -0.158  0.00  0.00    +0.150 C 
ATOM     17  O   UNL     1       4.804   1.214  -0.781  0.00  0.00    -0.296 OA
ATOM     18  C   UNL     1       4.276  -1.007  -0.091  0.00  0.00    +0.064 C 
ATOM     19  C   UNL     1       2.872  -1.612  -0.083  0.00  0.00    +0.008 C 
ATOM     20  C   UNL     1       0.554   1.760   0.410  0.00  0.00    +0.001 C 
ATOM     21  C   UNL     1      -3.366  -0.936   0.031  0.00  0.00    +0.038 C 
ATOM     22  C   UNL     1       0.123  -1.695  -0.974  0.00  0.00    +0.026 C 
ENDROOT
TORSDOF 0
