REMARK  Name = 
REMARK  11 active torsions:
REMARK  status: ('A' for Active; 'I' for Inactive)
REMARK    1  A    between atoms: O_2  and  C_3
REMARK    2  A    between atoms: C_3  and  C_4
REMARK    3  A    between atoms: N_6  and  C_7
REMARK    4  A    between atoms: C_10  and  C_11
REMARK    5  A    between atoms: N_13  and  C_14
REMARK    6  A    between atoms: C_14  and  C_15
REMARK    7  A    between atoms: C_15  and  C_17
REMARK    8  A    between atoms: C_21  and  C_22
REMARK    9  A    between atoms: N_24  and  C_26
REMARK   10  A    between atoms: C_26  and  C_27
REMARK   11  A    between atoms: C_27  and  C_29
REMARK                            x       y       z     vdW  Elec       q    Type
REMARK                         _______ _______ _______ _____ _____    ______ ____
ROOT
ATOM      1  C   UNL     1      -0.022   1.609  -0.924  0.00  0.00    +0.084 A 
ATOM      2  C   UNL     1       0.964   0.718  -0.519  0.00  0.00    +0.051 A 
ATOM      3  I   UNL     1       2.930   1.366  -0.599  0.00  0.00    -0.041 I 
ATOM      4  C   UNL     1       0.710  -0.438   0.176  0.00  0.00    +0.066 A 
ATOM      5  C   UNL     1      -0.496  -0.489   0.866  0.00  0.00    +0.040 A 
ATOM      6  I   UNL     1      -0.806  -1.787   2.447  0.00  0.00    -0.042 I 
ATOM      7  C   UNL     1      -1.585   0.207   0.352  0.00  0.00    +0.067 A 
ATOM      8  C   UNL     1      -1.310   1.201  -0.575  0.00  0.00    +0.051 A 
ATOM      9  I   UNL     1      -2.832   1.932  -1.859  0.00  0.00    -0.041 I 
ENDROOT
BRANCH   4  10
ATOM     10  C   UNL     1       1.641  -1.553   0.260  0.00  0.00    +0.250 C 
ATOM     11  N   UNL     1       2.703  -1.757  -0.685  0.00  0.00    -0.272 N 
ATOM     12  C   UNL     1       2.418  -1.873  -2.117  0.00  0.00    +0.115 C 
ATOM     13  O   UNL     1       1.133  -2.663   0.621  0.00  0.00    -0.270 OA
BRANCH  11  14
ATOM     14  C   UNL     1       3.713  -2.721  -0.233  0.00  0.00    +0.129 C 
BRANCH  14  15
ATOM     15  C   UNL     1       5.103  -1.837  -0.141  0.00  0.00    +0.204 C 
ATOM     16  O   UNL     1       5.686  -2.551  -1.348  0.00  0.00    -0.218 OA
BRANCH  15  17
ATOM     17  C   UNL     1       5.781  -2.912   0.909  0.00  0.00    +0.217 C 
ATOM     18  O   UNL     1       5.661  -2.153   2.088  0.00  0.00    -0.218 OA
ENDBRANCH  15  17
ENDBRANCH  14  15
ENDBRANCH  11  14
ENDBRANCH   4  10
BRANCH   7  19
ATOM     19  C   UNL     1      -2.934  -0.377   0.364  0.00  0.00    +0.266 C 
ATOM     20  N   UNL     1      -3.314  -1.563   1.005  0.00  0.00    -0.199 NA
ATOM     21  O   UNL     1      -3.629  -0.119  -0.670  0.00  0.00    -0.268 OA
BRANCH  20  22
ATOM     22  C   UNL     1      -3.887  -2.716   0.500  0.00  0.00    +0.151 C 
BRANCH  22  23
ATOM     23  C   UNL     1      -5.528  -2.706   0.541  0.00  0.00    +0.206 C 
ATOM     24  O   UNL     1      -5.612  -2.121  -0.861  0.00  0.00    -0.218 OA
BRANCH  23  25
ATOM     25  C   UNL     1      -5.669  -1.218   1.247  0.00  0.00    +0.217 C 
ATOM     26  O   UNL     1      -5.389  -1.607   2.564  0.00  0.00    -0.218 OA
ENDBRANCH  23  25
ENDBRANCH  22  23
ENDBRANCH  20  22
ENDBRANCH   7  19
BRANCH   1  28
ATOM     27  C   UNL     1       1.235   3.776  -0.834  0.00  0.00    +0.276 C 
ATOM     28  N   UNL     1       0.058   3.010  -0.782  0.00  0.00    -0.176 NA
ATOM     29  O   UNL     1       1.542   3.764  -2.057  0.00  0.00    -0.270 OA
BRANCH  27  30
ATOM     30  C   UNL     1       1.277   4.943   0.061  0.00  0.00    +0.229 C 
BRANCH  30  32
ATOM     31  C   UNL     1       0.166   6.795   0.525  0.00  0.00    +0.175 C 
ATOM     32  O   UNL     1       0.293   5.837  -0.323  0.00  0.00    -0.342 OA
ENDBRANCH  30  32
ENDBRANCH  27  30
ENDBRANCH   1  28
TORSDOF 11
