REMARK  Name = 
REMARK  8 active torsions:
REMARK  status: ('A' for Active; 'I' for Inactive)
REMARK    1  A    between atoms: O_2  and  C_3
REMARK    2  A    between atoms: C_9  and  O_10
REMARK    3  A    between atoms: O_10  and  C_11
REMARK    4  A    between atoms: C_14  and  N_15
REMARK    5  A    between atoms: C_16  and  C_18
REMARK    6  A    between atoms: C_18  and  C_19
REMARK    7  A    between atoms: N_21  and  C_22
REMARK    8  A    between atoms: C_35  and  O_36
REMARK                            x       y       z     vdW  Elec       q    Type
REMARK                         _______ _______ _______ _____ _____    ______ ____
ROOT
ATOM      1  C   UNL     1      -2.317  -1.169  -0.440  0.00  0.00    +0.145 A 
ATOM      2  C   UNL     1      -2.018  -0.173   0.481  0.00  0.00    +0.039 A 
ATOM      3  C   UNL     1      -0.716   0.305   0.561  0.00  0.00    +0.020 A 
ATOM      4  C   UNL     1       0.310  -0.244  -0.199  0.00  0.00    +0.074 A 
ATOM      5  C   UNL     1      -0.102  -0.921  -1.340  0.00  0.00    +0.020 A 
ATOM      6  C   UNL     1      -1.435  -1.271  -1.509  0.00  0.00    +0.039 A 
ENDROOT
BRANCH   4   7
ATOM      7  N   UNL     1       1.615  -0.436   0.358  0.00  0.00    -0.179 NA
ATOM      8  C   UNL     1       2.749  -0.434  -0.517  0.00  0.00    +0.253 C 
ATOM      9  O   UNL     1       2.782   0.493  -1.361  0.00  0.00    -0.273 OA
BRANCH   8  10
ATOM     10  C   UNL     1       3.937  -1.276  -0.181  0.00  0.00    +0.141 C 
ATOM     11  C   UNL     1       3.752  -2.711   0.151  0.00  0.00    +0.018 C 
ATOM     12  C   UNL     1       3.962  -1.794   1.285  0.00  0.00    +0.018 C 
BRANCH  10  13
ATOM     13  C   UNL     1       5.268  -0.770  -0.616  0.00  0.00    +0.253 C 
ATOM     14  N   UNL     1       6.359  -0.580   0.265  0.00  0.00    -0.179 NA
ATOM     15  O   UNL     1       5.419  -0.369  -1.808  0.00  0.00    -0.273 OA
BRANCH  14  16
ATOM     16  C   UNL     1       7.280   0.508   0.124  0.00  0.00    +0.074 A 
ATOM     17  C   UNL     1       6.815   1.817   0.134  0.00  0.00    +0.019 A 
ATOM     18  C   UNL     1       7.481   2.821   0.823  0.00  0.00    +0.031 A 
ATOM     19  C   UNL     1       8.718   2.569   1.402  0.00  0.00    +0.140 A 
ATOM     20  F   UNL     1       9.043   3.199   2.552  0.00  0.00    -0.204 F 
ATOM     21  C   UNL     1       9.360   1.422   0.956  0.00  0.00    +0.031 A 
ATOM     22  C   UNL     1       8.619   0.354   0.464  0.00  0.00    +0.019 A 
ENDBRANCH  14  16
ENDBRANCH  10  13
ENDBRANCH   8  10
ENDBRANCH   4   7
BRANCH   1  23
ATOM     23  O   UNL     1      -3.278  -2.151  -0.187  0.00  0.00    -0.453 OA
BRANCH  23  32
ATOM     24  C   UNL     1      -6.457   1.380   0.283  0.00  0.00    +0.174 A 
ATOM     25  C   UNL     1      -6.216   0.420   1.257  0.00  0.00    +0.173 A 
ATOM     26  C   UNL     1      -5.367  -0.615   0.903  0.00  0.00    +0.045 A 
ATOM     27  C   UNL     1      -5.413  -1.014  -0.425  0.00  0.00    +0.055 A 
ATOM     28  C   UNL     1      -6.185  -0.307  -1.339  0.00  0.00    +0.087 A 
ATOM     29  N   UNL     1      -6.162  -0.689  -2.636  0.00  0.00    -0.244 NA
ATOM     30  C   UNL     1      -5.498  -1.799  -2.999  0.00  0.00    +0.102 A 
ATOM     31  C   UNL     1      -4.653  -2.462  -2.125  0.00  0.00    +0.058 A 
ATOM     32  C   UNL     1      -4.510  -1.990  -0.828  0.00  0.00    +0.148 A 
ATOM     33  C   UNL     1      -6.719   0.932  -1.006  0.00  0.00    +0.059 A 
BRANCH  25  34
ATOM     34  O   UNL     1      -6.493   0.733   2.588  0.00  0.00    -0.468 OA
ATOM     35  C   UNL     1      -7.158  -0.168   3.445  0.00  0.00    +0.253 C 
ENDBRANCH  25  34
BRANCH  24  37
ATOM     36  C   UNL     1      -5.938   3.728   0.841  0.00  0.00    +0.253 C 
ATOM     37  O   UNL     1      -6.833   2.663   0.644  0.00  0.00    -0.468 OA
ENDBRANCH  24  37
ENDBRANCH  23  32
ENDBRANCH   1  23
TORSDOF 8
