REMARK  Name = 
REMARK  5 active torsions:
REMARK  status: ('A' for Active; 'I' for Inactive)
REMARK    1  A    between atoms: C_2  and  C_3
REMARK    2  A    between atoms: C_3  and  O_4
REMARK    3  A    between atoms: O_4  and  C_5
REMARK    4  A    between atoms: C_5  and  C_6
REMARK    5  A    between atoms: C_6  and  N_7
REMARK                            x       y       z     vdW  Elec       q    Type
REMARK                         _______ _______ _______ _____ _____    ______ ____
ROOT
ATOM      1  N   UNL     1       2.898  -1.613  -0.981  0.00  0.00    -0.264 NA
ATOM      2  C   UNL     1       2.599  -0.210  -1.131  0.00  0.00    +0.124 C 
ATOM      3  C   UNL     1       1.396   0.231  -0.344  0.00  0.00    +0.220 C 
ATOM      4  N   UNL     1       0.244  -0.585  -0.657  0.00  0.00    -0.188 N 
ATOM      5  C   UNL     1      -1.053  -0.033  -0.402  0.00  0.00    +0.324 C 
ATOM      6  C   UNL     1      -1.342   0.098   1.032  0.00  0.00    +0.088 A 
ATOM      7  C   UNL     1      -2.067   1.101   1.665  0.00  0.00    +0.037 A 
ATOM      8  C   UNL     1      -2.491   0.859   2.966  0.00  0.00    +0.007 A 
ATOM      9  C   UNL     1      -2.229  -0.378   3.535  0.00  0.00    +0.001 A 
ATOM     10  C   UNL     1      -1.150  -1.123   3.079  0.00  0.00    +0.000 A 
ATOM     11  S   UNL     1      -3.091   2.369   0.909  0.00  0.00    -0.083 S 
ATOM     12  C   UNL     1      -3.692   1.676  -0.636  0.00  0.00    +0.072 A 
ATOM     13  C   UNL     1      -3.144   0.710  -1.467  0.00  0.00    +0.199 A 
ATOM     14  C   UNL     1      -3.894   0.157  -2.482  0.00  0.00    +0.047 A 
ATOM     15  C   UNL     1      -5.277   0.280  -2.480  0.00  0.00    +0.004 A 
ATOM     16  C   UNL     1      -5.862   0.866  -1.366  0.00  0.00    +0.001 A 
ATOM     17  C   UNL     1      -5.076   1.786  -0.685  0.00  0.00    +0.010 A 
ATOM     18  C   UNL     1      -0.750  -0.918   1.764  0.00  0.00    +0.008 A 
ATOM     19  N   UNL     1      -1.806   0.254  -1.398  0.00  0.00    -0.040 NA
ATOM     20  C   UNL     1       0.461  -1.950  -1.056  0.00  0.00    +0.220 C 
ATOM     21  C   UNL     1       1.796  -2.382  -0.462  0.00  0.00    +0.124 C 
ENDROOT
BRANCH   1  22
ATOM     22  C   UNL     1       4.009  -1.758  -0.052  0.00  0.00    +0.105 C 
BRANCH  22  23
ATOM     23  C   UNL     1       5.274  -2.087  -0.798  0.00  0.00    +0.160 C 
BRANCH  23  24
ATOM     24  O   UNL     1       6.115  -0.997  -0.944  0.00  0.00    -0.350 OA
BRANCH  24  25
ATOM     25  C   UNL     1       5.920  -0.027   0.043  0.00  0.00    +0.178 C 
BRANCH  25  27
ATOM     26  O   UNL     1       5.937   2.350   0.332  0.00  0.00    -0.218 OA
ATOM     27  C   UNL     1       6.278   1.324  -0.549  0.00  0.00    +0.214 C 
ENDBRANCH  25  27
ENDBRANCH  24  25
ENDBRANCH  23  24
ENDBRANCH  22  23
ENDBRANCH   1  22
TORSDOF 5
