REMARK  Name = 
REMARK  5 active torsions:
REMARK  status: ('A' for Active; 'I' for Inactive)
REMARK    1  A    between atoms: N_2  and  C_4
REMARK    2  A    between atoms: C_4  and  C_5
REMARK    3  A    between atoms: C_5  and  C_6
REMARK    4  A    between atoms: C_6  and  C_7
REMARK    5  A    between atoms: C_6  and  C_14
REMARK                            x       y       z     vdW  Elec       q    Type
REMARK                         _______ _______ _______ _____ _____    ______ ____
ROOT
ATOM      1  C   UNL     1      -0.808  -0.165   0.588  0.00  0.00    +0.064 C 
ENDROOT
BRANCH   1   2
ATOM      2  C   UNL     1       0.806  -0.377   0.516  0.00  0.00    -0.017 A 
ATOM      3  C   UNL     1       1.349  -1.050   1.577  0.00  0.00    -0.003 A 
ATOM      4  C   UNL     1       2.702  -1.355   1.469  0.00  0.00    +0.011 A 
ATOM      5  C   UNL     1       3.418  -0.973   0.340  0.00  0.00    +0.058 A 
ATOM      6 CL   UNL     1       5.006  -1.651  -0.013  0.00  0.00    -0.082 Cl
ATOM      7  C   UNL     1       2.826  -0.150  -0.610  0.00  0.00    +0.011 A 
ATOM      8  C   UNL     1       1.451   0.057  -0.583  0.00  0.00    -0.003 A 
ENDBRANCH   1   2
BRANCH   1   9
ATOM      9  C   UNL     1      -0.704   1.383   0.065  0.00  0.00    +0.063 A 
ATOM     10  N   UNL     1       0.005   2.171   0.889  0.00  0.00    -0.248 NA
ATOM     11  C   UNL     1       0.079   3.476   0.530  0.00  0.00    +0.098 A 
ATOM     12  C   UNL     1      -0.728   3.960  -0.493  0.00  0.00    +0.021 A 
ATOM     13  C   UNL     1      -1.885   3.232  -0.745  0.00  0.00    +0.003 A 
ATOM     14  C   UNL     1      -1.899   1.885  -0.398  0.00  0.00    +0.015 A 
ENDBRANCH   1   9
BRANCH   1  15
ATOM     15  C   UNL     1      -1.034  -0.726  -0.968  0.00  0.00    +0.028 C 
BRANCH  15  16
ATOM     16  C   UNL     1      -1.303  -2.197  -0.799  0.00  0.00    +0.073 C 
BRANCH  16  18
ATOM     17  C   UNL     1      -3.512  -2.258  -1.481  0.00  0.00    +0.090 C 
ATOM     18  N   UNL     1      -2.699  -2.472  -0.615  0.00  0.00    -0.270 NA
ATOM     19  C   UNL     1      -3.070  -2.791   0.731  0.00  0.00    +0.090 C 
ENDBRANCH  16  18
ENDBRANCH  15  16
ENDBRANCH   1  15
TORSDOF 5
