REMARK  Name = 
REMARK  6 active torsions:
REMARK  status: ('A' for Active; 'I' for Inactive)
REMARK    1  A    between atoms: C_2  and  N_3
REMARK    2  A    between atoms: N_6  and  C_7
REMARK    3  A    between atoms: C_7  and  C_8
REMARK    4  A    between atoms: C_11  and  N_12
REMARK    5  A    between atoms: C_18  and  C_19
REMARK    6  A    between atoms: N_26  and  C_27
REMARK                            x       y       z     vdW  Elec       q    Type
REMARK                         _______ _______ _______ _____ _____    ______ ____
ROOT
ATOM      1  N   UNL     1       1.069  -0.958   1.642  0.00  0.00    -0.159 NA
ATOM      2  C   UNL     1       0.142  -0.492   0.662  0.00  0.00    +0.242 A 
ATOM      3  N   UNL     1      -1.074  -1.049   0.647  0.00  0.00    -0.210 NA
ATOM      4  C   UNL     1      -1.897  -1.020  -0.431  0.00  0.00    +0.113 A 
ATOM      5  C   UNL     1      -1.597  -0.068  -1.396  0.00  0.00    +0.177 A 
ATOM      6  F   UNL     1      -2.152  -0.285  -2.622  0.00  0.00    -0.201 F 
ATOM      7  C   UNL     1      -0.340   0.518  -1.365  0.00  0.00    +0.133 A 
ATOM      8  N   UNL     1       0.471   0.382  -0.292  0.00  0.00    -0.208 NA
ENDROOT
BRANCH   4   9
ATOM      9  C   UNL     1      -3.320  -1.335  -0.252  0.00  0.00    +0.024 A 
ATOM     10  C   UNL     1      -3.727  -2.228   0.728  0.00  0.00    +0.033 A 
ATOM     11  C   UNL     1      -4.965  -2.140   1.347  0.00  0.00    +0.159 A 
ATOM     12  F   UNL     1      -5.272  -2.911   2.424  0.00  0.00    -0.203 F 
ATOM     13  C   UNL     1      -5.668  -0.950   1.192  0.00  0.00    +0.126 A 
ATOM     14  N   UNL     1      -6.628  -0.309   1.884  0.00  0.00    -0.229 NA
ATOM     15  C   UNL     1      -6.969   0.778   1.150  0.00  0.00    +0.121 A 
ATOM     16  N   UNL     1      -6.470   0.598  -0.096  0.00  0.00    -0.317 N 
ATOM     17  C   UNL     1      -7.673   2.011   1.618  0.00  0.00    +0.072 C 
ATOM     18  C   UNL     1      -5.473  -0.318  -0.030  0.00  0.00    +0.081 A 
ATOM     19  C   UNL     1      -4.325  -0.535  -0.783  0.00  0.00    +0.020 A 
BRANCH  16  20
ATOM     20  C   UNL     1      -6.924   1.228  -1.324  0.00  0.00    +0.087 C 
ATOM     21  C   UNL     1      -7.166   0.235  -2.425  0.00  0.00    +0.025 C 
ATOM     22  C   UNL     1      -8.245   1.934  -1.040  0.00  0.00    +0.025 C 
ENDBRANCH  16  20
ENDBRANCH   4   9
BRANCH   1  26
ATOM     23  C   UNL     1       4.255   1.065   0.236  0.00  0.00    +0.013 A 
ATOM     24  C   UNL     1       3.886   1.293   1.551  0.00  0.00    +0.097 A 
ATOM     25  N   UNL     1       2.990   0.463   2.128  0.00  0.00    -0.228 NA
ATOM     26  C   UNL     1       2.444  -0.588   1.470  0.00  0.00    +0.155 A 
ATOM     27  C   UNL     1       3.123  -1.000   0.331  0.00  0.00    +0.036 A 
ATOM     28  C   UNL     1       4.162  -0.249  -0.201  0.00  0.00    +0.002 A 
BRANCH  23  29
ATOM     29  C   UNL     1       4.827   2.128  -0.634  0.00  0.00    +0.101 C 
BRANCH  29  33
ATOM     30  N   UNL     1       8.546   0.606  -0.120  0.00  0.00    -0.270 NA
ATOM     31  C   UNL     1       7.525   0.449   0.895  0.00  0.00    +0.090 C 
ATOM     32  C   UNL     1       6.604   1.643   0.776  0.00  0.00    +0.090 C 
ATOM     33  N   UNL     1       6.272   1.906  -0.623  0.00  0.00    -0.266 NA
ATOM     34  C   UNL     1       6.489   0.694  -1.410  0.00  0.00    +0.090 C 
ATOM     35  C   UNL     1       7.964   0.323  -1.408  0.00  0.00    +0.090 C 
BRANCH  30  37
ATOM     36  C   UNL     1       9.404  -1.629  -0.122  0.00  0.00    +0.019 C 
ATOM     37  C   UNL     1       9.711  -0.188   0.173  0.00  0.00    +0.072 C 
ENDBRANCH  30  37
ENDBRANCH  29  33
ENDBRANCH  23  29
ENDBRANCH   1  26
TORSDOF 6
