REMARK  Name = 
REMARK  7 active torsions:
REMARK  status: ('A' for Active; 'I' for Inactive)
REMARK    1  A    between atoms: C_5  and  C_6
REMARK    2  A    between atoms: N_8  and  C_9
REMARK    3  A    between atoms: C_19  and  C_20
REMARK    4  A    between atoms: N_22  and  S_23
REMARK    5  A    between atoms: S_23  and  C_26
REMARK    6  A    between atoms: C_34  and  O_35
REMARK    7  A    between atoms: O_35  and  C_36
REMARK                            x       y       z     vdW  Elec       q    Type
REMARK                         _______ _______ _______ _____ _____    ______ ____
ROOT
ATOM      1  C   UNL     1       2.844   0.096  -0.897  0.00  0.00    +0.172 C 
ATOM      2  C   UNL     1       2.299  -1.191  -0.053  0.00  0.00    +0.246 C 
ATOM      3  O   UNL     1       2.767  -2.284  -0.424  0.00  0.00    -0.273 OA
ATOM      4  N   UNL     1       1.017  -1.137   0.489  0.00  0.00    -0.268 N 
ATOM      5  C   UNL     1       0.118   0.144   0.184  0.00  0.00    +0.157 C 
ATOM      6  C   UNL     1      -0.850  -0.147   1.496  0.00  0.00    +0.075 C 
ATOM      7  C   UNL     1      -1.109  -1.774   1.276  0.00  0.00    +0.189 C 
ATOM      8  C   UNL     1       1.078   1.168   1.023  0.00  0.00    +0.260 C 
ATOM      9  O   UNL     1       1.545   0.715   2.082  0.00  0.00    -0.272 OA
ATOM     10  N   UNL     1       0.492   2.475   1.165  0.00  0.00    -0.198 NA
ATOM     11  C   UNL     1      -0.548   3.019   0.483  0.00  0.00    +0.154 C 
ATOM     12  C   UNL     1       0.017   3.976  -0.786  0.00  0.00    +0.051 C 
ATOM     13  C   UNL     1       1.619   3.533  -0.591  0.00  0.00    -0.029 C 
ATOM     14  C   UNL     1       2.247   4.286  -1.508  0.00  0.00    -0.031 C 
ATOM     15  C   UNL     1       2.007   3.708  -2.874  0.00  0.00    +0.026 C 
ATOM     16  C   UNL     1       2.877   2.454  -2.837  0.00  0.00    +0.005 C 
ATOM     17  C   UNL     1       2.349   1.387  -3.750  0.00  0.00    +0.000 C 
ATOM     18  C   UNL     1       1.823   0.184  -3.091  0.00  0.00    +0.002 C 
ATOM     19  C   UNL     1      -0.556   2.416  -1.067  0.00  0.00    +0.036 C 
ATOM     20  C   UNL     1      -0.119  -1.897  -0.051  0.00  0.00    +0.137 C 
ATOM     21  C   UNL     1       2.789  -0.687  -2.375  0.00  0.00    +0.031 C 
ENDROOT
BRANCH   1  23
ATOM     22  C   UNL     1       5.213  -0.705  -1.516  0.00  0.00    +0.284 C 
ATOM     23  N   UNL     1       4.359  -0.259  -0.561  0.00  0.00    -0.193 NA
ATOM     24  O   UNL     1       4.823  -0.974  -2.663  0.00  0.00    -0.267 OA
BRANCH  22  29
ATOM     25  C   UNL     1       8.947  -3.599   1.328  0.00  0.00    +0.054 C 
ATOM     26  C   UNL     1       7.946  -2.863   0.683  0.00  0.00    +0.079 A 
ATOM     27  N   UNL     1       8.109  -1.530   0.559  0.00  0.00    -0.245 NA
ATOM     28  C   UNL     1       7.278  -0.758  -0.184  0.00  0.00    +0.122 A 
ATOM     29  C   UNL     1       6.430  -1.403  -1.076  0.00  0.00    +0.155 A 
ATOM     30  N   UNL     1       6.442  -2.757  -1.142  0.00  0.00    -0.236 NA
ATOM     31  C   UNL     1       7.074  -3.485  -0.188  0.00  0.00    +0.114 A 
ENDBRANCH  22  29
ENDBRANCH   1  23
BRANCH  11  32
ATOM     32  C   UNL     1      -1.665   3.822   0.881  0.00  0.00    +0.280 C 
ATOM     33  N   UNL     1      -1.303   5.046   1.512  0.00  0.00    -0.062 NA
ATOM     34  O   UNL     1      -2.858   3.760   0.555  0.00  0.00    -0.270 OA
BRANCH  33  35
ATOM     35  S   UNL     1      -2.234   6.329   2.033  0.00  0.00    +0.074 S 
ATOM     36  O   UNL     1      -2.928   6.105   3.360  0.00  0.00    -0.153 OA
ATOM     37  O   UNL     1      -1.239   7.426   2.373  0.00  0.00    -0.153 OA
BRANCH  35  38
ATOM     38  C   UNL     1      -3.318   7.039   0.840  0.00  0.00    +0.151 C 
ATOM     39  C   UNL     1      -3.567   8.563   1.027  0.00  0.00    +0.027 C 
ATOM     40  C   UNL     1      -2.722   8.072  -0.082  0.00  0.00    +0.027 C 
ENDBRANCH  35  38
ENDBRANCH  33  35
ENDBRANCH  11  32
BRANCH   7  41
ATOM     41  O   UNL     1      -2.354  -1.535   0.366  0.00  0.00    -0.462 OA
BRANCH  41  42
ATOM     42  C   UNL     1      -3.403  -2.424   0.592  0.00  0.00    +0.225 A 
ATOM     43  C   UNL     1      -3.217  -3.778   0.336  0.00  0.00    +0.053 A 
ATOM     44  C   UNL     1      -4.291  -4.642   0.158  0.00  0.00    +0.006 A 
ATOM     45  C   UNL     1      -4.084  -6.010   0.036  0.00  0.00    +0.000 A 
ATOM     46  C   UNL     1      -2.755  -6.416   0.038  0.00  0.00    +0.000 A 
ATOM     47  C   UNL     1      -1.736  -5.625   0.532  0.00  0.00    +0.000 A 
ATOM     48  C   UNL     1      -5.576  -4.124   0.039  0.00  0.00    +0.018 A 
ATOM     49  C   UNL     1      -5.700  -2.775   0.334  0.00  0.00    +0.084 A 
ATOM     50  C   UNL     1      -6.983  -2.249   0.357  0.00  0.00    +0.019 A 
ATOM     51  C   UNL     1      -8.090  -3.074   0.503  0.00  0.00    +0.002 A 
ATOM     52  C   UNL     1      -7.924  -4.377   0.076  0.00  0.00    +0.000 A 
ATOM     53  C   UNL     1      -6.686  -4.956  -0.071  0.00  0.00    +0.001 A 
ATOM     54  C   UNL     1      -2.068  -4.318   0.851  0.00  0.00    +0.005 A 
ATOM     55  N   UNL     1      -4.623  -1.969   0.221  0.00  0.00    -0.212 NA
ENDBRANCH  41  42
ENDBRANCH   7  41
TORSDOF 7
