REMARK  Name = 
REMARK  6 active torsions:
REMARK  status: ('A' for Active; 'I' for Inactive)
REMARK    1  A    between atoms: C_2  and  O_3
REMARK    2  A    between atoms: O_3  and  C_4
REMARK    3  A    between atoms: N_6  and  C_7
REMARK    4  A    between atoms: C_20  and  C_21
REMARK    5  A    between atoms: C_22  and  C_23
REMARK    6  A    between atoms: C_26  and  C_27
REMARK                            x       y       z     vdW  Elec       q    Type
REMARK                         _______ _______ _______ _____ _____    ______ ____
ROOT
ATOM      1  C   UNL     1      -2.199  -4.311   0.554  0.00  0.00    +0.099 C 
ATOM      2  C   UNL     1      -2.021  -3.557  -0.888  0.00  0.00    +0.022 C 
ATOM      3  C   UNL     1      -0.735  -2.600  -0.783  0.00  0.00    +0.003 C 
ATOM      4  C   UNL     1      -1.218  -1.730  -2.064  0.00  0.00    +0.011 C 
ATOM      5  C   UNL     1      -0.010  -0.659  -2.241  0.00  0.00    +0.103 C 
ATOM      6  C   UNL     1      -0.423   0.453  -1.052  0.00  0.00    +0.055 C 
ATOM      7  C   UNL     1      -0.136  -0.515   0.275  0.00  0.00    +0.026 C 
ATOM      8  C   UNL     1      -2.067   0.202  -1.248  0.00  0.00    +0.170 C 
ATOM      9  C   UNL     1      -2.397   1.726  -0.729  0.00  0.00    +0.047 C 
ATOM     10  O   UNL     1      -1.979   0.642  -2.703  0.00  0.00    -0.452 OA
ATOM     11  C   UNL     1      -0.852   0.222  -3.276  0.00  0.00    +0.316 C 
ATOM     12  O   UNL     1      -0.105   1.013  -3.936  0.00  0.00    -0.250 OA
ATOM     13  C   UNL     1      -1.502  -1.487   0.218  0.00  0.00    +0.004 C 
ATOM     14  C   UNL     1      -1.062  -2.254   1.553  0.00  0.00    +0.002 C 
ATOM     15  C   UNL     1      -0.914  -3.668   1.343  0.00  0.00    +0.022 C 
ENDROOT
BRANCH   1  17
ATOM     16  C   UNL     1      -3.710  -3.222   2.316  0.00  0.00    +0.421 C 
ATOM     17  N   UNL     1      -3.235  -3.225   1.017  0.00  0.00    -0.170 NA
ATOM     18  O   UNL     1      -3.077  -3.785   3.224  0.00  0.00    -0.225 OA
BRANCH  16  19
ATOM     19  O   UNL     1      -4.492  -2.120   2.686  0.00  0.00    -0.434 OA
BRANCH  19  21
ATOM     20  C   UNL     1      -3.892  -0.298   3.717  0.00  0.00    +0.051 C 
ATOM     21  C   UNL     1      -4.237  -1.313   3.814  0.00  0.00    +0.210 C 
ENDBRANCH  19  21
ENDBRANCH  16  19
ENDBRANCH   1  17
BRANCH   7  22
ATOM     22  C   UNL     1      -0.871   0.507   1.255  0.00  0.00    -0.025 C 
ATOM     23  C   UNL     1      -0.378   0.358   2.459  0.00  0.00    +0.015 C 
BRANCH  23  24
ATOM     24  C   UNL     1       1.011   0.761   2.580  0.00  0.00    +0.081 A 
ATOM     25  N   UNL     1       2.056  -0.054   2.302  0.00  0.00    -0.244 NA
ATOM     26  C   UNL     1       3.177   0.489   1.764  0.00  0.00    +0.099 A 
ATOM     27  C   UNL     1       3.264   1.852   1.498  0.00  0.00    +0.019 A 
ATOM     28  C   UNL     1       2.499   2.638   2.353  0.00  0.00    +0.003 A 
ATOM     29  C   UNL     1       1.385   2.051   2.944  0.00  0.00    +0.019 A 
BRANCH  27  30
ATOM     30  C   UNL     1       3.798   2.366   0.235  0.00  0.00    +0.004 A 
ATOM     31  C   UNL     1       2.968   2.569  -0.859  0.00  0.00    +0.030 A 
ATOM     32  C   UNL     1       3.330   3.519  -1.806  0.00  0.00    +0.140 A 
ATOM     33  F   UNL     1       2.696   3.415  -3.002  0.00  0.00    -0.204 F 
ATOM     34  C   UNL     1       4.677   3.812  -1.869  0.00  0.00    +0.030 A 
ATOM     35  C   UNL     1       5.513   3.596  -0.789  0.00  0.00    +0.002 A 
ATOM     36  C   UNL     1       5.139   2.605   0.111  0.00  0.00    +0.000 A 
ENDBRANCH  27  30
ENDBRANCH  23  24
ENDBRANCH   7  22
TORSDOF 6
