REMARK  Name = 
REMARK  3 active torsions:
REMARK  status: ('A' for Active; 'I' for Inactive)
REMARK    1  A    between atoms: C_5  and  N_6
REMARK    2  A    between atoms: N_9  and  C_10
REMARK    3  A    between atoms: C_10  and  C_11
REMARK                            x       y       z     vdW  Elec       q    Type
REMARK                         _______ _______ _______ _____ _____    ______ ____
ROOT
ATOM      1  C   UNL     1       0.873   2.532   1.357  0.00  0.00    +0.072 C 
ATOM      2  C   UNL     1       0.196   1.783   0.325  0.00  0.00    +0.125 A 
ATOM      3  N   UNL     1       0.096   0.436   0.352  0.00  0.00    -0.255 N 
ATOM      4  C   UNL     1      -0.897   0.028  -0.476  0.00  0.00    +0.378 A 
ATOM      5  C   UNL     1      -1.446   1.175  -1.035  0.00  0.00    +0.195 A 
ATOM      6  N   UNL     1      -0.759   2.211  -0.515  0.00  0.00    -0.223 NA
ENDROOT
BRANCH   4   7
ATOM      7  N   UNL     1      -1.580  -1.230  -0.391  0.00  0.00    +0.101 N 
ATOM      8  O   UNL     1      -1.654  -1.806   0.867  0.00  0.00    -0.575 OA
ATOM      9  O   UNL     1      -2.558  -1.448  -1.126  0.00  0.00    +0.043 OA
ENDBRANCH   4   7
BRANCH   3  10
ATOM     10  C   UNL     1       1.012  -0.447   1.070  0.00  0.00    +0.146 C 
BRANCH  10  11
ATOM     11  C   UNL     1       1.555  -1.338  -0.210  0.00  0.00    +0.175 C 
ATOM     12  O   UNL     1       2.238  -0.126  -0.823  0.00  0.00    -0.221 OA
ATOM     13  C   UNL     1       2.924  -1.772   0.603  0.00  0.00    +0.038 C 
ENDBRANCH  10  11
ENDBRANCH   3  10
TORSDOF 3
