REMARK  Name = 
REMARK  4 active torsions:
REMARK  status: ('A' for Active; 'I' for Inactive)
REMARK    1  A    between atoms: O_2  and  C_3
REMARK    2  A    between atoms: C_7  and  C_8
REMARK    3  A    between atoms: C_8  and  C_10
REMARK    4  A    between atoms: C_17  and  S_18
REMARK                            x       y       z     vdW  Elec       q    Type
REMARK                         _______ _______ _______ _____ _____    ______ ____
ROOT
ATOM      1  C   UNL     1      -2.295  -1.093  -0.267  0.00  0.00    +0.161 A 
ATOM      2  C   UNL     1      -1.741   0.102   0.177  0.00  0.00    +0.170 A 
ATOM      3  C   UNL     1      -0.394   0.360  -0.059  0.00  0.00    +0.030 A 
ATOM      4  C   UNL     1       0.384  -0.566  -0.744  0.00  0.00    +0.079 A 
ATOM      5  C   UNL     1      -0.237  -1.579  -1.462  0.00  0.00    +0.202 A 
ATOM      6  O   UNL     1       0.246  -2.007  -2.689  0.00  0.00    -0.286 OA
ATOM      7  C   UNL     1      -1.483  -1.962  -0.984  0.00  0.00    +0.080 A 
ENDROOT
BRANCH   2   8
ATOM      8  S   UNL     1      -2.884   1.407   0.473  0.00  0.00    +0.144 S 
ATOM      9  O   UNL     1      -2.091   2.877   0.219  0.00  0.00    -0.043 OA
ATOM     10  O   UNL     1      -3.372   1.413   1.885  0.00  0.00    -0.140 OA
ATOM     11  O   UNL     1      -4.032   1.369  -0.486  0.00  0.00    -0.140 OA
ENDBRANCH   2   8
BRANCH   1  13
ATOM     12  C   UNL     1      -2.991  -2.548   1.487  0.00  0.00    +0.253 C 
ATOM     13  O   UNL     1      -3.355  -1.580   0.504  0.00  0.00    -0.470 OA
ENDBRANCH   1  13
BRANCH   4  14
ATOM     14  C   UNL     1       1.716  -0.169  -1.165  0.00  0.00    +0.199 C 
ATOM     15  O   UNL     1       1.881   0.195  -2.366  0.00  0.00    -0.286 OA
BRANCH  14  16
ATOM     16  C   UNL     1       2.760   0.198  -0.211  0.00  0.00    +0.039 A 
ATOM     17  C   UNL     1       3.265  -0.712   0.709  0.00  0.00    +0.003 A 
ATOM     18  C   UNL     1       3.670  -0.231   1.941  0.00  0.00    +0.000 A 
ATOM     19  C   UNL     1       3.780   1.134   2.161  0.00  0.00    +0.000 A 
ATOM     20  C   UNL     1       3.889   1.921   1.020  0.00  0.00    +0.000 A 
ATOM     21  C   UNL     1       3.285   1.474  -0.146  0.00  0.00    +0.003 A 
ENDBRANCH  14  16
ENDBRANCH   4  14
TORSDOF 4
