REMARK  Name = 
REMARK  6 active torsions:
REMARK  status: ('A' for Active; 'I' for Inactive)
REMARK    1  A    between atoms: O_2  and  C_3
REMARK    2  A    between atoms: C_3  and  C_5
REMARK    3  A    between atoms: C_11  and  C_12
REMARK    4  A    between atoms: C_12  and  O_14
REMARK    5  A    between atoms: O_14  and  C_15
REMARK    6  A    between atoms: C_18  and  C_19
REMARK                            x       y       z     vdW  Elec       q    Type
REMARK                         _______ _______ _______ _____ _____    ______ ____
ROOT
ATOM      1  C   UNL     1      -0.171   1.592   0.402  0.00  0.00    +0.073 C 
ATOM      2  C   UNL     1       0.390   0.514  -0.677  0.00  0.00    +0.083 C 
ATOM      3  C   UNL     1       0.779  -0.616   0.417  0.00  0.00    +0.073 C 
ATOM      4  C   UNL     1       1.438  -0.179   1.474  0.00  0.00    +0.051 C 
ATOM      5  C   UNL     1       1.853  -1.234   2.452  0.00  0.00    +0.049 C 
ATOM      6  N   UNL     1       1.616   1.180   1.815  0.00  0.00    -0.221 NA
ATOM      7  C   UNL     1       0.853   2.114   1.083  0.00  0.00    +0.051 C 
ATOM      8  C   UNL     1       1.161   3.557   1.148  0.00  0.00    +0.049 C 
ENDROOT
BRANCH   2   9
ATOM      9  C   UNL     1      -1.078  -0.102  -0.937  0.00  0.00    +0.009 A 
ATOM     10  C   UNL     1      -1.826  -0.443   0.129  0.00  0.00    +0.140 A 
ATOM     11  C   UNL     1      -3.063  -1.048  -0.060  0.00  0.00    +0.143 A 
ATOM     12  N   UNL     1      -3.352  -1.504   1.187  0.00  0.00    -0.048 NA
ATOM     13  O   UNL     1      -2.660  -0.843   2.073  0.00  0.00    -0.242 OA
ATOM     14  C   UNL     1      -3.174  -1.772  -1.243  0.00  0.00    +0.024 A 
ATOM     15  C   UNL     1      -2.522  -1.248  -2.353  0.00  0.00    +0.001 A 
ATOM     16  N   UNL     1      -1.763  -0.182   1.436  0.00  0.00    -0.049 NA
ATOM     17  C   UNL     1      -1.335  -0.536  -2.205  0.00  0.00    -0.002 A 
ENDBRANCH   2   9
BRANCH   1  18
ATOM     18  C   UNL     1      -0.978   2.621  -0.282  0.00  0.00    +0.339 C 
ATOM     19  O   UNL     1      -1.991   3.118   0.302  0.00  0.00    -0.245 OA
BRANCH  18  21
ATOM     20  C   UNL     1      -0.894   4.718  -1.544  0.00  0.00    +0.256 C 
ATOM     21  O   UNL     1      -0.325   3.530  -1.124  0.00  0.00    -0.442 OA
ENDBRANCH  18  21
ENDBRANCH   1  18
BRANCH   3  22
ATOM     22  C   UNL     1       1.458  -1.715  -0.297  0.00  0.00    +0.339 C 
ATOM     23  O   UNL     1       1.341  -2.923   0.039  0.00  0.00    -0.245 OA
BRANCH  22  24
ATOM     24  O   UNL     1       2.490  -1.464  -1.207  0.00  0.00    -0.449 OA
BRANCH  24  25
ATOM     25  C   UNL     1       3.702  -2.217  -1.214  0.00  0.00    +0.169 C 
ATOM     26  C   UNL     1       4.657  -1.408  -0.342  0.00  0.00    +0.047 C 
ATOM     27  C   UNL     1       3.393  -3.509  -0.470  0.00  0.00    +0.047 C 
ENDBRANCH  24  25
ENDBRANCH  22  24
ENDBRANCH   3  22
TORSDOF 6
