REMARK  Name = 
REMARK  2 active torsions:
REMARK  status: ('A' for Active; 'I' for Inactive)
REMARK    1  A    between atoms: N_10  and  C_11
REMARK    2  A    between atoms: C_14  and  C_15
REMARK                            x       y       z     vdW  Elec       q    Type
REMARK                         _______ _______ _______ _____ _____    ______ ____
ROOT
ATOM      1  O   UNL     1       3.344   1.995   0.725  0.00  0.00    -0.263 OA
ATOM      2  C   UNL     1       3.066   1.130   0.445  0.00  0.00    +0.301 A 
ATOM      3  C   UNL     1       1.805   0.623   0.737  0.00  0.00    +0.175 A 
ATOM      4  N   UNL     1       0.890   0.988   1.658  0.00  0.00    -0.217 NA
ATOM      5  C   UNL     1      -0.260   0.378   1.304  0.00  0.00    +0.182 A 
ATOM      6  N   UNL     1       0.027  -0.635   0.513  0.00  0.00    -0.271 N 
ATOM      7  C   UNL     1       1.262  -0.455   0.046  0.00  0.00    +0.171 A 
ATOM      8  N   UNL     1       2.011  -1.136  -0.829  0.00  0.00    -0.205 NA
ATOM      9  C   UNL     1       3.311  -0.813  -0.901  0.00  0.00    +0.203 A 
ATOM     10  N   UNL     1       3.763   0.381  -0.445  0.00  0.00    -0.184 NA
ENDROOT
BRANCH   6  11
ATOM     11  C   UNL     1      -1.044  -1.416  -0.359  0.00  0.00    +0.207 C 
ATOM     12  O   UNL     1      -1.730  -0.135  -0.808  0.00  0.00    -0.335 OA
ATOM     13  C   UNL     1      -3.151  -0.576  -0.577  0.00  0.00    +0.150 C 
ATOM     14  C   UNL     1      -2.852  -0.503   1.041  0.00  0.00    +0.037 C 
ATOM     15  C   UNL     1      -1.997  -1.676   0.965  0.00  0.00    +0.057 C 
BRANCH  13  16
ATOM     16  C   UNL     1      -3.687   0.986  -0.587  0.00  0.00    +0.211 C 
ATOM     17  O   UNL     1      -4.757   0.864   0.315  0.00  0.00    -0.218 OA
ENDBRANCH  13  16
ENDBRANCH   6  11
TORSDOF 2
