REMARK  Name = 
REMARK  6 active torsions:
REMARK  status: ('A' for Active; 'I' for Inactive)
REMARK    1  A    between atoms: C_5  and  C_6
REMARK    2  A    between atoms: C_6  and  C_7
REMARK    3  A    between atoms: C_6  and  O_13
REMARK    4  A    between atoms: C_7  and  N_8
REMARK    5  A    between atoms: O_13  and  C_14
REMARK    6  A    between atoms: C_14  and  C_15
REMARK                            x       y       z     vdW  Elec       q    Type
REMARK                         _______ _______ _______ _____ _____    ______ ____
ROOT
ATOM      1  C   UNL     1      -1.564  -0.110   0.671  0.00  0.00    +0.161 C 
ENDROOT
BRANCH   1   7
ATOM      2 CL   UNL     1      -3.351  -5.015  -2.142  0.00  0.00    -0.082 Cl
ATOM      3  C   UNL     1      -2.778  -3.642  -1.347  0.00  0.00    +0.058 A 
ATOM      4  C   UNL     1      -3.675  -2.626  -1.081  0.00  0.00    +0.023 A 
ATOM      5  C   UNL     1      -3.209  -1.383  -0.747  0.00  0.00    +0.057 A 
ATOM      6 CL   UNL     1      -4.220   0.056  -0.887  0.00  0.00    -0.082 Cl
ATOM      7  C   UNL     1      -1.867  -1.086  -0.635  0.00  0.00    +0.017 A 
ATOM      8  C   UNL     1      -1.012  -2.184  -0.570  0.00  0.00    -0.000 A 
ATOM      9  C   UNL     1      -1.428  -3.353  -1.197  0.00  0.00    +0.011 A 
ENDBRANCH   1   7
BRANCH   1  10
ATOM     10  O   UNL     1      -0.441   0.628  -0.102  0.00  0.00    -0.345 OA
BRANCH  10  11
ATOM     11  C   UNL     1       0.625   0.543   0.768  0.00  0.00    +0.170 C 
BRANCH  11  12
ATOM     12  C   UNL     1       1.895   0.758  -0.000  0.00  0.00    +0.014 A 
ATOM     13  C   UNL     1       3.055   0.092   0.222  0.00  0.00    +0.006 A 
ATOM     14  C   UNL     1       3.346  -0.798   1.256  0.00  0.00    +0.000 A 
ATOM     15  C   UNL     1       4.496  -1.532   1.218  0.00  0.00    +0.001 A 
ATOM     16  C   UNL     1       5.620  -1.045   0.579  0.00  0.00    +0.012 A 
ATOM     17  C   UNL     1       5.413   0.028  -0.280  0.00  0.00    +0.064 A 
ATOM     18 CL   UNL     1       6.649   0.354  -1.491  0.00  0.00    -0.082 Cl
ATOM     19  C   UNL     1       4.167   0.647  -0.338  0.00  0.00    +0.040 A 
ATOM     20  S   UNL     1       3.553   1.735  -1.510  0.00  0.00    -0.086 S 
ATOM     21  C   UNL     1       1.896   1.567  -1.111  0.00  0.00    +0.034 A 
ENDBRANCH  11  12
ENDBRANCH  10  11
ENDBRANCH   1  10
BRANCH   1  22
ATOM     22  C   UNL     1      -2.694   1.038   0.171  0.00  0.00    +0.142 C 
BRANCH  22  23
ATOM     23  N   UNL     1      -2.515   2.077   1.185  0.00  0.00    -0.305 N 
ATOM     24  C   UNL     1      -2.274   3.361   0.831  0.00  0.00    +0.179 A 
ATOM     25  N   UNL     1      -2.953   4.212   1.601  0.00  0.00    -0.222 NA
ATOM     26  C   UNL     1      -3.548   3.503   2.577  0.00  0.00    +0.119 A 
ATOM     27  C   UNL     1      -3.187   2.177   2.359  0.00  0.00    +0.098 A 
ENDBRANCH  22  23
ENDBRANCH   1  22
TORSDOF 6
