REMARK  Name = 
REMARK  0 active torsions:
REMARK  status: ('A' for Active; 'I' for Inactive)
REMARK                            x       y       z     vdW  Elec       q    Type
REMARK                         _______ _______ _______ _____ _____    ______ ____
ROOT
ATOM      1 CL   UNL     1      -2.516   3.902   0.490  0.00  0.00    -0.082 Cl
ATOM      2  C   UNL     1      -1.635   2.717  -0.468  0.00  0.00    +0.058 A 
ATOM      3  C   UNL     1      -1.496   1.402  -0.044  0.00  0.00    +0.022 A 
ATOM      4  C   UNL     1      -0.361   0.681  -0.380  0.00  0.00    +0.117 A 
ATOM      5  C   UNL     1      -0.309  -0.521   0.463  0.00  0.00    +0.327 C 
ATOM      6  N   UNL     1       0.713  -1.298   0.555  0.00  0.00    -0.037 NA
ATOM      7  C   UNL     1       2.098  -1.113   0.269  0.00  0.00    +0.227 A 
ATOM      8  C   UNL     1       2.613  -0.155  -0.595  0.00  0.00    +0.188 A 
ATOM      9  O   UNL     1       1.900   0.757  -1.380  0.00  0.00    -0.449 OA
ATOM     10  C   UNL     1       3.954   0.176  -0.448  0.00  0.00    +0.041 A 
ATOM     11  C   UNL     1       4.681  -0.163   0.684  0.00  0.00    +0.003 A 
ATOM     12  C   UNL     1       4.259  -1.306   1.351  0.00  0.00    +0.004 A 
ATOM     13  C   UNL     1       2.924  -1.656   1.244  0.00  0.00    +0.050 A 
ATOM     14  N   UNL     1      -1.587  -1.159   0.583  0.00  0.00    -0.188 N 
ATOM     15  C   UNL     1      -2.035  -1.857  -0.619  0.00  0.00    +0.221 C 
ATOM     16  C   UNL     1      -3.009  -2.974  -0.278  0.00  0.00    +0.140 C 
ATOM     17  N   UNL     1      -3.779  -2.563   0.876  0.00  0.00    -0.209 NA
ATOM     18  C   UNL     1      -3.941  -1.113   0.929  0.00  0.00    +0.140 C 
ATOM     19  C   UNL     1      -2.616  -0.498   1.361  0.00  0.00    +0.221 C 
ATOM     20  C   UNL     1       0.570   1.181  -1.285  0.00  0.00    +0.153 A 
ATOM     21  C   UNL     1       0.387   2.466  -1.784  0.00  0.00    +0.039 A 
ATOM     22  C   UNL     1      -0.816   3.095  -1.524  0.00  0.00    +0.015 A 
ENDROOT
TORSDOF 0
