REMARK  Name = 
REMARK  6 active torsions:
REMARK  status: ('A' for Active; 'I' for Inactive)
REMARK    1  A    between atoms: C_6  and  C_7
REMARK    2  A    between atoms: C_7  and  C_8
REMARK    3  A    between atoms: C_8  and  O_9
REMARK    4  A    between atoms: O_9  and  C_10
REMARK    5  A    between atoms: C_10  and  C_12
REMARK    6  A    between atoms: C_10  and  C_18
REMARK                            x       y       z     vdW  Elec       q    Type
REMARK                         _______ _______ _______ _____ _____    ______ ____
ROOT
ATOM      1  C   UNL     1      -0.792  -0.493   0.576  0.00  0.00    +0.130 C 
ATOM      2  C   UNL     1      -0.561  -0.624   2.076  0.00  0.00    +0.039 C 
ENDROOT
BRANCH   1   3
ATOM      3  C   UNL     1      -1.597   0.719   0.324  0.00  0.00    +0.006 A 
ATOM      4  C   UNL     1      -0.990   1.807  -0.290  0.00  0.00    -0.001 A 
ATOM      5  C   UNL     1      -1.583   3.063  -0.268  0.00  0.00    +0.011 A 
ATOM      6  C   UNL     1      -2.850   3.198   0.284  0.00  0.00    +0.058 A 
ATOM      7 CL   UNL     1      -3.895   4.528  -0.208  0.00  0.00    -0.082 Cl
ATOM      8  C   UNL     1      -3.403   2.128   0.972  0.00  0.00    +0.011 A 
ATOM      9  C   UNL     1      -2.704   0.957   1.111  0.00  0.00    -0.001 A 
ENDBRANCH   1   3
BRANCH   1  10
ATOM     10  C   UNL     1      -1.485  -1.733   0.140  0.00  0.00    +0.006 A 
ATOM     11  C   UNL     1      -2.428  -1.746  -0.879  0.00  0.00    -0.002 A 
ATOM     12  C   UNL     1      -3.028  -2.964  -1.158  0.00  0.00    -0.000 A 
ATOM     13  C   UNL     1      -2.802  -4.078  -0.362  0.00  0.00    -0.000 A 
ATOM     14  C   UNL     1      -1.588  -4.120   0.308  0.00  0.00    -0.000 A 
ATOM     15  C   UNL     1      -0.891  -2.935   0.502  0.00  0.00    -0.002 A 
ENDBRANCH   1  10
BRANCH   1  16
ATOM     16  O   UNL     1       0.435  -0.435  -0.089  0.00  0.00    -0.350 OA
BRANCH  16  17
ATOM     17  C   UNL     1       1.328   0.250   0.739  0.00  0.00    +0.144 C 
BRANCH  17  18
ATOM     18  C   UNL     1       2.621   0.550   0.024  0.00  0.00    +0.048 C 
BRANCH  18  21
ATOM     19  C   UNL     1       4.365   1.769   1.586  0.00  0.00    +0.090 C 
ATOM     20  N   UNL     1       4.874   0.711   0.725  0.00  0.00    -0.273 NA
ATOM     21  C   UNL     1       3.714  -0.377   0.881  0.00  0.00    +0.060 C 
ATOM     22  C   UNL     1       4.207  -1.195  -0.486  0.00  0.00    +0.017 C 
ATOM     23  C   UNL     1       4.338  -0.079  -1.452  0.00  0.00    +0.019 C 
ATOM     24  C   UNL     1       4.714   1.100  -0.627  0.00  0.00    +0.072 C 
ENDBRANCH  18  21
ENDBRANCH  17  18
ENDBRANCH  16  17
ENDBRANCH   1  16
TORSDOF 6
