REMARK  Name = 
REMARK  7 active torsions:
REMARK  status: ('A' for Active; 'I' for Inactive)
REMARK    1  A    between atoms: C_3  and  N_4
REMARK    2  A    between atoms: C_5  and  C_7
REMARK    3  A    between atoms: C_7  and  C_16
REMARK    4  A    between atoms: N_8  and  O_9
REMARK    5  A    between atoms: O_9  and  C_10
REMARK    6  A    between atoms: C_10  and  C_13
REMARK    7  A    between atoms: N_24  and  S_25
REMARK                            x       y       z     vdW  Elec       q    Type
REMARK                         _______ _______ _______ _____ _____    ______ ____
ROOT
ATOM      1  C   UNL     1       1.299  -0.431   0.153  0.00  0.00    +0.192 C 
ATOM      2  N   UNL     1       2.325  -0.533  -0.640  0.00  0.00    -0.076 NA
ENDROOT
BRANCH   1   3
ATOM      3  C   UNL     1       1.614  -0.608   1.581  0.00  0.00    +0.115 A 
ATOM      4  N   UNL     1       2.064  -1.745   2.105  0.00  0.00    -0.220 NA
ATOM      5  C   UNL     1       2.773  -1.579   3.230  0.00  0.00    +0.201 A 
ATOM      6  N   UNL     1       3.552  -2.587   3.887  0.00  0.00    -0.100 NA
ATOM      7  S   UNL     1       2.041  -0.175   3.890  0.00  0.00    -0.048 S 
ATOM      8  C   UNL     1       1.035   0.207   2.550  0.00  0.00    +0.059 A 
ENDBRANCH   1   3
BRANCH   1  10
ATOM      9  N   UNL     1      -1.126  -0.320  -0.574  0.00  0.00    -0.191 NA
ATOM     10  C   UNL     1       0.073  -1.077  -0.345  0.00  0.00    +0.288 C 
ATOM     11  O   UNL     1       0.087  -2.323  -0.240  0.00  0.00    -0.267 OA
BRANCH   9  17
ATOM     12  C   UNL     1      -4.440  -1.873   0.159  0.00  0.00    +0.026 C 
ATOM     13  C   UNL     1      -3.048  -1.093   0.626  0.00  0.00    +0.130 C 
ATOM     14  N   UNL     1      -3.495   0.264  -0.037  0.00  0.00    -0.136 N 
ATOM     15  C   UNL     1      -3.319  -0.139  -1.359  0.00  0.00    +0.267 C 
ATOM     16  O   UNL     1      -4.148  -0.177  -2.323  0.00  0.00    -0.271 OA
ATOM     17  C   UNL     1      -2.311  -1.336  -0.925  0.00  0.00    +0.193 C 
BRANCH  14  18
ATOM     18  S   UNL     1      -4.031   1.635   0.806  0.00  0.00    +0.200 S 
ATOM     19  O   UNL     1      -5.223   1.104   1.881  0.00  0.00    -0.029 OA
ATOM     20  O   UNL     1      -4.590   2.596  -0.181  0.00  0.00    -0.124 OA
ATOM     21  O   UNL     1      -2.871   2.247   1.534  0.00  0.00    -0.124 OA
ENDBRANCH  14  18
ENDBRANCH   9  17
ENDBRANCH   1  10
BRANCH   2  22
ATOM     22  O   UNL     1       2.181  -0.352  -1.978  0.00  0.00    -0.374 OA
BRANCH  22  23
ATOM     23  C   UNL     1       2.660   0.861  -2.550  0.00  0.00    +0.253 C 
ATOM     24  C   UNL     1       3.261   0.493  -3.897  0.00  0.00    +0.058 C 
ATOM     25  C   UNL     1       1.459   1.760  -2.754  0.00  0.00    +0.058 C 
BRANCH  23  26
ATOM     26  C   UNL     1       3.649   1.539  -1.685  0.00  0.00    +0.403 C 
ATOM     27  O   UNL     1       4.688   0.866  -1.040  0.00  0.00    -0.242 OA
ATOM     28  O   UNL     1       3.842   2.778  -1.876  0.00  0.00    -0.242 OA
ENDBRANCH  23  26
ENDBRANCH  22  23
ENDBRANCH   2  22
TORSDOF 7
