REMARK  Name = 
REMARK  12 active torsions:
REMARK  status: ('A' for Active; 'I' for Inactive)
REMARK    1  A    between atoms: N_4  and  C_5
REMARK    2  A    between atoms: N_4  and  C_10
REMARK    3  A    between atoms: C_5  and  C_6
REMARK    4  A    between atoms: C_6  and  C_8
REMARK    5  A    between atoms: C_13  and  C_14
REMARK    6  A    between atoms: N_16  and  C_17
REMARK    7  A    between atoms: C_17  and  C_18
REMARK    8  A    between atoms: C_18  and  C_20
REMARK    9  A    between atoms: C_24  and  C_25
REMARK   10  A    between atoms: N_27  and  C_28
REMARK   11  A    between atoms: C_28  and  C_29
REMARK   12  A    between atoms: C_29  and  C_31
REMARK                            x       y       z     vdW  Elec       q    Type
REMARK                         _______ _______ _______ _____ _____    ______ ____
ROOT
ATOM      1  C   UNL     1       0.070   1.254  -0.044  0.00  0.00    +0.065 A 
ATOM      2  C   UNL     1       0.959   0.683   0.858  0.00  0.00    +0.049 A 
ATOM      3  I   UNL     1       2.128   1.903   2.078  0.00  0.00    -0.041 I 
ATOM      4  C   UNL     1       1.309  -0.661   0.787  0.00  0.00    +0.067 A 
ATOM      5  C   UNL     1       0.356  -1.479   0.203  0.00  0.00    +0.040 A 
ATOM      6  I   UNL     1       0.767  -3.509  -0.220  0.00  0.00    -0.042 I 
ATOM      7  C   UNL     1      -0.770  -0.953  -0.418  0.00  0.00    +0.067 A 
ATOM      8  C   UNL     1      -0.800   0.409  -0.684  0.00  0.00    +0.049 A 
ATOM      9  I   UNL     1      -1.870   1.008  -2.390  0.00  0.00    -0.041 I 
ENDROOT
BRANCH   1  12
ATOM     10  C   UNL     1      -1.329   3.306  -0.709  0.00  0.00    +0.095 C 
ATOM     11  C   UNL     1      -1.292   3.148  -0.582  0.00  0.00    +0.230 C 
ATOM     12  N   UNL     1      -0.059   2.665  -0.220  0.00  0.00    -0.255 N 
ATOM     13  O   UNL     1      -2.344   3.187  -0.047  0.00  0.00    -0.275 OA
BRANCH  12  14
ATOM     14  C   UNL     1       0.739   3.456   0.644  0.00  0.00    +0.134 C 
BRANCH  14  15
ATOM     15  C   UNL     1       1.117   4.869  -0.118  0.00  0.00    +0.205 C 
ATOM     16  O   UNL     1       0.645   4.440  -1.504  0.00  0.00    -0.218 OA
BRANCH  15  17
ATOM     17  C   UNL     1      -0.344   5.541   0.265  0.00  0.00    +0.217 C 
ATOM     18  O   UNL     1      -0.527   6.495  -0.735  0.00  0.00    -0.218 OA
ENDBRANCH  15  17
ENDBRANCH  14  15
ENDBRANCH  12  14
ENDBRANCH   1  12
BRANCH   4  19
ATOM     19  C   UNL     1       2.695  -1.094   0.883  0.00  0.00    +0.266 C 
ATOM     20  N   UNL     1       3.205  -1.899  -0.160  0.00  0.00    -0.199 NA
ATOM     21  O   UNL     1       3.515  -0.305   1.423  0.00  0.00    -0.268 OA
BRANCH  20  22
ATOM     22  C   UNL     1       4.519  -2.017  -0.624  0.00  0.00    +0.151 C 
BRANCH  22  23
ATOM     23  C   UNL     1       5.450  -2.654   0.585  0.00  0.00    +0.206 C 
ATOM     24  O   UNL     1       4.291  -3.256   1.374  0.00  0.00    -0.218 OA
BRANCH  23  25
ATOM     25  C   UNL     1       5.722  -4.058  -0.249  0.00  0.00    +0.217 C 
ATOM     26  O   UNL     1       4.462  -4.444  -0.681  0.00  0.00    -0.218 OA
ENDBRANCH  23  25
ENDBRANCH  22  23
ENDBRANCH  20  22
ENDBRANCH   4  19
BRANCH   7  27
ATOM     27  C   UNL     1      -1.990  -1.749  -0.588  0.00  0.00    +0.266 C 
ATOM     28  N   UNL     1      -2.562  -2.209   0.647  0.00  0.00    -0.199 NA
ATOM     29  O   UNL     1      -2.176  -2.520  -1.558  0.00  0.00    -0.268 OA
BRANCH  28  30
ATOM     30  C   UNL     1      -3.947  -2.675   0.678  0.00  0.00    +0.151 C 
BRANCH  30  31
ATOM     31  C   UNL     1      -4.726  -1.238   0.924  0.00  0.00    +0.206 C 
ATOM     32  O   UNL     1      -4.766  -0.938  -0.567  0.00  0.00    -0.218 OA
BRANCH  31  33
ATOM     33  C   UNL     1      -6.230  -1.921   0.908  0.00  0.00    +0.217 C 
ATOM     34  O   UNL     1      -6.216  -2.788  -0.162  0.00  0.00    -0.218 OA
ENDBRANCH  31  33
ENDBRANCH  30  31
ENDBRANCH  28  30
ENDBRANCH   7  27
TORSDOF 12
