REMARK  Name = 
REMARK  3 active torsions:
REMARK  status: ('A' for Active; 'I' for Inactive)
REMARK    1  A    between atoms: C_2  and  O_4
REMARK    2  A    between atoms: O_4  and  C_5
REMARK    3  A    between atoms: C_5  and  C_7
REMARK                            x       y       z     vdW  Elec       q    Type
REMARK                         _______ _______ _______ _____ _____    ______ ____
ROOT
ATOM      1  C   UNL     1      -0.221   0.584   0.361  0.00  0.00    +0.294 C 
ATOM      2 CL   UNL     1       0.270  -0.661   1.717  0.00  0.00    -0.073 Cl
ENDROOT
BRANCH   1   3
ATOM      3  C   UNL     1      -1.608  -0.153   0.001  0.00  0.00    +0.437 C 
ATOM      4  F   UNL     1      -2.347   0.921  -0.490  0.00  0.00    -0.166 F 
ATOM      5  F   UNL     1      -1.468  -1.067  -0.954  0.00  0.00    -0.166 F 
ATOM      6  F   UNL     1      -2.207  -0.540   1.161  0.00  0.00    -0.166 F 
ENDBRANCH   1   3
BRANCH   1   7
ATOM      7  O   UNL     1       0.613  -0.102  -0.668  0.00  0.00    -0.278 OA
BRANCH   7   9
ATOM      8  F   UNL     1       2.288   1.495  -0.594  0.00  0.00    -0.166 F 
ATOM      9  C   UNL     1       1.889   0.229  -0.413  0.00  0.00    +0.451 C 
ATOM     10  F   UNL     1       2.792  -0.706  -0.120  0.00  0.00    -0.166 F 
ENDBRANCH   7   9
ENDBRANCH   1   7
TORSDOF 3
