REMARK  Name = 
REMARK  6 active torsions:
REMARK  status: ('A' for Active; 'I' for Inactive)
REMARK    1  A    between atoms: C_4  and  C_6
REMARK    2  A    between atoms: C_9  and  N_10
REMARK    3  A    between atoms: C_11  and  C_13
REMARK    4  A    between atoms: N_15  and  C_16
REMARK    5  A    between atoms: C_23  and  N_24
REMARK    6  A    between atoms: C_25  and  C_27
REMARK                            x       y       z     vdW  Elec       q    Type
REMARK                         _______ _______ _______ _____ _____    ______ ____
ROOT
ATOM      1  C   UNL     1       1.210   3.294   0.329  0.00  0.00    +0.079 C 
ATOM      2  C   UNL     1      -0.059   3.120  -0.671  0.00  0.00    +0.033 C 
ATOM      3  C   UNL     1      -0.230   1.516  -0.896  0.00  0.00    +0.116 C 
ATOM      4  C   UNL     1      -1.159   1.359   0.545  0.00  0.00    +0.116 C 
ATOM      5  C   UNL     1       0.051   1.569   1.615  0.00  0.00    +0.024 C 
ATOM      6  C   UNL     1       0.310   3.022   1.671  0.00  0.00    +0.011 C 
ENDROOT
BRANCH   1   9
ATOM      7  C   UNL     1       1.414   5.704  -1.105  0.00  0.00    +0.115 C 
ATOM      8  N   UNL     1       0.933   5.582  -0.790  0.00  0.00    -0.276 N 
ATOM      9  C   UNL     1       0.961   4.881   0.451  0.00  0.00    +0.225 C 
ATOM     10  O   UNL     1       1.681   5.312   1.386  0.00  0.00    -0.275 OA
ATOM     11  C   UNL     1      -0.307   6.319  -1.064  0.00  0.00    +0.115 C 
ENDBRANCH   1   9
BRANCH   3  12
ATOM     12  N   UNL     1       1.136   1.026  -0.310  0.00  0.00    -0.200 NA
ATOM     13  C   UNL     1       1.629  -0.204  -0.778  0.00  0.00    +0.289 C 
ATOM     14  O   UNL     1       1.456  -0.493  -2.002  0.00  0.00    -0.266 OA
BRANCH  13  15
ATOM     15  C   UNL     1       2.749  -0.822  -0.051  0.00  0.00    +0.165 A 
ATOM     16  S   UNL     1       2.892  -2.365   0.695  0.00  0.00    -0.065 S 
ATOM     17  C   UNL     1       4.608  -2.505   0.664  0.00  0.00    +0.039 A 
ATOM     18  C   UNL     1       5.485  -3.717   0.629  0.00  0.00    +0.107 C 
ATOM     19  N   UNL     1       6.535  -3.648  -0.334  0.00  0.00    -0.267 NA
ATOM     20  C   UNL     1       6.366  -2.659  -1.361  0.00  0.00    +0.079 C 
ATOM     21  C   UNL     1       6.294  -1.318  -0.634  0.00  0.00    +0.063 C 
ATOM     22  C   UNL     1       7.754  -3.285   0.388  0.00  0.00    +0.090 C 
ATOM     23  C   UNL     1       4.927  -1.332  -0.011  0.00  0.00    +0.064 A 
ATOM     24  N   UNL     1       4.000  -0.393   0.130  0.00  0.00    -0.238 NA
ENDBRANCH  13  15
ENDBRANCH   3  12
BRANCH   4  25
ATOM     25  N   UNL     1      -0.982  -0.196   0.548  0.00  0.00    -0.198 NA
ATOM     26  C   UNL     1      -1.778  -0.905  -0.387  0.00  0.00    +0.321 C 
ATOM     27  O   UNL     1      -1.904  -0.333  -1.513  0.00  0.00    -0.263 OA
BRANCH  26  28
ATOM     28  C   UNL     1      -2.730  -1.953   0.003  0.00  0.00    +0.326 C 
ATOM     29  N   UNL     1      -3.707  -2.443  -0.887  0.00  0.00    -0.153 NA
ATOM     30  O   UNL     1      -2.911  -2.285   1.213  0.00  0.00    -0.263 OA
BRANCH  29  31
ATOM     31  C   UNL     1      -5.106  -2.510  -0.568  0.00  0.00    +0.155 A 
ATOM     32  N   UNL     1      -5.845  -1.701  -1.370  0.00  0.00    -0.226 NA
ATOM     33  C   UNL     1      -7.074  -1.283  -1.077  0.00  0.00    +0.112 A 
ATOM     34  C   UNL     1      -7.545  -1.370   0.200  0.00  0.00    +0.077 A 
ATOM     35 CL   UNL     1      -8.686  -0.194   0.845  0.00  0.00    -0.081 Cl
ATOM     36  C   UNL     1      -6.800  -2.130   1.094  0.00  0.00    +0.016 A 
ATOM     37  C   UNL     1      -5.567  -2.658   0.720  0.00  0.00    +0.037 A 
ENDBRANCH  29  31
ENDBRANCH  26  28
ENDBRANCH   4  25
TORSDOF 6
