REMARK  Name = 
REMARK  12 active torsions:
REMARK  status: ('A' for Active; 'I' for Inactive)
REMARK    1  A    between atoms: C_2  and  C_5
REMARK    2  A    between atoms: C_10  and  C_11
REMARK    3  A    between atoms: C_11  and  C_12
REMARK    4  A    between atoms: C_12  and  C_13
REMARK    5  A    between atoms: C_13  and  S_14
REMARK    6  A    between atoms: C_13  and  C_23
REMARK    7  A    between atoms: S_14  and  C_15
REMARK    8  A    between atoms: C_15  and  C_16
REMARK    9  A    between atoms: C_16  and  C_17
REMARK   10  A    between atoms: C_17  and  C_18
REMARK   11  A    between atoms: C_27  and  C_28
REMARK   12  A    between atoms: C_29  and  C_30
REMARK                            x       y       z     vdW  Elec       q    Type
REMARK                         _______ _______ _______ _____ _____    ______ ____
ROOT
ATOM      1  C   UNL     1      -2.707  -0.643   0.955  0.00  0.00    +0.070 C 
ENDROOT
BRANCH   1   2
ATOM      2  C   UNL     1      -1.150  -0.549   1.087  0.00  0.00    -0.012 A 
ATOM      3  C   UNL     1      -0.434   0.185   0.191  0.00  0.00    -0.003 A 
ATOM      4  C   UNL     1       0.944   0.242   0.365  0.00  0.00    -0.000 A 
ATOM      5  C   UNL     1       1.362   0.409   1.680  0.00  0.00    -0.000 A 
ATOM      6  C   UNL     1       0.546  -0.044   2.694  0.00  0.00    -0.000 A 
ATOM      7  C   UNL     1      -0.698  -0.553   2.401  0.00  0.00    -0.003 A 
BRANCH   4   8
ATOM      8  C   UNL     1       1.864   0.438  -0.746  0.00  0.00    +0.002 C 
ATOM      9  C   UNL     1       2.696  -0.471  -1.196  0.00  0.00    +0.019 C 
BRANCH   9  10
ATOM     10  C   UNL     1       4.136  -0.239  -1.376  0.00  0.00    +0.081 A 
ATOM     11  N   UNL     1       4.936  -0.799  -0.438  0.00  0.00    -0.245 NA
ATOM     12  C   UNL     1       6.067  -0.200   0.001  0.00  0.00    +0.082 A 
ATOM     13  C   UNL     1       6.411   1.055  -0.427  0.00  0.00    +0.018 A 
ATOM     14  C   UNL     1       7.605   1.596   0.019  0.00  0.00    +0.002 A 
ATOM     15  C   UNL     1       8.486   0.806   0.716  0.00  0.00    +0.011 A 
ATOM     16  C   UNL     1       8.266  -0.552   0.885  0.00  0.00    +0.059 A 
ATOM     17 CL   UNL     1       9.583  -1.682   1.166  0.00  0.00    -0.082 Cl
ATOM     18  C   UNL     1       5.715   1.605  -1.485  0.00  0.00    +0.003 A 
ATOM     19  C   UNL     1       6.959  -0.986   0.710  0.00  0.00    +0.030 A 
ATOM     20  C   UNL     1       4.590   0.938  -1.947  0.00  0.00    +0.019 A 
ENDBRANCH   9  10
ENDBRANCH   4   8
ENDBRANCH   1   2
BRANCH   1  21
ATOM     21  S   UNL     1      -2.707  -1.004  -0.926  0.00  0.00    -0.137 S 
BRANCH  21  22
ATOM     22  C   UNL     1      -3.033  -2.751  -1.164  0.00  0.00    +0.058 C 
BRANCH  22  23
ATOM     23  C   UNL     1      -2.419  -3.635  -0.121  0.00  0.00    +0.021 C 
ATOM     24  C   UNL     1      -1.539  -4.743  -0.764  0.00  0.00    +0.001 C 
ATOM     25  C   UNL     1      -0.970  -3.704   0.120  0.00  0.00    +0.001 C 
BRANCH  23  26
ATOM     26  C   UNL     1      -3.420  -4.231   0.845  0.00  0.00    +0.115 C 
BRANCH  26  27
ATOM     27  C   UNL     1      -3.931  -5.495   0.232  0.00  0.00    +0.365 C 
ATOM     28  O   UNL     1      -5.291  -5.762   0.351  0.00  0.00    -0.246 OA
ATOM     29  O   UNL     1      -3.184  -6.506   0.073  0.00  0.00    -0.246 OA
ENDBRANCH  26  27
ENDBRANCH  23  26
ENDBRANCH  22  23
ENDBRANCH  21  22
ENDBRANCH   1  21
BRANCH   1  30
ATOM     30  C   UNL     1      -2.930   0.929   0.778  0.00  0.00    +0.020 C 
BRANCH  30  31
ATOM     31  C   UNL     1      -4.344   1.140   0.293  0.00  0.00    +0.027 C 
BRANCH  31  33
ATOM     32  C   UNL     1      -4.020   3.520  -0.116  0.00  0.00    +0.001 A 
ATOM     33  C   UNL     1      -4.298   2.279  -0.676  0.00  0.00    -0.024 A 
ATOM     34  C   UNL     1      -3.903   1.998  -1.975  0.00  0.00    -0.005 A 
ATOM     35  C   UNL     1      -3.213   2.960  -2.703  0.00  0.00    -0.000 A 
ATOM     36  C   UNL     1      -2.896   4.186  -2.138  0.00  0.00    -0.000 A 
ATOM     37  C   UNL     1      -3.485   4.514  -0.923  0.00  0.00    -0.002 A 
BRANCH  32  39
ATOM     38  C   UNL     1      -5.601   4.423   0.820  0.00  0.00    +0.038 C 
ATOM     39  C   UNL     1      -4.853   3.917   1.063  0.00  0.00    +0.145 C 
ATOM     40  O   UNL     1      -5.234   2.752   1.747  0.00  0.00    -0.221 OA
ATOM     41  C   UNL     1      -3.907   4.656   2.003  0.00  0.00    +0.038 C 
ENDBRANCH  32  39
ENDBRANCH  31  33
ENDBRANCH  30  31
ENDBRANCH   1  30
TORSDOF 12
