REMARK  Name = 
REMARK  2 active torsions:
REMARK  status: ('A' for Active; 'I' for Inactive)
REMARK    1  A    between atoms: C_2  and  C_4
REMARK    2  A    between atoms: C_4  and  C_6
REMARK                            x       y       z     vdW  Elec       q    Type
REMARK                         _______ _______ _______ _____ _____    ______ ____
ROOT
ATOM      1  C   UNL     1       1.587  -0.212  -0.946  0.00  0.00    +0.147 C 
ATOM      2  N   UNL     1       0.288  -1.034  -0.583  0.00  0.00    -0.228 NA
ATOM      3  C   UNL     1      -0.944  -0.378  -0.553  0.00  0.00    +0.157 A 
ATOM      4  C   UNL     1      -1.029   0.502   0.533  0.00  0.00    +0.170 A 
ATOM      5  N   UNL     1      -2.169   1.082   0.908  0.00  0.00    -0.193 NA
ATOM      6  C   UNL     1      -3.325   0.698   0.299  0.00  0.00    +0.260 A 
ATOM      7  N   UNL     1      -3.259  -0.373  -0.527  0.00  0.00    -0.171 NA
ATOM      8  N   UNL     1      -4.359   1.669   0.091  0.00  0.00    -0.086 NA
ATOM      9  N   UNL     1       0.298   0.972   0.830  0.00  0.00    -0.217 NA
ATOM     10  C   UNL     1      -2.129  -1.083  -0.743  0.00  0.00    +0.299 A 
ATOM     11  O   UNL     1      -2.128  -2.266  -1.185  0.00  0.00    -0.264 OA
ATOM     12  C   UNL     1       1.067   1.249  -0.353  0.00  0.00    +0.138 C 
ENDROOT
BRANCH   1  13
ATOM     13  C   UNL     1       2.281  -0.623   0.585  0.00  0.00    +0.203 C 
ATOM     14  O   UNL     1       2.600  -2.016   0.079  0.00  0.00    -0.219 OA
BRANCH  13  16
ATOM     15  C   UNL     1       3.526   0.849  -1.104  0.00  0.00    +0.038 C 
ATOM     16  C   UNL     1       3.905  -0.121   0.195  0.00  0.00    +0.184 C 
ATOM     17  O   UNL     1       3.787   1.083   1.153  0.00  0.00    -0.220 OA
ENDBRANCH  13  16
ENDBRANCH   1  13
TORSDOF 2
