REMARK  Name = 
REMARK  3 active torsions:
REMARK  status: ('A' for Active; 'I' for Inactive)
REMARK    1  A    between atoms: C_2  and  O_3
REMARK    2  A    between atoms: O_3  and  C_4
REMARK    3  A    between atoms: C_4  and  C_6
REMARK                            x       y       z     vdW  Elec       q    Type
REMARK                         _______ _______ _______ _____ _____    ______ ____
ROOT
ATOM      1  C   UNL     1       1.924   0.626  -0.119  0.00  0.00    +0.172 A 
ATOM      2  C   UNL     1       0.750  -0.051   0.120  0.00  0.00    +0.087 A 
ATOM      3  C   UNL     1       0.697  -1.521   0.219  0.00  0.00    +0.140 C 
ATOM      4  N   UNL     1      -0.524  -2.076  -0.334  0.00  0.00    -0.269 N 
ATOM      5  C   UNL     1      -1.838  -1.704   0.097  0.00  0.00    +0.251 C 
ATOM      6  C   UNL     1      -2.349  -0.381   0.476  0.00  0.00    +0.072 A 
ATOM      7  C   UNL     1      -1.552   0.732   0.705  0.00  0.00    +0.070 A 
ATOM      8  C   UNL     1      -2.191   1.966   0.706  0.00  0.00    +0.020 A 
ATOM      9  C   UNL     1      -3.455   2.143   0.162  0.00  0.00    +0.031 A 
ATOM     10  C   UNL     1      -4.241   1.028  -0.102  0.00  0.00    +0.140 A 
ATOM     11  F   UNL     1      -5.291   1.162  -0.964  0.00  0.00    -0.204 F 
ATOM     12  C   UNL     1      -3.698  -0.218   0.185  0.00  0.00    +0.036 A 
ATOM     13  O   UNL     1      -2.740  -2.522  -0.162  0.00  0.00    -0.270 OA
ATOM     14  C   UNL     1      -0.416  -3.218  -1.234  0.00  0.00    +0.116 C 
ATOM     15  N   UNL     1      -0.125   0.843   0.642  0.00  0.00    -0.290 N 
ATOM     16  C   UNL     1       0.508   2.025   0.795  0.00  0.00    +0.183 A 
ATOM     17  N   UNL     1       1.693   1.928   0.147  0.00  0.00    -0.217 NA
ENDROOT
BRANCH   1  18
ATOM     18  C   UNL     1       3.265   0.080  -0.364  0.00  0.00    +0.360 C 
ATOM     19  O   UNL     1       3.818   0.467  -1.436  0.00  0.00    -0.243 OA
BRANCH  18  20
ATOM     20  O   UNL     1       4.095  -0.354   0.662  0.00  0.00    -0.444 OA
BRANCH  20  22
ATOM     21  C   UNL     1       6.202  -0.954   1.651  0.00  0.00    +0.051 C 
ATOM     22  C   UNL     1       5.469  -0.003   0.741  0.00  0.00    +0.209 C 
ENDBRANCH  20  22
ENDBRANCH  18  20
ENDBRANCH   1  18
TORSDOF 3
