REMARK  Name = 
REMARK  4 active torsions:
REMARK  status: ('A' for Active; 'I' for Inactive)
REMARK    1  A    between atoms: C_8  and  O_9
REMARK    2  A    between atoms: O_9  and  C_10
REMARK    3  A    between atoms: C_10  and  C_11
REMARK    4  A    between atoms: C_10  and  C_17
REMARK                            x       y       z     vdW  Elec       q    Type
REMARK                         _______ _______ _______ _____ _____    ______ ____
ROOT
ATOM      1  C   UNL     1      -0.714   0.103  -0.344  0.00  0.00    +0.160 C 
ENDROOT
BRANCH   1   2
ATOM      2  C   UNL     1      -1.473  -1.122  -0.652  0.00  0.00    +0.009 A 
ATOM      3  C   UNL     1      -1.718  -2.114   0.281  0.00  0.00    -0.002 A 
ATOM      4  C   UNL     1      -2.551  -3.187  -0.009  0.00  0.00    -0.000 A 
ATOM      5  C   UNL     1      -3.428  -3.035  -1.062  0.00  0.00    -0.000 A 
ATOM      6  C   UNL     1      -3.135  -2.081  -2.009  0.00  0.00    -0.000 A 
ATOM      7  C   UNL     1      -1.983  -1.306  -1.922  0.00  0.00    -0.002 A 
ENDBRANCH   1   2
BRANCH   1   8
ATOM      8  C   UNL     1      -1.713   1.190  -0.120  0.00  0.00    +0.009 A 
ATOM      9  C   UNL     1      -2.588   1.152   0.935  0.00  0.00    -0.002 A 
ATOM     10  C   UNL     1      -3.007   2.382   1.428  0.00  0.00    -0.000 A 
ATOM     11  C   UNL     1      -2.753   3.565   0.745  0.00  0.00    -0.000 A 
ATOM     12  C   UNL     1      -2.300   3.449  -0.543  0.00  0.00    -0.000 A 
ATOM     13  C   UNL     1      -1.659   2.301  -0.951  0.00  0.00    -0.002 A 
ENDBRANCH   1   8
BRANCH   1  14
ATOM     14  O   UNL     1       0.085   0.005   0.790  0.00  0.00    -0.350 OA
BRANCH  14  19
ATOM     15  C   UNL     1       4.626   0.635  -1.111  0.00  0.00    +0.090 C 
ATOM     16  N   UNL     1       3.505   0.388  -0.473  0.00  0.00    -0.274 NA
ATOM     17  C   UNL     1       3.415  -1.161  -0.292  0.00  0.00    +0.060 C 
ATOM     18  C   UNL     1       1.769  -1.228  -0.161  0.00  0.00    +0.046 C 
ATOM     19  C   UNL     1       1.413   0.351   0.144  0.00  0.00    +0.119 C 
ATOM     20  C   UNL     1       2.236   0.311   1.573  0.00  0.00    +0.046 C 
ATOM     21  C   UNL     1       3.631  -1.241   1.330  0.00  0.00    +0.017 C 
ATOM     22  C   UNL     1       4.680  -0.288   1.439  0.00  0.00    +0.017 C 
ATOM     23  C   UNL     1       3.662   0.932   0.985  0.00  0.00    +0.060 C 
ENDBRANCH  14  19
ENDBRANCH   1  14
TORSDOF 4
