REMARK  Name = 
REMARK  2 active torsions:
REMARK  status: ('A' for Active; 'I' for Inactive)
REMARK    1  A    between atoms: C_2  and  C_4
REMARK    2  A    between atoms: C_8  and  C_9
REMARK                            x       y       z     vdW  Elec       q    Type
REMARK                         _______ _______ _______ _____ _____    ______ ____
ROOT
ATOM      1  C   UNL     1       1.190   0.441  -0.286  0.00  0.00    +0.016 A 
ATOM      2  C   UNL     1      -0.004  -0.265  -0.273  0.00  0.00    +0.188 A 
ATOM      3  O   UNL     1      -0.001  -1.617  -0.538  0.00  0.00    -0.287 OA
ATOM      4  C   UNL     1      -1.215   0.346   0.011  0.00  0.00    +0.016 A 
ATOM      5  C   UNL     1      -1.146   1.701   0.306  0.00  0.00    -0.001 A 
ATOM      6  C   UNL     1       0.012   2.417   0.142  0.00  0.00    -0.000 A 
ATOM      7  C   UNL     1       1.218   1.761   0.149  0.00  0.00    -0.001 A 
ENDROOT
BRANCH   1   9
ATOM      8  C   UNL     1       2.414  -1.671  -0.763  0.00  0.00    +0.005 C 
ATOM      9  C   UNL     1       2.516  -0.252  -0.246  0.00  0.00    +0.025 C 
ATOM     10  C   UNL     1       3.098  -0.260   1.155  0.00  0.00    +0.005 C 
ENDBRANCH   1   9
BRANCH   4  11
ATOM     11  C   UNL     1      -2.481  -0.375   0.203  0.00  0.00    +0.025 C 
ATOM     12  C   UNL     1      -2.422  -1.479   1.210  0.00  0.00    +0.005 C 
ATOM     13  C   UNL     1      -3.179  -0.748  -1.069  0.00  0.00    +0.005 C 
ENDBRANCH   4  11
TORSDOF 2
