REMARK  Name = 
REMARK  6 active torsions:
REMARK  status: ('A' for Active; 'I' for Inactive)
REMARK    1  A    between atoms: C_7  and  C_8
REMARK    2  A    between atoms: C_8  and  S_9
REMARK    3  A    between atoms: C_16  and  C_17
REMARK    4  A    between atoms: C_20  and  C_21
REMARK    5  A    between atoms: C_25  and  C_26
REMARK    6  A    between atoms: C_26  and  S_27
REMARK                            x       y       z     vdW  Elec       q    Type
REMARK                         _______ _______ _______ _____ _____    ______ ____
ROOT
ATOM      1  C   UNL     1      -1.368  -0.616   0.000  0.00  0.00    -0.000 A 
ATOM      2  C   UNL     1      -1.217   0.877   0.000  0.00  0.00    -0.000 A 
ATOM      3  C   UNL     1       0.151   1.492   0.000  0.00  0.00    -0.000 A 
ATOM      4  C   UNL     1       1.368   0.616   0.000  0.00  0.00    -0.000 A 
ATOM      5  C   UNL     1       1.217  -0.877   0.000  0.00  0.00    -0.000 A 
ATOM      6  C   UNL     1      -0.151  -1.492   0.000  0.00  0.00    -0.000 A 
ENDROOT
BRANCH   1  12
ATOM      7  C   UNL     1      -3.752  -1.110   0.000  0.00  0.00    +0.001 C 
ATOM      8  C   UNL     1      -4.836  -0.072   0.000  0.00  0.00    +0.012 C 
ATOM      9  C   UNL     1      -6.264   0.386   0.000  0.00  0.00    +0.075 C 
ATOM     10  C   UNL     1      -5.377  -0.824   0.000  0.00  0.00    +0.170 C 
ATOM     11  C   UNL     1      -3.953  -0.355   0.000  0.00  0.00    +0.012 C 
ATOM     12  C   UNL     1      -2.736  -1.232   0.000  0.00  0.00    -0.001 C 
ATOM     13  O   UNL     1      -5.835  -2.253   0.000  0.00  0.00    -0.292 OA
ATOM     14  C   UNL     1      -6.270   1.886   0.000  0.00  0.00    +0.009 C 
ATOM     15  C   UNL     1      -4.846   2.355   0.000  0.00  0.00    +0.005 C 
ATOM     16  C   UNL     1      -3.959   1.145   0.000  0.00  0.00    +0.026 C 
ATOM     17  C   UNL     1      -5.090  -1.550   0.000  0.00  0.00    +0.001 C 
BRANCH   9  18
ATOM     18  C   UNL     1      -7.474  -0.501   0.000  0.00  0.00    +0.133 C 
BRANCH  18  19
ATOM     19  S   UNL     1      -8.847   0.103   0.000  0.00  0.00    -0.107 S 
ATOM     20  O   UNL     1     -10.220   0.708   0.000  0.00  0.00    -0.291 OA
ATOM     21  O   UNL     1      -8.242   1.476   0.000  0.00  0.00    -0.371 OA
ATOM     22  O   UNL     1      -9.451  -1.270   0.000  0.00  0.00    -0.371 OA
ENDBRANCH  18  19
ENDBRANCH   9  18
ENDBRANCH   1  12
BRANCH   4  23
ATOM     23  C   UNL     1       2.736   1.232   0.000  0.00  0.00    -0.001 C 
ATOM     24  C   UNL     1       3.953   0.355   0.000  0.00  0.00    +0.012 C 
ATOM     25  C   UNL     1       3.959  -1.145   0.000  0.00  0.00    +0.026 C 
ATOM     26  C   UNL     1       4.836   0.072   0.000  0.00  0.00    +0.012 C 
ATOM     27  C   UNL     1       6.264  -0.386   0.000  0.00  0.00    +0.075 C 
ATOM     28  C   UNL     1       6.270  -1.886   0.000  0.00  0.00    +0.009 C 
ATOM     29  C   UNL     1       5.090   1.550   0.000  0.00  0.00    +0.001 C 
ATOM     30  C   UNL     1       3.752   1.110   0.000  0.00  0.00    +0.001 C 
ATOM     31  C   UNL     1       4.846  -2.355   0.000  0.00  0.00    +0.005 C 
ATOM     32  C   UNL     1       5.377   0.824   0.000  0.00  0.00    +0.170 C 
ATOM     33  O   UNL     1       5.835   2.253   0.000  0.00  0.00    -0.292 OA
BRANCH  27  34
ATOM     34  C   UNL     1       7.474   0.501   0.000  0.00  0.00    +0.133 C 
BRANCH  34  35
ATOM     35  S   UNL     1       8.847  -0.103   0.000  0.00  0.00    -0.107 S 
ATOM     36  O   UNL     1      10.220  -0.708   0.000  0.00  0.00    -0.291 OA
ATOM     37  O   UNL     1       8.242  -1.476   0.000  0.00  0.00    -0.371 OA
ATOM     38  O   UNL     1       9.451   1.270   0.000  0.00  0.00    -0.371 OA
ENDBRANCH  34  35
ENDBRANCH  27  34
ENDBRANCH   4  23
TORSDOF 6
