REMARK  Name = 
REMARK  16 active torsions:
REMARK  status: ('A' for Active; 'I' for Inactive)
REMARK    1  A    between atoms: C_2  and  C_3
REMARK    2  A    between atoms: C_5  and  C_6
REMARK    3  A    between atoms: C_6  and  C_8
REMARK    4  A    between atoms: C_8  and  N_9
REMARK    5  A    between atoms: N_9  and  C_10
REMARK    6  A    between atoms: C_10  and  C_11
REMARK    7  A    between atoms: C_11  and  C_12
REMARK    8  A    between atoms: C_12  and  C_13
REMARK    9  A    between atoms: C_13  and  C_14
REMARK   10  A    between atoms: C_14  and  C_15
REMARK   11  A    between atoms: C_15  and  O_16
REMARK   12  A    between atoms: O_16  and  C_17
REMARK   13  A    between atoms: C_17  and  C_18
REMARK   14  A    between atoms: C_18  and  O_19
REMARK   15  A    between atoms: O_19  and  C_20
REMARK   16  A    between atoms: C_20  and  C_21
REMARK                            x       y       z     vdW  Elec       q    Type
REMARK                         _______ _______ _______ _____ _____    ______ ____
ROOT
ATOM      1  C   UNL     1      -0.419   2.193   0.142  0.00  0.00    +0.002 C 
ENDROOT
BRANCH   1   2
ATOM      2  C   UNL     1      -1.922   2.252   0.213  0.00  0.00    +0.019 C 
BRANCH   2   3
ATOM      3  C   UNL     1      -2.452   0.973   0.850  0.00  0.00    +0.089 C 
BRANCH   3   4
ATOM      4  N   UNL     1      -3.729   1.308   1.459  0.00  0.00    -0.215 NA
BRANCH   4   5
ATOM      5  C   UNL     1      -4.512   1.995   0.457  0.00  0.00    +0.126 C 
BRANCH   5   6
ATOM      6  C   UNL     1      -4.217   1.182  -0.951  0.00  0.00    +0.192 C 
ATOM      7  O   UNL     1      -4.976   2.220  -1.763  0.00  0.00    -0.217 OA
BRANCH   6  13
ATOM      8  C   UNL     1      -6.611  -1.398   0.500  0.00  0.00    +0.049 A 
ATOM      9  C   UNL     1      -7.556  -1.527  -0.510  0.00  0.00    +0.194 A 
ATOM     10  O   UNL     1      -8.859  -1.956  -0.233  0.00  0.00    -0.287 OA
ATOM     11  C   UNL     1      -7.195  -1.045  -1.763  0.00  0.00    +0.042 A 
ATOM     12  C   UNL     1      -6.112  -0.187  -1.917  0.00  0.00    +0.001 A 
ATOM     13  C   UNL     1      -5.548   0.281  -0.765  0.00  0.00    +0.009 A 
ATOM     14  C   UNL     1      -5.490  -0.597   0.310  0.00  0.00    -0.000 A 
BRANCH   8  16
ATOM     15  O   UNL     1      -7.362  -1.552   2.253  0.00  0.00    -0.215 OA
ATOM     16  C   UNL     1      -7.126  -1.639   1.886  0.00  0.00    +0.212 C 
ENDBRANCH   8  16
ENDBRANCH   6  13
ENDBRANCH   5   6
ENDBRANCH   4   5
ENDBRANCH   3   4
ENDBRANCH   2   3
ENDBRANCH   1   2
BRANCH   1  17
ATOM     17  C   UNL     1       0.064   1.535  -1.123  0.00  0.00    +0.003 C 
BRANCH  17  18
ATOM     18  C   UNL     1       1.324   0.736  -0.815  0.00  0.00    +0.032 C 
BRANCH  18  19
ATOM     19  C   UNL     1       1.278   0.314   0.630  0.00  0.00    +0.142 C 
BRANCH  19  20
ATOM     20  O   UNL     1       2.264  -0.620   0.908  0.00  0.00    -0.351 OA
BRANCH  20  21
ATOM     21  C   UNL     1       3.492  -0.291   0.318  0.00  0.00    +0.174 C 
BRANCH  21  22
ATOM     22  C   UNL     1       3.970  -1.477  -0.480  0.00  0.00    +0.175 C 
BRANCH  22  23
ATOM     23  O   UNL     1       4.908  -1.084  -1.445  0.00  0.00    -0.346 OA
BRANCH  23  24
ATOM     24  C   UNL     1       5.455   0.142  -1.053  0.00  0.00    +0.170 C 
BRANCH  24  25
ATOM     25  C   UNL     1       6.776  -0.104  -0.419  0.00  0.00    +0.028 A 
ATOM     26  C   UNL     1       7.630  -1.056  -0.947  0.00  0.00    +0.057 A 
ATOM     27 CL   UNL     1       7.118  -2.085  -2.268  0.00  0.00    -0.082 Cl
ATOM     28  C   UNL     1       8.901  -1.160  -0.394  0.00  0.00    +0.011 A 
ATOM     29  C   UNL     1       9.145  -0.567   0.838  0.00  0.00    +0.002 A 
ATOM     30  C   UNL     1       8.175   0.223   1.442  0.00  0.00    +0.011 A 
ATOM     31  C   UNL     1       7.137   0.695   0.657  0.00  0.00    +0.057 A 
ATOM     32 CL   UNL     1       6.450   2.298   0.884  0.00  0.00    -0.082 Cl
ENDBRANCH  24  25
ENDBRANCH  23  24
ENDBRANCH  22  23
ENDBRANCH  21  22
ENDBRANCH  20  21
ENDBRANCH  19  20
ENDBRANCH  18  19
ENDBRANCH  17  18
ENDBRANCH   1  17
TORSDOF 16
