REMARK  Name = 
REMARK  3 active torsions:
REMARK  status: ('A' for Active; 'I' for Inactive)
REMARK    1  A    between atoms: C_7  and  O_8
REMARK    2  A    between atoms: O_8  and  C_9
REMARK    3  A    between atoms: C_9  and  C_10
REMARK                            x       y       z     vdW  Elec       q    Type
REMARK                         _______ _______ _______ _____ _____    ______ ____
ROOT
ATOM      1  C   UNL     1      -2.844   2.503  -0.403  0.00  0.00    +0.031 C 
ATOM      2  C   UNL     1      -2.442   1.286  -0.211  0.00  0.00    -0.019 A 
ATOM      3  C   UNL     1      -1.165   1.046   0.277  0.00  0.00    +0.033 A 
ATOM      4  C   UNL     1      -0.759  -0.212   0.702  0.00  0.00    +0.138 A 
ATOM      5  C   UNL     1      -1.612  -1.296   0.550  0.00  0.00    +0.033 A 
ATOM      6  C   UNL     1      -2.921  -1.029   0.208  0.00  0.00    -0.019 A 
ATOM      7  C   UNL     1      -3.945  -2.096   0.440  0.00  0.00    +0.031 C 
ATOM      8  C   UNL     1      -3.293   0.212  -0.279  0.00  0.00    -0.008 A 
ENDROOT
BRANCH   4   9
ATOM      9  O   UNL     1       0.496  -0.496   1.173  0.00  0.00    -0.472 OA
BRANCH   9  10
ATOM     10  C   UNL     1       1.324  -1.539   0.890  0.00  0.00    +0.251 C 
BRANCH  10  11
ATOM     11  C   UNL     1       2.189  -1.226  -0.491  0.00  0.00    +0.235 C 
ATOM     12  O   UNL     1       1.726   0.249  -0.612  0.00  0.00    -0.432 OA
ATOM     13  C   UNL     1       2.862   0.973  -0.840  0.00  0.00    +0.421 C 
ATOM     14  O   UNL     1       2.827   2.242  -0.855  0.00  0.00    -0.225 OA
ATOM     15  N   UNL     1       4.027   0.182  -0.573  0.00  0.00    -0.165 NA
ATOM     16  C   UNL     1       3.531  -0.799   0.393  0.00  0.00    +0.166 C 
ENDBRANCH  10  11
ENDBRANCH   9  10
ENDBRANCH   4   9
TORSDOF 3
