REMARK  Name = 
REMARK  8 active torsions:
REMARK  status: ('A' for Active; 'I' for Inactive)
REMARK    1  A    between atoms: C_2  and  C_3
REMARK    2  A    between atoms: C_2  and  N_11
REMARK    3  A    between atoms: C_3  and  C_4
REMARK    4  A    between atoms: C_4  and  C_5
REMARK    5  A    between atoms: N_11  and  C_12
REMARK    6  A    between atoms: C_12  and  C_13
REMARK    7  A    between atoms: C_13  and  C_15
REMARK    8  A    between atoms: C_20  and  C_21
REMARK                            x       y       z     vdW  Elec       q    Type
REMARK                         _______ _______ _______ _____ _____    ______ ____
ROOT
ATOM      1  C   UNL     1       0.331  -0.192  -0.149  0.00  0.00    +0.126 C 
ENDROOT
BRANCH   1   2
ATOM      2  C   UNL     1      -0.880  -1.245  -0.553  0.00  0.00    +0.192 C 
ATOM      3  O   UNL     1      -1.007  -0.640  -1.946  0.00  0.00    -0.217 OA
BRANCH   2   4
ATOM      4  C   UNL     1      -2.006  -0.242   0.048  0.00  0.00    +0.009 A 
ATOM      5  C   UNL     1      -3.277  -0.503  -0.402  0.00  0.00    +0.006 A 
ATOM      6  C   UNL     1      -4.268   0.360   0.052  0.00  0.00    +0.095 A 
ATOM      7  C   UNL     1      -3.995   1.198   1.131  0.00  0.00    +0.200 A 
ATOM      8  O   UNL     1      -4.743   2.359   1.353  0.00  0.00    -0.286 OA
ATOM      9  C   UNL     1      -2.868   0.888   1.885  0.00  0.00    +0.042 A 
ATOM     10  C   UNL     1      -1.864   0.072   1.369  0.00  0.00    +0.001 A 
BRANCH   6  11
ATOM     11  C   UNL     1      -5.413   0.716  -0.796  0.00  0.00    +0.287 C 
ATOM     12  O   UNL     1      -5.277   0.926  -2.039  0.00  0.00    -0.267 OA
ATOM     13  N   UNL     1      -6.670   0.156  -0.414  0.00  0.00    -0.084 NA
ENDBRANCH   6  11
ENDBRANCH   2   4
ENDBRANCH   1   2
BRANCH   1  14
ATOM     14  N   UNL     1       0.922  -0.989   0.928  0.00  0.00    -0.216 NA
BRANCH  14  16
ATOM     15  C   UNL     1       2.556  -2.619   1.133  0.00  0.00    +0.019 C 
ATOM     16  C   UNL     1       1.256  -2.330   0.174  0.00  0.00    +0.073 C 
BRANCH  16  17
ATOM     17  C   UNL     1       2.182  -1.598  -0.975  0.00  0.00    +0.022 C 
BRANCH  17  18
ATOM     18  C   UNL     1       2.934  -0.591  -0.264  0.00  0.00    +0.028 C 
BRANCH  18  19
ATOM     19  C   UNL     1       4.250  -0.146  -0.590  0.00  0.00    -0.022 A 
ATOM     20  C   UNL     1       4.312   1.141  -1.130  0.00  0.00    -0.004 A 
ATOM     21  C   UNL     1       5.513   1.826  -1.135  0.00  0.00    -0.000 A 
ATOM     22  C   UNL     1       6.469   1.485  -0.216  0.00  0.00    -0.000 A 
ATOM     23  C   UNL     1       6.377   0.314   0.499  0.00  0.00    -0.000 A 
ATOM     24  C   UNL     1       5.170  -0.344   0.446  0.00  0.00    -0.004 A 
ENDBRANCH  18  19
ENDBRANCH  17  18
ENDBRANCH  16  17
ENDBRANCH  14  16
ENDBRANCH   1  14
TORSDOF 8
