REMARK  Name = 
REMARK  6 active torsions:
REMARK  status: ('A' for Active; 'I' for Inactive)
REMARK    1  A    between atoms: C_2  and  O_4
REMARK    2  A    between atoms: O_4  and  C_5
REMARK    3  A    between atoms: N_12  and  C_13
REMARK    4  A    between atoms: C_13  and  C_14
REMARK    5  A    between atoms: C_13  and  C_19
REMARK    6  A    between atoms: C_14  and  C_16
REMARK                            x       y       z     vdW  Elec       q    Type
REMARK                         _______ _______ _______ _____ _____    ______ ____
ROOT
ATOM      1  C   UNL     1       3.628   0.860   1.006  0.00  0.00    +0.178 A 
ATOM      2  S   UNL     1       2.981   1.965  -0.140  0.00  0.00    -0.055 S 
ATOM      3  C   UNL     1       1.416   1.280  -0.312  0.00  0.00    +0.009 A 
ATOM      4  C   UNL     1       0.423   1.314  -1.436  0.00  0.00    +0.050 C 
ATOM      5  C   UNL     1       0.130  -0.126  -1.746  0.00  0.00    +0.078 C 
ATOM      6  N   UNL     1      -0.503  -0.751  -0.580  0.00  0.00    -0.260 NA
ATOM      7  C   UNL     1       0.643  -1.062   0.274  0.00  0.00    +0.100 C 
ATOM      8  C   UNL     1       1.553   0.117   0.421  0.00  0.00    -0.000 A 
ATOM      9  C   UNL     1       2.480   0.272   1.441  0.00  0.00    +0.042 A 
ENDROOT
BRANCH   1  10
ATOM     10  O   UNL     1       4.974   0.599   1.302  0.00  0.00    -0.417 OA
BRANCH  10  12
ATOM     11  C   UNL     1       6.564  -1.218   0.723  0.00  0.00    +0.122 C 
ATOM     12  C   UNL     1       5.750  -0.102   0.371  0.00  0.00    +0.323 C 
ATOM     13  O   UNL     1       5.335  -0.013  -0.825  0.00  0.00    -0.250 OA
ENDBRANCH  10  12
ENDBRANCH   1  10
BRANCH   6  14
ATOM     14  C   UNL     1      -1.085   0.455   0.261  0.00  0.00    +0.141 C 
BRANCH  14  15
ATOM     15  C   UNL     1      -2.399   0.649  -0.653  0.00  0.00    +0.027 A 
ATOM     16  C   UNL     1      -3.192  -0.396  -0.906  0.00  0.00    +0.138 A 
ATOM     17  F   UNL     1      -2.518  -1.441  -1.469  0.00  0.00    -0.204 F 
ATOM     18  C   UNL     1      -4.469  -0.103  -1.380  0.00  0.00    +0.029 A 
ATOM     19  C   UNL     1      -4.929   1.207  -1.424  0.00  0.00    +0.002 A 
ATOM     20  C   UNL     1      -4.010   2.248  -1.371  0.00  0.00    -0.000 A 
ATOM     21  C   UNL     1      -2.777   1.980  -0.790  0.00  0.00    -0.000 A 
ENDBRANCH  14  15
BRANCH  14  22
ATOM     22  C   UNL     1      -1.819  -0.459   1.376  0.00  0.00    +0.169 C 
ATOM     23  O   UNL     1      -1.878   0.236   2.393  0.00  0.00    -0.294 OA
BRANCH  22  24
ATOM     24  C   UNL     1      -1.896  -1.809   1.401  0.00  0.00    +0.059 C 
ATOM     25  C   UNL     1      -2.949  -2.644   1.933  0.00  0.00    +0.008 C 
ATOM     26  C   UNL     1      -1.452  -3.059   1.804  0.00  0.00    +0.008 C 
ENDBRANCH  22  24
ENDBRANCH  14  22
ENDBRANCH   6  14
TORSDOF 6
