REMARK  Name = 
REMARK  4 active torsions:
REMARK  status: ('A' for Active; 'I' for Inactive)
REMARK    1  A    between atoms: CA_3  and  C_4
REMARK    2  A    between atoms: CA_10  and  N_11
REMARK    3  A    between atoms: C_12  and  CA_14
REMARK    4  A    between atoms: CA_14  and  C_16
REMARK                            x       y       z     vdW  Elec       q    Type
REMARK                         _______ _______ _______ _____ _____    ______ ____
ROOT
ATOM      1  C   UNL     1      -4.845   1.489   1.126  0.00  0.00    +0.029 C 
ATOM      2  C   UNL     1      -3.916   0.850   1.085  0.00  0.00    -0.013 C 
ATOM      3  C   UNL     1      -2.691   1.466   1.669  0.00  0.00    +0.083 C 
ATOM      4  S   UNL     1      -1.468   0.276   2.204  0.00  0.00    -0.114 S 
ATOM      5  C   UNL     1      -2.103  -1.370   1.480  0.00  0.00    +0.157 C 
ATOM      6  N   UNL     1      -2.546  -0.868   0.115  0.00  0.00    -0.242 N 
ATOM      7  C   UNL     1      -1.893  -1.925  -0.616  0.00  0.00    +0.253 C 
ATOM      8  O   UNL     1      -1.761  -2.316  -1.775  0.00  0.00    -0.273 OA
ATOM      9  CA  UNL     1      -0.777  -1.896   0.562  0.00  0.00    +0.200 C 
ATOM     10  CA  UNL     1      -3.723  -0.067   0.136  0.00  0.00    +0.128 C 
ENDROOT
BRANCH   9  11
ATOM     11  N   UNL     1      -0.281  -0.448   0.112  0.00  0.00    -0.194 NA
ATOM     12  C   UNL     1       1.098  -0.408   0.481  0.00  0.00    +0.264 C 
ATOM     13  O   UNL     1       1.493  -0.795   1.621  0.00  0.00    -0.271 OA
BRANCH  12  14
ATOM     14  CA  UNL     1       1.870   0.948  -0.006  0.00  0.00    +0.191 C 
ATOM     15  N   UNL     1       1.399   0.744  -1.522  0.00  0.00    -0.118 NA
BRANCH  14  16
ATOM     16  C   UNL     1       3.260   0.111  -0.226  0.00  0.00    +0.004 A 
ATOM     17  C   UNL     1       4.037   0.144   0.931  0.00  0.00    +0.001 A 
ATOM     18  C   UNL     1       5.396   0.435   0.882  0.00  0.00    +0.042 A 
ATOM     19  C   UNL     1       5.998   0.763  -0.326  0.00  0.00    +0.196 A 
ATOM     20  O   UNL     1       7.061   1.667  -0.371  0.00  0.00    -0.287 OA
ATOM     21  C   UNL     1       5.312   0.408  -1.481  0.00  0.00    +0.042 A 
ATOM     22  C   UNL     1       3.926   0.370  -1.386  0.00  0.00    +0.001 A 
ENDBRANCH  14  16
ENDBRANCH  12  14
ENDBRANCH   9  11
BRANCH  10  23
ATOM     23  C   UNL     1      -4.657  -0.069  -1.001  0.00  0.00    +0.401 C 
ATOM     24  OXT UNL     1      -6.000   0.213  -0.740  0.00  0.00    -0.239 OA
ATOM     25  O   UNL     1      -4.191   0.276  -2.117  0.00  0.00    -0.239 OA
ENDBRANCH  10  23
TORSDOF 4
