REMARK  Name = 
REMARK  9 active torsions:
REMARK  status: ('A' for Active; 'I' for Inactive)
REMARK    1  A    between atoms: C_2  and  C_3
REMARK    2  A    between atoms: C_3  and  C_4
REMARK    3  A    between atoms: C_4  and  C_5
REMARK    4  A    between atoms: C_5  and  N_6
REMARK    5  A    between atoms: N_6  and  C_8
REMARK    6  A    between atoms: C_8  and  C_9
REMARK    7  A    between atoms: C_9  and  C_10
REMARK    8  A    between atoms: C_10  and  P_12
REMARK    9  A    between atoms: C_10  and  P_16
REMARK                            x       y       z     vdW  Elec       q    Type
REMARK                         _______ _______ _______ _____ _____    ______ ____
ROOT
ATOM      1  C   UNL     1      -1.840  -0.081  -0.659  0.00  0.00    +0.217 C 
ATOM      2  O   UNL     1      -2.267   0.021  -1.992  0.00  0.00    -0.211 OA
ENDROOT
BRANCH   1   3
ATOM      3  P   UNL     1      -2.743   1.209   0.258  0.00  0.00    +0.151 P 
ATOM      4  O   UNL     1      -2.492   2.670  -0.569  0.00  0.00    -0.355 OA
ATOM      5  O   UNL     1      -4.385   0.863   0.298  0.00  0.00    -0.355 OA
ATOM      6  O   UNL     1      -2.136   1.350   1.626  0.00  0.00    -0.457 OA
ENDBRANCH   1   3
BRANCH   1   7
ATOM      7  P   UNL     1      -2.280  -1.731  -0.099  0.00  0.00    +0.151 P 
ATOM      8  O   UNL     1      -1.601  -2.849  -1.152  0.00  0.00    -0.355 OA
ATOM      9  O   UNL     1      -1.833  -2.033   1.490  0.00  0.00    -0.355 OA
ATOM     10  O   UNL     1      -3.791  -1.848  -0.189  0.00  0.00    -0.457 OA
ENDBRANCH   1   7
BRANCH   1  11
ATOM     11  C   UNL     1      -0.366   0.188  -0.633  0.00  0.00    +0.062 C 
BRANCH  11  12
ATOM     12  C   UNL     1       0.447  -0.892   0.015  0.00  0.00    +0.076 C 
BRANCH  12  13
ATOM     13  N   UNL     1       1.824  -0.725  -0.378  0.00  0.00    -0.271 NA
ATOM     14  C   UNL     1       1.994  -0.437  -1.778  0.00  0.00    +0.090 C 
BRANCH  13  15
ATOM     15  C   UNL     1       2.523   0.280   0.379  0.00  0.00    +0.072 C 
BRANCH  15  16
ATOM     16  C   UNL     1       3.038   1.418  -0.451  0.00  0.00    +0.017 C 
BRANCH  16  17
ATOM     17  C   UNL     1       4.294   1.096  -1.210  0.00  0.00    +0.001 C 
BRANCH  17  19
ATOM     18  C   UNL     1       6.335   1.219   0.163  0.00  0.00    +0.000 C 
ATOM     19  C   UNL     1       5.278   0.282  -0.405  0.00  0.00    +0.000 C 
ENDBRANCH  17  19
ENDBRANCH  16  17
ENDBRANCH  15  16
ENDBRANCH  13  15
ENDBRANCH  12  13
ENDBRANCH  11  12
ENDBRANCH   1  11
TORSDOF 9
