REMARK  Name = 
REMARK  6 active torsions:
REMARK  status: ('A' for Active; 'I' for Inactive)
REMARK    1  A    between atoms: C_2  and  N_4
REMARK    2  A    between atoms: C_11  and  O_12
REMARK    3  A    between atoms: O_12  and  C_13
REMARK    4  A    between atoms: C_13  and  C_15
REMARK    5  A    between atoms: C_15  and  C_16
REMARK    6  A    between atoms: C_15  and  C_18
REMARK                            x       y       z     vdW  Elec       q    Type
REMARK                         _______ _______ _______ _____ _____    ______ ____
ROOT
ATOM      1  N   UNL     1       3.770  -0.498   0.097  0.00  0.00    +0.289 N 
ATOM      2  C   UNL     1       3.111  -0.571  -1.338  0.00  0.00    +0.062 C 
ATOM      3  C   UNL     1       1.466  -0.591  -1.130  0.00  0.00    +0.099 C 
ATOM      4  C   UNL     1       0.985   0.905  -0.810  0.00  0.00    +0.180 C 
ATOM      5  C   UNL     1       2.152   0.891   0.302  0.00  0.00    +0.099 C 
ATOM      6  C   UNL     1       2.992  -2.186  -0.975  0.00  0.00    +0.061 C 
ATOM      7  C   UNL     1       1.909  -1.792   0.040  0.00  0.00    +0.061 C 
ATOM      8  C   UNL     1       2.479  -0.564   0.973  0.00  0.00    +0.062 C 
ATOM      9  C   UNL     1       4.458  -1.671   0.458  0.00  0.00    +0.170 C 
ENDROOT
BRANCH   1  11
ATOM     10  C   UNL     1       5.213   0.942   1.247  0.00  0.00    +0.061 C 
ATOM     11  C   UNL     1       4.507   0.594   0.179  0.00  0.00    +0.058 C 
ATOM     12  C   UNL     1       5.362   0.547  -1.096  0.00  0.00    +0.061 C 
ENDBRANCH   1  11
BRANCH   4  13
ATOM     13  O   UNL     1      -0.092   0.648   0.284  0.00  0.00    -0.452 OA
BRANCH  13  14
ATOM     14  C   UNL     1      -1.308   0.257   0.056  0.00  0.00    +0.323 C 
ATOM     15  O   UNL     1      -1.275  -0.830  -0.595  0.00  0.00    -0.250 OA
BRANCH  14  16
ATOM     16  C   UNL     1      -2.470   1.138  -0.635  0.00  0.00    +0.154 C 
BRANCH  16  17
ATOM     17  C   UNL     1      -3.655   0.304   0.077  0.00  0.00    -0.009 A 
ATOM     18  C   UNL     1      -4.840   1.028  -0.013  0.00  0.00    -0.004 A 
ATOM     19  C   UNL     1      -6.056   0.389  -0.214  0.00  0.00    -0.000 A 
ATOM     20  C   UNL     1      -6.080  -0.950  -0.560  0.00  0.00    -0.000 A 
ATOM     21  C   UNL     1      -4.956  -1.693  -0.220  0.00  0.00    -0.000 A 
ATOM     22  C   UNL     1      -3.764  -1.018  -0.243  0.00  0.00    -0.004 A 
ENDBRANCH  16  17
BRANCH  16  23
ATOM     23  C   UNL     1      -2.540   2.288   0.536  0.00  0.00    +0.198 C 
ATOM     24  O   UNL     1      -1.368   2.433   1.138  0.00  0.00    -0.219 OA
ENDBRANCH  16  23
ENDBRANCH  14  16
ENDBRANCH  13  14
ENDBRANCH   4  13
TORSDOF 6
