REMARK  Name = 
REMARK  1 active torsions:
REMARK  status: ('A' for Active; 'I' for Inactive)
REMARK    1  A    between atoms: C_8  and  N_9
REMARK                            x       y       z     vdW  Elec       q    Type
REMARK                         _______ _______ _______ _____ _____    ______ ____
ROOT
ATOM      1 CL   UNL     1      -1.608   2.779  -0.472  0.00  0.00    -0.079 Cl
ATOM      2  C   UNL     1      -1.637   1.020  -0.517  0.00  0.00    +0.093 A 
ATOM      3  C   UNL     1      -0.883   0.358   0.447  0.00  0.00    +0.179 A 
ATOM      4  C   UNL     1      -1.179  -0.950   0.779  0.00  0.00    +0.093 A 
ATOM      5 CL   UNL     1      -0.446  -1.592   2.243  0.00  0.00    -0.079 Cl
ATOM      6  C   UNL     1      -2.298  -1.525   0.198  0.00  0.00    +0.014 A 
ATOM      7  C   UNL     1      -2.850  -0.959  -0.945  0.00  0.00    +0.002 A 
ATOM      8  C   UNL     1      -2.529   0.340  -1.317  0.00  0.00    +0.014 A 
ENDROOT
BRANCH   3   9
ATOM      9  N   UNL     1       0.449   0.840   0.657  0.00  0.00    -0.069 NA
ATOM     10  C   UNL     1       1.496   0.179   0.301  0.00  0.00    +0.439 C 
ATOM     11  N   UNL     1       2.789   0.225   0.915  0.00  0.00    -0.060 NA
ATOM     12  C   UNL     1       3.814   0.238  -0.094  0.00  0.00    +0.251 C 
ATOM     13  C   UNL     1       3.158  -0.518  -1.226  0.00  0.00    +0.251 C 
ATOM     14  N   UNL     1       1.725  -0.435  -0.969  0.00  0.00    -0.060 NA
ENDBRANCH   3   9
TORSDOF 1
