REMARK  Name = 
REMARK  0 active torsions:
REMARK  status: ('A' for Active; 'I' for Inactive)
REMARK                            x       y       z     vdW  Elec       q    Type
REMARK                         _______ _______ _______ _____ _____    ______ ____
ROOT
ATOM      1  C   UNL     1       3.900  -0.386  -0.024  0.00  0.00    +0.090 C 
ATOM      2  N   UNL     1       2.974  -0.907  -0.069  0.00  0.00    -0.270 NA
ATOM      3  C   UNL     1       2.081  -0.543   1.180  0.00  0.00    +0.090 C 
ATOM      4  C   UNL     1       1.347   0.699   0.399  0.00  0.00    +0.148 C 
ATOM      5  C   UNL     1       0.480   0.201  -0.615  0.00  0.00    +0.094 C 
ATOM      6  C   UNL     1      -0.303   1.507  -1.223  0.00  0.00    +0.228 C 
ATOM      7  O   UNL     1      -1.539   0.676  -1.669  0.00  0.00    -0.468 OA
ATOM      8  C   UNL     1      -1.845  -0.062  -0.536  0.00  0.00    +0.173 A 
ATOM      9  C   UNL     1      -2.834  -1.013  -0.314  0.00  0.00    +0.229 A 
ATOM     10  C   UNL     1      -2.674  -1.805   0.822  0.00  0.00    +0.045 A 
ATOM     11  C   UNL     1      -1.450  -1.905   1.482  0.00  0.00    -0.001 A 
ATOM     12  C   UNL     1      -0.366  -1.107   1.122  0.00  0.00    -0.021 A 
ATOM     13  O   UNL     1      -3.654  -1.432  -1.371  0.00  0.00    -0.283 OA
ATOM     14  C   UNL     1      -1.001   1.938   0.188  0.00  0.00    +0.191 C 
ATOM     15  O   UNL     1      -1.968   2.651  -0.088  0.00  0.00    -0.292 OA
ATOM     16  C   UNL     1      -0.014   2.585   1.124  0.00  0.00    +0.071 C 
ATOM     17  C   UNL     1      -0.659  -0.353   0.007  0.00  0.00    +0.017 A 
ATOM     18  C   UNL     1       1.165  -0.489  -1.706  0.00  0.00    +0.028 C 
ATOM     19  C   UNL     1       0.811   1.411   1.589  0.00  0.00    +0.040 C 
ATOM     20  O   UNL     1       2.398   1.469  -0.111  0.00  0.00    -0.224 OA
ATOM     21  C   UNL     1       0.986  -1.734   0.899  0.00  0.00    +0.045 C 
ATOM     22  C   UNL     1       2.166  -1.401  -1.086  0.00  0.00    +0.073 C 
ENDROOT
TORSDOF 0
