REMARK  Name = 
REMARK  2 active torsions:
REMARK  status: ('A' for Active; 'I' for Inactive)
REMARK    1  A    between atoms: N_19  and  C_20
REMARK    2  A    between atoms: C_20  and  C_21
REMARK                            x       y       z     vdW  Elec       q    Type
REMARK                         _______ _______ _______ _____ _____    ______ ____
ROOT
ATOM      1  O   UNL     1      -3.327  -1.004  -1.162  0.00  0.00    -0.292 OA
ATOM      2  C   UNL     1      -2.385  -0.924  -1.092  0.00  0.00    +0.191 C 
ATOM      3  C   UNL     1      -1.876  -1.578   0.303  0.00  0.00    +0.228 C 
ATOM      4  O   UNL     1      -2.686  -0.547   1.125  0.00  0.00    -0.468 OA
ATOM      5  C   UNL     1      -2.359   0.681   0.623  0.00  0.00    +0.173 A 
ATOM      6  C   UNL     1      -0.985   0.658   0.555  0.00  0.00    +0.017 A 
ATOM      7  C   UNL     1      -0.264   1.526  -0.272  0.00  0.00    -0.021 A 
ATOM      8  C   UNL     1      -0.812   2.804  -0.328  0.00  0.00    -0.001 A 
ATOM      9  C   UNL     1      -2.093   3.027   0.175  0.00  0.00    +0.045 A 
ATOM     10  C   UNL     1       1.158   1.281  -0.057  0.00  0.00    +0.045 C 
ATOM     11  C   UNL     1       1.606  -0.069  -0.879  0.00  0.00    +0.090 C 
ATOM     12  N   UNL     1       2.249  -0.687   0.406  0.00  0.00    -0.271 NA
ATOM     13  C   UNL     1       1.585  -1.633   1.055  0.00  0.00    +0.073 C 
ATOM     14  C   UNL     1       0.218  -1.252   1.583  0.00  0.00    +0.028 C 
ATOM     15  C   UNL     1       0.210  -0.910  -0.796  0.00  0.00    +0.148 C 
ATOM     16  O   UNL     1       0.545  -2.235  -1.117  0.00  0.00    -0.224 OA
ATOM     17  C   UNL     1      -0.375  -0.419  -2.116  0.00  0.00    +0.040 C 
ATOM     18  C   UNL     1      -2.887   1.975   0.635  0.00  0.00    +0.229 A 
ATOM     19  O   UNL     1      -4.255   1.977   0.323  0.00  0.00    -0.283 OA
ATOM     20  C   UNL     1      -0.503  -0.694   0.400  0.00  0.00    +0.094 C 
ATOM     21  C   UNL     1      -1.594  -1.315  -2.302  0.00  0.00    +0.071 C 
ENDROOT
BRANCH  12  22
ATOM     22  C   UNL     1       3.306   0.083   0.835  0.00  0.00    +0.072 C 
BRANCH  22  23
ATOM     23  C   UNL     1       4.691  -0.392   0.649  0.00  0.00    +0.016 C 
ATOM     24  C   UNL     1       5.559   0.559  -0.210  0.00  0.00    +0.001 C 
ATOM     25  C   UNL     1       5.275  -0.912  -0.585  0.00  0.00    +0.001 C 
ENDBRANCH  22  23
ENDBRANCH  12  22
TORSDOF 2
