REMARK  Name = 
REMARK  4 active torsions:
REMARK  status: ('A' for Active; 'I' for Inactive)
REMARK    1  A    between atoms: N_5  and  C_6
REMARK    2  A    between atoms: C_6  and  C_7
REMARK    3  A    between atoms: C_7  and  C_8
REMARK    4  A    between atoms: C_8  and  N_9
REMARK                            x       y       z     vdW  Elec       q    Type
REMARK                         _______ _______ _______ _____ _____    ______ ____
ROOT
ATOM      1  N   UNL     1      -1.116  -0.167   0.742  0.00  0.00    -0.286 N 
ATOM      2  C   UNL     1      -2.178  -0.828   0.042  0.00  0.00    +0.058 A 
ATOM      3  C   UNL     1      -2.289  -0.775  -1.342  0.00  0.00    +0.043 A 
ATOM      4  C   UNL     1      -3.586  -0.831  -1.836  0.00  0.00    +0.009 A 
ATOM      5  C   UNL     1      -4.657  -1.204  -1.033  0.00  0.00    +0.012 A 
ATOM      6  C   UNL     1      -4.368  -1.849   0.164  0.00  0.00    +0.059 A 
ATOM      7 CL   UNL     1      -5.760  -2.221   1.177  0.00  0.00    -0.082 Cl
ATOM      8  S   UNL     1      -1.177   0.366  -2.172  0.00  0.00    -0.084 S 
ATOM      9  C   UNL     1      -0.677   1.561  -0.926  0.00  0.00    +0.043 A 
ATOM     10  C   UNL     1      -0.825   2.919  -1.167  0.00  0.00    +0.008 A 
ATOM     11  C   UNL     1      -0.528   3.808  -0.143  0.00  0.00    +0.001 A 
ATOM     12  C   UNL     1       0.138   3.309   0.967  0.00  0.00    +0.001 A 
ATOM     13  C   UNL     1      -0.082   1.996   1.304  0.00  0.00    +0.015 A 
ATOM     14  C   UNL     1      -3.113  -1.608   0.712  0.00  0.00    +0.027 A 
ATOM     15  C   UNL     1      -0.724   1.169   0.405  0.00  0.00    +0.058 A 
ENDROOT
BRANCH   1  16
ATOM     16  C   UNL     1      -0.642  -0.766   1.982  0.00  0.00    +0.097 C 
BRANCH  16  17
ATOM     17  C   UNL     1       0.846  -0.589   2.169  0.00  0.00    +0.039 C 
BRANCH  17  18
ATOM     18  C   UNL     1       1.638  -0.869   0.924  0.00  0.00    +0.074 C 
BRANCH  18  23
ATOM     19  C   UNL     1       6.007   0.082  -0.814  0.00  0.00    +0.090 C 
ATOM     20  N   UNL     1       4.577   0.106  -0.679  0.00  0.00    -0.269 NA
ATOM     21  C   UNL     1       4.104   0.808   0.477  0.00  0.00    +0.090 C 
ATOM     22  C   UNL     1       3.796  -0.076   1.651  0.00  0.00    +0.090 C 
ATOM     23  N   UNL     1       2.978  -1.215   1.312  0.00  0.00    -0.270 NA
ATOM     24  C   UNL     1       3.698  -1.969   0.318  0.00  0.00    +0.090 C 
ATOM     25  C   UNL     1       3.940  -1.155  -0.921  0.00  0.00    +0.090 C 
ENDBRANCH  18  23
ENDBRANCH  17  18
ENDBRANCH  16  17
ENDBRANCH   1  16
TORSDOF 4
