REMARK  Name = 
REMARK  3 active torsions:
REMARK  status: ('A' for Active; 'I' for Inactive)
REMARK    1  A    between atoms: C_17  and  O_18
REMARK    2  A    between atoms: O_18  and  C_19
REMARK    3  A    between atoms: C_32  and  C_33
REMARK                            x       y       z     vdW  Elec       q    Type
REMARK                         _______ _______ _______ _____ _____    ______ ____
ROOT
ATOM      1  C   UNL     1      -6.863  -5.606  -0.515  0.00  0.00    +0.007 C 
ATOM      2  C   UNL     1      -5.765  -4.414  -0.644  0.00  0.00    +0.053 C 
ATOM      3  C   UNL     1      -6.575  -3.454   0.525  0.00  0.00    +0.159 C 
ATOM      4  O   UNL     1      -5.426  -2.485   0.486  0.00  0.00    -0.223 OA
ATOM      5  C   UNL     1      -7.504  -2.645  -0.646  0.00  0.00    +0.071 C 
ATOM      6  C   UNL     1      -8.831  -2.902   0.218  0.00  0.00    +0.006 C 
ATOM      7  C   UNL     1      -7.218  -1.073  -0.048  0.00  0.00    +0.171 C 
ATOM      8  C   UNL     1      -6.833  -0.557  -1.562  0.00  0.00    +0.047 C 
ATOM      9  O   UNL     1      -8.662  -0.568  -0.214  0.00  0.00    -0.452 OA
ATOM     10  C   UNL     1      -8.714   0.774   0.151  0.00  0.00    +0.319 C 
ATOM     11  O   UNL     1      -9.841   1.218   0.489  0.00  0.00    -0.250 OA
ATOM     12  C   UNL     1      -7.580   1.724  -0.049  0.00  0.00    +0.142 C 
ATOM     13  C   UNL     1      -7.756   2.760   1.230  0.00  0.00    +0.166 C 
ATOM     14  O   UNL     1      -6.405   2.363   1.813  0.00  0.00    -0.222 OA
ATOM     15  C   UNL     1      -7.128   4.047   0.406  0.00  0.00    +0.066 C 
ATOM     16  C   UNL     1      -5.775   3.390  -0.270  0.00  0.00    +0.157 C 
ATOM     17  O   UNL     1      -5.898   4.326  -1.469  0.00  0.00    -0.223 OA
ATOM     18  C   UNL     1      -4.806   4.457   0.542  0.00  0.00    +0.066 C 
ATOM     19  C   UNL     1      -3.639   4.690  -0.606  0.00  0.00    +0.155 C 
ATOM     20  O   UNL     1      -3.952   6.185  -0.652  0.00  0.00    -0.223 OA
ATOM     21  C   UNL     1      -2.475   4.815   0.559  0.00  0.00    +0.036 C 
ATOM     22  C   UNL     1      -2.058   6.174   0.722  0.00  0.00    +0.038 C 
ATOM     23  C   UNL     1      -1.193   6.481  -0.637  0.00  0.00    +0.183 C 
ATOM     24  O   UNL     1      -0.540   7.687   0.004  0.00  0.00    -0.220 OA
ATOM     25  C   UNL     1       0.064   5.435  -0.078  0.00  0.00    +0.189 C 
ATOM     26  O   UNL     1      -0.160   4.494  -1.241  0.00  0.00    -0.220 OA
ATOM     27  C   UNL     1       1.165   6.309  -0.933  0.00  0.00    +0.100 C 
ATOM     28  C   UNL     1       2.379   5.621  -0.396  0.00  0.00    +0.156 C 
ATOM     29  O   UNL     1       2.824   6.107   0.601  0.00  0.00    -0.296 OA
ATOM     30  C   UNL     1       2.383   4.213  -0.825  0.00  0.00    +0.098 C 
ATOM     31  C   UNL     1       3.954   3.866  -0.535  0.00  0.00    +0.172 C 
ATOM     32  O   UNL     1       3.777   4.067   0.959  0.00  0.00    -0.222 OA
ATOM     33  C   UNL     1       3.632   2.178  -0.438  0.00  0.00    +0.164 C 
ATOM     34  C   UNL     1       4.976   2.094   0.626  0.00  0.00    +0.168 C 
ATOM     35  O   UNL     1       4.023   1.790   1.788  0.00  0.00    -0.222 OA
ATOM     36  C   UNL     1       5.341   0.538   0.514  0.00  0.00    +0.068 C 
ATOM     37  C   UNL     1       4.503  -0.316  -0.557  0.00  0.00    +0.142 C 
ATOM     38  C   UNL     1       4.342  -1.556   0.511  0.00  0.00    +0.003 C 
ATOM     39  C   UNL     1       3.180  -2.107   0.401  0.00  0.00    -0.002 C 
ATOM     40  C   UNL     1       3.266  -3.282  -0.467  0.00  0.00    -0.000 C 
ATOM     41  C   UNL     1       3.792  -4.318   0.195  0.00  0.00    -0.000 C 
ATOM     42  C   UNL     1       2.844  -5.434   0.317  0.00  0.00    -0.000 C 
ATOM     43  C   UNL     1       1.700  -5.140   0.919  0.00  0.00    -0.000 C 
ATOM     44  C   UNL     1       0.541  -5.944   0.583  0.00  0.00    -0.005 C 
ATOM     45  C   UNL     1       0.294  -6.218  -0.680  0.00  0.00    -0.026 C 
ATOM     46  C   UNL     1      -0.893  -7.046  -1.045  0.00  0.00    +0.031 C 
ATOM     47  C   UNL     1      -1.964  -6.987   0.010  0.00  0.00    +0.031 C 
ATOM     48  C   UNL     1      -3.285  -7.110  -0.658  0.00  0.00    -0.026 C 
ATOM     49  C   UNL     1      -4.380  -7.323   0.069  0.00  0.00    -0.005 C 
ATOM     50  C   UNL     1      -4.801  -6.176   0.877  0.00  0.00    -0.005 C 
ATOM     51  C   UNL     1      -4.784  -4.971   0.479  0.00  0.00    -0.024 C 
ENDROOT
BRANCH  33  52
ATOM     52  C   UNL     1       4.334   2.068  -1.819  0.00  0.00    +0.369 C 
ATOM     53  O   UNL     1       3.483   2.509  -2.780  0.00  0.00    -0.245 OA
ATOM     54  O   UNL     1       4.975   1.743  -2.586  0.00  0.00    -0.245 OA
ENDBRANCH  33  52
BRANCH  37  55
ATOM     55  O   UNL     1       5.775  -0.850  -1.239  0.00  0.00    -0.327 OA
BRANCH  55  56
ATOM     56  C   UNL     1       6.496  -1.555  -0.103  0.00  0.00    +0.268 C 
ATOM     57  C   UNL     1       7.564  -2.252  -1.282  0.00  0.00    +0.228 C 
ATOM     58  O   UNL     1       8.337  -1.021  -1.627  0.00  0.00    -0.216 OA
ATOM     59  C   UNL     1       8.615  -2.885  -0.118  0.00  0.00    +0.160 C 
ATOM     60  N   UNL     1       9.743  -3.051  -1.171  0.00  0.00    -0.127 NA
ATOM     61  C   UNL     1       9.326  -1.456   0.431  0.00  0.00    +0.199 C 
ATOM     62  O   UNL     1       9.982  -2.172   1.568  0.00  0.00    -0.219 OA
ATOM     63  C   UNL     1       7.978  -1.114   1.425  0.00  0.00    +0.150 C 
ATOM     64  C   UNL     1       8.713   0.234   2.005  0.00  0.00    +0.035 C 
ATOM     65  O   UNL     1       7.403  -0.366   0.244  0.00  0.00    -0.328 OA
ENDBRANCH  55  56
ENDBRANCH  37  55
TORSDOF 3
