REMARK  Name = 
REMARK  10 active torsions:
REMARK  status: ('A' for Active; 'I' for Inactive)
REMARK    1  A    between atoms: C_2  and  C_3
REMARK    2  A    between atoms: C_13  and  C_14
REMARK    3  A    between atoms: C_14  and  C_15
REMARK    4  A    between atoms: C_15  and  O_17
REMARK    5  A    between atoms: C_24  and  C_26
REMARK    6  A    between atoms: C_40  and  O_41
REMARK    7  A    between atoms: C_48  and  C_50
REMARK    8  A    between atoms: C_50  and  O_52
REMARK    9  A    between atoms: C_54  and  O_55
REMARK   10  A    between atoms: O_55  and  C_56
REMARK                            x       y       z     vdW  Elec       q    Type
REMARK                         _______ _______ _______ _____ _____    ______ ____
ROOT
ATOM      1  C   UNL     1       4.722   1.912   0.360  0.00  0.00    +0.072 C 
ATOM      2  C   UNL     1       3.349   1.842  -0.495  0.00  0.00    +0.070 C 
ATOM      3  N   UNL     1       2.777   3.185   0.074  0.00  0.00    -0.269 NA
ATOM      4  C   UNL     1       1.562   2.848   0.682  0.00  0.00    +0.073 C 
ATOM      5  C   UNL     1       2.078   1.742   1.605  0.00  0.00    +0.024 C 
ATOM      6  C   UNL     1       3.692   3.981   0.712  0.00  0.00    +0.099 C 
ATOM      7  C   UNL     1       4.207   3.377   1.993  0.00  0.00    -0.013 C 
ATOM      8  C   UNL     1       2.535   0.869   0.524  0.00  0.00    +0.055 C 
ATOM      9  C   UNL     1       3.623  -0.209   1.049  0.00  0.00    +0.120 C 
ATOM     10  C   UNL     1       4.456  -0.402  -0.328  0.00  0.00    +0.268 C 
ATOM     11  O   UNL     1       5.208  -1.542   0.060  0.00  0.00    -0.209 OA
ATOM     12  N   UNL     1       2.746  -1.491   0.785  0.00  0.00    -0.304 N 
ATOM     13  C   UNL     1       3.321  -2.762   1.183  0.00  0.00    +0.112 C 
ATOM     14  C   UNL     1       1.746  -1.163  -0.099  0.00  0.00    +0.047 A 
ATOM     15  C   UNL     1       0.866  -2.003  -0.777  0.00  0.00    +0.051 A 
ATOM     16  C   UNL     1      -0.360  -1.492  -1.173  0.00  0.00    +0.137 A 
ATOM     17  C   UNL     1      -0.864  -0.373  -0.519  0.00  0.00    +0.026 A 
ATOM     18  C   UNL     1       0.097   0.482  -0.046  0.00  0.00    -0.003 A 
ATOM     19  C   UNL     1       1.470   0.195  -0.090  0.00  0.00    -0.007 A 
ATOM     20  C   UNL     1       5.645   0.709  -0.204  0.00  0.00    +0.213 C 
ATOM     21  C   UNL     1       4.661   2.143   1.695  0.00  0.00    -0.025 C 
ENDROOT
BRANCH  17  22
ATOM     22  C   UNL     1      -2.245  -0.487   0.045  0.00  0.00    +0.146 C 
ATOM     23  C   UNL     1      -2.962  -1.673  -0.468  0.00  0.00    +0.068 A 
ATOM     24  C   UNL     1      -4.230  -1.516  -1.015  0.00  0.00    -0.005 A 
ATOM     25  C   UNL     1      -4.701  -2.807  -1.214  0.00  0.00    +0.015 A 
ATOM     26  C   UNL     1      -3.851  -3.706  -0.586  0.00  0.00    +0.081 A 
ATOM     27  C   UNL     1      -3.885  -5.043  -0.966  0.00  0.00    +0.019 A 
ATOM     28  C   UNL     1      -5.091  -5.543  -1.443  0.00  0.00    +0.002 A 
ATOM     29  C   UNL     1      -6.156  -4.688  -1.644  0.00  0.00    +0.000 A 
ATOM     30  C   UNL     1      -5.891  -3.327  -1.705  0.00  0.00    +0.001 A 
ATOM     31  C   UNL     1      -4.392  -0.346  -1.933  0.00  0.00    +0.045 C 
ATOM     32  C   UNL     1      -5.671   0.426  -1.623  0.00  0.00    +0.077 C 
ATOM     33  N   UNL     1      -5.399   1.295  -0.578  0.00  0.00    -0.270 NA
ATOM     34  C   UNL     1      -5.824   2.634  -0.591  0.00  0.00    +0.103 C 
ATOM     35  C   UNL     1      -5.191   3.216   0.675  0.00  0.00    +0.141 C 
ATOM     36  C   UNL     1      -3.800   2.751   0.738  0.00  0.00    +0.033 C 
ATOM     37  C   UNL     1      -3.714   1.202   1.221  0.00  0.00    +0.020 C 
ATOM     38  O   UNL     1      -5.962   3.013   1.795  0.00  0.00    -0.224 OA
ATOM     39  C   UNL     1      -5.219   0.809   0.728  0.00  0.00    +0.072 C 
ATOM     40  N   UNL     1      -2.899  -2.949  -0.010  0.00  0.00    -0.249 NA
ATOM     41  C   UNL     1      -3.039   0.743  -0.195  0.00  0.00    +0.022 C 
BRANCH  35  42
ATOM     42  C   UNL     1      -5.105   4.707   0.439  0.00  0.00    +0.032 C 
ATOM     43  C   UNL     1      -6.403   5.409   0.722  0.00  0.00    +0.003 C 
ENDBRANCH  35  42
BRANCH  22  44
ATOM     44  C   UNL     1      -2.060  -0.641   1.524  0.00  0.00    +0.325 C 
ATOM     45  O   UNL     1      -1.308   0.082   2.205  0.00  0.00    -0.249 OA
BRANCH  44  46
ATOM     46  O   UNL     1      -2.924  -1.484   2.216  0.00  0.00    -0.444 OA
ATOM     47  C   UNL     1      -2.637  -1.966   3.508  0.00  0.00    +0.256 C 
ENDBRANCH  44  46
ENDBRANCH  22  44
ENDBRANCH  17  22
BRANCH  16  48
ATOM     48  O   UNL     1      -1.133  -1.971  -2.200  0.00  0.00    -0.472 OA
ATOM     49  C   UNL     1      -0.984  -1.408  -3.501  0.00  0.00    +0.252 C 
ENDBRANCH  16  48
BRANCH  10  50
ATOM     50  C   UNL     1       3.913  -0.630  -1.531  0.00  0.00    +0.350 C 
ATOM     51  O   UNL     1       4.092  -1.794  -2.058  0.00  0.00    -0.247 OA
BRANCH  50  52
ATOM     52  O   UNL     1       3.341   0.047  -2.616  0.00  0.00    -0.443 OA
ATOM     53  C   UNL     1       3.745  -0.049  -3.945  0.00  0.00    +0.256 C 
ENDBRANCH  50  52
ENDBRANCH  10  50
BRANCH   1  55
ATOM     54  C   UNL     1       5.737   2.760  -1.435  0.00  0.00    +0.001 C 
ATOM     55  C   UNL     1       5.406   3.077  -0.357  0.00  0.00    +0.009 C 
ENDBRANCH   1  55
BRANCH  20  56
ATOM     56  O   UNL     1       6.060   0.265   1.223  0.00  0.00    -0.449 OA
BRANCH  56  57
ATOM     57  C   UNL     1       7.240  -0.462   1.271  0.00  0.00    +0.318 C 
ATOM     58  O   UNL     1       8.062  -0.321   0.318  0.00  0.00    -0.250 OA
ATOM     59  C   UNL     1       7.539  -1.476   2.318  0.00  0.00    +0.121 C 
ENDBRANCH  56  57
ENDBRANCH  20  56
TORSDOF 10
