REMARK  Name = 
REMARK  1 active torsions:
REMARK  status: ('A' for Active; 'I' for Inactive)
REMARK    1  A    between atoms: C_2  and  CA_4
REMARK                            x       y       z     vdW  Elec       q    Type
REMARK                         _______ _______ _______ _____ _____    ______ ____
ROOT
ATOM      1  CA  HYP A   1       0.393  -0.099  -0.755  0.00  0.00    +0.178 C 
ATOM      2  N   HYP A   1      -0.315  -1.341  -0.028  0.00  0.00    -0.206 NA
ATOM      3  CD  HYP A   1      -1.498  -0.868  -0.761  0.00  0.00    +0.122 C 
ATOM      4  CG  HYP A   1      -1.739   0.156   0.546  0.00  0.00    +0.171 C 
ATOM      5  OD  HYP A   1      -2.578   1.117  -0.327  0.00  0.00    -0.222 OA
ATOM      6  CB  HYP A   1      -0.333   1.013   0.249  0.00  0.00    +0.063 C 
ENDROOT
BRANCH   1   8
ATOM      7  O   HYP A   1       1.587  -0.291   1.241  0.00  0.00    -0.244 OA
ATOM      8  C   HYP A   1       1.724  -0.223   0.198  0.00  0.00    +0.380 C 
ATOM      9  OXT HYP A   1       2.760   0.535  -0.363  0.00  0.00    -0.244 OA
ENDBRANCH   1   8
TORSDOF 1
