REMARK  Name = 
REMARK  10 active torsions:
REMARK  status: ('A' for Active; 'I' for Inactive)
REMARK    1  A    between atoms: S_2  and  C_5
REMARK    2  A    between atoms: C_5  and  C_6
REMARK    3  A    between atoms: C_6  and  N_7
REMARK    4  A    between atoms: N_7  and  C_8
REMARK    5  A    between atoms: C_8  and  C_9
REMARK    6  A    between atoms: C_12  and  C_13
REMARK    7  A    between atoms: N_21  and  C_22
REMARK    8  A    between atoms: C_25  and  O_26
REMARK    9  A    between atoms: O_26  and  C_27
REMARK   10  A    between atoms: C_27  and  C_28
REMARK                            x       y       z     vdW  Elec       q    Type
REMARK                         _______ _______ _______ _____ _____    ______ ____
ROOT
ATOM      1  C   UNL     1       1.988  -0.521  -0.302  0.00  0.00    +0.035 A 
ATOM      2  C   UNL     1       1.151   0.565  -0.073  0.00  0.00    +0.007 A 
ATOM      3  C   UNL     1       0.175   0.447   0.910  0.00  0.00    +0.051 A 
ATOM      4  C   UNL     1      -0.042  -0.748   1.585  0.00  0.00    +0.086 A 
ATOM      5  N   UNL     1      -0.795  -0.749   2.691  0.00  0.00    -0.224 NA
ATOM      6  C   UNL     1      -1.105   0.453   3.232  0.00  0.00    +0.200 A 
ATOM      7  N   UNL     1      -1.135   1.564   2.457  0.00  0.00    -0.207 NA
ATOM      8  C   UNL     1       0.499  -1.905   1.034  0.00  0.00    +0.019 A 
ATOM      9  C   UNL     1      -0.448   1.630   1.290  0.00  0.00    +0.155 A 
ATOM     10  N   UNL     1      -0.913   2.496   0.247  0.00  0.00    -0.194 NA
ATOM     11  C   UNL     1       1.537  -1.748   0.124  0.00  0.00    +0.005 A 
ENDROOT
BRANCH  10  12
ATOM     12  C   UNL     1      -2.230   2.232  -0.251  0.00  0.00    +0.073 A 
ATOM     13  C   UNL     1      -3.286   1.907   0.584  0.00  0.00    +0.031 A 
ATOM     14  C   UNL     1      -4.362   1.139   0.156  0.00  0.00    +0.093 A 
ATOM     15 CL   UNL     1      -5.324   0.363   1.412  0.00  0.00    -0.079 Cl
ATOM     16  C   UNL     1      -4.286   0.531  -1.091  0.00  0.00    +0.150 A 
ATOM     17  C   UNL     1      -3.431   1.127  -2.008  0.00  0.00    +0.039 A 
ATOM     18  C   UNL     1      -2.439   2.010  -1.606  0.00  0.00    +0.020 A 
BRANCH  16  19
ATOM     19  O   UNL     1      -4.762  -0.764  -1.309  0.00  0.00    -0.470 OA
BRANCH  19  20
ATOM     20  C   UNL     1      -5.681  -1.072  -2.348  0.00  0.00    +0.232 C 
BRANCH  20  21
ATOM     21  C   UNL     1      -6.998  -1.327  -1.685  0.00  0.00    +0.023 A 
ATOM     22  C   UNL     1      -7.914  -0.325  -1.441  0.00  0.00    +0.029 A 
ATOM     23  C   UNL     1      -8.765  -0.347  -0.342  0.00  0.00    +0.140 A 
ATOM     24  F   UNL     1      -9.149   0.797   0.296  0.00  0.00    -0.204 F 
ATOM     25  C   UNL     1      -8.710  -1.478   0.462  0.00  0.00    +0.030 A 
ATOM     26  C   UNL     1      -8.087  -2.644   0.041  0.00  0.00    +0.002 A 
ATOM     27  C   UNL     1      -7.172  -2.510  -0.990  0.00  0.00    -0.001 A 
ENDBRANCH  20  21
ENDBRANCH  19  20
ENDBRANCH  16  19
ENDBRANCH  10  12
BRANCH   1  30
ATOM     28  C   UNL     1       5.281   0.738  -0.652  0.00  0.00    +0.140 A 
ATOM     29  O   UNL     1       4.010   0.777  -0.935  0.00  0.00    -0.456 OA
ATOM     30  C   UNL     1       3.403  -0.339  -0.655  0.00  0.00    +0.145 A 
ATOM     31  C   UNL     1       4.419  -1.257  -0.427  0.00  0.00    +0.040 A 
ATOM     32  C   UNL     1       5.553  -0.516  -0.119  0.00  0.00    +0.038 A 
BRANCH  28  33
ATOM     33  C   UNL     1       6.315   1.783  -0.921  0.00  0.00    +0.153 C 
BRANCH  33  34
ATOM     34  N   UNL     1       7.647   1.205  -0.757  0.00  0.00    -0.208 NA
BRANCH  34  35
ATOM     35  C   UNL     1       7.741   0.108  -1.682  0.00  0.00    +0.114 C 
BRANCH  35  36
ATOM     36  C   UNL     1       8.700  -0.965  -1.262  0.00  0.00    +0.170 C 
BRANCH  36  38
ATOM     37  C   UNL     1      10.678  -1.919   0.582  0.00  0.00    +0.176 C 
ATOM     38  S   UNL     1       9.461  -0.663   0.300  0.00  0.00    -0.007 S 
ATOM     39  O   UNL     1      10.038   0.718   0.363  0.00  0.00    -0.173 OA
ATOM     40  O   UNL     1       8.435  -0.795   1.403  0.00  0.00    -0.173 OA
ENDBRANCH  36  38
ENDBRANCH  35  36
ENDBRANCH  34  35
ENDBRANCH  33  34
ENDBRANCH  28  33
ENDBRANCH   1  30
TORSDOF 10
