REMARK  Name = 
REMARK  3 active torsions:
REMARK  status: ('A' for Active; 'I' for Inactive)
REMARK    1  A    between atoms: C_4  and  O_5
REMARK    2  A    between atoms: O_5  and  C_6
REMARK    3  A    between atoms: C_35  and  C_36
REMARK                            x       y       z     vdW  Elec       q    Type
REMARK                         _______ _______ _______ _____ _____    ______ ____
ROOT
ATOM      1  C   UNL     1      -2.411   0.285   0.711  0.00  0.00    +0.142 C 
ATOM      2  C   UNL     1      -1.133   0.796  -0.225  0.00  0.00    +0.064 C 
ATOM      3  C   UNL     1      -1.928   1.211  -1.602  0.00  0.00    +0.134 C 
ATOM      4  O   UNL     1      -0.687   1.590  -2.338  0.00  0.00    -0.334 OA
ATOM      5  C   UNL     1       0.222   2.329  -1.810  0.00  0.00    +0.224 C 
ATOM      6  C   UNL     1      -0.202   3.703  -1.383  0.00  0.00    +0.093 C 
ATOM      7  C   UNL     1      -1.673   3.712  -2.126  0.00  0.00    +0.170 C 
ATOM      8  O   UNL     1      -2.105   4.923  -1.326  0.00  0.00    -0.222 OA
ATOM      9  O   UNL     1       1.061   2.633  -2.920  0.00  0.00    -0.195 OA
ATOM     10  C   UNL     1       1.276   1.725  -0.884  0.00  0.00    +0.092 C 
ATOM     11  C   UNL     1       2.030   3.060  -0.268  0.00  0.00    +0.159 C 
ATOM     12  O   UNL     1       2.651   2.262   0.869  0.00  0.00    -0.223 OA
ATOM     13  C   UNL     1       3.336   2.886  -1.256  0.00  0.00    +0.065 C 
ATOM     14  C   UNL     1       3.646   1.269  -1.086  0.00  0.00    +0.149 C 
ATOM     15  C   UNL     1       5.275   1.578  -0.722  0.00  0.00    +0.164 C 
ATOM     16  C   UNL     1       5.569   0.012  -0.479  0.00  0.00    +0.012 C 
ATOM     17  C   UNL     1       5.418   0.028   0.867  0.00  0.00    +0.080 C 
ATOM     18  C   UNL     1       6.633  -0.551   1.461  0.00  0.00    +0.341 C 
ATOM     19  O   UNL     1       7.415  -0.012   2.243  0.00  0.00    -0.245 OA
ATOM     20  O   UNL     1       6.958  -1.506   0.483  0.00  0.00    -0.449 OA
ATOM     21  C   UNL     1       5.917  -2.617   0.269  0.00  0.00    +0.174 C 
ATOM     22  C   UNL     1       5.667  -2.463  -1.368  0.00  0.00    +0.048 C 
ATOM     23  C   UNL     1       4.524  -1.910   0.810  0.00  0.00    +0.070 C 
ATOM     24  C   UNL     1       3.640  -3.025   1.186  0.00  0.00    -0.022 C 
ATOM     25  C   UNL     1       3.099  -3.809   0.290  0.00  0.00    -0.004 C 
ATOM     26  C   UNL     1       1.656  -3.919   0.169  0.00  0.00    -0.000 C 
ATOM     27  C   UNL     1       0.948  -3.792   1.296  0.00  0.00    -0.000 C 
ATOM     28  C   UNL     1      -0.250  -3.022   1.087  0.00  0.00    -0.000 C 
ATOM     29  C   UNL     1      -0.122  -1.854   0.454  0.00  0.00    -0.000 C 
ATOM     30  C   UNL     1      -0.247  -0.801   1.438  0.00  0.00    -0.002 C 
ATOM     31  O   UNL     1       4.786   1.322  -2.299  0.00  0.00    -0.349 OA
ATOM     32  C   UNL     1      -2.315   2.720  -0.915  0.00  0.00    +0.161 C 
ATOM     33  C   UNL     1      -1.415  -0.449   1.774  0.00  0.00    +0.003 C 
ENDROOT
BRANCH  32  34
ATOM     34  C   UNL     1      -3.750   2.762  -1.575  0.00  0.00    +0.369 C 
ATOM     35  O   UNL     1      -4.412   3.973  -1.314  0.00  0.00    -0.245 OA
ATOM     36  O   UNL     1      -3.891   2.366  -2.737  0.00  0.00    -0.245 OA
ENDBRANCH  32  34
BRANCH   1  37
ATOM     37  O   UNL     1      -2.550  -0.954  -0.124  0.00  0.00    -0.327 OA
BRANCH  37  46
ATOM     38  C   UNL     1      -6.960   0.099   0.547  0.00  0.00    +0.035 C 
ATOM     39  C   UNL     1      -5.924  -1.119   0.167  0.00  0.00    +0.150 C 
ATOM     40  C   UNL     1      -6.143  -1.795   1.735  0.00  0.00    +0.199 C 
ATOM     41  O   UNL     1      -7.149  -2.773   1.180  0.00  0.00    -0.219 OA
ATOM     42  C   UNL     1      -4.944  -2.992   1.614  0.00  0.00    +0.160 C 
ATOM     43  N   UNL     1      -5.025  -3.268   3.140  0.00  0.00    -0.127 NA
ATOM     44  C   UNL     1      -3.595  -1.969   1.813  0.00  0.00    +0.228 C 
ATOM     45  O   UNL     1      -4.276  -0.837   2.512  0.00  0.00    -0.216 OA
ATOM     46  C   UNL     1      -3.917  -1.542   0.155  0.00  0.00    +0.268 C 
ATOM     47  O   UNL     1      -4.698  -0.266   0.485  0.00  0.00    -0.328 OA
ENDBRANCH  37  46
ENDBRANCH   1  37
TORSDOF 3
