REMARK  Name = 
REMARK  1 active torsions:
REMARK  status: ('A' for Active; 'I' for Inactive)
REMARK    1  A    between atoms: C_2  and  CA_4
REMARK                            x       y       z     vdW  Elec       q    Type
REMARK                         _______ _______ _______ _____ _____    ______ ____
ROOT
ATOM      1  CA  HYP A   1      -0.121   0.969   0.108  0.00  0.00    +0.178 C 
ATOM      2  N   HYP A   1       0.271   0.126  -1.174  0.00  0.00    -0.206 NA
ATOM      3  CD  HYP A   1       0.475  -1.135  -0.726  0.00  0.00    +0.122 C 
ATOM      4  CG  HYP A   1       1.797  -0.753   0.211  0.00  0.00    +0.171 C 
ATOM      5  OD  HYP A   1       2.309   0.394  -0.682  0.00  0.00    -0.222 OA
ATOM      6  CB  HYP A   1       0.882   0.218   1.171  0.00  0.00    +0.063 C 
ENDROOT
BRANCH   1   8
ATOM      7  O   HYP A   1      -2.228   0.857   1.007  0.00  0.00    -0.244 OA
ATOM      8  C   HYP A   1      -1.393   0.018   0.522  0.00  0.00    +0.380 C 
ATOM      9  OXT HYP A   1      -1.992  -0.693  -0.488  0.00  0.00    -0.244 OA
ENDBRANCH   1   8
TORSDOF 1
