REMARK  Name = 
REMARK  12 active torsions:
REMARK  status: ('A' for Active; 'I' for Inactive)
REMARK    1  A    between atoms: N_4  and  C_5
REMARK    2  A    between atoms: N_4  and  C_10
REMARK    3  A    between atoms: C_5  and  C_6
REMARK    4  A    between atoms: C_6  and  C_8
REMARK    5  A    between atoms: C_13  and  C_14
REMARK    6  A    between atoms: N_16  and  C_17
REMARK    7  A    between atoms: C_17  and  C_18
REMARK    8  A    between atoms: C_18  and  C_20
REMARK    9  A    between atoms: C_24  and  C_25
REMARK   10  A    between atoms: N_27  and  C_28
REMARK   11  A    between atoms: C_28  and  C_29
REMARK   12  A    between atoms: C_29  and  C_31
REMARK                            x       y       z     vdW  Elec       q    Type
REMARK                         _______ _______ _______ _____ _____    ______ ____
ROOT
ATOM      1  C   UNL     1      -0.468   1.421  -0.297  0.00  0.00    +0.065 A 
ATOM      2  C   UNL     1       0.849   0.983  -0.339  0.00  0.00    +0.049 A 
ATOM      3  I   UNL     1       2.092   2.105  -1.623  0.00  0.00    -0.041 I 
ATOM      4  C   UNL     1       1.298  -0.119   0.362  0.00  0.00    +0.067 A 
ATOM      5  C   UNL     1       0.304  -1.012   0.750  0.00  0.00    +0.040 A 
ATOM      6  I   UNL     1       0.887  -2.750   1.740  0.00  0.00    -0.042 I 
ATOM      7  C   UNL     1      -1.041  -0.818   0.454  0.00  0.00    +0.067 A 
ATOM      8  C   UNL     1      -1.390   0.466   0.081  0.00  0.00    +0.049 A 
ATOM      9  I   UNL     1      -3.412   0.974   0.111  0.00  0.00    -0.041 I 
ENDROOT
BRANCH   1  12
ATOM     10  C   UNL     1      -1.312   3.158   1.244  0.00  0.00    +0.095 C 
ATOM     11  C   UNL     1      -1.266   3.119   1.080  0.00  0.00    +0.230 C 
ATOM     12  N   UNL     1      -0.728   2.826  -0.154  0.00  0.00    -0.255 N 
ATOM     13  O   UNL     1      -1.166   2.699   2.144  0.00  0.00    -0.275 OA
BRANCH  12  14
ATOM     14  C   UNL     1       0.104   3.602  -0.996  0.00  0.00    +0.134 C 
BRANCH  14  15
ATOM     15  C   UNL     1      -0.510   5.132  -1.048  0.00  0.00    +0.205 C 
ATOM     16  O   UNL     1      -0.395   5.313   0.460  0.00  0.00    -0.218 OA
BRANCH  15  17
ATOM     17  C   UNL     1      -2.092   4.648  -0.974  0.00  0.00    +0.217 C 
ATOM     18  O   UNL     1      -2.652   5.800  -0.395  0.00  0.00    -0.218 OA
ENDBRANCH  15  17
ENDBRANCH  14  15
ENDBRANCH  12  14
ENDBRANCH   1  12
BRANCH   4  19
ATOM     19  C   UNL     1       2.621  -0.650   0.007  0.00  0.00    +0.266 C 
ATOM     20  N   UNL     1       3.844  -0.135   0.531  0.00  0.00    -0.199 NA
ATOM     21  O   UNL     1       2.690  -1.851  -0.397  0.00  0.00    -0.268 OA
BRANCH  20  22
ATOM     22  C   UNL     1       4.880  -1.064   0.969  0.00  0.00    +0.151 C 
BRANCH  22  23
ATOM     23  C   UNL     1       6.131  -0.813  -0.079  0.00  0.00    +0.206 C 
ATOM     24  O   UNL     1       5.233  -0.885  -1.304  0.00  0.00    -0.218 OA
BRANCH  23  25
ATOM     25  C   UNL     1       6.472  -2.425  -0.163  0.00  0.00    +0.217 C 
ATOM     26  O   UNL     1       6.875  -2.682   1.159  0.00  0.00    -0.218 OA
ENDBRANCH  23  25
ENDBRANCH  22  23
ENDBRANCH  20  22
ENDBRANCH   4  19
BRANCH   7  27
ATOM     27  C   UNL     1      -1.940  -1.949   0.271  0.00  0.00    +0.266 C 
ATOM     28  N   UNL     1      -3.219  -2.052   0.905  0.00  0.00    -0.199 NA
ATOM     29  O   UNL     1      -1.464  -2.945  -0.354  0.00  0.00    -0.268 OA
BRANCH  28  30
ATOM     30  C   UNL     1      -3.695  -3.379   1.108  0.00  0.00    +0.151 C 
BRANCH  30  31
ATOM     31  C   UNL     1      -4.970  -3.618   0.087  0.00  0.00    +0.206 C 
ATOM     32  O   UNL     1      -4.539  -2.572  -0.934  0.00  0.00    -0.218 OA
BRANCH  31  33
ATOM     33  C   UNL     1      -4.169  -4.812  -0.727  0.00  0.00    +0.217 C 
ATOM     34  O   UNL     1      -3.854  -5.716   0.286  0.00  0.00    -0.218 OA
ENDBRANCH  31  33
ENDBRANCH  30  31
ENDBRANCH  28  30
ENDBRANCH   7  27
TORSDOF 12
