REMARK  Name = 
REMARK  6 active torsions:
REMARK  status: ('A' for Active; 'I' for Inactive)
REMARK    1  A    between atoms: O_2  and  C_3
REMARK    2  A    between atoms: C_6  and  O_7
REMARK    3  A    between atoms: C_9  and  C_10
REMARK    4  A    between atoms: C_10  and  C_12
REMARK    5  A    between atoms: C_12  and  N_13
REMARK    6  A    between atoms: C_14  and  C_16
REMARK                            x       y       z     vdW  Elec       q    Type
REMARK                         _______ _______ _______ _____ _____    ______ ____
ROOT
ATOM      1  C   UNL     1      -2.748   1.191   0.216  0.00  0.00    +0.139 A 
ATOM      2  C   UNL     1      -1.382   1.001   0.034  0.00  0.00    +0.038 A 
ATOM      3  C   UNL     1      -0.834  -0.126   0.622  0.00  0.00    +0.046 A 
ATOM      4  C   UNL     1      -1.640  -1.249   0.431  0.00  0.00    +0.137 A 
ATOM      5  C   UNL     1      -2.962  -1.132   0.010  0.00  0.00    +0.040 A 
ATOM      6  C   UNL     1      -3.524   0.120  -0.217  0.00  0.00    +0.040 A 
ENDROOT
BRANCH   3   7
ATOM      7  C   UNL     1       0.663  -0.516   0.029  0.00  0.00    +0.199 C 
ATOM      8  O   UNL     1       1.117   0.967  -0.085  0.00  0.00    -0.216 OA
BRANCH   7   9
ATOM      9  C   UNL     1       1.285  -0.655   1.588  0.00  0.00    +0.153 C 
BRANCH   9  10
ATOM     10  N   UNL     1       2.536   0.020   1.572  0.00  0.00    -0.201 NA
ATOM     11  C   UNL     1       3.467   0.017   0.501  0.00  0.00    +0.261 C 
ATOM     12  O   UNL     1       3.481  -1.050  -0.176  0.00  0.00    -0.272 OA
BRANCH  11  13
ATOM     13  C   UNL     1       4.282   1.214   0.129  0.00  0.00    +0.196 C 
ATOM     14  N   UNL     1       5.515   0.836  -0.517  0.00  0.00    -0.121 NA
ENDBRANCH  11  13
ENDBRANCH   9  10
ENDBRANCH   7   9
ENDBRANCH   3   7
BRANCH   4  15
ATOM     15  O   UNL     1      -1.179  -2.545   0.605  0.00  0.00    -0.472 OA
ATOM     16  C   UNL     1      -1.058  -3.473  -0.472  0.00  0.00    +0.252 C 
ENDBRANCH   4  15
BRANCH   1  18
ATOM     17  C   UNL     1      -3.821   2.882  -0.325  0.00  0.00    +0.252 C 
ATOM     18  O   UNL     1      -3.197   2.496  -0.005  0.00  0.00    -0.471 OA
ENDBRANCH   1  18
TORSDOF 6
