REMARK  Name = 
REMARK  3 active torsions:
REMARK  status: ('A' for Active; 'I' for Inactive)
REMARK    1  A    between atoms: C_2  and  O_4
REMARK    2  A    between atoms: O_4  and  C_5
REMARK    3  A    between atoms: C_5  and  C_6
REMARK                            x       y       z     vdW  Elec       q    Type
REMARK                         _______ _______ _______ _____ _____    ______ ____
ROOT
ATOM      1  C   UNL     1       2.804  -0.318   0.315  0.00  0.00    +0.186 C 
ATOM      2  C   UNL     1       1.368  -0.457   0.449  0.00  0.00    +0.040 C 
ATOM      3  C   UNL     1       0.918   0.928  -0.280  0.00  0.00    +0.008 C 
ATOM      4  C   UNL     1      -0.589   0.304  -0.764  0.00  0.00    +0.022 C 
ATOM      5  C   UNL     1      -1.353   0.694   0.708  0.00  0.00    +0.008 C 
ATOM      6  C   UNL     1      -0.776  -0.652   1.442  0.00  0.00    +0.001 C 
ATOM      7  C   UNL     1      -2.758   0.038   0.228  0.00  0.00    +0.019 C 
ATOM      8  C   UNL     1      -3.034   0.570  -1.133  0.00  0.00    -0.024 C 
ATOM      9  C   UNL     1      -4.158   0.129  -1.678  0.00  0.00    +0.033 C 
ATOM     10  C   UNL     1      -5.073  -0.527  -0.734  0.00  0.00    +0.173 C 
ATOM     11  C   UNL     1      -5.102  -0.124   0.685  0.00  0.00    +0.069 C 
ATOM     12  O   UNL     1      -5.810  -1.483  -1.106  0.00  0.00    -0.291 OA
ATOM     13  C   UNL     1      -2.305   1.725  -1.669  0.00  0.00    -0.030 C 
ATOM     14  C   UNL     1      -2.894   2.390  -2.848  0.00  0.00    +0.030 C 
ATOM     15  C   UNL     1      -2.785  -1.409   0.358  0.00  0.00    +0.004 C 
ATOM     16  C   UNL     1      -3.845   0.622   1.115  0.00  0.00    +0.012 C 
ATOM     17  C   UNL     1      -0.994   1.691  -1.421  0.00  0.00    -0.031 C 
ATOM     18  C   UNL     1       1.623   0.439  -1.668  0.00  0.00    +0.004 C 
ATOM     19  C   UNL     1       0.947  -1.597  -0.427  0.00  0.00    +0.004 C 
ATOM     20  C   UNL     1       0.692  -0.346   1.744  0.00  0.00    +0.004 C 
ATOM     21  C   UNL     1       2.985   0.050  -1.156  0.00  0.00    +0.047 C 
ENDROOT
BRANCH   1  22
ATOM     22  C   UNL     1       3.462  -1.638   0.583  0.00  0.00    +0.187 C 
ATOM     23  O   UNL     1       3.805  -2.016   1.670  0.00  0.00    -0.292 OA
ATOM     24  C   UNL     1       3.592  -2.571  -0.568  0.00  0.00    +0.076 C 
ENDBRANCH   1  22
BRANCH   1  25
ATOM     25  O   UNL     1       3.473   0.665   1.037  0.00  0.00    -0.449 OA
BRANCH  25  27
ATOM     26  C   UNL     1       5.652   1.902   1.243  0.00  0.00    +0.121 C 
ATOM     27  C   UNL     1       4.817   0.828   0.675  0.00  0.00    +0.318 C 
ATOM     28  O   UNL     1       5.337   0.164  -0.274  0.00  0.00    -0.250 OA
ENDBRANCH  25  27
ENDBRANCH   1  25
TORSDOF 3
