REMARK  Name = 
REMARK  4 active torsions:
REMARK  status: ('A' for Active; 'I' for Inactive)
REMARK    1  A    between atoms: C_4  and  C_5
REMARK    2  A    between atoms: N_7  and  N_8
REMARK    3  A    between atoms: N_8  and  C_9
REMARK    4  A    between atoms: C_9  and  C_10
REMARK                            x       y       z     vdW  Elec       q    Type
REMARK                         _______ _______ _______ _____ _____    ______ ____
ROOT
ATOM      1  C   UNL     1       1.085  -0.825   0.301  0.00  0.00    +0.302 C 
ATOM      2  N   UNL     1       0.100  -0.431  -0.653  0.00  0.00    -0.106 NA
ATOM      3  O   UNL     1       0.763  -1.577   1.266  0.00  0.00    -0.265 OA
ENDROOT
BRANCH   1   8
ATOM      4  C   UNL     1       5.289   1.731   0.783  0.00  0.00    +0.075 C 
ATOM      5  C   UNL     1       4.284   0.783   0.206  0.00  0.00    +0.155 A 
ATOM      6  O   UNL     1       4.507  -0.357  -0.391  0.00  0.00    -0.358 OA
ATOM      7  N   UNL     1       3.420  -1.053  -0.521  0.00  0.00    -0.073 NA
ATOM      8  C   UNL     1       2.476  -0.434   0.226  0.00  0.00    +0.179 A 
ATOM      9  C   UNL     1       2.898   0.890   0.258  0.00  0.00    +0.063 A 
ENDBRANCH   1   8
BRANCH   2  10
ATOM     10  N   UNL     1      -0.892  -1.368  -0.996  0.00  0.00    -0.103 NA
BRANCH  10  11
ATOM     11  C   UNL     1      -2.019  -0.682  -1.575  0.00  0.00    +0.140 C 
BRANCH  11  12
ATOM     12  C   UNL     1      -2.802   0.071  -0.569  0.00  0.00    -0.003 A 
ATOM     13  C   UNL     1      -2.362   0.265   0.725  0.00  0.00    -0.003 A 
ATOM     14  C   UNL     1      -3.163   0.868   1.674  0.00  0.00    -0.000 A 
ATOM     15  C   UNL     1      -4.519   0.858   1.434  0.00  0.00    -0.000 A 
ATOM     16  C   UNL     1      -4.959   0.819   0.123  0.00  0.00    -0.000 A 
ATOM     17  C   UNL     1      -4.105   0.444  -0.876  0.00  0.00    -0.003 A 
ENDBRANCH  11  12
ENDBRANCH  10  11
ENDBRANCH   2  10
TORSDOF 4
