REMARK  Name = 
REMARK  3 active torsions:
REMARK  status: ('A' for Active; 'I' for Inactive)
REMARK    1  A    between atoms: C_5  and  C_6
REMARK    2  A    between atoms: C_6  and  C_8
REMARK    3  A    between atoms: C_14  and  N_15
REMARK                            x       y       z     vdW  Elec       q    Type
REMARK                         _______ _______ _______ _____ _____    ______ ____
ROOT
ATOM      1  C   UNL     1      -0.413  -0.088  -0.291  0.00  0.00    +0.048 A 
ATOM      2  C   UNL     1      -1.308   0.973  -0.337  0.00  0.00    +0.082 A 
ATOM      3  C   UNL     1      -2.631   0.817   0.021  0.00  0.00    +0.332 A 
ATOM      4  C   UNL     1      -3.040  -0.486   0.265  0.00  0.00    +0.303 A 
ATOM      5  O   UNL     1      -4.228  -0.693   0.966  0.00  0.00    -0.277 OA
ATOM      6  C   UNL     1      -2.241  -1.581  -0.032  0.00  0.00    +0.241 A 
ATOM      7  O   UNL     1      -2.792  -2.855  -0.106  0.00  0.00    -0.283 OA
ATOM      8  C   UNL     1      -0.954  -1.343  -0.495  0.00  0.00    +0.049 A 
ENDROOT
BRANCH   3   9
ATOM      9  N   UNL     1      -3.624   1.813  -0.238  0.00  0.00    +0.084 N 
ATOM     10  O   UNL     1      -3.398   3.068   0.281  0.00  0.00    -0.576 OA
ATOM     11  O   UNL     1      -4.204   1.749  -1.351  0.00  0.00    +0.042 OA
ENDBRANCH   3   9
BRANCH   1  12
ATOM     12  C   UNL     1       0.991   0.225  -0.423  0.00  0.00    +0.196 C 
ATOM     13  O   UNL     1       1.344   0.986  -1.372  0.00  0.00    -0.287 OA
BRANCH  12  18
ATOM     14  C   UNL     1       6.157   0.008   0.541  0.00  0.00    +0.031 C 
ATOM     15  C   UNL     1       4.798  -0.421   0.998  0.00  0.00    -0.022 A 
ATOM     16  C   UNL     1       3.966   0.441   1.701  0.00  0.00    -0.004 A 
ATOM     17  C   UNL     1       2.608   0.536   1.421  0.00  0.00    +0.003 A 
ATOM     18  C   UNL     1       2.029  -0.299   0.473  0.00  0.00    +0.039 A 
ATOM     19  C   UNL     1       2.785  -1.400   0.088  0.00  0.00    +0.003 A 
ATOM     20  C   UNL     1       4.155  -1.450   0.321  0.00  0.00    -0.004 A 
ENDBRANCH  12  18
ENDBRANCH   1  12
TORSDOF 3
