REMARK  Name = 
REMARK  5 active torsions:
REMARK  status: ('A' for Active; 'I' for Inactive)
REMARK    1  A    between atoms: C_2  and  C_4
REMARK    2  A    between atoms: C_4  and  S_5
REMARK    3  A    between atoms: S_5  and  C_7
REMARK    4  A    between atoms: C_7  and  C_8
REMARK    5  A    between atoms: C_7  and  C_14
REMARK                            x       y       z     vdW  Elec       q    Type
REMARK                         _______ _______ _______ _____ _____    ______ ____
ROOT
ATOM      1  C   UNL     1      -0.184  -0.276   0.255  0.00  0.00    +0.124 C 
ENDROOT
BRANCH   1   2
ATOM      2  C   UNL     1      -0.445   1.169   0.299  0.00  0.00    -0.006 A 
ATOM      3  C   UNL     1       0.312   2.127  -0.332  0.00  0.00    -0.003 A 
ATOM      4  C   UNL     1       0.133   3.471  -0.031  0.00  0.00    -0.000 A 
ATOM      5  C   UNL     1      -0.707   3.866   0.982  0.00  0.00    -0.000 A 
ATOM      6  C   UNL     1      -1.521   2.926   1.582  0.00  0.00    -0.000 A 
ATOM      7  C   UNL     1      -1.236   1.607   1.355  0.00  0.00    -0.003 A 
ENDBRANCH   1   2
BRANCH   1   8
ATOM      8  C   UNL     1      -1.358  -1.098  -0.065  0.00  0.00    -0.006 A 
ATOM      9  C   UNL     1      -2.368  -1.124   0.889  0.00  0.00    -0.003 A 
ATOM     10  C   UNL     1      -3.085  -2.275   1.179  0.00  0.00    -0.000 A 
ATOM     11  C   UNL     1      -2.951  -3.363   0.331  0.00  0.00    -0.000 A 
ATOM     12  C   UNL     1      -2.219  -3.189  -0.837  0.00  0.00    -0.000 A 
ATOM     13  C   UNL     1      -1.409  -2.075  -1.027  0.00  0.00    -0.003 A 
ENDBRANCH   1   8
BRANCH   1  14
ATOM     14  S   UNL     1       1.235  -0.665  -0.832  0.00  0.00    +0.059 S 
ATOM     15  O   UNL     1       0.933   0.247  -2.054  0.00  0.00    -0.255 OA
BRANCH  14  16
ATOM     16  C   UNL     1       2.553   0.311  -0.000  0.00  0.00    +0.180 C 
BRANCH  16  18
ATOM     17  N   UNL     1       4.012  -1.412  -0.050  0.00  0.00    -0.087 NA
ATOM     18  C   UNL     1       3.831  -0.392  -0.345  0.00  0.00    +0.274 C 
ATOM     19  O   UNL     1       4.474   0.143  -1.300  0.00  0.00    -0.271 OA
ENDBRANCH  16  18
ENDBRANCH  14  16
ENDBRANCH   1  14
TORSDOF 5
