REMARK  Name = 
REMARK  9 active torsions:
REMARK  status: ('A' for Active; 'I' for Inactive)
REMARK    1  A    between atoms: C_2  and  O_3
REMARK    2  A    between atoms: C_2  and  C_28
REMARK    3  A    between atoms: O_3  and  C_4
REMARK    4  A    between atoms: N_8  and  C_9
REMARK    5  A    between atoms: C_9  and  C_10
REMARK    6  A    between atoms: N_12  and  P_13
REMARK    7  A    between atoms: C_20  and  C_21
REMARK    8  A    between atoms: C_30  and  C_31
REMARK    9  A    between atoms: C_36  and  C_37
REMARK                            x       y       z     vdW  Elec       q    Type
REMARK                         _______ _______ _______ _____ _____    ______ ____
ROOT
ATOM      1  C   UNL     1      -0.490   1.030   0.173  0.00  0.00    +0.255 C 
ATOM      2  C   UNL     1       0.742   0.262  -0.851  0.00  0.00    +0.138 C 
ATOM      3  N   UNL     1       1.806   1.387  -0.534  0.00  0.00    -0.258 NA
ATOM      4  C   UNL     1       2.231   1.376   0.761  0.00  0.00    +0.105 C 
ATOM      5  C   UNL     1       1.091   1.782   1.691  0.00  0.00    +0.162 C 
ATOM      6  O   UNL     1       0.235   0.705   1.510  0.00  0.00    -0.328 OA
ENDROOT
BRANCH   2   7
ATOM      7  C   UNL     1       1.266  -0.788   0.270  0.00  0.00    -0.003 A 
ATOM      8  C   UNL     1       0.535  -1.979   0.280  0.00  0.00    -0.001 A 
ATOM      9  C   UNL     1       1.058  -2.963   1.111  0.00  0.00    +0.029 A 
ATOM     10  C   UNL     1       2.424  -3.158   1.030  0.00  0.00    +0.140 A 
ATOM     11  F   UNL     1       3.056  -4.054   1.841  0.00  0.00    -0.204 F 
ATOM     12  C   UNL     1       3.185  -2.260   0.293  0.00  0.00    +0.029 A 
ATOM     13  C   UNL     1       2.585  -1.097  -0.058  0.00  0.00    -0.001 A 
ENDBRANCH   2   7
BRANCH   1  14
ATOM     14  O   UNL     1      -1.331  -0.286   0.266  0.00  0.00    -0.327 OA
BRANCH  14  16
ATOM     15  C   UNL     1      -2.587  -0.914   2.157  0.00  0.00    +0.037 C 
ATOM     16  C   UNL     1      -2.247   0.482   1.262  0.00  0.00    +0.140 C 
BRANCH  16  17
ATOM     17  C   UNL     1      -3.574   0.312   0.292  0.00  0.00    +0.005 A 
ATOM     18  C   UNL     1      -3.900  -0.932  -0.095  0.00  0.00    +0.002 A 
ATOM     19  C   UNL     1      -5.172  -1.092  -0.643  0.00  0.00    +0.071 A 
ATOM     20  C   UNL     1      -6.004   0.015  -0.774  0.00  0.00    +0.008 A 
ATOM     21  C   UNL     1      -5.638   1.266  -0.292  0.00  0.00    +0.071 A 
ATOM     22  C   UNL     1      -4.401   1.405   0.327  0.00  0.00    +0.002 A 
BRANCH  21  23
ATOM     23  C   UNL     1      -6.607   2.365  -0.075  0.00  0.00    +0.419 C 
ATOM     24  F   UNL     1      -6.146   3.443  -0.813  0.00  0.00    -0.166 F 
ATOM     25  F   UNL     1      -7.854   1.965  -0.469  0.00  0.00    -0.166 F 
ATOM     26  F   UNL     1      -6.572   2.674   1.280  0.00  0.00    -0.166 F 
ENDBRANCH  21  23
BRANCH  19  27
ATOM     27  C   UNL     1      -5.888  -2.400  -0.491  0.00  0.00    +0.419 C 
ATOM     28  F   UNL     1      -5.132  -3.441  -0.969  0.00  0.00    -0.166 F 
ATOM     29  F   UNL     1      -6.258  -2.587   0.837  0.00  0.00    -0.166 F 
ATOM     30  F   UNL     1      -7.060  -2.347  -1.204  0.00  0.00    -0.166 F 
ENDBRANCH  19  27
ENDBRANCH  16  17
ENDBRANCH  14  16
ENDBRANCH   1  14
BRANCH   3  31
ATOM     31  C   UNL     1       2.662   1.538  -1.621  0.00  0.00    +0.141 C 
BRANCH  31  32
ATOM     32  C   UNL     1       4.102   1.424  -1.444  0.00  0.00    +0.180 A 
ATOM     33  N   UNL     1       4.918   0.816  -2.343  0.00  0.00    -0.173 NA
ATOM     34  C   UNL     1       5.933   0.257  -1.637  0.00  0.00    +0.376 A 
ATOM     35  O   UNL     1       6.673  -0.712  -1.959  0.00  0.00    -0.242 OA
ATOM     36  N   UNL     1       5.991   0.948  -0.472  0.00  0.00    -0.108 N 
ATOM     37  N   UNL     1       4.955   1.786  -0.456  0.00  0.00    -0.140 NA
BRANCH  36  38
ATOM     38  P   UNL     1       7.451   0.959   0.496  0.00  0.00    +0.516 P 
ATOM     39  O   UNL     1       7.905  -0.589   0.974  0.00  0.00    -0.119 OA
ATOM     40  O   UNL     1       8.760   1.610  -0.370  0.00  0.00    -0.119 OA
ATOM     41  O   UNL     1       7.293   1.794   1.737  0.00  0.00    -0.227 OA
ENDBRANCH  36  38
ENDBRANCH  31  32
ENDBRANCH   3  31
TORSDOF 9
