REMARK  Name = 
REMARK  28 active torsions:
REMARK  status: ('A' for Active; 'I' for Inactive)
REMARK    1  A    between atoms: C_2  and  C_4
REMARK    2  A    between atoms: C_4  and  O_5
REMARK    3  A    between atoms: O_5  and  C_6
REMARK    4  A    between atoms: C_6  and  C_7
REMARK    5  A    between atoms: C_9  and  O_10
REMARK    6  A    between atoms: O_10  and  C_11
REMARK    7  A    between atoms: C_11  and  C_12
REMARK    8  A    between atoms: C_15  and  O_16
REMARK    9  A    between atoms: O_16  and  C_17
REMARK   10  A    between atoms: C_17  and  C_18
REMARK   11  A    between atoms: C_21  and  O_22
REMARK   12  A    between atoms: O_22  and  C_23
REMARK   13  A    between atoms: C_23  and  C_24
REMARK   14  A    between atoms: C_27  and  O_28
REMARK   15  A    between atoms: O_28  and  C_29
REMARK   16  A    between atoms: C_31  and  C_32
REMARK   17  A    between atoms: C_32  and  O_33
REMARK   18  A    between atoms: O_33  and  C_34
REMARK   19  A    between atoms: C_34  and  C_35
REMARK   20  A    between atoms: C_38  and  O_39
REMARK   21  A    between atoms: O_39  and  C_40
REMARK   22  A    between atoms: C_40  and  C_41
REMARK   23  A    between atoms: C_44  and  O_45
REMARK   24  A    between atoms: O_45  and  C_46
REMARK   25  A    between atoms: C_46  and  C_47
REMARK   26  A    between atoms: C_50  and  O_51
REMARK   27  A    between atoms: O_51  and  C_52
REMARK   28  A    between atoms: C_52  and  C_53
REMARK                            x       y       z     vdW  Elec       q    Type
REMARK                         _______ _______ _______ _____ _____    ______ ____
ROOT
ATOM      1  O   UNL     1       0.501   0.358   0.084  0.00  0.00    -0.326 OA
ENDROOT
BRANCH   1   2
ATOM      2  C   UNL     1      -0.505  -0.814   0.058  0.00  0.00    +0.266 C 
ATOM      3  C   UNL     1      -1.657   0.062  -0.875  0.00  0.00    +0.201 C 
ATOM      4  C   UNL     1      -2.768  -1.147  -0.437  0.00  0.00    +0.177 C 
ATOM      5  C   UNL     1      -3.503  -0.174   0.732  0.00  0.00    +0.174 C 
ATOM      6  C   UNL     1      -2.191   0.256   1.752  0.00  0.00    +0.177 C 
ATOM      7  O   UNL     1      -1.141  -0.670   1.376  0.00  0.00    -0.326 OA
BRANCH   4   8
ATOM      8  O   UNL     1      -3.815  -0.567  -1.337  0.00  0.00    -0.348 OA
BRANCH   8   9
ATOM      9  C   UNL     1      -3.996  -0.969  -2.507  0.00  0.00    +0.175 C 
BRANCH   9  10
ATOM     10  C   UNL     1      -5.460  -1.690  -2.735  0.00  0.00    +0.181 C 
ATOM     11  O   UNL     1      -5.024  -2.328  -4.051  0.00  0.00    -0.220 OA
ATOM     12  C   UNL     1      -5.007  -3.053  -1.913  0.00  0.00    +0.038 C 
ENDBRANCH   9  10
ENDBRANCH   8   9
ENDBRANCH   4   8
BRANCH   5  13
ATOM     13  O   UNL     1      -3.868  -1.323   1.624  0.00  0.00    -0.348 OA
BRANCH  13  14
ATOM     14  C   UNL     1      -5.252  -1.574   1.407  0.00  0.00    +0.175 C 
BRANCH  14  15
ATOM     15  C   UNL     1      -6.003  -0.637   2.542  0.00  0.00    +0.181 C 
ATOM     16  O   UNL     1      -5.724   0.647   1.780  0.00  0.00    -0.220 OA
ATOM     17  C   UNL     1      -7.484  -0.845   1.829  0.00  0.00    +0.038 C 
ENDBRANCH  14  15
ENDBRANCH  13  14
ENDBRANCH   5  13
BRANCH   3  18
ATOM     18  O   UNL     1      -1.128  -0.602  -2.095  0.00  0.00    -0.346 OA
BRANCH  18  19
ATOM     19  C   UNL     1      -1.450  -1.935  -2.044  0.00  0.00    +0.175 C 
BRANCH  19  20
ATOM     20  C   UNL     1      -0.541  -2.655  -3.197  0.00  0.00    +0.181 C 
ATOM     21  O   UNL     1       0.178  -3.499  -2.156  0.00  0.00    -0.220 OA
ATOM     22  C   UNL     1      -1.706  -3.824  -3.414  0.00  0.00    +0.038 C 
ENDBRANCH  19  20
ENDBRANCH  18  19
ENDBRANCH   3  18
BRANCH   6  23
ATOM     23  C   UNL     1      -1.801   1.597   0.856  0.00  0.00    +0.174 C 
BRANCH  23  24
ATOM     24  O   UNL     1      -2.809   2.434   1.379  0.00  0.00    -0.348 OA
BRANCH  24  25
ATOM     25  C   UNL     1      -2.701   2.493   2.723  0.00  0.00    +0.175 C 
BRANCH  25  26
ATOM     26  C   UNL     1      -4.181   2.661   3.422  0.00  0.00    +0.181 C 
ATOM     27  O   UNL     1      -3.933   4.142   3.703  0.00  0.00    -0.220 OA
ATOM     28  C   UNL     1      -5.025   3.036   2.048  0.00  0.00    +0.038 C 
ENDBRANCH  25  26
ENDBRANCH  24  25
ENDBRANCH  23  24
ENDBRANCH   6  23
ENDBRANCH   1   2
BRANCH   1  30
ATOM     29  C   UNL     1       2.494  -1.034   0.524  0.00  0.00    +0.177 C 
ATOM     30  C   UNL     1       1.452  -0.487  -0.716  0.00  0.00    +0.177 C 
ATOM     31  C   UNL     1       2.580   0.683  -1.240  0.00  0.00    +0.177 C 
ATOM     32  C   UNL     1       3.549   0.782   0.154  0.00  0.00    +0.201 C 
ATOM     33  C   UNL     1       2.345   1.208   1.292  0.00  0.00    +0.266 C 
ATOM     34  O   UNL     1       1.944  -0.215   1.648  0.00  0.00    -0.326 OA
BRANCH  31  35
ATOM     35  O   UNL     1       1.752   1.914  -1.042  0.00  0.00    -0.348 OA
BRANCH  35  36
ATOM     36  C   UNL     1       1.284   2.056  -2.337  0.00  0.00    +0.175 C 
BRANCH  36  37
ATOM     37  C   UNL     1       2.495   2.555  -3.322  0.00  0.00    +0.181 C 
ATOM     38  O   UNL     1       3.001   1.152  -3.606  0.00  0.00    -0.220 OA
ATOM     39  C   UNL     1       1.497   2.483  -4.640  0.00  0.00    +0.038 C 
ENDBRANCH  36  37
ENDBRANCH  35  36
ENDBRANCH  31  35
BRANCH  32  40
ATOM     40  O   UNL     1       3.939   2.195  -0.152  0.00  0.00    -0.346 OA
BRANCH  40  41
ATOM     41  C   UNL     1       3.484   3.041   0.775  0.00  0.00    +0.175 C 
BRANCH  41  42
ATOM     42  C   UNL     1       2.888   4.416   0.122  0.00  0.00    +0.181 C 
ATOM     43  O   UNL     1       3.632   5.291   1.122  0.00  0.00    -0.220 OA
ATOM     44  C   UNL     1       4.120   4.524  -0.970  0.00  0.00    +0.038 C 
ENDBRANCH  41  42
ENDBRANCH  40  41
ENDBRANCH  32  40
BRANCH  29  45
ATOM     45  C   UNL     1       1.539  -2.315   0.886  0.00  0.00    +0.174 C 
BRANCH  45  46
ATOM     46  O   UNL     1       2.101  -3.300   0.026  0.00  0.00    -0.348 OA
BRANCH  46  47
ATOM     47  C   UNL     1       3.315  -3.776   0.498  0.00  0.00    +0.175 C 
BRANCH  47  49
ATOM     48  C   UNL     1       3.948  -3.261  -1.728  0.00  0.00    +0.038 C 
ATOM     49  C   UNL     1       4.456  -2.831  -0.222  0.00  0.00    +0.181 C 
ATOM     50  O   UNL     1       5.481  -3.946  -0.188  0.00  0.00    -0.220 OA
ENDBRANCH  47  49
ENDBRANCH  46  47
ENDBRANCH  45  46
ENDBRANCH  29  45
BRANCH  33  51
ATOM     51  O   UNL     1       3.429   1.204   2.370  0.00  0.00    -0.326 OA
BRANCH  51  52
ATOM     52  C   UNL     1       4.016  -0.023   2.367  0.00  0.00    +0.178 C 
BRANCH  52  53
ATOM     53  C   UNL     1       5.595   0.147   2.750  0.00  0.00    +0.182 C 
ATOM     54  O   UNL     1       5.547  -1.100   3.619  0.00  0.00    -0.220 OA
ATOM     55  C   UNL     1       6.108  -0.742   1.456  0.00  0.00    +0.038 C 
ENDBRANCH  52  53
ENDBRANCH  51  52
ENDBRANCH  33  51
ENDBRANCH   1  30
TORSDOF 28
