REMARK  Name = 
REMARK  4 active torsions:
REMARK  status: ('A' for Active; 'I' for Inactive)
REMARK    1  A    between atoms: O_2  and  C_3
REMARK    2  A    between atoms: C_8  and  O_9
REMARK    3  A    between atoms: C_15  and  C_16
REMARK    4  A    between atoms: C_16  and  C_17
REMARK                            x       y       z     vdW  Elec       q    Type
REMARK                         _______ _______ _______ _____ _____    ______ ____
ROOT
ATOM      1  C   UNL     1      -3.081  -1.232   0.060  0.00  0.00    +0.172 A 
ATOM      2  C   UNL     1      -3.248   0.006   0.677  0.00  0.00    +0.172 A 
ATOM      3  C   UNL     1      -2.095   0.700   1.030  0.00  0.00    +0.037 A 
ATOM      4  C   UNL     1      -0.925   0.305   0.427  0.00  0.00    -0.008 A 
ATOM      5  C   UNL     1       0.350   1.287   0.746  0.00  0.00    +0.087 C 
ATOM      6  N   UNL     1       0.821   1.448  -0.776  0.00  0.00    -0.269 NA
ATOM      7  C   UNL     1      -0.209   1.110  -1.647  0.00  0.00    +0.077 C 
ATOM      8  C   UNL     1      -0.079  -0.418  -1.727  0.00  0.00    +0.044 C 
ATOM      9  C   UNL     1       2.015   0.753  -0.975  0.00  0.00    +0.080 C 
ATOM     10  C   UNL     1       3.068   1.602  -0.012  0.00  0.00    +0.074 C 
ATOM     11  C   UNL     1       2.672   0.692   1.288  0.00  0.00    +0.153 C 
ATOM     12  O   UNL     1       2.910   1.356   2.276  0.00  0.00    -0.296 OA
ATOM     13  C   UNL     1       1.363  -0.018   1.070  0.00  0.00    +0.085 C 
ATOM     14  C   UNL     1      -0.741  -0.738  -0.405  0.00  0.00    -0.020 A 
ATOM     15  C   UNL     1      -1.858  -1.567  -0.516  0.00  0.00    +0.036 A 
ENDROOT
BRANCH   1  17
ATOM     16  C   UNL     1      -5.194  -2.045  -0.587  0.00  0.00    +0.253 C 
ATOM     17  O   UNL     1      -4.194  -2.070  -0.005  0.00  0.00    -0.468 OA
ENDBRANCH   1  17
BRANCH   2  18
ATOM     18  O   UNL     1      -4.464   0.664   0.446  0.00  0.00    -0.468 OA
ATOM     19  C   UNL     1      -4.844   1.141  -0.826  0.00  0.00    +0.253 C 
ENDBRANCH   2  18
BRANCH  10  20
ATOM     20  C   UNL     1       4.352   0.652  -0.459  0.00  0.00    +0.009 C 
BRANCH  20  21
ATOM     21  C   UNL     1       4.133  -0.712   0.053  0.00  0.00    +0.000 C 
ATOM     22  C   UNL     1       5.417  -1.161   0.748  0.00  0.00    +0.000 C 
ATOM     23  C   UNL     1       3.830  -1.754  -0.968  0.00  0.00    +0.000 C 
ENDBRANCH  20  21
ENDBRANCH  10  20
TORSDOF 4
