REMARK  Name = 
REMARK  16 active torsions:
REMARK  status: ('A' for Active; 'I' for Inactive)
REMARK    1  A    between atoms: C_2  and  C_4
REMARK    2  A    between atoms: C_4  and  N_5
REMARK    3  A    between atoms: N_5  and  C_6
REMARK    4  A    between atoms: N_5  and  C_17
REMARK    5  A    between atoms: C_6  and  C_7
REMARK    6  A    between atoms: C_7  and  N_8
REMARK    7  A    between atoms: N_8  and  C_9
REMARK    8  A    between atoms: N_8  and  C_13
REMARK    9  A    between atoms: C_9  and  C_10
REMARK   10  A    between atoms: C_13  and  C_14
REMARK   11  A    between atoms: C_17  and  C_18
REMARK   12  A    between atoms: C_18  and  N_19
REMARK   13  A    between atoms: N_19  and  C_20
REMARK   14  A    between atoms: N_19  and  C_24
REMARK   15  A    between atoms: C_20  and  C_21
REMARK   16  A    between atoms: C_24  and  C_25
REMARK                            x       y       z     vdW  Elec       q    Type
REMARK                         _______ _______ _______ _____ _____    ______ ____
ROOT
ATOM      1  N   UNL     1      -0.271  -0.864   0.398  0.00  0.00    -0.261 NA
ENDROOT
BRANCH   1   2
ATOM      2  C   UNL     1      -1.403  -1.068  -0.503  0.00  0.00    +0.090 C 
BRANCH   2   3
ATOM      3  C   UNL     1      -1.858   0.209  -1.148  0.00  0.00    +0.091 C 
BRANCH   3   4
ATOM      4  N   UNL     1      -3.168   0.636  -0.743  0.00  0.00    -0.252 NA
BRANCH   4   5
ATOM      5  C   UNL     1      -4.107  -0.441  -0.565  0.00  0.00    +0.188 C 
BRANCH   5   6
ATOM      6  C   UNL     1      -3.906  -1.159   0.729  0.00  0.00    +0.381 C 
ATOM      7  O   UNL     1      -3.574  -0.469   1.898  0.00  0.00    -0.244 OA
ATOM      8  O   UNL     1      -4.456  -2.299   0.813  0.00  0.00    -0.244 OA
ENDBRANCH   5   6
ENDBRANCH   4   5
BRANCH   4   9
ATOM      9  C   UNL     1      -3.157   1.546   0.379  0.00  0.00    +0.188 C 
BRANCH   9  10
ATOM     10  C   UNL     1      -4.167   2.608   0.072  0.00  0.00    +0.381 C 
ATOM     11  O   UNL     1      -5.328   2.197  -0.575  0.00  0.00    -0.244 OA
ATOM     12  O   UNL     1      -4.137   3.691   0.693  0.00  0.00    -0.244 OA
ENDBRANCH   9  10
ENDBRANCH   4   9
ENDBRANCH   3   4
ENDBRANCH   2   3
ENDBRANCH   1   2
BRANCH   1  13
ATOM     13  C   UNL     1       0.935  -0.494  -0.335  0.00  0.00    +0.090 C 
BRANCH  13  14
ATOM     14  C   UNL     1       2.116  -0.814   0.534  0.00  0.00    +0.091 C 
BRANCH  14  15
ATOM     15  N   UNL     1       3.375  -0.414  -0.005  0.00  0.00    -0.252 NA
BRANCH  15  16
ATOM     16  C   UNL     1       3.393  -0.195  -1.418  0.00  0.00    +0.188 C 
BRANCH  16  17
ATOM     17  C   UNL     1       4.497   0.717  -1.815  0.00  0.00    +0.381 C 
ATOM     18  O   UNL     1       5.755   0.684  -1.245  0.00  0.00    -0.244 OA
ATOM     19  O   UNL     1       4.233   1.617  -2.665  0.00  0.00    -0.244 OA
ENDBRANCH  16  17
ENDBRANCH  15  16
BRANCH  15  20
ATOM     20  C   UNL     1       4.099   0.543   0.768  0.00  0.00    +0.188 C 
BRANCH  20  21
ATOM     21  C   UNL     1       3.282   1.735   1.153  0.00  0.00    +0.381 C 
ATOM     22  O   UNL     1       3.439   2.900   0.396  0.00  0.00    -0.244 OA
ATOM     23  O   UNL     1       3.137   1.908   2.401  0.00  0.00    -0.244 OA
ENDBRANCH  20  21
ENDBRANCH  15  20
ENDBRANCH  14  15
ENDBRANCH  13  14
ENDBRANCH   1  13
BRANCH   1  24
ATOM     24  C   UNL     1      -0.019  -2.152   1.037  0.00  0.00    +0.188 C 
BRANCH  24  26
ATOM     25  O   UNL     1      -0.415  -3.378  -0.999  0.00  0.00    -0.244 OA
ATOM     26  C   UNL     1       0.311  -3.195   0.025  0.00  0.00    +0.381 C 
ATOM     27  O   UNL     1       1.395  -4.050   0.233  0.00  0.00    -0.244 OA
ENDBRANCH  24  26
ENDBRANCH   1  24
TORSDOF 16
