REMARK  Name = 
REMARK  3 active torsions:
REMARK  status: ('A' for Active; 'I' for Inactive)
REMARK    1  A    between atoms: C_3  and  C_4
REMARK    2  A    between atoms: N_6  and  C_7
REMARK    3  A    between atoms: N_6  and  C_9
REMARK                            x       y       z     vdW  Elec       q    Type
REMARK                         _______ _______ _______ _____ _____    ______ ____
ROOT
ATOM      1  C   UNL     1       1.536   0.040  -0.209  0.00  0.00    +0.253 C 
ATOM      2  N   UNL     1       0.319   0.793  -0.123  0.00  0.00    -0.255 N 
ATOM      3  O   UNL     1       2.229   0.156  -1.263  0.00  0.00    -0.270 OA
ENDROOT
BRANCH   2   4
ATOM      4  C   UNL     1      -0.877   0.079   0.142  0.00  0.00    +0.050 A 
ATOM      5  C   UNL     1      -1.294  -0.862  -0.792  0.00  0.00    -0.008 A 
ATOM      6  C   UNL     1      -0.259  -1.670  -1.510  0.00  0.00    +0.032 C 
ATOM      7  C   UNL     1      -2.650  -1.121  -0.947  0.00  0.00    -0.003 A 
ATOM      8  C   UNL     1      -3.542  -0.677   0.022  0.00  0.00    -0.000 A 
ATOM      9  C   UNL     1      -3.006  -0.228   1.224  0.00  0.00    +0.001 A 
ATOM     10  C   UNL     1      -1.763   0.390   1.144  0.00  0.00    +0.015 A 
ENDBRANCH   2   4
BRANCH   1  13
ATOM     11  C   UNL     1       4.009  -1.181  -0.196  0.00  0.00    +0.031 C 
ATOM     12  C   UNL     1       3.348  -0.840   1.098  0.00  0.00    -0.021 C 
ATOM     13  C   UNL     1       2.298  -0.022   1.045  0.00  0.00    +0.054 C 
ENDBRANCH   1  13
BRANCH   2  14
ATOM     14  C   UNL     1       0.469   2.217   0.034  0.00  0.00    +0.099 C 
ATOM     15  C   UNL     1      -0.818   2.927   0.330  0.00  0.00    +0.024 C 
ENDBRANCH   2  14
TORSDOF 3
