REMARK  Name = 
REMARK  7 active torsions:
REMARK  status: ('A' for Active; 'I' for Inactive)
REMARK    1  A    between atoms: C_8  and  O_9
REMARK    2  A    between atoms: O_9  and  C_10
REMARK    3  A    between atoms: C_10  and  C_11
REMARK    4  A    between atoms: C_11  and  C_12
REMARK    5  A    between atoms: C_12  and  C_13
REMARK    6  A    between atoms: C_13  and  N_14
REMARK    7  A    between atoms: N_17  and  C_18
REMARK                            x       y       z     vdW  Elec       q    Type
REMARK                         _______ _______ _______ _____ _____    ______ ____
ROOT
ATOM      1  C   UNL     1       1.354   0.909   1.481  0.00  0.00    +0.072 C 
ENDROOT
BRANCH   1   2
ATOM      2  N   UNL     1       1.989  -0.385   1.236  0.00  0.00    -0.270 NA
ATOM      3  C   UNL     1       2.000  -0.564  -0.188  0.00  0.00    +0.094 C 
ATOM      4  C   UNL     1       3.025  -1.533  -0.687  0.00  0.00    +0.108 C 
ATOM      5  N   UNL     1       4.292  -1.441   0.004  0.00  0.00    -0.305 N 
ATOM      6  C   UNL     1       4.202  -1.443   1.463  0.00  0.00    +0.108 C 
ATOM      7  C   UNL     1       3.296  -0.305   1.833  0.00  0.00    +0.094 C 
BRANCH   5   8
ATOM      8  C   UNL     1       5.423  -0.747  -0.533  0.00  0.00    +0.048 A 
ATOM      9  C   UNL     1       5.302   0.482  -1.174  0.00  0.00    +0.020 A 
ATOM     10  C   UNL     1       6.440   1.272  -1.298  0.00  0.00    +0.031 A 
ATOM     11  S   UNL     1       5.742   2.770  -1.766  0.00  0.00    -0.086 S 
ATOM     12  C   UNL     1       4.129   2.244  -2.033  0.00  0.00    +0.035 A 
ATOM     13  C   UNL     1       7.661   0.849  -0.784  0.00  0.00    +0.007 A 
ATOM     14  C   UNL     1       7.817  -0.431  -0.266  0.00  0.00    +0.002 A 
ATOM     15  C   UNL     1       4.325   0.867  -2.048  0.00  0.00    +0.009 A 
ATOM     16  C   UNL     1       6.657  -1.157  -0.106  0.00  0.00    +0.015 A 
ENDBRANCH   5   8
ENDBRANCH   1   2
BRANCH   1  17
ATOM     17  C   UNL     1       0.068   1.070   0.724  0.00  0.00    +0.021 C 
BRANCH  17  18
ATOM     18  C   UNL     1      -0.697  -0.223   0.780  0.00  0.00    +0.049 C 
BRANCH  18  19
ATOM     19  C   UNL     1      -1.348  -0.457  -0.575  0.00  0.00    +0.205 C 
BRANCH  19  20
ATOM     20  O   UNL     1      -2.528   0.333  -0.619  0.00  0.00    -0.475 OA
BRANCH  20  28
ATOM     21  O   UNL     1      -8.900  -2.106  -0.555  0.00  0.00    -0.265 OA
ATOM     22  C   UNL     1      -8.017  -1.252  -0.272  0.00  0.00    +0.279 A 
ATOM     23  N   UNL     1      -6.742  -1.686  -0.121  0.00  0.00    -0.208 NA
ATOM     24  C   UNL     1      -5.838  -0.773   0.296  0.00  0.00    +0.088 A 
ATOM     25  C   UNL     1      -6.263   0.290   1.067  0.00  0.00    +0.018 A 
ATOM     26  C   UNL     1      -5.299   1.127   1.607  0.00  0.00    +0.005 A 
ATOM     27  C   UNL     1      -3.989   1.142   1.146  0.00  0.00    +0.037 A 
ATOM     28  C   UNL     1      -3.591   0.150   0.260  0.00  0.00    +0.140 A 
ATOM     29  C   UNL     1      -7.566   0.744   0.969  0.00  0.00    +0.006 A 
ATOM     30  C   UNL     1      -4.506  -0.839  -0.072  0.00  0.00    +0.056 A 
ATOM     31  C   UNL     1      -8.439  -0.039   0.232  0.00  0.00    +0.063 A 
ENDBRANCH  20  28
ENDBRANCH  19  20
ENDBRANCH  18  19
ENDBRANCH  17  18
ENDBRANCH   1  17
TORSDOF 7
