REMARK  Name = 
REMARK  2 active torsions:
REMARK  status: ('A' for Active; 'I' for Inactive)
REMARK    1  A    between atoms: C_2  and  C_4
REMARK    2  A    between atoms: C_4  and  C_6
REMARK                            x       y       z     vdW  Elec       q    Type
REMARK                         _______ _______ _______ _____ _____    ______ ____
ROOT
ATOM      1  C   UNL     1       1.033  -0.206  -0.930  0.00  0.00    +0.147 C 
ATOM      2  N   UNL     1       0.541  -0.376   0.553  0.00  0.00    -0.228 NA
ATOM      3  C   UNL     1      -0.888  -0.497   0.669  0.00  0.00    +0.157 A 
ATOM      4  C   UNL     1      -1.478  -1.009  -0.481  0.00  0.00    +0.170 A 
ATOM      5  N   UNL     1      -2.719  -0.573  -0.775  0.00  0.00    -0.193 NA
ATOM      6  C   UNL     1      -3.186   0.629  -0.347  0.00  0.00    +0.260 A 
ATOM      7  N   UNL     1      -2.882   0.842   0.958  0.00  0.00    -0.171 NA
ATOM      8  N   UNL     1      -3.752   1.616  -1.199  0.00  0.00    -0.086 NA
ATOM      9  N   UNL     1      -0.651  -1.832  -1.277  0.00  0.00    -0.217 NA
ATOM     10  C   UNL     1      -1.673   0.386   1.384  0.00  0.00    +0.299 A 
ATOM     11  O   UNL     1      -1.113   0.869   2.416  0.00  0.00    -0.264 OA
ATOM     12  C   UNL     1       0.813  -1.796  -1.235  0.00  0.00    +0.138 C 
ENDROOT
BRANCH   1  13
ATOM     13  C   UNL     1       2.690  -0.438  -0.591  0.00  0.00    +0.203 C 
ATOM     14  O   UNL     1       3.039   0.552  -1.661  0.00  0.00    -0.219 OA
BRANCH  13  16
ATOM     15  C   UNL     1       4.188   1.353   0.259  0.00  0.00    +0.038 C 
ATOM     16  C   UNL     1       2.711   0.744   0.657  0.00  0.00    +0.184 C 
ATOM     17  O   UNL     1       3.329  -0.265   1.601  0.00  0.00    -0.220 OA
ENDBRANCH  13  16
ENDBRANCH   1  13
TORSDOF 2
