REMARK  Name = 
REMARK  8 active torsions:
REMARK  status: ('A' for Active; 'I' for Inactive)
REMARK    1  A    between atoms: C_2  and  C_4
REMARK    2  A    between atoms: C_4  and  N_5
REMARK    3  A    between atoms: N_8  and  C_9
REMARK    4  A    between atoms: C_9  and  C_10
REMARK    5  A    between atoms: N_15  and  C_16
REMARK    6  A    between atoms: C_16  and  C_17
REMARK    7  A    between atoms: N_22  and  C_23
REMARK    8  A    between atoms: C_23  and  C_24
REMARK                            x       y       z     vdW  Elec       q    Type
REMARK                         _______ _______ _______ _____ _____    ______ ____
ROOT
ATOM      1  N   UNL     1      -2.570   0.206  -0.170  0.00  0.00    -0.261 NA
ATOM      2  C   UNL     1      -1.793  -0.984  -0.389  0.00  0.00    +0.090 C 
ATOM      3  C   UNL     1      -0.993  -1.410   0.818  0.00  0.00    +0.090 C 
ATOM      4  N   UNL     1      -0.064  -2.418   0.373  0.00  0.00    -0.261 NA
ATOM      5  C   UNL     1       1.306  -2.118   0.665  0.00  0.00    +0.090 C 
ATOM      6  C   UNL     1       1.843  -1.242  -0.461  0.00  0.00    +0.090 C 
ATOM      7  N   UNL     1       2.097   0.107  -0.027  0.00  0.00    -0.261 NA
ATOM      8  C   UNL     1       1.639   1.101  -0.964  0.00  0.00    +0.090 C 
ATOM      9  C   UNL     1       0.733   2.064  -0.236  0.00  0.00    +0.090 C 
ATOM     10  N   UNL     1      -0.157   2.774  -1.147  0.00  0.00    -0.261 NA
ATOM     11  C   UNL     1      -1.488   2.171  -1.171  0.00  0.00    +0.090 C 
ATOM     12  C   UNL     1      -1.758   1.365   0.080  0.00  0.00    +0.090 C 
ENDROOT
BRANCH   1  13
ATOM     13  C   UNL     1      -3.471   0.366  -1.290  0.00  0.00    +0.188 C 
BRANCH  13  15
ATOM     14  O   UNL     1      -5.039  -0.503   0.334  0.00  0.00    -0.244 OA
ATOM     15  C   UNL     1      -4.810  -0.106  -0.847  0.00  0.00    +0.381 C 
ATOM     16  O   UNL     1      -5.921   0.043  -1.663  0.00  0.00    -0.244 OA
ENDBRANCH  13  15
ENDBRANCH   1  13
BRANCH   4  17
ATOM     17  C   UNL     1      -0.466  -3.759   0.678  0.00  0.00    +0.188 C 
BRANCH  17  18
ATOM     18  C   UNL     1       0.443  -4.452   1.626  0.00  0.00    +0.381 C 
ATOM     19  O   UNL     1      -0.179  -5.159   2.661  0.00  0.00    -0.244 OA
ATOM     20  O   UNL     1       1.429  -5.053   1.103  0.00  0.00    -0.244 OA
ENDBRANCH  17  18
ENDBRANCH   4  17
BRANCH  10  21
ATOM     21  C   UNL     1      -0.253   4.146  -0.667  0.00  0.00    +0.188 C 
BRANCH  21  22
ATOM     22  C   UNL     1       0.411   4.331   0.643  0.00  0.00    +0.381 C 
ATOM     23  O   UNL     1      -0.248   5.084   1.618  0.00  0.00    -0.244 OA
ATOM     24  O   UNL     1       1.672   4.243   0.741  0.00  0.00    -0.244 OA
ENDBRANCH  21  22
ENDBRANCH  10  21
BRANCH   7  25
ATOM     25  C   UNL     1       3.461   0.321   0.383  0.00  0.00    +0.188 C 
BRANCH  25  26
ATOM     26  C   UNL     1       4.454  -0.239  -0.554  0.00  0.00    +0.381 C 
ATOM     27  O   UNL     1       4.211  -1.309  -1.400  0.00  0.00    -0.244 OA
ATOM     28  O   UNL     1       5.510   0.430  -0.737  0.00  0.00    -0.244 OA
ENDBRANCH  25  26
ENDBRANCH   7  25
TORSDOF 8
