REMARK  Name = 
REMARK  2 active torsions:
REMARK  status: ('A' for Active; 'I' for Inactive)
REMARK    1  A    between atoms: C_2  and  C_3
REMARK    2  A    between atoms: C_3  and  C_5
REMARK                            x       y       z     vdW  Elec       q    Type
REMARK                         _______ _______ _______ _____ _____    ______ ____
ROOT
ATOM      1  C   UNL     1       0.678  -0.374  -0.419  0.00  0.00    +0.013 A 
ATOM      2  C   UNL     1      -0.044   0.775  -0.170  0.00  0.00    +0.044 A 
ATOM      3  C   UNL     1      -1.398   0.813  -0.426  0.00  0.00    +0.234 A 
ATOM      4  O   UNL     1      -2.082   2.010  -0.581  0.00  0.00    -0.283 OA
ATOM      5  C   UNL     1      -2.145  -0.329  -0.169  0.00  0.00    +0.234 A 
ATOM      6  O   UNL     1      -3.403  -0.252   0.395  0.00  0.00    -0.283 OA
ATOM      7  C   UNL     1      -1.469  -1.526  -0.359  0.00  0.00    +0.045 A 
ATOM      8  C   UNL     1      -0.086  -1.539  -0.428  0.00  0.00    +0.002 A 
ENDROOT
BRANCH   1   9
ATOM      9  C   UNL     1       1.895  -0.590   0.689  0.00  0.00    +0.193 C 
ATOM     10  O   UNL     1       2.826  -1.190  -0.400  0.00  0.00    -0.217 OA
BRANCH   9  12
ATOM     11  N   UNL     1       2.715   1.244   1.455  0.00  0.00    -0.128 NA
ATOM     12  C   UNL     1       2.512   0.958   0.412  0.00  0.00    +0.147 C 
ENDBRANCH   9  12
ENDBRANCH   1   9
TORSDOF 2
