REMARK  Name = 
REMARK  1 active torsions:
REMARK  status: ('A' for Active; 'I' for Inactive)
REMARK    1  A    between atoms: C_8  and  C_9
REMARK                            x       y       z     vdW  Elec       q    Type
REMARK                         _______ _______ _______ _____ _____    ______ ____
ROOT
ATOM      1  N   UNL     1       5.282   0.338  -0.810  0.00  0.00    -0.086 NA
ATOM      2  C   UNL     1       3.918   0.026  -0.501  0.00  0.00    +0.259 A 
ATOM      3  N   UNL     1       3.035   0.980  -0.127  0.00  0.00    -0.190 NA
ATOM      4  C   UNL     1       1.745   0.609   0.044  0.00  0.00    +0.187 A 
ATOM      5  C   UNL     1       1.318  -0.594  -0.503  0.00  0.00    +0.152 A 
ATOM      6  N   UNL     1      -0.006  -0.838  -0.650  0.00  0.00    -0.236 NA
ATOM      7  C   UNL     1      -0.844   0.102  -0.150  0.00  0.00    +0.116 A 
ATOM      8  C   UNL     1      -0.376   0.943   0.853  0.00  0.00    +0.189 A 
ATOM      9  N   UNL     1      -1.302   1.374   1.859  0.00  0.00    -0.106 NA
ATOM     10  C   UNL     1       2.222  -1.602  -0.810  0.00  0.00    +0.193 A 
ATOM     11  N   UNL     1       1.823  -2.974  -0.895  0.00  0.00    -0.105 NA
ATOM     12  N   UNL     1       0.933   1.277   0.899  0.00  0.00    -0.205 NA
ATOM     13  N   UNL     1       3.526  -1.232  -0.807  0.00  0.00    -0.191 NA
ENDROOT
BRANCH   7  14
ATOM     14  C   UNL     1      -2.259   0.115  -0.538  0.00  0.00    +0.021 A 
ATOM     15  C   UNL     1      -2.631  -0.339  -1.796  0.00  0.00    +0.002 A 
ATOM     16  C   UNL     1      -3.997  -0.430  -2.022  0.00  0.00    +0.000 A 
ATOM     17  C   UNL     1      -4.896   0.108  -1.110  0.00  0.00    +0.000 A 
ATOM     18  C   UNL     1      -4.410   1.086  -0.276  0.00  0.00    +0.000 A 
ATOM     19  C   UNL     1      -3.079   1.050   0.041  0.00  0.00    +0.002 A 
ENDBRANCH   7  14
TORSDOF 1
