REMARK  Name = 
REMARK  4 active torsions:
REMARK  status: ('A' for Active; 'I' for Inactive)
REMARK    1  A    between atoms: O_2  and  C_3
REMARK    2  A    between atoms: C_3  and  C_5
REMARK    3  A    between atoms: C_5  and  C_6
REMARK    4  A    between atoms: C_5  and  C_12
REMARK                            x       y       z     vdW  Elec       q    Type
REMARK                         _______ _______ _______ _____ _____    ______ ____
ROOT
ATOM      1  C   UNL     1      -0.010   0.277   0.649  0.00  0.00    +0.137 C 
ENDROOT
BRANCH   1   2
ATOM      2  C   UNL     1       1.215  -0.480  -0.317  0.00  0.00    +0.087 C 
ATOM      3  N   UNL     1       1.580  -1.503   0.829  0.00  0.00    -0.219 NA
ATOM      4  C   UNL     1       2.566  -2.315   0.113  0.00  0.00    +0.089 C 
ATOM      5  C   UNL     1       3.622  -1.447  -0.536  0.00  0.00    +0.019 C 
ATOM      6  C   UNL     1       3.679  -0.063   0.016  0.00  0.00    +0.003 C 
ATOM      7  C   UNL     1       2.346   0.592   0.212  0.00  0.00    +0.018 C 
ENDBRANCH   1   2
BRANCH   1   8
ATOM      8  C   UNL     1      -1.205  -0.404  -0.203  0.00  0.00    -0.011 A 
ATOM      9  C   UNL     1      -1.607  -1.560   0.464  0.00  0.00    -0.004 A 
ATOM     10  C   UNL     1      -2.947  -1.895   0.620  0.00  0.00    -0.000 A 
ATOM     11  C   UNL     1      -3.837  -1.289  -0.259  0.00  0.00    -0.000 A 
ATOM     12  C   UNL     1      -3.423  -0.168  -0.970  0.00  0.00    -0.000 A 
ATOM     13  C   UNL     1      -2.268   0.443  -0.499  0.00  0.00    -0.004 A 
ENDBRANCH   1   8
BRANCH   1  14
ATOM     14  C   UNL     1       0.038   1.615  -0.249  0.00  0.00    +0.322 C 
ATOM     15  O   UNL     1      -0.036   1.492  -1.468  0.00  0.00    -0.250 OA
BRANCH  14  17
ATOM     16  C   UNL     1       0.168   3.914  -0.212  0.00  0.00    +0.256 C 
ATOM     17  O   UNL     1       0.118   2.792   0.466  0.00  0.00    -0.444 OA
ENDBRANCH  14  17
ENDBRANCH   1  14
TORSDOF 4
