REMARK  Name = 
REMARK  0 active torsions:
REMARK  status: ('A' for Active; 'I' for Inactive)
REMARK                            x       y       z     vdW  Elec       q    Type
REMARK                         _______ _______ _______ _____ _____    ______ ____
ROOT
ATOM      1  C   UNL     1      -2.416  -1.661   0.000  0.00  0.00    +0.003 C 
ATOM      2  C   UNL     1      -1.788  -0.299   0.000  0.00  0.00    +0.034 C 
ATOM      3  C   UNL     1      -3.239   0.083   0.000  0.00  0.00    +0.136 C 
ATOM      4  O   UNL     1      -4.689   0.464   0.000  0.00  0.00    -0.456 OA
ATOM      5  C   UNL     1      -5.501  -0.797   0.000  0.00  0.00    +0.317 C 
ATOM      6  O   UNL     1      -6.998  -0.883   0.000  0.00  0.00    -0.250 OA
ATOM      7  C   UNL     1      -4.551  -1.959   0.000  0.00  0.00    +0.113 C 
ATOM      8  C   UNL     1      -3.154  -1.415   0.000  0.00  0.00    +0.052 C 
ATOM      9  C   UNL     1      -3.324   1.580   0.000  0.00  0.00    +0.037 C 
ATOM     10  C   UNL     1      -1.926   2.124   0.000  0.00  0.00    +0.004 C 
ATOM     11  C   UNL     1      -3.096   3.063   0.000  0.00  0.00    +0.004 C 
ATOM     12  C   UNL     1      -0.977   0.963   0.000  0.00  0.00    +0.003 C 
ATOM     13  C   UNL     1       0.521   0.891   0.000  0.00  0.00    +0.001 C 
ATOM     14  C   UNL     1       1.333   2.153   0.000  0.00  0.00    +0.004 C 
ATOM     15  C   UNL     1       2.831   2.081   0.000  0.00  0.00    +0.018 C 
ATOM     16  C   UNL     1       3.518   0.747   0.000  0.00  0.00    -0.042 C 
ATOM     17  C   UNL     1       2.707  -0.514   0.000  0.00  0.00    +0.016 C 
ATOM     18  C   UNL     1       1.895  -1.776   0.000  0.00  0.00    +0.004 C 
ATOM     19  C   UNL     1       3.394  -1.848   0.000  0.00  0.00    +0.012 C 
ATOM     20  C   UNL     1       4.892  -1.919   0.000  0.00  0.00    +0.069 C 
ATOM     21  C   UNL     1       5.703  -0.658   0.000  0.00  0.00    +0.173 C 
ATOM     22  O   UNL     1       7.202  -0.730   0.000  0.00  0.00    -0.291 OA
ATOM     23  C   UNL     1       5.016   0.676   0.000  0.00  0.00    +0.029 C 
ATOM     24  C   UNL     1       2.144   3.414   0.000  0.00  0.00    +0.004 C 
ATOM     25  C   UNL     1       1.208  -0.443   0.000  0.00  0.00    +0.003 C 
ATOM     26  C   UNL     1       0.397  -1.704   0.000  0.00  0.00    +0.000 C 
ATOM     27  C   UNL     1      -1.101  -1.633   0.000  0.00  0.00    +0.003 C 
ENDROOT
TORSDOF 0
