REMARK  Name = 
REMARK  8 active torsions:
REMARK  status: ('A' for Active; 'I' for Inactive)
REMARK    1  A    between atoms: C_2  and  C_3
REMARK    2  A    between atoms: C_3  and  C_5
REMARK    3  A    between atoms: C_20  and  O_21
REMARK    4  A    between atoms: O_21  and  C_22
REMARK    5  A    between atoms: C_24  and  O_25
REMARK    6  A    between atoms: C_27  and  O_28
REMARK    7  A    between atoms: O_28  and  C_29
REMARK    8  A    between atoms: C_31  and  O_32
REMARK                            x       y       z     vdW  Elec       q    Type
REMARK                         _______ _______ _______ _____ _____    ______ ____
ROOT
ATOM      1  C   UNL     1      -4.472   4.161   0.436  0.00  0.00    +0.117 C 
ATOM      2  C   UNL     1      -3.771   5.083  -0.811  0.00  0.00    +0.027 C 
ATOM      3  C   UNL     1      -2.799   5.825   0.254  0.00  0.00    +0.002 C 
ATOM      4  C   UNL     1      -2.629   4.029  -1.261  0.00  0.00    +0.007 C 
ATOM      5  C   UNL     1      -3.346   2.820  -1.876  0.00  0.00    +0.056 C 
ATOM      6  C   UNL     1      -4.025   2.218  -0.654  0.00  0.00    +0.190 C 
ATOM      7  O   UNL     1      -3.268   2.418   0.303  0.00  0.00    -0.336 OA
ATOM      8  C   UNL     1      -2.427   1.467   1.063  0.00  0.00    +0.126 C 
ATOM      9  C   UNL     1      -1.706   0.788  -0.274  0.00  0.00    +0.055 C 
ATOM     10  C   UNL     1      -0.301   0.704  -0.011  0.00  0.00    -0.030 C 
ATOM     11  C   UNL     1       0.511   0.331   0.936  0.00  0.00    -0.021 C 
ATOM     12  C   UNL     1       1.617  -0.693   0.330  0.00  0.00    +0.140 C 
ATOM     13  C   UNL     1       1.004  -2.171   0.953  0.00  0.00    +0.053 C 
ATOM     14  C   UNL     1       0.193  -2.448  -0.387  0.00  0.00    -0.024 C 
ATOM     15  C   UNL     1      -0.382  -3.625  -0.138  0.00  0.00    -0.005 C 
ATOM     16  C   UNL     1      -1.779  -3.623  -0.138  0.00  0.00    -0.004 C 
ATOM     17  C   UNL     1      -2.683  -2.731  -0.478  0.00  0.00    +0.016 C 
ATOM     18  C   UNL     1      -3.998  -3.238   0.067  0.00  0.00    +0.185 C 
ATOM     19  C   UNL     1      -3.999  -4.368  -1.078  0.00  0.00    +0.182 C 
ATOM     20  C   UNL     1      -5.682  -4.492  -1.460  0.00  0.00    +0.200 C 
ATOM     21  C   UNL     1      -6.127  -4.345   0.081  0.00  0.00    -0.015 C 
ATOM     22  C   UNL     1      -6.345  -3.124   0.372  0.00  0.00    -0.019 C 
ATOM     23  C   UNL     1      -6.477  -5.579   0.794  0.00  0.00    +0.029 C 
ATOM     24  O   UNL     1      -5.884  -3.049  -1.874  0.00  0.00    -0.216 OA
ATOM     25  O   UNL     1      -3.735  -3.469  -2.264  0.00  0.00    -0.346 OA
ATOM     26  O   UNL     1      -3.950  -3.771   1.275  0.00  0.00    -0.218 OA
ATOM     27  C   UNL     1      -5.136  -2.142  -0.108  0.00  0.00    +0.154 C 
ATOM     28  C   UNL     1      -5.020  -1.593   1.401  0.00  0.00    +0.323 C 
ATOM     29  O   UNL     1      -5.689  -0.481   0.938  0.00  0.00    -0.452 OA
ATOM     30  C   UNL     1      -4.934   0.829   0.830  0.00  0.00    +0.176 C 
ATOM     31  O   UNL     1      -5.578  -2.192   2.360  0.00  0.00    -0.250 OA
ATOM     32  C   UNL     1      -3.285  -2.340  -1.810  0.00  0.00    +0.167 C 
ATOM     33  C   UNL     1      -0.292  -1.624   1.743  0.00  0.00    +0.008 C 
ATOM     34  C   UNL     1       1.173   1.449   1.728  0.00  0.00    +0.028 C 
ATOM     35  C   UNL     1      -3.468   0.218   1.183  0.00  0.00    +0.074 C 
ATOM     36  C   UNL     1      -4.618   0.857  -0.801  0.00  0.00    +0.100 C 
ATOM     37  O   UNL     1      -5.082   3.152  -0.497  0.00  0.00    -0.337 OA
ENDROOT
BRANCH   1  38
ATOM     38  C   UNL     1      -5.802   5.215   0.516  0.00  0.00    +0.027 C 
ATOM     39  C   UNL     1      -6.839   4.058   0.964  0.00  0.00    +0.002 C 
BRANCH  38  41
ATOM     40  C   UNL     1      -6.048   6.072  -1.407  0.00  0.00    +0.000 C 
ATOM     41  C   UNL     1      -6.230   5.136  -1.047  0.00  0.00    +0.002 C 
ENDBRANCH  38  41
ENDBRANCH   1  38
BRANCH  12  42
ATOM     42  O   UNL     1       2.479  -0.666   1.558  0.00  0.00    -0.328 OA
BRANCH  42  43
ATOM     43  C   UNL     1       3.867  -0.329   1.077  0.00  0.00    +0.238 C 
ATOM     44  O   UNL     1       3.575  -0.342  -0.426  0.00  0.00    -0.330 OA
ATOM     45  C   UNL     1       4.905   0.137  -0.963  0.00  0.00    +0.147 C 
ATOM     46  C   UNL     1       4.478   1.692  -0.655  0.00  0.00    +0.035 C 
ATOM     47  C   UNL     1       5.746  -0.058   0.526  0.00  0.00    +0.172 C 
ATOM     48  C   UNL     1       5.769  -1.760   0.264  0.00  0.00    +0.150 C 
ATOM     49  C   UNL     1       4.304  -1.938   0.983  0.00  0.00    +0.093 C 
BRANCH  48  50
ATOM     50  O   UNL     1       6.468  -2.016   1.574  0.00  0.00    -0.351 OA
ATOM     51  C   UNL     1       5.990  -3.277   1.971  0.00  0.00    +0.174 C 
ENDBRANCH  48  50
BRANCH  47  52
ATOM     52  O   UNL     1       7.129   0.119   0.068  0.00  0.00    -0.328 OA
BRANCH  52  53
ATOM     53  C   UNL     1       7.149   0.100  -1.441  0.00  0.00    +0.238 C 
ATOM     54  O   UNL     1       8.614  -0.333  -1.538  0.00  0.00    -0.330 OA
ATOM     55  C   UNL     1       9.131  -0.127  -0.143  0.00  0.00    +0.150 C 
ATOM     56  C   UNL     1      10.591  -0.739  -0.548  0.00  0.00    +0.035 C 
ATOM     57  C   UNL     1       9.655   1.470  -0.456  0.00  0.00    +0.206 C 
ATOM     58  O   UNL     1      10.011   1.660   0.984  0.00  0.00    -0.218 OA
ATOM     59  C   UNL     1       8.102   2.117  -0.165  0.00  0.00    +0.153 C 
ATOM     60  C   UNL     1       7.572   1.699  -1.650  0.00  0.00    +0.094 C 
BRANCH  59  61
ATOM     61  O   UNL     1       8.488   3.490  -0.637  0.00  0.00    -0.351 OA
ATOM     62  C   UNL     1       9.285   3.374  -1.737  0.00  0.00    +0.174 C 
ENDBRANCH  59  61
ENDBRANCH  52  53
ENDBRANCH  47  52
ENDBRANCH  42  43
ENDBRANCH  12  42
TORSDOF 8
