REMARK  Name = 
REMARK  5 active torsions:
REMARK  status: ('A' for Active; 'I' for Inactive)
REMARK    1  A    between atoms: C_2  and  C_3
REMARK    2  A    between atoms: C_10  and  C_11
REMARK    3  A    between atoms: C_11  and  C_13
REMARK    4  A    between atoms: C_13  and  C_14
REMARK    5  A    between atoms: C_14  and  C_15
REMARK                            x       y       z     vdW  Elec       q    Type
REMARK                         _______ _______ _______ _____ _____    ______ ____
ROOT
ATOM      1  C   UNL     1      -2.510   0.172  -2.278  0.00  0.00    +0.031 C 
ATOM      2  C   UNL     1      -3.349  -0.967  -1.342  0.00  0.00    +0.005 C 
ATOM      3  C   UNL     1      -2.897  -0.667   0.154  0.00  0.00    +0.000 C 
ATOM      4  C   UNL     1      -3.908  -0.181   1.022  0.00  0.00    +0.003 C 
ATOM      5  C   UNL     1      -5.294  -0.546   0.970  0.00  0.00    +0.033 C 
ATOM      6  C   UNL     1      -5.724  -0.956  -0.572  0.00  0.00    +0.152 C 
ATOM      7  O   UNL     1      -6.815   0.111  -0.596  0.00  0.00    -0.223 OA
ATOM      8  C   UNL     1      -2.429  -2.050   0.594  0.00  0.00    +0.000 C 
ATOM      9  C   UNL     1      -1.633   0.310   0.183  0.00  0.00    +0.002 C 
ATOM     10  C   UNL     1      -0.655  -0.794  -0.576  0.00  0.00    +0.030 C 
ATOM     11  C   UNL     1       0.621   0.314  -0.441  0.00  0.00    +0.002 C 
ATOM     12  C   UNL     1       1.092  -0.218   1.011  0.00  0.00    +0.000 C 
ATOM     13  C   UNL     1       0.174   0.397   1.944  0.00  0.00    +0.000 C 
ATOM     14  C   UNL     1       1.364  -1.629   0.979  0.00  0.00    +0.000 C 
ATOM     15  C   UNL     1       2.440   0.654   0.830  0.00  0.00    +0.000 C 
ATOM     16  C   UNL     1       2.966  -0.279  -0.388  0.00  0.00    +0.000 C 
ATOM     17  C   UNL     1       1.728  -0.644  -1.138  0.00  0.00    +0.000 C 
ATOM     18  C   UNL     1      -1.183  -0.192   1.671  0.00  0.00    +0.000 C 
ATOM     19  C   UNL     1      -4.626   0.072  -1.264  0.00  0.00    +0.033 C 
ATOM     20  C   UNL     1      -0.960  -0.532  -2.205  0.00  0.00    +0.152 C 
ATOM     21  O   UNL     1      -0.322   0.845  -2.339  0.00  0.00    -0.223 OA
ENDROOT
BRANCH   1  23
ATOM     22  C   UNL     1      -2.265   2.216  -1.909  0.00  0.00    +0.000 C 
ATOM     23  C   UNL     1      -2.388   1.423  -1.289  0.00  0.00    +0.003 C 
ENDBRANCH   1  23
BRANCH  15  24
ATOM     24  C   UNL     1       3.288  -0.279   1.970  0.00  0.00    +0.001 C 
ATOM     25  C   UNL     1       2.956   0.743   3.186  0.00  0.00    +0.000 C 
BRANCH  24  26
ATOM     26  C   UNL     1       4.692   0.458   1.621  0.00  0.00    +0.012 C 
BRANCH  26  27
ATOM     27  C   UNL     1       5.472  -0.684   0.975  0.00  0.00    +0.114 C 
BRANCH  27  28
ATOM     28  C   UNL     1       6.470  -0.159   0.015  0.00  0.00    +0.365 C 
ATOM     29  O   UNL     1       7.106   1.035   0.351  0.00  0.00    -0.246 OA
ATOM     30  O   UNL     1       6.589  -0.651  -1.136  0.00  0.00    -0.246 OA
ENDBRANCH  27  28
ENDBRANCH  26  27
ENDBRANCH  24  26
ENDBRANCH  15  24
TORSDOF 5
