REMARK  Name = 
REMARK  4 active torsions:
REMARK  status: ('A' for Active; 'I' for Inactive)
REMARK    1  A    between atoms: S_2  and  C_5
REMARK    2  A    between atoms: C_8  and  C_9
REMARK    3  A    between atoms: N_11  and  C_12
REMARK    4  A    between atoms: C_17  and  C_18
REMARK                            x       y       z     vdW  Elec       q    Type
REMARK                         _______ _______ _______ _____ _____    ______ ____
ROOT
ATOM      1  C   UNL     1       0.836   0.582  -0.639  0.00  0.00    +0.270 C 
ATOM      2  N   UNL     1       0.025  -0.142  -1.569  0.00  0.00    -0.175 NA
ATOM      3  O   UNL     1       0.284   1.207   0.314  0.00  0.00    -0.268 OA
ENDROOT
BRANCH   1   8
ATOM      4  C   UNL     1       4.839  -0.329   0.043  0.00  0.00    +0.107 A 
ATOM      5  C   UNL     1       4.488   0.577  -0.930  0.00  0.00    +0.030 A 
ATOM      6  C   UNL     1       3.164   0.818  -1.272  0.00  0.00    +0.063 A 
ATOM      7 CL   UNL     1       2.745   1.692  -2.730  0.00  0.00    -0.082 Cl
ATOM      8  C   UNL     1       2.220   0.137  -0.513  0.00  0.00    +0.066 A 
ATOM      9  C   UNL     1       2.548  -1.071   0.087  0.00  0.00    +0.007 A 
ATOM     10  C   UNL     1       3.891  -1.302   0.337  0.00  0.00    +0.019 A 
BRANCH   4  12
ATOM     11  C   UNL     1       6.220  -1.163   2.429  0.00  0.00    +0.182 C 
ATOM     12  S   UNL     1       6.373  -0.257   0.899  0.00  0.00    +0.010 S 
ATOM     13  O   UNL     1       7.385  -0.969   0.068  0.00  0.00    -0.169 OA
ATOM     14  O   UNL     1       6.758   1.141   1.244  0.00  0.00    -0.169 OA
ENDBRANCH   4  12
ENDBRANCH   1   8
BRANCH   2  15
ATOM     15  C   UNL     1      -1.400  -0.090  -1.453  0.00  0.00    +0.074 A 
ATOM     16  C   UNL     1      -1.995   0.126  -0.234  0.00  0.00    +0.019 A 
ATOM     17  C   UNL     1      -3.317   0.524  -0.201  0.00  0.00    +0.030 A 
ATOM     18  C   UNL     1      -3.936   0.876  -1.393  0.00  0.00    +0.059 A 
ATOM     19 CL   UNL     1      -5.447   1.738  -1.329  0.00  0.00    -0.082 Cl
ATOM     20  C   UNL     1      -3.447   0.360  -2.566  0.00  0.00    +0.013 A 
ATOM     21  C   UNL     1      -2.174  -0.190  -2.588  0.00  0.00    +0.017 A 
BRANCH  17  22
ATOM     22  C   UNL     1      -4.071   0.420   1.047  0.00  0.00    +0.082 A 
ATOM     23  N   UNL     1      -4.955   1.372   1.388  0.00  0.00    -0.244 NA
ATOM     24  C   UNL     1      -5.998   1.120   2.214  0.00  0.00    +0.099 A 
ATOM     25  C   UNL     1      -6.083  -0.151   2.744  0.00  0.00    +0.021 A 
ATOM     26  C   UNL     1      -4.903  -0.877   2.848  0.00  0.00    +0.003 A 
ATOM     27  C   UNL     1      -4.050  -0.771   1.756  0.00  0.00    +0.019 A 
ENDBRANCH  17  22
ENDBRANCH   2  15
TORSDOF 4
