REMARK  Name = 
REMARK  2 active torsions:
REMARK  status: ('A' for Active; 'I' for Inactive)
REMARK    1  A    between atoms: N_2  and  C_5
REMARK    2  A    between atoms: C_5  and  C_6
REMARK                            x       y       z     vdW  Elec       q    Type
REMARK                         _______ _______ _______ _____ _____    ______ ____
ROOT
ATOM      1  C   UNL     1      -1.451  -0.996  -0.752  0.00  0.00    +0.171 C 
ATOM      2  N   UNL     1      -0.812  -0.008   0.098  0.00  0.00    +0.313 N 
ATOM      3  C   UNL     1      -1.759   0.354   1.124  0.00  0.00    +0.171 C 
ATOM      4  C   UNL     1      -0.572   1.165  -0.728  0.00  0.00    +0.171 C 
ENDROOT
BRANCH   2   5
ATOM      5  C   UNL     1       0.441  -0.446   0.646  0.00  0.00    +0.145 C 
BRANCH   5   6
ATOM      6  C   UNL     1       1.547  -0.462  -0.366  0.00  0.00    +0.243 C 
ATOM      7  O   UNL     1       2.606   0.393  -0.023  0.00  0.00    -0.214 OA
ENDBRANCH   5   6
ENDBRANCH   2   5
TORSDOF 2
