REMARK  Name = 
REMARK  4 active torsions:
REMARK  status: ('A' for Active; 'I' for Inactive)
REMARK    1  A    between atoms: C_2  and  N_3
REMARK    2  A    between atoms: C_2  and  C_8
REMARK    3  A    between atoms: N_3  and  C_4
REMARK    4  A    between atoms: C_8  and  C_10
REMARK                            x       y       z     vdW  Elec       q    Type
REMARK                         _______ _______ _______ _____ _____    ______ ____
ROOT
ATOM      1  C   UNL     1      -0.019  -1.140   0.136  0.00  0.00    +0.189 C 
ATOM      2  O   UNL     1       0.375  -2.293   0.265  0.00  0.00    -0.290 OA
ENDROOT
BRANCH   1   3
ATOM      3  C   UNL     1      -1.412  -0.725   0.033  0.00  0.00    +0.037 A 
ATOM      4  C   UNL     1      -1.945   0.212   0.908  0.00  0.00    +0.014 A 
ATOM      5  C   UNL     1      -3.191   0.747   0.667  0.00  0.00    +0.058 A 
ATOM      6 CL   UNL     1      -3.930   1.942   1.728  0.00  0.00    -0.082 Cl
ATOM      7  C   UNL     1      -3.567   0.841  -0.667  0.00  0.00    +0.011 A 
ATOM      8  C   UNL     1      -3.118  -0.106  -1.546  0.00  0.00    +0.001 A 
ATOM      9  C   UNL     1      -1.997  -0.824  -1.223  0.00  0.00    +0.003 A 
ENDBRANCH   1   3
BRANCH   1  11
ATOM     10  C   UNL     1       1.409  -0.694   1.977  0.00  0.00    +0.027 C 
ATOM     11  C   UNL     1       0.940   0.068   0.596  0.00  0.00    +0.134 C 
BRANCH  11  12
ATOM     12  N   UNL     1       2.168  -0.497  -0.214  0.00  0.00    -0.214 NA
BRANCH  12  13
ATOM     13  C   UNL     1       3.258   0.411   0.037  0.00  0.00    +0.060 C 
ATOM     14  C   UNL     1       2.926   1.462   1.062  0.00  0.00    +0.017 C 
ATOM     15  C   UNL     1       3.717   1.027  -1.275  0.00  0.00    +0.017 C 
ATOM     16  C   UNL     1       4.386  -0.431   0.622  0.00  0.00    +0.017 C 
ENDBRANCH  12  13
ENDBRANCH  11  12
ENDBRANCH   1  11
TORSDOF 4
