REMARK  Name = 
REMARK  5 active torsions:
REMARK  status: ('A' for Active; 'I' for Inactive)
REMARK    1  A    between atoms: C_2  and  C_3
REMARK    2  A    between atoms: C_5  and  C_7
REMARK    3  A    between atoms: C_11  and  O_12
REMARK    4  A    between atoms: O_12  and  C_13
REMARK    5  A    between atoms: C_15  and  C_16
REMARK                            x       y       z     vdW  Elec       q    Type
REMARK                         _______ _______ _______ _____ _____    ______ ____
ROOT
ATOM      1  O   UNL     1       0.331   0.279   1.270  0.00  0.00    -0.326 OA
ENDROOT
BRANCH   1   2
ATOM      2  C   UNL     1      -1.099  -0.232   1.069  0.00  0.00    +0.270 C 
ATOM      3  C   UNL     1      -1.773   1.325   1.334  0.00  0.00    +0.241 C 
ATOM      4  O   UNL     1      -1.621   1.169   2.812  0.00  0.00    -0.215 OA
ATOM      5  C   UNL     1      -3.369   0.751   1.385  0.00  0.00    +0.220 C 
ATOM      6  O   UNL     1      -3.941   1.632   0.318  0.00  0.00    -0.217 OA
ATOM      7  C   UNL     1      -3.205  -0.719   0.556  0.00  0.00    +0.214 C 
ATOM      8  O   UNL     1      -4.529  -0.583  -0.173  0.00  0.00    -0.218 OA
ATOM      9  C   UNL     1      -2.349  -0.471  -0.895  0.00  0.00    +0.183 C 
ATOM     10  O   UNL     1      -1.130   0.226  -0.376  0.00  0.00    -0.326 OA
BRANCH   9  11
ATOM     11  C   UNL     1      -3.018   0.905  -1.453  0.00  0.00    +0.214 C 
ATOM     12  O   UNL     1      -2.102   1.202  -2.447  0.00  0.00    -0.218 OA
ENDBRANCH   9  11
ENDBRANCH   1   2
BRANCH   1  14
ATOM     13  C   UNL     1       2.197  -1.169   0.818  0.00  0.00    +0.180 C 
ATOM     14  C   UNL     1       0.929  -0.335   0.041  0.00  0.00    +0.183 C 
ATOM     15  C   UNL     1       2.150   0.852  -0.165  0.00  0.00    +0.238 C 
ATOM     16  O   UNL     1       1.354   1.413  -1.325  0.00  0.00    -0.215 OA
ATOM     17  C   UNL     1       3.113  -0.188  -0.986  0.00  0.00    +0.281 C 
ATOM     18  O   UNL     1       2.983   0.075  -2.314  0.00  0.00    -0.190 OA
ATOM     19  O   UNL     1       2.611  -1.460  -0.607  0.00  0.00    -0.325 OA
BRANCH  13  21
ATOM     20  O   UNL     1       1.326  -2.537   2.169  0.00  0.00    -0.218 OA
ATOM     21  C   UNL     1       1.284  -2.516   1.010  0.00  0.00    +0.214 C 
ENDBRANCH  13  21
BRANCH  17  22
ATOM     22  C   UNL     1       4.454  -0.253  -0.414  0.00  0.00    +0.243 C 
ATOM     23  O   UNL     1       5.403   0.634  -0.371  0.00  0.00    -0.215 OA
ENDBRANCH  17  22
ENDBRANCH   1  14
TORSDOF 5
