REMARK  Name = 
REMARK  2 active torsions:
REMARK  status: ('A' for Active; 'I' for Inactive)
REMARK    1  A    between atoms: C_23  and  C_25
REMARK    2  A    between atoms: C_25  and  C_27
REMARK                            x       y       z     vdW  Elec       q    Type
REMARK                         _______ _______ _______ _____ _____    ______ ____
ROOT
ATOM      1  C   UNL     1       1.987   1.789   1.848  0.00  0.00    +0.003 C 
ATOM      2  C   UNL     1       2.879   1.633   0.489  0.00  0.00    +0.035 C 
ATOM      3  C   UNL     1       2.922   0.008   0.574  0.00  0.00    +0.180 C 
ATOM      4  O   UNL     1       3.259  -0.355   1.856  0.00  0.00    -0.218 OA
ATOM      5  C   UNL     1       1.677  -0.520   0.076  0.00  0.00    +0.035 C 
ATOM      6  C   UNL     1       0.750   0.768   0.356  0.00  0.00    +0.006 C 
ATOM      7  C   UNL     1      -0.317   0.210  -0.825  0.00  0.00    +0.034 C 
ATOM      8  C   UNL     1      -1.202  -0.537   0.274  0.00  0.00    +0.168 C 
ATOM      9  C   UNL     1      -0.468  -1.996   0.477  0.00  0.00    +0.182 C 
ATOM     10  O   UNL     1      -0.178  -2.193  -1.004  0.00  0.00    -0.220 OA
ATOM     11  F   UNL     1      -1.185   0.061   1.471  0.00  0.00    -0.237 F 
ATOM     12  C   UNL     1      -2.570  -0.780  -0.251  0.00  0.00    +0.064 C 
ATOM     13  C   UNL     1      -2.933   0.048  -1.429  0.00  0.00    -0.035 C 
ATOM     14  C   UNL     1      -4.199   0.435  -1.574  0.00  0.00    +0.034 C 
ATOM     15  C   UNL     1      -5.127   0.572  -0.447  0.00  0.00    +0.195 C 
ATOM     16  C   UNL     1      -4.602   0.145   0.849  0.00  0.00    +0.038 C 
ATOM     17  O   UNL     1      -5.828   1.628  -0.279  0.00  0.00    -0.287 OA
ATOM     18  C   UNL     1      -1.950   0.978  -2.099  0.00  0.00    +0.023 C 
ATOM     19  C   UNL     1      -2.797  -2.271  -0.518  0.00  0.00    +0.011 C 
ATOM     20  C   UNL     1      -3.479  -0.543   0.924  0.00  0.00    -0.017 C 
ATOM     21  C   UNL     1      -1.243   1.543  -0.846  0.00  0.00    +0.007 C 
ATOM     22  C   UNL     1       1.829  -0.769  -1.368  0.00  0.00    +0.003 C 
ATOM     23  C   UNL     1       1.038  -1.500   0.877  0.00  0.00    +0.038 C 
ATOM     24  C   UNL     1       1.668   1.667  -0.615  0.00  0.00    +0.003 C 
ENDROOT
BRANCH   3  25
ATOM     25  C   UNL     1       4.140  -0.144  -0.217  0.00  0.00    +0.211 C 
ATOM     26  O   UNL     1       4.236  -0.233  -1.440  0.00  0.00    -0.291 OA
BRANCH  25  27
ATOM     27  C   UNL     1       5.310   0.613   0.350  0.00  0.00    +0.248 C 
ATOM     28  O   UNL     1       6.383  -0.256   0.262  0.00  0.00    -0.212 OA
ENDBRANCH  25  27
ENDBRANCH   3  25
TORSDOF 2
