REMARK  Name = 
REMARK  5 active torsions:
REMARK  status: ('A' for Active; 'I' for Inactive)
REMARK    1  A    between atoms: C_2  and  O_3
REMARK    2  A    between atoms: C_2  and  C_16
REMARK    3  A    between atoms: O_3  and  C_4
REMARK    4  A    between atoms: C_16  and  C_18
REMARK    5  A    between atoms: C_16  and  C_24
REMARK                            x       y       z     vdW  Elec       q    Type
REMARK                         _______ _______ _______ _____ _____    ______ ____
ROOT
ATOM      1  O   UNL     1      -0.291  -0.386   1.455  0.00  0.00    -0.247 OA
ATOM      2  C   UNL     1      -0.625   0.166   0.372  0.00  0.00    +0.353 C 
ENDROOT
BRANCH   2   3
ATOM      3  C   UNL     1      -1.963  -0.004  -0.238  0.00  0.00    +0.252 C 
ATOM      4  O   UNL     1      -1.932   0.032  -1.641  0.00  0.00    -0.205 OA
BRANCH   3   5
ATOM      5  C   UNL     1      -2.485  -1.311   0.232  0.00  0.00    +0.019 A 
ATOM      6  C   UNL     1      -3.766  -1.460   0.748  0.00  0.00    -0.001 A 
ATOM      7  C   UNL     1      -4.596  -2.472   0.279  0.00  0.00    -0.000 A 
ATOM      8  C   UNL     1      -4.027  -3.619  -0.249  0.00  0.00    -0.000 A 
ATOM      9  C   UNL     1      -2.662  -3.632  -0.436  0.00  0.00    -0.000 A 
ATOM     10  C   UNL     1      -1.955  -2.443  -0.370  0.00  0.00    -0.001 A 
ENDBRANCH   3   5
BRANCH   3  11
ATOM     11  C   UNL     1      -2.887   1.104   0.157  0.00  0.00    +0.019 A 
ATOM     12  C   UNL     1      -2.438   2.409   0.306  0.00  0.00    -0.001 A 
ATOM     13  C   UNL     1      -3.214   3.505   0.038  0.00  0.00    -0.000 A 
ATOM     14  C   UNL     1      -4.483   3.330  -0.481  0.00  0.00    -0.000 A 
ATOM     15  C   UNL     1      -5.027   2.070  -0.436  0.00  0.00    -0.000 A 
ATOM     16  C   UNL     1      -4.162   0.987  -0.386  0.00  0.00    -0.001 A 
ENDBRANCH   3  11
ENDBRANCH   2   3
BRANCH   2  17
ATOM     17  O   UNL     1       0.414   0.317  -0.525  0.00  0.00    -0.450 OA
BRANCH  17  18
ATOM     18  C   UNL     1       1.719  -0.003  -0.381  0.00  0.00    +0.180 C 
ATOM     19  C   UNL     1       2.101   0.338   1.069  0.00  0.00    +0.099 C 
ATOM     20  C   UNL     1       3.725   0.171   1.353  0.00  0.00    +0.062 C 
ATOM     21  N   UNL     1       4.130  -0.156  -0.151  0.00  0.00    +0.289 N 
ATOM     22  C   UNL     1       3.172   1.074  -0.023  0.00  0.00    +0.062 C 
ATOM     23  C   UNL     1       4.426   2.046  -0.264  0.00  0.00    +0.061 C 
ATOM     24  C   UNL     1       5.461   0.127  -0.080  0.00  0.00    +0.108 C 
ATOM     25  C   UNL     1       6.041  -1.183   0.411  0.00  0.00    +0.067 C 
ATOM     26  C   UNL     1       4.884  -2.166   0.444  0.00  0.00    +0.067 C 
ATOM     27  C   UNL     1       3.697  -1.411  -0.096  0.00  0.00    +0.108 C 
ATOM     28  C   UNL     1       4.258   1.738   1.260  0.00  0.00    +0.061 C 
ATOM     29  C   UNL     1       2.486   0.831  -1.467  0.00  0.00    +0.099 C 
ENDBRANCH  17  18
ENDBRANCH   2  17
TORSDOF 5
