REMARK  Name = 
REMARK  5 active torsions:
REMARK  status: ('A' for Active; 'I' for Inactive)
REMARK    1  A    between atoms: C_2  and  C_3
REMARK    2  A    between atoms: C_3  and  C_4
REMARK    3  A    between atoms: C_4  and  C_5
REMARK    4  A    between atoms: C_5  and  C_7
REMARK    5  A    between atoms: C_8  and  C_9
REMARK                            x       y       z     vdW  Elec       q    Type
REMARK                         _______ _______ _______ _____ _____    ______ ____
ROOT
ATOM      1  C   UNL     1      -0.333   0.333   0.250  0.00  0.00    +0.155 C 
ATOM      2  C   UNL     1      -0.757  -0.428  -0.899  0.00  0.00    +0.241 C 
ATOM      3  O   UNL     1       0.050  -1.150  -1.563  0.00  0.00    -0.274 OA
ATOM      4  N   UNL     1      -2.037  -1.039  -0.649  0.00  0.00    -0.210 N 
ATOM      5  C   UNL     1      -2.700  -1.753  -1.729  0.00  0.00    +0.124 C 
ATOM      6  C   UNL     1      -2.558  -1.175   0.687  0.00  0.00    +0.336 C 
ATOM      7  O   UNL     1      -3.732  -1.523   0.922  0.00  0.00    -0.250 OA
ATOM      8  N   UNL     1      -1.506  -1.153   1.670  0.00  0.00    -0.127 NA
ATOM      9  C   UNL     1      -0.204  -0.606   1.354  0.00  0.00    +0.258 C 
ATOM     10  O   UNL     1       0.713  -1.475   1.498  0.00  0.00    -0.272 OA
ENDROOT
BRANCH   1  11
ATOM     11  C   UNL     1       1.010   1.186   0.002  0.00  0.00    +0.081 C 
ATOM     12  C   UNL     1       0.778   1.317  -1.622  0.00  0.00    +0.015 C 
BRANCH  11  13
ATOM     13  C   UNL     1       1.968  -0.075  -0.164  0.00  0.00    -0.091 C 
ATOM     14  C   UNL     1       3.133  -0.238   0.171  0.00  0.00    -0.091 C 
BRANCH  14  15
ATOM     15  C   UNL     1       4.554  -0.610   0.225  0.00  0.00    +0.076 C 
ATOM     16  C   UNL     1       5.373   0.615  -0.089  0.00  0.00    +0.015 C 
ENDBRANCH  14  15
ENDBRANCH  11  13
ENDBRANCH   1  11
BRANCH   1  17
ATOM     17  C   UNL     1      -1.329   1.403   0.618  0.00  0.00    +0.044 C 
BRANCH  17  19
ATOM     18  C   UNL     1      -1.264   3.703   0.110  0.00  0.00    -0.005 C 
ATOM     19  C   UNL     1      -1.157   2.666  -0.123  0.00  0.00    -0.025 C 
ENDBRANCH  17  19
ENDBRANCH   1  17
TORSDOF 5
