REMARK  Name = 
REMARK  5 active torsions:
REMARK  status: ('A' for Active; 'I' for Inactive)
REMARK    1  A    between atoms: C_2  and  C_3
REMARK    2  A    between atoms: C_3  and  N_4
REMARK    3  A    between atoms: N_4  and  C_5
REMARK    4  A    between atoms: C_5  and  C_7
REMARK    5  A    between atoms: N_9  and  C_10
REMARK                            x       y       z     vdW  Elec       q    Type
REMARK                         _______ _______ _______ _____ _____    ______ ____
ROOT
ATOM      1  C   UNL     1       0.673  -0.573  -0.237  0.00  0.00    +0.261 C 
ATOM      2  N   UNL     1      -0.480  -0.068   0.359  0.00  0.00    -0.178 NA
ATOM      3  O   UNL     1       0.566  -0.840  -1.478  0.00  0.00    -0.271 OA
ENDROOT
BRANCH   2   4
ATOM      4  C   UNL     1      -1.763   0.115  -0.244  0.00  0.00    +0.069 A 
ATOM      5  C   UNL     1      -2.535  -0.967  -0.663  0.00  0.00    -0.007 A 
ATOM      6  C   UNL     1      -1.972  -2.354  -0.611  0.00  0.00    +0.032 C 
ATOM      7  C   UNL     1      -3.906  -0.778  -0.802  0.00  0.00    -0.003 A 
ATOM      8  C   UNL     1      -4.555   0.210  -0.070  0.00  0.00    -0.000 A 
ATOM      9  C   UNL     1      -3.812   1.146   0.585  0.00  0.00    +0.001 A 
ATOM     10  C   UNL     1      -2.462   1.206   0.263  0.00  0.00    +0.016 A 
ENDBRANCH   2   4
BRANCH   1  11
ATOM     11  C   UNL     1       2.007   0.385  -0.140  0.00  0.00    +0.151 C 
ATOM     12  C   UNL     1       1.737   0.792   1.464  0.00  0.00    +0.029 C 
BRANCH  11  13
ATOM     13  N   UNL     1       2.922  -0.856   0.305  0.00  0.00    -0.210 NA
BRANCH  13  14
ATOM     14  C   UNL     1       3.929  -0.237   1.163  0.00  0.00    +0.089 C 
BRANCH  14  16
ATOM     15  C   UNL     1       4.894   0.909  -0.116  0.00  0.00    +0.002 C 
ATOM     16  C   UNL     1       4.758   0.633   0.223  0.00  0.00    +0.019 C 
ENDBRANCH  14  16
ENDBRANCH  13  14
ENDBRANCH  11  13
ENDBRANCH   1  11
TORSDOF 5
