REMARK  Name = 
REMARK  2 active torsions:
REMARK  status: ('A' for Active; 'I' for Inactive)
REMARK    1  A    between atoms: N_6  and  C_7
REMARK    2  A    between atoms: C_7  and  C_8
REMARK                            x       y       z     vdW  Elec       q    Type
REMARK                         _______ _______ _______ _____ _____    ______ ____
ROOT
ATOM      1  C   UNL     1      -0.553  -0.196  -0.514  0.00  0.00    +0.126 A 
ATOM      2  C   UNL     1      -1.730  -0.921  -0.656  0.00  0.00    +0.133 A 
ATOM      3 CL   UNL     1      -1.864  -1.930  -2.084  0.00  0.00    -0.076 Cl
ATOM      4  C   UNL     1      -2.865  -0.609   0.079  0.00  0.00    +0.295 A 
ATOM      5  O   UNL     1      -3.859  -1.382   0.054  0.00  0.00    -0.264 OA
ATOM      6  N   UNL     1      -2.836   0.533   0.800  0.00  0.00    -0.151 NA
ATOM      7  C   UNL     1      -1.750   1.343   0.834  0.00  0.00    +0.371 A 
ATOM      8  O   UNL     1      -1.967   2.584   0.979  0.00  0.00    -0.243 OA
ATOM      9  N   UNL     1      -0.603   0.895   0.276  0.00  0.00    -0.190 NA
ENDROOT
BRANCH   1  10
ATOM     10  C   UNL     1       0.710  -0.950  -0.736  0.00  0.00    +0.250 C 
BRANCH  10  13
ATOM     11  N   UNL     1       3.138  -1.819   0.888  0.00  0.00    +0.188 NA
ATOM     12  C   UNL     1       2.928  -0.617   0.485  0.00  0.00    +0.353 C 
ATOM     13  N   UNL     1       1.885  -0.198  -0.395  0.00  0.00    -0.185 N 
ATOM     14  C   UNL     1       2.079   1.224  -0.623  0.00  0.00    +0.203 C 
ATOM     15  C   UNL     1       3.497   1.521  -0.234  0.00  0.00    +0.064 C 
ATOM     16  C   UNL     1       3.791   0.521   0.847  0.00  0.00    +0.126 C 
ENDBRANCH  10  13
ENDBRANCH   1  10
TORSDOF 2
