REMARK  Name = 
REMARK  0 active torsions:
REMARK  status: ('A' for Active; 'I' for Inactive)
REMARK                            x       y       z     vdW  Elec       q    Type
REMARK                         _______ _______ _______ _____ _____    ______ ____
ROOT
ATOM      1  O   UNL     1       1.554  -2.087  -0.811  0.00  0.00    -0.285 OA
ATOM      2  C   UNL     1       1.067  -0.809  -0.556  0.00  0.00    +0.218 A 
ATOM      3  C   UNL     1      -0.306  -0.662  -0.436  0.00  0.00    +0.121 A 
ATOM      4  C   UNL     1      -0.804   0.571  -0.033  0.00  0.00    +0.031 A 
ATOM      5  C   UNL     1      -2.015   0.706   0.616  0.00  0.00    +0.004 A 
ATOM      6  C   UNL     1      -2.743  -0.463   0.794  0.00  0.00    +0.021 A 
ATOM      7  C   UNL     1      -2.238  -1.663   0.327  0.00  0.00    +0.099 A 
ATOM      8  C   UNL     1       0.081   1.642  -0.018  0.00  0.00    +0.060 A 
ATOM      9 CL   UNL     1      -0.593   3.262  -0.164  0.00  0.00    -0.082 Cl
ATOM     10  C   UNL     1       1.455   1.442   0.030  0.00  0.00    +0.020 A 
ATOM     11  N   UNL     1      -1.177  -1.668  -0.519  0.00  0.00    -0.241 NA
ATOM     12  C   UNL     1       1.959   0.151  -0.092  0.00  0.00    +0.071 A 
ATOM     13  I   UNL     1       3.759  -0.422   0.862  0.00  0.00    -0.039 I 
ENDROOT
TORSDOF 0
