REMARK  Name = 
REMARK  7 active torsions:
REMARK  status: ('A' for Active; 'I' for Inactive)
REMARK    1  A    between atoms: C_2  and  C_3
REMARK    2  A    between atoms: C_3  and  N_4
REMARK    3  A    between atoms: N_4  and  C_5
REMARK    4  A    between atoms: N_4  and  S_8
REMARK    5  A    between atoms: C_5  and  C_6
REMARK    6  A    between atoms: S_8  and  C_11
REMARK    7  A    between atoms: C_14  and  C_15
REMARK                            x       y       z     vdW  Elec       q    Type
REMARK                         _______ _______ _______ _____ _____    ______ ____
ROOT
ATOM      1  S   UNL     1      -1.057  -0.568  -0.853  0.00  0.00    +0.063 S 
ATOM      2  O   UNL     1      -1.392   0.054  -2.190  0.00  0.00    -0.153 OA
ATOM      3  O   UNL     1      -0.826  -2.036  -1.119  0.00  0.00    -0.153 OA
ENDROOT
BRANCH   1   4
ATOM      4  C   UNL     1       0.384   0.213  -0.269  0.00  0.00    +0.122 A 
ATOM      5  C   UNL     1       0.668   0.415   1.058  0.00  0.00    +0.020 A 
ATOM      6  C   UNL     1       1.975   0.565   1.505  0.00  0.00    +0.008 A 
ATOM      7  C   UNL     1       3.021   0.273   0.664  0.00  0.00    +0.080 A 
ATOM      8  C   UNL     1       2.775   0.268  -0.693  0.00  0.00    +0.008 A 
ATOM      9  C   UNL     1       1.475   0.231  -1.129  0.00  0.00    +0.020 A 
BRANCH   7  10
ATOM     10  C   UNL     1       4.392   0.045   1.130  0.00  0.00    +0.388 C 
ATOM     11  O   UNL     1       4.943  -1.190   0.770  0.00  0.00    -0.241 OA
ATOM     12  O   UNL     1       5.209   1.015   1.109  0.00  0.00    -0.241 OA
ENDBRANCH   7  10
ENDBRANCH   1   4
BRANCH   1  13
ATOM     13  N   UNL     1      -2.386  -0.407   0.211  0.00  0.00    -0.156 NA
BRANCH  13  14
ATOM     14  C   UNL     1      -2.357   0.838   0.945  0.00  0.00    +0.096 C 
BRANCH  14  16
ATOM     15  C   UNL     1      -2.166   3.282   0.569  0.00  0.00    +0.002 C 
ATOM     16  C   UNL     1      -2.746   1.992   0.053  0.00  0.00    +0.019 C 
ENDBRANCH  14  16
ENDBRANCH  13  14
BRANCH  13  17
ATOM     17  C   UNL     1      -3.669  -0.446  -0.485  0.00  0.00    +0.096 C 
BRANCH  17  18
ATOM     18  C   UNL     1      -4.353  -1.717   0.005  0.00  0.00    +0.019 C 
ATOM     19  C   UNL     1      -3.893  -2.826  -0.933  0.00  0.00    +0.002 C 
ENDBRANCH  17  18
ENDBRANCH  13  17
ENDBRANCH   1  13
TORSDOF 7
