REMARK  Name = 
REMARK  6 active torsions:
REMARK  status: ('A' for Active; 'I' for Inactive)
REMARK    1  A    between atoms: O_2  and  C_3
REMARK    2  A    between atoms: C_11  and  N_12
REMARK    3  A    between atoms: N_12  and  C_13
REMARK    4  A    between atoms: C_13  and  C_15
REMARK    5  A    between atoms: C_15  and  C_16
REMARK    6  A    between atoms: C_16  and  C_17
REMARK                            x       y       z     vdW  Elec       q    Type
REMARK                         _______ _______ _______ _____ _____    ______ ____
ROOT
ATOM      1  C   UNL     1      -1.775  -1.816   0.017  0.00  0.00    +0.140 A 
ATOM      2  C   UNL     1      -0.516  -1.397  -0.379  0.00  0.00    +0.054 A 
ATOM      3  C   UNL     1      -0.180  -0.098  -0.147  0.00  0.00    +0.086 A 
ATOM      4  C   UNL     1      -1.226   0.817  -0.082  0.00  0.00    +0.096 A 
ATOM      5  C   UNL     1      -2.494   0.451   0.358  0.00  0.00    +0.022 A 
ATOM      6  C   UNL     1      -3.480   1.394   0.613  0.00  0.00    +0.003 A 
ATOM      7  C   UNL     1      -3.224   2.667   0.116  0.00  0.00    +0.021 A 
ATOM      8  C   UNL     1      -2.159   2.864  -0.757  0.00  0.00    +0.099 A 
ATOM      9  N   UNL     1      -1.071   2.078  -0.565  0.00  0.00    -0.243 NA
ATOM     10  C   UNL     1      -2.719  -0.911   0.484  0.00  0.00    +0.038 A 
ENDROOT
BRANCH   1  12
ATOM     11  C   UNL     1      -2.364  -3.457  -0.580  0.00  0.00    +0.252 C 
ATOM     12  O   UNL     1      -2.209  -3.074  -0.422  0.00  0.00    -0.471 OA
ENDBRANCH   1  12
BRANCH   3  13
ATOM     13  N   UNL     1       1.074   0.470   0.021  0.00  0.00    -0.238 NA
BRANCH  13  14
ATOM     14  C   UNL     1       2.332  -0.455   0.131  0.00  0.00    +0.093 C 
ATOM     15  C   UNL     1       1.630  -1.481   1.204  0.00  0.00    +0.023 C 
BRANCH  14  16
ATOM     16  C   UNL     1       2.955   0.456   1.349  0.00  0.00    +0.023 C 
BRANCH  16  17
ATOM     17  C   UNL     1       4.427   0.164   1.378  0.00  0.00    +0.022 C 
BRANCH  17  18
ATOM     18  C   UNL     1       5.061   1.076   0.334  0.00  0.00    +0.109 C 
ATOM     19  N   UNL     1       5.938   0.251  -0.460  0.00  0.00    -0.131 NA
ENDBRANCH  17  18
ENDBRANCH  16  17
ENDBRANCH  14  16
ENDBRANCH  13  14
ENDBRANCH   3  13
TORSDOF 6
