REMARK  Name = 
REMARK  6 active torsions:
REMARK  status: ('A' for Active; 'I' for Inactive)
REMARK    1  A    between atoms: C_2  and  N_3
REMARK    2  A    between atoms: C_5  and  C_6
REMARK    3  A    between atoms: C_6  and  C_7
REMARK    4  A    between atoms: C_7  and  N_8
REMARK    5  A    between atoms: C_14  and  C_15
REMARK    6  A    between atoms: C_14  and  C_21
REMARK                            x       y       z     vdW  Elec       q    Type
REMARK                         _______ _______ _______ _____ _____    ______ ____
ROOT
ATOM      1  N   UNL     1      -0.072  -0.145   2.059  0.00  0.00    -0.279 N 
ATOM      2  C   UNL     1      -1.145   0.386   1.317  0.00  0.00    +0.232 C 
ATOM      3  O   UNL     1      -2.189   0.844   1.843  0.00  0.00    -0.274 OA
ATOM      4  C   UNL     1      -1.141  -0.141  -0.046  0.00  0.00    +0.108 C 
ATOM      5  C   UNL     1       0.391  -0.650  -0.225  0.00  0.00    +0.037 C 
ATOM      6  C   UNL     1       0.457  -1.233   1.292  0.00  0.00    +0.095 C 
ENDROOT
BRANCH   4   7
ATOM      7  C   UNL     1      -1.339   0.968  -0.997  0.00  0.00    -0.011 A 
ATOM      8  C   UNL     1      -2.204   1.984  -0.608  0.00  0.00    -0.004 A 
ATOM      9  C   UNL     1      -2.538   3.011  -1.462  0.00  0.00    -0.000 A 
ATOM     10  C   UNL     1      -1.649   3.263  -2.498  0.00  0.00    -0.000 A 
ATOM     11  C   UNL     1      -0.572   2.413  -2.711  0.00  0.00    -0.000 A 
ATOM     12  C   UNL     1      -0.510   1.172  -2.091  0.00  0.00    -0.004 A 
ENDBRANCH   4   7
BRANCH   4  13
ATOM     13  C   UNL     1      -2.022  -1.290  -0.272  0.00  0.00    -0.011 A 
ATOM     14  C   UNL     1      -3.257  -1.269   0.365  0.00  0.00    -0.004 A 
ATOM     15  C   UNL     1      -4.335  -2.002  -0.052  0.00  0.00    -0.000 A 
ATOM     16  C   UNL     1      -4.067  -3.111  -0.844  0.00  0.00    -0.000 A 
ATOM     17  C   UNL     1      -2.836  -3.184  -1.483  0.00  0.00    -0.000 A 
ATOM     18  C   UNL     1      -1.833  -2.259  -1.221  0.00  0.00    -0.004 A 
ENDBRANCH   4  13
BRANCH   1  20
ATOM     19  C   UNL     1      -0.537  -0.781   4.234  0.00  0.00    +0.023 C 
ATOM     20  C   UNL     1       0.170   0.095   3.458  0.00  0.00    +0.093 C 
ENDBRANCH   1  20
BRANCH   5  21
ATOM     21  C   UNL     1       1.014   0.797   0.194  0.00  0.00    +0.020 C 
BRANCH  21  22
ATOM     22  C   UNL     1       2.255   0.547   0.972  0.00  0.00    +0.072 C 
BRANCH  22  23
ATOM     23  N   UNL     1       3.400   0.151   0.289  0.00  0.00    -0.268 NA
ATOM     24  C   UNL     1       3.611   0.522  -1.045  0.00  0.00    +0.105 C 
ATOM     25  C   UNL     1       5.070   0.851  -1.337  0.00  0.00    +0.159 C 
ATOM     26  O   UNL     1       5.902   0.519  -0.282  0.00  0.00    -0.351 OA
ATOM     27  C   UNL     1       5.660  -0.740   0.239  0.00  0.00    +0.159 C 
ATOM     28  C   UNL     1       4.317  -0.720   0.913  0.00  0.00    +0.105 C 
ENDBRANCH  22  23
ENDBRANCH  21  22
ENDBRANCH   5  21
TORSDOF 6
