REMARK  Name = 
REMARK  4 active torsions:
REMARK  status: ('A' for Active; 'I' for Inactive)
REMARK    1  A    between atoms: C_2  and  O_4
REMARK    2  A    between atoms: O_4  and  C_5
REMARK    3  A    between atoms: C_5  and  C_7
REMARK    4  A    between atoms: C_7  and  N_8
REMARK                            x       y       z     vdW  Elec       q    Type
REMARK                         _______ _______ _______ _____ _____    ______ ____
ROOT
ATOM      1  C   UNL     1       0.229   0.163   0.174  0.00  0.00    +0.223 C 
ATOM      2  C   UNL     1       0.394  -1.303  -0.555  0.00  0.00    +0.054 C 
ENDROOT
BRANCH   1   3
ATOM      3  O   UNL     1       1.321   0.789  -0.710  0.00  0.00    -0.446 OA
BRANCH   3   5
ATOM      4  C   UNL     1       3.566   1.044  -0.758  0.00  0.00    +0.121 C 
ATOM      5  C   UNL     1       2.614   0.312  -0.469  0.00  0.00    +0.318 C 
ATOM      6  O   UNL     1       2.699  -0.949  -0.360  0.00  0.00    -0.250 OA
ENDBRANCH   3   5
ENDBRANCH   1   3
BRANCH   1   7
ATOM      7  C   UNL     1      -0.954   0.620  -0.875  0.00  0.00    +0.153 C 
BRANCH   7   8
ATOM      8  N   UNL     1      -2.155   0.009  -0.368  0.00  0.00    +0.313 N 
ATOM      9  C   UNL     1      -2.615  -0.923  -1.395  0.00  0.00    +0.171 C 
ATOM     10  C   UNL     1      -3.168   1.005  -0.124  0.00  0.00    +0.171 C 
ATOM     11  C   UNL     1      -1.929  -0.769   0.825  0.00  0.00    +0.171 C 
ENDBRANCH   7   8
ENDBRANCH   1   7
TORSDOF 4
