REMARK  Name = 
REMARK  3 active torsions:
REMARK  status: ('A' for Active; 'I' for Inactive)
REMARK    1  A    between atoms: N_7  and  C_8
REMARK    2  A    between atoms: C_11  and  N_12
REMARK    3  A    between atoms: C_15  and  C_16
REMARK                            x       y       z     vdW  Elec       q    Type
REMARK                         _______ _______ _______ _____ _____    ______ ____
ROOT
ATOM      1  C   UNL     1       0.470  -0.153  -0.739  0.00  0.00    +0.063 A 
ATOM      2  C   UNL     1      -0.615   0.711  -0.816  0.00  0.00    +0.025 A 
ATOM      3  C   UNL     1      -1.913   0.243  -0.645  0.00  0.00    +0.142 A 
ATOM      4  C   UNL     1      -2.116  -1.004  -0.075  0.00  0.00    +0.294 A 
ATOM      5  C   UNL     1      -1.061  -1.908  -0.108  0.00  0.00    +0.077 A 
ATOM      6  C   UNL     1       0.137  -1.502  -0.686  0.00  0.00    +0.022 A 
ENDROOT
BRANCH   1  11
ATOM      7  C   UNL     1       4.597  -1.352   0.665  0.00  0.00    +0.031 C 
ATOM      8  C   UNL     1       3.999   0.012   0.407  0.00  0.00    +0.149 C 
ATOM      9  C   UNL     1       3.027  -0.171  -0.718  0.00  0.00    +0.254 C 
ATOM     10  O   UNL     1       3.256  -0.878  -1.745  0.00  0.00    -0.272 OA
ATOM     11  N   UNL     1       1.749   0.329  -0.307  0.00  0.00    -0.190 N 
ATOM     12  C   UNL     1       2.014   1.014   0.922  0.00  0.00    +0.333 C 
ATOM     13  O   UNL     1       1.213   1.817   1.466  0.00  0.00    -0.250 OA
ATOM     14  N   UNL     1       3.212   0.496   1.513  0.00  0.00    -0.182 NA
ATOM     15  C   UNL     1       5.061   1.024   0.071  0.00  0.00    +0.031 C 
ENDBRANCH   1  11
BRANCH   3  16
ATOM     16  C   UNL     1      -3.061   1.166  -0.744  0.00  0.00    +0.424 C 
ATOM     17  F   UNL     1      -4.154   0.767  -0.022  0.00  0.00    -0.166 F 
ATOM     18  F   UNL     1      -2.608   2.399  -0.286  0.00  0.00    -0.166 F 
ATOM     19  F   UNL     1      -3.460   1.378  -2.053  0.00  0.00    -0.166 F 
ENDBRANCH   3  16
BRANCH   4  20
ATOM     20  N   UNL     1      -3.139  -1.220   0.903  0.00  0.00    +0.081 N 
ATOM     21  O   UNL     1      -2.849  -0.863   2.210  0.00  0.00    -0.576 OA
ATOM     22  O   UNL     1      -3.760  -2.308   0.787  0.00  0.00    +0.041 OA
ENDBRANCH   4  20
TORSDOF 3
