REMARK  Name = 
REMARK  8 active torsions:
REMARK  status: ('A' for Active; 'I' for Inactive)
REMARK    1  A    between atoms: O_2  and  C_3
REMARK    2  A    between atoms: C_6  and  C_7
REMARK    3  A    between atoms: C_7  and  C_8
REMARK    4  A    between atoms: C_8  and  N_10
REMARK    5  A    between atoms: N_10  and  C_11
REMARK    6  A    between atoms: C_11  and  C_12
REMARK    7  A    between atoms: C_12  and  C_14
REMARK    8  A    between atoms: C_19  and  N_20
REMARK                            x       y       z     vdW  Elec       q    Type
REMARK                         _______ _______ _______ _____ _____    ______ ____
ROOT
ATOM      1  C   UNL     1      -0.422  -1.851  -0.960  0.00  0.00    +0.126 C 
ENDROOT
BRANCH   1   2
ATOM      2  C   UNL     1      -1.439  -1.817   0.382  0.00  0.00    +0.192 C 
ATOM      3  O   UNL     1      -0.673  -0.631   1.042  0.00  0.00    -0.217 OA
BRANCH   2   4
ATOM      4  C   UNL     1      -2.525  -0.857  -0.420  0.00  0.00    +0.011 A 
ATOM      5  C   UNL     1      -2.572   0.445  -0.114  0.00  0.00    +0.018 A 
ATOM      6  C   UNL     1      -3.759   1.171  -0.007  0.00  0.00    +0.112 A 
ATOM      7  C   UNL     1      -4.901   0.472   0.370  0.00  0.00    +0.211 A 
ATOM      8  O   UNL     1      -5.632   0.812   1.518  0.00  0.00    -0.285 OA
ATOM      9  C   UNL     1      -4.941  -0.831  -0.121  0.00  0.00    +0.043 A 
ATOM     10  C   UNL     1      -3.772  -1.475  -0.520  0.00  0.00    +0.002 A 
BRANCH   6  11
ATOM     11  N   UNL     1      -3.570   2.495   0.507  0.00  0.00    -0.168 NA
ATOM     12  C   UNL     1      -4.722   3.291   0.751  0.00  0.00    +0.325 C 
ATOM     13  O   UNL     1      -5.696   3.230  -0.033  0.00  0.00    -0.263 OA
ENDBRANCH   6  11
ENDBRANCH   2   4
ENDBRANCH   1   2
BRANCH   1  14
ATOM     14  N   UNL     1       0.811  -1.349  -0.608  0.00  0.00    -0.216 NA
BRANCH  14  15
ATOM     15  C   UNL     1       1.364  -2.104   0.684  0.00  0.00    +0.077 C 
ATOM     16  C   UNL     1       0.730  -3.576   0.214  0.00  0.00    +0.019 C 
BRANCH  15  17
ATOM     17  C   UNL     1       2.809  -2.419  -0.090  0.00  0.00    +0.044 C 
BRANCH  17  21
ATOM     18  C   UNL     1       5.082   1.224  -0.086  0.00  0.00    +0.139 A 
ATOM     19  C   UNL     1       5.686  -0.019  -0.082  0.00  0.00    +0.037 A 
ATOM     20  C   UNL     1       4.933  -1.148   0.186  0.00  0.00    -0.001 A 
ATOM     21  C   UNL     1       3.557  -1.144  -0.011  0.00  0.00    -0.021 A 
ATOM     22  C   UNL     1       2.962   0.097  -0.061  0.00  0.00    -0.001 A 
ATOM     23  C   UNL     1       3.706   1.264  -0.157  0.00  0.00    +0.037 A 
BRANCH  18  25
ATOM     24  C   UNL     1       7.151   2.325   0.232  0.00  0.00    +0.252 C 
ATOM     25  O   UNL     1       5.832   2.397  -0.187  0.00  0.00    -0.471 OA
ENDBRANCH  18  25
ENDBRANCH  17  21
ENDBRANCH  15  17
ENDBRANCH  14  15
ENDBRANCH   1  14
TORSDOF 8
