REMARK  Name = 
REMARK  0 active torsions:
REMARK  status: ('A' for Active; 'I' for Inactive)
REMARK                            x       y       z     vdW  Elec       q    Type
REMARK                         _______ _______ _______ _____ _____    ______ ____
ROOT
ATOM      1  C   UNL     1       1.519   1.902   0.206  0.00  0.00    +0.054 C 
ATOM      2  C   UNL     1       0.682   0.699  -0.063  0.00  0.00    +0.080 A 
ATOM      3  N   UNL     1       1.328  -0.493  -0.061  0.00  0.00    -0.325 N 
ATOM      4  C   UNL     1       2.567  -0.688   0.690  0.00  0.00    +0.130 C 
ATOM      5  C   UNL     1       0.654  -1.539  -0.594  0.00  0.00    +0.079 A 
ATOM      6  C   UNL     1      -0.734  -1.563  -0.591  0.00  0.00    +0.064 A 
ATOM      7  C   UNL     1      -1.438  -0.456  -0.142  0.00  0.00    +0.237 A 
ATOM      8  O   UNL     1      -2.570  -0.514   0.371  0.00  0.00    -0.283 OA
ATOM      9  C   UNL     1      -0.701   0.709   0.036  0.00  0.00    +0.246 A 
ATOM     10  O   UNL     1      -1.309   1.943   0.148  0.00  0.00    -0.282 OA
ENDROOT
TORSDOF 0
