REMARK  Name = 
REMARK  4 active torsions:
REMARK  status: ('A' for Active; 'I' for Inactive)
REMARK    1  A    between atoms: C_2  and  C_3
REMARK    2  A    between atoms: C_3  and  C_4
REMARK    3  A    between atoms: C_26  and  C_27
REMARK    4  A    between atoms: C_27  and  C_29
REMARK                            x       y       z     vdW  Elec       q    Type
REMARK                         _______ _______ _______ _____ _____    ______ ____
ROOT
ATOM      1  C   UNL     1      -4.066  -0.085   0.780  0.00  0.00    +0.235 C 
ATOM      2  O   UNL     1      -2.858   0.686   1.336  0.00  0.00    -0.326 OA
ATOM      3  C   UNL     1      -2.232   0.382   0.171  0.00  0.00    +0.173 C 
ATOM      4  C   UNL     1      -2.510  -1.230  -0.004  0.00  0.00    +0.149 C 
ATOM      5  C   UNL     1      -1.109  -1.757   0.662  0.00  0.00    +0.033 C 
ATOM      6  C   UNL     1      -0.353  -0.415   1.104  0.00  0.00    +0.005 C 
ATOM      7  C   UNL     1       1.074  -0.774   0.275  0.00  0.00    +0.004 C 
ATOM      8  C   UNL     1       1.837   0.646   0.715  0.00  0.00    +0.038 C 
ATOM      9  C   UNL     1       1.350   1.623  -0.599  0.00  0.00    +0.153 C 
ATOM     10  C   UNL     1      -0.233   1.618  -0.210  0.00  0.00    +0.036 C 
ATOM     11  O   UNL     1       1.335   0.522  -1.636  0.00  0.00    -0.223 OA
ATOM     12  C   UNL     1       3.240   0.243   0.070  0.00  0.00    +0.036 C 
ATOM     13  C   UNL     1       3.414  -1.165  -0.177  0.00  0.00    -0.038 C 
ATOM     14  C   UNL     1       4.589  -1.403  -0.785  0.00  0.00    +0.034 C 
ATOM     15  C   UNL     1       5.797  -0.624  -0.462  0.00  0.00    +0.195 C 
ATOM     16  C   UNL     1       5.522   0.172   0.741  0.00  0.00    +0.038 C 
ATOM     17  O   UNL     1       6.839  -0.567  -1.135  0.00  0.00    -0.287 OA
ATOM     18  C   UNL     1       2.960  -2.087   0.920  0.00  0.00    +0.022 C 
ATOM     19  C   UNL     1       3.642   1.132  -1.033  0.00  0.00    +0.009 C 
ATOM     20  C   UNL     1       4.282   0.490   1.119  0.00  0.00    -0.020 C 
ATOM     21  C   UNL     1       1.742  -1.451   1.572  0.00  0.00    +0.004 C 
ATOM     22  C   UNL     1      -0.886   0.379  -0.186  0.00  0.00    +0.034 C 
ATOM     23  C   UNL     1      -0.774  -0.564  -1.370  0.00  0.00    +0.003 C 
ATOM     24  O   UNL     1      -3.346  -1.343   1.269  0.00  0.00    -0.330 OA
ENDROOT
BRANCH   3  25
ATOM     25  C   UNL     1      -2.970   1.007  -1.003  0.00  0.00    +0.210 C 
ATOM     26  O   UNL     1      -3.776   1.892  -0.694  0.00  0.00    -0.291 OA
BRANCH  25  27
ATOM     27  C   UNL     1      -2.123   1.593  -2.111  0.00  0.00    +0.248 C 
ATOM     28  O   UNL     1      -2.685   1.693  -3.302  0.00  0.00    -0.212 OA
ENDBRANCH  25  27
ENDBRANCH   3  25
BRANCH   1  29
ATOM     29  C   UNL     1      -4.964   0.101   2.167  0.00  0.00    +0.061 C 
BRANCH  29  31
ATOM     30  C   UNL     1      -6.376  -0.733   0.250  0.00  0.00    +0.000 C 
ATOM     31  C   UNL     1      -6.362   0.016   1.558  0.00  0.00    +0.005 C 
ENDBRANCH  29  31
ENDBRANCH   1  29
TORSDOF 4
