REMARK  Name = 
REMARK  6 active torsions:
REMARK  status: ('A' for Active; 'I' for Inactive)
REMARK    1  A    between atoms: N_2  and  C_4
REMARK    2  A    between atoms: C_4  and  C_5
REMARK    3  A    between atoms: C_5  and  O_6
REMARK    4  A    between atoms: O_6  and  C_7
REMARK    5  A    between atoms: C_7  and  C_9
REMARK    6  A    between atoms: C_7  and  C_15
REMARK                            x       y       z     vdW  Elec       q    Type
REMARK                         _______ _______ _______ _____ _____    ______ ____
ROOT
ATOM      1  C   UNL     1      -0.229   0.024  -0.316  0.00  0.00    +0.146 C 
ATOM      2  C   UNL     1       0.566   0.206  -1.582  0.00  0.00    +0.040 C 
ENDROOT
BRANCH   1   3
ATOM      3  C   UNL     1      -0.601  -1.397  -0.159  0.00  0.00    +0.007 A 
ATOM      4  C   UNL     1      -0.143  -2.356  -1.037  0.00  0.00    -0.002 A 
ATOM      5  C   UNL     1      -0.194  -3.692  -0.720  0.00  0.00    -0.000 A 
ATOM      6  C   UNL     1      -0.493  -4.048   0.582  0.00  0.00    -0.000 A 
ATOM      7  C   UNL     1      -1.165  -3.131   1.368  0.00  0.00    -0.000 A 
ATOM      8  C   UNL     1      -1.261  -1.797   0.992  0.00  0.00    -0.002 A 
ENDBRANCH   1   3
BRANCH   1   9
ATOM      9  C   UNL     1      -1.420   0.895  -0.371  0.00  0.00    +0.087 A 
ATOM     10  N   UNL     1      -1.413   2.043  -1.084  0.00  0.00    -0.246 NA
ATOM     11  C   UNL     1      -2.470   2.861  -1.059  0.00  0.00    +0.099 A 
ATOM     12  C   UNL     1      -3.392   2.779  -0.025  0.00  0.00    +0.021 A 
ATOM     13  C   UNL     1      -3.277   1.735   0.873  0.00  0.00    +0.003 A 
ATOM     14  C   UNL     1      -2.381   0.708   0.613  0.00  0.00    +0.017 A 
ENDBRANCH   1   9
BRANCH   1  15
ATOM     15  O   UNL     1       0.571   0.412   0.748  0.00  0.00    -0.347 OA
BRANCH  15  16
ATOM     16  C   UNL     1       1.915   0.142   0.489  0.00  0.00    +0.160 C 
BRANCH  16  17
ATOM     17  C   UNL     1       2.695   1.384   0.826  0.00  0.00    +0.105 C 
BRANCH  17  19
ATOM     18  C   UNL     1       4.511  -0.044   0.313  0.00  0.00    +0.090 C 
ATOM     19  N   UNL     1       4.067   1.329   0.344  0.00  0.00    -0.268 NA
ATOM     20  C   UNL     1       4.115   1.945  -0.976  0.00  0.00    +0.090 C 
ENDBRANCH  17  19
ENDBRANCH  16  17
ENDBRANCH  15  16
ENDBRANCH   1  15
TORSDOF 6
