REMARK  Name = 
REMARK  1 active torsions:
REMARK  status: ('A' for Active; 'I' for Inactive)
REMARK    1  A    between atoms: N_2  and  C_3
REMARK                            x       y       z     vdW  Elec       q    Type
REMARK                         _______ _______ _______ _____ _____    ______ ____
ROOT
ATOM      1  C   UNL     1      -0.151  -0.756   0.027  0.00  0.00    +0.059 C 
ATOM      2  C   UNL     1       1.233  -0.115   0.180  0.00  0.00    +0.014 C 
ATOM      3  C   UNL     1       1.770  -0.399  -1.137  0.00  0.00    +0.001 C 
ATOM      4  C   UNL     1       1.903   0.324   1.304  0.00  0.00    +0.001 C 
ATOM      5  C   UNL     1      -0.110   0.722   0.127  0.00  0.00    +0.001 C 
ATOM      6  C   UNL     1       0.197   1.064  -1.505  0.00  0.00    +0.001 C 
ATOM      7  C   UNL     1       0.152   2.235   0.405  0.00  0.00    +0.000 C 
ATOM      8  C   UNL     1      -1.294   1.647   0.081  0.00  0.00    +0.001 C 
ATOM      9  C   UNL     1      -1.076   0.298  -0.877  0.00  0.00    +0.015 C 
ATOM     10  C   UNL     1      -0.161  -1.956  -0.843  0.00  0.00    +0.017 C 
ENDROOT
BRANCH   1  12
ATOM     11  C   UNL     1      -1.601  -1.940   1.088  0.00  0.00    +0.107 C 
ATOM     12  N   UNL     1      -0.863  -1.125   1.149  0.00  0.00    -0.219 NA
ENDBRANCH   1  12
TORSDOF 1
