REMARK  Name = 
REMARK  4 active torsions:
REMARK  status: ('A' for Active; 'I' for Inactive)
REMARK    1  A    between atoms: C_4  and  C_5
REMARK    2  A    between atoms: C_4  and  C_7
REMARK    3  A    between atoms: N_9  and  C_10
REMARK    4  A    between atoms: C_13  and  C_14
REMARK                            x       y       z     vdW  Elec       q    Type
REMARK                         _______ _______ _______ _____ _____    ______ ____
ROOT
ATOM      1  C   UNL     1      -0.400   0.045   0.332  0.00  0.00    +0.074 A 
ATOM      2  C   UNL     1      -0.879   0.404  -0.901  0.00  0.00    +0.017 A 
ATOM      3  C   UNL     1      -2.257   0.400  -1.078  0.00  0.00    +0.005 A 
ATOM      4  C   UNL     1      -3.060  -0.131  -0.103  0.00  0.00    +0.072 A 
ATOM      5  C   UNL     1      -2.476  -0.975   0.803  0.00  0.00    +0.005 A 
ATOM      6  C   UNL     1      -1.103  -0.944   1.007  0.00  0.00    +0.017 A 
ENDROOT
BRANCH   4   7
ATOM      7  C   UNL     1      -4.530   0.066  -0.046  0.00  0.00    +0.419 C 
ATOM      8  F   UNL     1      -4.936   0.391   1.222  0.00  0.00    -0.166 F 
ATOM      9  F   UNL     1      -4.916   1.061  -0.919  0.00  0.00    -0.166 F 
ATOM     10  F   UNL     1      -5.146  -1.103  -0.446  0.00  0.00    -0.166 F 
ENDBRANCH   4   7
BRANCH   1  12
ATOM     11  C   UNL     1       1.955  -0.172  -0.340  0.00  0.00    +0.282 C 
ATOM     12  N   UNL     1       0.984   0.303   0.600  0.00  0.00    -0.175 NA
ATOM     13  O   UNL     1       1.628  -0.032  -1.558  0.00  0.00    -0.267 OA
BRANCH  11  16
ATOM     14  C   UNL     1       5.669  -0.606  -0.517  0.00  0.00    +0.078 C 
ATOM     15  C   UNL     1       4.289  -0.809   0.003  0.00  0.00    +0.188 C 
ATOM     16  C   UNL     1       3.359   0.144  -0.041  0.00  0.00    +0.158 C 
ATOM     17  O   UNL     1       3.898  -2.103   0.267  0.00  0.00    -0.290 OA
BRANCH  16  18
ATOM     18  C   UNL     1       3.804   1.511  -0.189  0.00  0.00    +0.108 C 
ATOM     19  N   UNL     1       4.116   2.550  -0.622  0.00  0.00    -0.191 NA
ENDBRANCH  16  18
ENDBRANCH  11  16
ENDBRANCH   1  12
TORSDOF 4
