REMARK  Name = 
REMARK  3 active torsions:
REMARK  status: ('A' for Active; 'I' for Inactive)
REMARK    1  A    between atoms: C_5  and  N_6
REMARK    2  A    between atoms: N_6  and  S_7
REMARK    3  A    between atoms: S_7  and  C_10
REMARK                            x       y       z     vdW  Elec       q    Type
REMARK                         _______ _______ _______ _____ _____    ______ ____
ROOT
ATOM      1  S   UNL     1      -0.341  -1.529   0.253  0.00  0.00    +0.096 S 
ATOM      2  O   UNL     1      -0.550  -2.800  -0.541  0.00  0.00    -0.148 OA
ATOM      3  O   UNL     1       0.154  -1.949   1.601  0.00  0.00    -0.148 OA
ENDROOT
BRANCH   1   4
ATOM      4  C   UNL     1      -1.880  -0.685   0.383  0.00  0.00    +0.127 A 
ATOM      5  C   UNL     1      -1.891   0.445   1.170  0.00  0.00    +0.022 A 
ATOM      6  C   UNL     1      -3.012   1.227   1.187  0.00  0.00    +0.019 A 
ATOM      7  C   UNL     1      -4.155   0.911   0.464  0.00  0.00    +0.089 A 
ATOM      8  N   UNL     1      -5.110   1.954   0.234  0.00  0.00    -0.128 NA
ATOM      9  C   UNL     1      -4.109  -0.225  -0.329  0.00  0.00    +0.019 A 
ATOM     10  C   UNL     1      -2.889  -0.853  -0.546  0.00  0.00    +0.022 A 
ENDBRANCH   1   4
BRANCH   1  11
ATOM     11  N   UNL     1       0.736  -0.495  -0.575  0.00  0.00    -0.057 NA
BRANCH  11  16
ATOM     12  C   UNL     1       4.878   2.078  -0.647  0.00  0.00    +0.055 C 
ATOM     13  C   UNL     1       3.983   0.895  -0.449  0.00  0.00    +0.098 A 
ATOM     14  C   UNL     1       2.688   0.871   0.042  0.00  0.00    +0.050 A 
ATOM     15  C   UNL     1       2.098   1.951   0.868  0.00  0.00    +0.037 C 
ATOM     16  C   UNL     1       2.127  -0.366  -0.254  0.00  0.00    +0.263 A 
ATOM     17  O   UNL     1       3.106  -1.075  -0.758  0.00  0.00    -0.336 OA
ATOM     18  N   UNL     1       4.168  -0.354  -0.943  0.00  0.00    -0.080 NA
ENDBRANCH  11  16
ENDBRANCH   1  11
TORSDOF 3
