REMARK  Name = 
REMARK  13 active torsions:
REMARK  status: ('A' for Active; 'I' for Inactive)
REMARK    1  A    between atoms: C_2  and  C_3
REMARK    2  A    between atoms: C_3  and  C_4
REMARK    3  A    between atoms: C_4  and  C_5
REMARK    4  A    between atoms: C_5  and  C_6
REMARK    5  A    between atoms: C_6  and  C_8
REMARK    6  A    between atoms: C_9  and  C_10
REMARK    7  A    between atoms: C_16  and  C_17
REMARK    8  A    between atoms: C_17  and  C_18
REMARK    9  A    between atoms: C_18  and  C_19
REMARK   10  A    between atoms: C_19  and  C_20
REMARK   11  A    between atoms: C_20  and  C_21
REMARK   12  A    between atoms: C_21  and  C_22
REMARK   13  A    between atoms: C_22  and  C_23
REMARK                            x       y       z     vdW  Elec       q    Type
REMARK                         _______ _______ _______ _____ _____    ______ ____
ROOT
ATOM      1  C   UNL     1      -1.156  -2.274  -0.606  0.00  0.00    +0.059 C 
ATOM      2  C   UNL     1      -0.006  -2.554   0.582  0.00  0.00    +0.064 C 
ATOM      3  C   UNL     1       0.000  -1.047   1.107  0.00  0.00    +0.153 C 
ATOM      4  O   UNL     1      -0.196  -0.853   2.277  0.00  0.00    -0.296 OA
ATOM      5  C   UNL     1       0.490  -0.438  -0.050  0.00  0.00    +0.098 C 
ATOM      6  C   UNL     1      -0.802  -0.669  -1.005  0.00  0.00    +0.164 C 
ATOM      7  O   UNL     1       0.044  -1.131  -2.180  0.00  0.00    -0.222 OA
ENDROOT
BRANCH   1   9
ATOM      8  C   UNL     1      -3.224  -1.056   0.002  0.00  0.00    +0.002 C 
ATOM      9  C   UNL     1      -2.232  -1.805   0.470  0.00  0.00    -0.026 C 
BRANCH   8  10
ATOM     10  C   UNL     1      -4.071  -0.398   1.226  0.00  0.00    +0.174 C 
ATOM     11  O   UNL     1      -3.136   0.803   1.289  0.00  0.00    -0.218 OA
BRANCH  10  12
ATOM     12  C   UNL     1      -5.131   0.314   0.185  0.00  0.00    +0.037 C 
BRANCH  12  13
ATOM     13  C   UNL     1      -4.604   1.545  -0.378  0.00  0.00    +0.003 C 
BRANCH  13  14
ATOM     14  C   UNL     1      -4.816   2.662   0.638  0.00  0.00    +0.000 C 
BRANCH  14  16
ATOM     15  C   UNL     1      -6.714   3.553  -0.285  0.00  0.00    +0.000 C 
ATOM     16  C   UNL     1      -5.604   3.730  -0.107  0.00  0.00    +0.000 C 
ENDBRANCH  14  16
ENDBRANCH  13  14
ENDBRANCH  12  13
ENDBRANCH  10  12
ENDBRANCH   8  10
ENDBRANCH   1   9
BRANCH   2  17
ATOM     17  C   UNL     1       1.268  -2.496  -0.442  0.00  0.00    +0.008 C 
BRANCH  17  18
ATOM     18  C   UNL     1       2.412  -2.456   0.571  0.00  0.00    +0.000 C 
BRANCH  18  19
ATOM     19  C   UNL     1       3.585  -1.735   0.135  0.00  0.00    +0.000 C 
BRANCH  19  20
ATOM     20  C   UNL     1       4.429  -0.931   0.985  0.00  0.00    +0.001 C 
BRANCH  20  21
ATOM     21  C   UNL     1       4.315   0.533   0.680  0.00  0.00    +0.012 C 
BRANCH  21  22
ATOM     22  C   UNL     1       5.504   1.255   1.303  0.00  0.00    +0.114 C 
BRANCH  22  23
ATOM     23  C   UNL     1       6.347   1.672   0.139  0.00  0.00    +0.365 C 
ATOM     24  O   UNL     1       5.984   2.797  -0.592  0.00  0.00    -0.246 OA
ATOM     25  O   UNL     1       7.315   0.981  -0.251  0.00  0.00    -0.246 OA
ENDBRANCH  22  23
ENDBRANCH  21  22
ENDBRANCH  20  21
ENDBRANCH  19  20
ENDBRANCH  18  19
ENDBRANCH  17  18
ENDBRANCH   2  17
TORSDOF 13
