REMARK  Name = 
REMARK  3 active torsions:
REMARK  status: ('A' for Active; 'I' for Inactive)
REMARK    1  A    between atoms: C_2  and  O_4
REMARK    2  A    between atoms: O_4  and  C_5
REMARK    3  A    between atoms: C_5  and  C_7
REMARK                            x       y       z     vdW  Elec       q    Type
REMARK                         _______ _______ _______ _____ _____    ______ ____
ROOT
ATOM      1  C   UNL     1      -0.309   0.311  -0.516  0.00  0.00    +0.378 C 
ATOM      2  F   UNL     1      -0.210  -1.202  -0.862  0.00  0.00    -0.194 F 
ENDROOT
BRANCH   1   3
ATOM      3  C   UNL     1      -1.649   0.034   0.497  0.00  0.00    +0.456 C 
ATOM      4  F   UNL     1      -1.271  -0.969   1.300  0.00  0.00    -0.165 F 
ATOM      5  F   UNL     1      -1.892   1.242   1.040  0.00  0.00    -0.165 F 
ATOM      6  F   UNL     1      -2.529  -0.409  -0.436  0.00  0.00    -0.165 F 
ENDBRANCH   1   3
BRANCH   1   7
ATOM      7  O   UNL     1       0.711   0.157   0.670  0.00  0.00    -0.264 OA
BRANCH   7   9
ATOM      8  F   UNL     1       2.615  -0.783   0.010  0.00  0.00    -0.166 F 
ATOM      9  C   UNL     1       1.907   0.262  -0.023  0.00  0.00    +0.452 C 
ATOM     10  F   UNL     1       2.627   1.356   0.403  0.00  0.00    -0.166 F 
ENDBRANCH   7   9
ENDBRANCH   1   7
TORSDOF 3
