REMARK  Name = 
REMARK  6 active torsions:
REMARK  status: ('A' for Active; 'I' for Inactive)
REMARK    1  A    between atoms: C_2  and  C_4
REMARK    2  A    between atoms: C_2  and  C_6
REMARK    3  A    between atoms: C_8  and  C_9
REMARK    4  A    between atoms: C_9  and  N_10
REMARK    5  A    between atoms: C_16  and  C_17
REMARK    6  A    between atoms: C_17  and  C_20
REMARK                            x       y       z     vdW  Elec       q    Type
REMARK                         _______ _______ _______ _____ _____    ______ ____
ROOT
ATOM      1  C   UNL     1      -0.967   1.218  -0.174  0.00  0.00    -0.010 A 
ATOM      2  C   UNL     1      -1.817   0.173  -0.467  0.00  0.00    -0.007 A 
ATOM      3  C   UNL     1      -1.380  -1.146  -0.488  0.00  0.00    -0.010 A 
ATOM      4  C   UNL     1      -0.009  -1.348  -0.468  0.00  0.00    -0.006 A 
ATOM      5  C   UNL     1       0.893  -0.349  -0.122  0.00  0.00    +0.002 A 
ATOM      6  C   UNL     1       0.391   0.939  -0.172  0.00  0.00    -0.006 A 
ENDROOT
BRANCH   1   8
ATOM      7  C   UNL     1      -2.319   2.040   1.712  0.00  0.00    +0.020 C 
ATOM      8  C   UNL     1      -1.514   2.446   0.484  0.00  0.00    +0.098 C 
ATOM      9  C   UNL     1      -0.382   3.321   0.994  0.00  0.00    +0.020 C 
BRANCH   8  10
ATOM     10  C   UNL     1      -2.323   3.235  -0.420  0.00  0.00    +0.075 C 
ATOM     11  N   UNL     1      -3.009   3.905  -1.041  0.00  0.00    -0.196 NA
ENDBRANCH   8  10
ENDBRANCH   1   8
BRANCH   3  12
ATOM     12  C   UNL     1      -2.348  -2.263  -0.237  0.00  0.00    +0.098 C 
ATOM     13  C   UNL     1      -2.829  -2.185   1.209  0.00  0.00    +0.020 C 
ATOM     14  C   UNL     1      -3.520  -2.226  -1.170  0.00  0.00    +0.020 C 
BRANCH  12  15
ATOM     15  C   UNL     1      -1.566  -3.504  -0.353  0.00  0.00    +0.075 C 
ATOM     16  N   UNL     1      -1.046  -4.535  -0.462  0.00  0.00    -0.196 NA
ENDBRANCH  12  15
ENDBRANCH   3  12
BRANCH   5  17
ATOM     17  C   UNL     1       2.096  -0.748   0.628  0.00  0.00    +0.156 C 
BRANCH  17  18
ATOM     18  N   UNL     1       3.329  -0.266   0.069  0.00  0.00    -0.226 N 
ATOM     19  N   UNL     1       4.470  -0.386   0.749  0.00  0.00    -0.145 NA
ATOM     20  C   UNL     1       5.430   0.288   0.116  0.00  0.00    +0.221 A 
ATOM     21  N   UNL     1       4.808   0.991  -0.839  0.00  0.00    -0.201 NA
ATOM     22  C   UNL     1       3.610   0.399  -1.050  0.00  0.00    +0.198 A 
ENDBRANCH  17  18
ENDBRANCH   5  17
TORSDOF 6
