REMARK  Name = 
REMARK  4 active torsions:
REMARK  status: ('A' for Active; 'I' for Inactive)
REMARK    1  A    between atoms: C_2  and  C_3
REMARK    2  A    between atoms: C_3  and  C_5
REMARK    3  A    between atoms: C_5  and  C_6
REMARK    4  A    between atoms: C_6  and  C_7
REMARK                            x       y       z     vdW  Elec       q    Type
REMARK                         _______ _______ _______ _____ _____    ______ ____
ROOT
ATOM      1  C   UNL     1      -0.319  -0.373   0.167  0.00  0.00    +0.035 C 
ENDROOT
BRANCH   1   2
ATOM      2  C   UNL     1      -1.469   0.786   0.551  0.00  0.00    +0.114 C 
ATOM      3  N   UNL     1      -0.988   1.715  -0.668  0.00  0.00    -0.128 NA
BRANCH   2   5
ATOM      4  C   UNL     1      -2.634  -0.795  -0.593  0.00  0.00    -0.003 C 
ATOM      5  C   UNL     1      -2.596   0.059  -0.407  0.00  0.00    -0.008 C 
ENDBRANCH   2   5
ENDBRANCH   1   2
BRANCH   1   6
ATOM      6  C   UNL     1       0.911   0.358   0.700  0.00  0.00    +0.116 C 
BRANCH   6   7
ATOM      7  C   UNL     1       2.081  -0.370   0.112  0.00  0.00    +0.365 C 
ATOM      8  O   UNL     1       2.878   0.224  -0.853  0.00  0.00    -0.246 OA
ATOM      9  O   UNL     1       2.136  -1.604   0.336  0.00  0.00    -0.246 OA
ENDBRANCH   6   7
ENDBRANCH   1   6
TORSDOF 4
