REMARK  Name = 
REMARK  16 active torsions:
REMARK  status: ('A' for Active; 'I' for Inactive)
REMARK    1  A    between atoms: C_2  and  C_3
REMARK    2  A    between atoms: C_3  and  C_4
REMARK    3  A    between atoms: C_4  and  C_5
REMARK    4  A    between atoms: C_5  and  C_6
REMARK    5  A    between atoms: C_6  and  C_7
REMARK    6  A    between atoms: C_7  and  C_8
REMARK    7  A    between atoms: C_8  and  C_9
REMARK    8  A    between atoms: C_9  and  C_10
REMARK    9  A    between atoms: C_10  and  C_11
REMARK   10  A    between atoms: C_11  and  C_12
REMARK   11  A    between atoms: C_12  and  C_13
REMARK   12  A    between atoms: C_13  and  C_14
REMARK   13  A    between atoms: C_14  and  C_15
REMARK   14  A    between atoms: C_15  and  C_16
REMARK   15  A    between atoms: C_16  and  C_17
REMARK   16  A    between atoms: C_17  and  C_18
REMARK                            x       y       z     vdW  Elec       q    Type
REMARK                         _______ _______ _______ _____ _____    ______ ____
ROOT
ATOM      1  C   UNL     1      -0.430  -1.023   0.283  0.00  0.00    +0.000 C 
ENDROOT
BRANCH   1   2
ATOM      2  C   UNL     1      -1.000   0.347   0.628  0.00  0.00    +0.000 C 
BRANCH   2   3
ATOM      3  C   UNL     1      -2.499   0.377   0.473  0.00  0.00    +0.000 C 
BRANCH   3   4
ATOM      4  C   UNL     1      -2.954  -0.855  -0.259  0.00  0.00    +0.000 C 
BRANCH   4   5
ATOM      5  C   UNL     1      -4.336  -1.301   0.125  0.00  0.00    +0.000 C 
BRANCH   5   6
ATOM      6  C   UNL     1      -4.870  -0.452   1.262  0.00  0.00    +0.000 C 
BRANCH   6   7
ATOM      7  C   UNL     1      -6.093   0.313   0.809  0.00  0.00    +0.000 C 
BRANCH   7   8
ATOM      8  C   UNL     1      -5.677   1.315  -0.233  0.00  0.00    +0.000 C 
BRANCH   8  10
ATOM      9  C   UNL     1      -6.610   2.143  -2.416  0.00  0.00    +0.000 C 
ATOM     10  C   UNL     1      -6.291   0.953  -1.556  0.00  0.00    +0.000 C 
ENDBRANCH   8  10
ENDBRANCH   7   8
ENDBRANCH   6   7
ENDBRANCH   5   6
ENDBRANCH   4   5
ENDBRANCH   3   4
ENDBRANCH   2   3
ENDBRANCH   1   2
BRANCH   1  11
ATOM     11  C   UNL     1       0.182  -0.884  -1.104  0.00  0.00    +0.000 C 
BRANCH  11  12
ATOM     12  C   UNL     1       0.948   0.433  -1.094  0.00  0.00    +0.000 C 
BRANCH  12  13
ATOM     13  C   UNL     1       1.980   0.328   0.019  0.00  0.00    +0.000 C 
BRANCH  13  14
ATOM     14  C   UNL     1       3.125  -0.534  -0.462  0.00  0.00    +0.000 C 
BRANCH  14  15
ATOM     15  C   UNL     1       3.966  -1.063   0.688  0.00  0.00    +0.001 C 
BRANCH  15  16
ATOM     16  C   UNL     1       5.143  -1.784   0.070  0.00  0.00    +0.012 C 
BRANCH  16  17
ATOM     17  C   UNL     1       6.423  -1.003   0.160  0.00  0.00    +0.114 C 
BRANCH  17  18
ATOM     18  C   UNL     1       6.203   0.470   0.026  0.00  0.00    +0.365 C 
ATOM     19  O   UNL     1       7.331   1.226  -0.309  0.00  0.00    -0.246 OA
ATOM     20  O   UNL     1       5.461   0.993   0.912  0.00  0.00    -0.246 OA
ENDBRANCH  17  18
ENDBRANCH  16  17
ENDBRANCH  15  16
ENDBRANCH  14  15
ENDBRANCH  13  14
ENDBRANCH  12  13
ENDBRANCH  11  12
ENDBRANCH   1  11
TORSDOF 16
