REMARK  Name = 
REMARK  3 active torsions:
REMARK  status: ('A' for Active; 'I' for Inactive)
REMARK    1  A    between atoms: CA_2  and  CB_3
REMARK    2  A    between atoms: CA_2  and  C_9
REMARK    3  A    between atoms: CB_3  and  CG_4
REMARK                            x       y       z     vdW  Elec       q    Type
REMARK                         _______ _______ _______ _____ _____    ______ ____
ROOT
ATOM      1  CB  HIS A   1      -0.275   0.783   0.634  0.00  0.00    +0.078 C 
ENDROOT
BRANCH   1   2
ATOM      2  CG  HIS A   1       1.041   0.376   0.048  0.00  0.00    +0.082 A 
ATOM      3  ND1 HIS A   1       1.428  -0.917   0.072  0.00  0.00    -0.227 NA
ATOM      4  CE1 HIS A   1       2.715  -1.049   0.351  0.00  0.00    +0.199 A 
ATOM      5  NE2 HIS A   1       3.224   0.198   0.230  0.00  0.00    -0.221 NA
ATOM      6  CD2 HIS A   1       2.222   1.066  -0.061  0.00  0.00    +0.115 A 
ENDBRANCH   1   2
BRANCH   1   8
ATOM      7  N   HIS A   1      -2.353   1.682   0.172  0.00  0.00    -0.120 NA
ATOM      8  CA  HIS A   1      -1.337   0.769  -0.625  0.00  0.00    +0.200 C 
BRANCH   8   9
ATOM      9  C   HIS A   1      -2.059  -0.579  -0.123  0.00  0.00    +0.382 C 
ATOM     10  OXT HIS A   1      -1.338  -1.655   0.228  0.00  0.00    -0.244 OA
ATOM     11  O   HIS A   1      -3.269  -0.674  -0.322  0.00  0.00    -0.244 OA
ENDBRANCH   8   9
ENDBRANCH   1   8
TORSDOF 3
