REMARK  Name = 
REMARK  2 active torsions:
REMARK  status: ('A' for Active; 'I' for Inactive)
REMARK    1  A    between atoms: C_6  and  C_7
REMARK    2  A    between atoms: C_7  and  C_9
REMARK                            x       y       z     vdW  Elec       q    Type
REMARK                         _______ _______ _______ _____ _____    ______ ____
ROOT
ATOM      1  C   UNL     1      -2.994  -0.832  -1.593  0.00  0.00    +0.031 C 
ATOM      2  C   UNL     1      -2.301  -0.435  -0.330  0.00  0.00    -0.026 A 
ATOM      3  C   UNL     1      -1.078   0.225  -0.421  0.00  0.00    -0.029 A 
ATOM      4  C   UNL     1      -0.955   1.205  -1.544  0.00  0.00    +0.030 C 
ATOM      5  C   UNL     1      -0.543   0.612   0.764  0.00  0.00    -0.021 A 
ATOM      6  C   UNL     1      -0.713  -0.167   1.903  0.00  0.00    -0.004 A 
ATOM      7  C   UNL     1      -1.934  -0.820   2.011  0.00  0.00    -0.001 A 
ATOM      8  C   UNL     1      -2.711  -0.987   0.878  0.00  0.00    -0.005 A 
ENDROOT
BRANCH   5   9
ATOM      9  C   UNL     1       0.909   1.357   0.706  0.00  0.00    +0.064 C 
ATOM     10  C   UNL     1       0.399   2.427  -0.469  0.00  0.00    +0.011 C 
BRANCH   9  11
ATOM     11  C   UNL     1       1.548   0.338  -0.411  0.00  0.00    +0.084 A 
ATOM     12  N   UNL     1       1.387  -0.990  -0.258  0.00  0.00    -0.226 NA
ATOM     13  C   UNL     1       2.535  -1.634  -0.578  0.00  0.00    +0.199 A 
ATOM     14  N   UNL     1       3.512  -0.758  -0.240  0.00  0.00    -0.221 NA
ATOM     15  C   UNL     1       2.938   0.459  -0.418  0.00  0.00    +0.116 A 
ENDBRANCH   9  11
ENDBRANCH   5   9
TORSDOF 2
