REMARK  Name = 
REMARK  3 active torsions:
REMARK  status: ('A' for Active; 'I' for Inactive)
REMARK    1  A    between atoms: CA_2  and  CB_3
REMARK    2  A    between atoms: CA_2  and  C_7
REMARK    3  A    between atoms: CB_3  and  CG_4
REMARK                            x       y       z     vdW  Elec       q    Type
REMARK                         _______ _______ _______ _____ _____    ______ ____
ROOT
ATOM      1  N   ASP A   1      -0.010  -1.293  -1.031  0.00  0.00    -0.120 NA
ATOM      2  CA  ASP A   1       0.283   0.220  -0.689  0.00  0.00    +0.206 C 
ENDROOT
BRANCH   2   3
ATOM      3  C   ASP A   1       1.801  -0.062  -0.226  0.00  0.00    +0.382 C 
ATOM      4  OXT ASP A   1       2.109  -1.246   0.370  0.00  0.00    -0.244 OA
ATOM      5  O   ASP A   1       2.368   0.932   0.326  0.00  0.00    -0.244 OA
ENDBRANCH   2   3
BRANCH   2   6
ATOM      6  CB  ASP A   1      -0.298   0.036   0.843  0.00  0.00    +0.145 C 
BRANCH   6   7
ATOM      7  CG  ASP A   1      -1.725   0.405   0.563  0.00  0.00    +0.367 C 
ATOM      8  OD2 ASP A   1      -2.573  -0.572   0.046  0.00  0.00    -0.246 OA
ATOM      9  OD1 ASP A   1      -1.955   1.579   0.212  0.00  0.00    -0.246 OA
ENDBRANCH   6   7
ENDBRANCH   2   6
TORSDOF 3
