REMARK  Name = 
REMARK  0 active torsions:
REMARK  status: ('A' for Active; 'I' for Inactive)
REMARK                            x       y       z     vdW  Elec       q    Type
REMARK                         _______ _______ _______ _____ _____    ______ ____
ROOT
ATOM      1  C   UNL     1       5.018  -1.050   1.429  0.00  0.00    +0.090 C 
ATOM      2  N   UNL     1       3.903  -1.467   0.617  0.00  0.00    -0.265 NA
ATOM      3  C   UNL     1       2.640  -1.397   1.306  0.00  0.00    +0.124 C 
ATOM      4  C   UNL     1       1.580  -1.934   0.358  0.00  0.00    +0.220 C 
ATOM      5  N   UNL     1       1.436  -0.948  -0.708  0.00  0.00    -0.188 N 
ATOM      6  C   UNL     1       0.144  -0.362  -0.850  0.00  0.00    +0.327 C 
ATOM      7  C   UNL     1      -0.065   0.972  -0.277  0.00  0.00    +0.117 A 
ATOM      8  C   UNL     1      -1.161   1.518   0.380  0.00  0.00    +0.153 A 
ATOM      9  C   UNL     1      -1.204   2.899   0.534  0.00  0.00    +0.039 A 
ATOM     10  C   UNL     1      -0.077   3.639   0.213  0.00  0.00    +0.015 A 
ATOM     11  C   UNL     1       1.135   2.982   0.063  0.00  0.00    +0.058 A 
ATOM     12 CL   UNL     1       2.616   3.840   0.434  0.00  0.00    -0.082 Cl
ATOM     13  O   UNL     1      -2.392   0.907   0.636  0.00  0.00    -0.449 OA
ATOM     14  C   UNL     1      -2.840  -0.324   0.148  0.00  0.00    +0.188 A 
ATOM     15  C   UNL     1      -2.201  -1.129  -0.788  0.00  0.00    +0.227 A 
ATOM     16  C   UNL     1      -2.842  -2.302  -1.120  0.00  0.00    +0.050 A 
ATOM     17  C   UNL     1      -4.157  -2.520  -0.729  0.00  0.00    +0.004 A 
ATOM     18  C   UNL     1      -4.528  -1.935   0.475  0.00  0.00    +0.003 A 
ATOM     19  C   UNL     1      -3.788  -0.886   0.995  0.00  0.00    +0.041 A 
ATOM     20  C   UNL     1       1.136   1.641  -0.296  0.00  0.00    +0.022 A 
ATOM     21  N   UNL     1      -0.819  -1.177  -1.163  0.00  0.00    -0.037 NA
ATOM     22  C   UNL     1       2.591  -0.122  -0.974  0.00  0.00    +0.220 C 
ATOM     23  C   UNL     1       3.877  -0.848  -0.684  0.00  0.00    +0.124 C 
ENDROOT
TORSDOF 0
