REMARK  Name = 
REMARK  6 active torsions:
REMARK  status: ('A' for Active; 'I' for Inactive)
REMARK    1  A    between atoms: C_2  and  C_3
REMARK    2  A    between atoms: C_3  and  C_4
REMARK    3  A    between atoms: C_4  and  C_5
REMARK    4  A    between atoms: C_5  and  C_6
REMARK    5  A    between atoms: C_6  and  C_7
REMARK    6  A    between atoms: C_7  and  C_10
REMARK                            x       y       z     vdW  Elec       q    Type
REMARK                         _______ _______ _______ _____ _____    ______ ____
ROOT
ATOM      1  C   UNL     1       0.382  -0.398  -1.663  0.00  0.00    -0.017 A 
ATOM      2  C   UNL     1      -0.431  -0.849  -0.812  0.00  0.00    +0.032 A 
ATOM      3  C   UNL     1      -1.413  -0.164  -0.063  0.00  0.00    +0.137 A 
ATOM      4  O   UNL     1      -1.990  -0.492   1.235  0.00  0.00    -0.483 OA
ATOM      5  C   UNL     1      -2.875  -0.291   2.196  0.00  0.00    +0.134 C 
ATOM      6  C   UNL     1      -3.277   1.130   1.593  0.00  0.00    +0.042 C 
ATOM      7  C   UNL     1      -1.655   1.108   1.103  0.00  0.00    +0.039 C 
ATOM      8  C   UNL     1      -1.464  -0.527   1.291  0.00  0.00    +0.069 C 
ATOM      9  C   UNL     1      -2.476  -1.355   0.387  0.00  0.00    +0.151 C 
ATOM     10  O   UNL     1      -2.280  -2.475  -0.033  0.00  0.00    -0.296 OA
ATOM     11  C   UNL     1      -3.903  -0.985   0.205  0.00  0.00    +0.065 C 
ATOM     12  C   UNL     1      -3.956   0.510   0.257  0.00  0.00    +0.012 C 
ATOM     13  C   UNL     1      -4.072  -1.027   2.584  0.00  0.00    +0.044 C 
ATOM     14  C   UNL     1      -2.198   0.008   3.546  0.00  0.00    +0.044 C 
ATOM     15  C   UNL     1      -1.829   0.962  -0.439  0.00  0.00    +0.051 A 
ATOM     16  C   UNL     1      -1.064   1.549  -1.368  0.00  0.00    +0.194 A 
ATOM     17  O   UNL     1      -1.005   2.939  -1.171  0.00  0.00    -0.287 OA
ATOM     18  C   UNL     1      -0.083   0.841  -2.084  0.00  0.00    +0.038 A 
ENDROOT
BRANCH   1  19
ATOM     19  C   UNL     1       1.746  -0.879  -1.428  0.00  0.00    +0.019 C 
ATOM     20  C   UNL     1       2.024  -1.387  -0.016  0.00  0.00    +0.004 C 
ATOM     21  C   UNL     1       1.984  -2.011  -2.368  0.00  0.00    +0.004 C 
BRANCH  19  22
ATOM     22  C   UNL     1       2.633   0.286  -1.667  0.00  0.00    +0.004 C 
BRANCH  22  23
ATOM     23  C   UNL     1       3.984  -0.244  -2.016  0.00  0.00    +0.000 C 
BRANCH  23  24
ATOM     24  C   UNL     1       5.045   0.682  -1.435  0.00  0.00    +0.000 C 
BRANCH  24  25
ATOM     25  C   UNL     1       5.780  -0.138  -0.409  0.00  0.00    +0.000 C 
BRANCH  25  27
ATOM     26  C   UNL     1       6.689   0.112   1.588  0.00  0.00    +0.000 C 
ATOM     27  C   UNL     1       5.704   0.469   0.985  0.00  0.00    +0.000 C 
ENDBRANCH  25  27
ENDBRANCH  24  25
ENDBRANCH  23  24
ENDBRANCH  22  23
ENDBRANCH  19  22
ENDBRANCH   1  19
TORSDOF 6
