REMARK  Name = 
REMARK  5 active torsions:
REMARK  status: ('A' for Active; 'I' for Inactive)
REMARK    1  A    between atoms: C_2  and  C_3
REMARK    2  A    between atoms: C_3  and  O_5
REMARK    3  A    between atoms: O_5  and  C_6
REMARK    4  A    between atoms: C_6  and  C_7
REMARK    5  A    between atoms: C_7  and  C_9
REMARK                            x       y       z     vdW  Elec       q    Type
REMARK                         _______ _______ _______ _____ _____    ______ ____
ROOT
ATOM      1  C   UNL     1      -2.606  -0.552   0.107  0.00  0.00    +0.187 C 
ATOM      2  C   UNL     1      -1.216  -0.930   0.118  0.00  0.00    +0.043 C 
ATOM      3  C   UNL     1      -0.734   0.558   0.541  0.00  0.00    +0.007 C 
ATOM      4  C   UNL     1       0.816   0.087   1.030  0.00  0.00    +0.036 C 
ATOM      5  C   UNL     1       1.374  -0.157  -0.462  0.00  0.00    +0.168 C 
ATOM      6  C   UNL     1       0.924  -1.710  -0.733  0.00  0.00    +0.182 C 
ATOM      7  O   UNL     1       1.403  -1.663  -2.171  0.00  0.00    -0.220 OA
ATOM      8  F   UNL     1       0.812   0.646  -1.340  0.00  0.00    -0.237 F 
ATOM      9  C   UNL     1       2.833  -0.062  -0.385  0.00  0.00    +0.066 C 
ATOM     10  C   UNL     1       3.474   0.583   0.716  0.00  0.00    -0.003 C 
ATOM     11  C   UNL     1       4.782   0.540   0.834  0.00  0.00    +0.036 C 
ATOM     12  C   UNL     1       5.563   0.259  -0.383  0.00  0.00    +0.195 C 
ATOM     13  C   UNL     1       4.790   0.518  -1.609  0.00  0.00    +0.038 C 
ATOM     14  O   UNL     1       6.784   0.600  -0.288  0.00  0.00    -0.287 OA
ATOM     15  C   UNL     1       2.689   1.289   1.933  0.00  0.00    +0.180 C 
ATOM     16  F   UNL     1       3.284   2.642   1.614  0.00  0.00    -0.233 F 
ATOM     17  C   UNL     1       3.403  -1.479  -0.494  0.00  0.00    +0.011 C 
ATOM     18  C   UNL     1       3.457   0.613  -1.583  0.00  0.00    -0.017 C 
ATOM     19  C   UNL     1       1.353   1.619   1.017  0.00  0.00    +0.042 C 
ATOM     20  C   UNL     1      -1.339   0.282   2.010  0.00  0.00    +0.004 C 
ATOM     21  C   UNL     1      -0.706  -1.872   1.154  0.00  0.00    +0.004 C 
ATOM     22  C   UNL     1      -0.612  -1.284  -1.172  0.00  0.00    +0.039 C 
ATOM     23  C   UNL     1      -2.897   0.052   1.587  0.00  0.00    +0.044 C 
ATOM     24  C   UNL     1      -2.974  -1.391   2.345  0.00  0.00    +0.004 C 
ENDROOT
BRANCH   1  25
ATOM     25  C   UNL     1      -3.666  -1.398  -0.335  0.00  0.00    +0.203 C 
ATOM     26  O   UNL     1      -4.378  -1.090  -1.298  0.00  0.00    -0.291 OA
BRANCH  25  27
ATOM     27  C   UNL     1      -4.342  -2.520   0.399  0.00  0.00    +0.163 C 
ATOM     28 CL   UNL     1      -3.494  -4.003  -0.033  0.00  0.00    -0.105 Cl
ENDBRANCH  25  27
ENDBRANCH   1  25
BRANCH   1  29
ATOM     29  O   UNL     1      -2.740   0.694  -0.605  0.00  0.00    -0.449 OA
BRANCH  29  30
ATOM     30  C   UNL     1      -3.830   1.528  -0.345  0.00  0.00    +0.317 C 
ATOM     31  O   UNL     1      -4.491   1.230   0.697  0.00  0.00    -0.250 OA
BRANCH  30  33
ATOM     32  C   UNL     1      -3.829   3.409  -0.440  0.00  0.00    +0.012 C 
ATOM     33  C   UNL     1      -3.887   2.964  -0.749  0.00  0.00    +0.110 C 
ENDBRANCH  30  33
ENDBRANCH  29  30
ENDBRANCH   1  29
TORSDOF 5
