REMARK  Name = 
REMARK  4 active torsions:
REMARK  status: ('A' for Active; 'I' for Inactive)
REMARK    1  A    between atoms: C_2  and  C_3
REMARK    2  A    between atoms: N_5  and  C_6
REMARK    3  A    between atoms: C_6  and  C_7
REMARK    4  A    between atoms: C_9  and  C_10
REMARK                            x       y       z     vdW  Elec       q    Type
REMARK                         _______ _______ _______ _____ _____    ______ ____
ROOT
ATOM      1  C   UNL     1       0.884  -0.371  -0.230  0.00  0.00    +0.026 C 
ATOM      2  C   UNL     1      -0.271  -1.109   0.858  0.00  0.00    +0.024 C 
ATOM      3  C   UNL     1       1.077  -0.198   1.500  0.00  0.00    +0.006 C 
ENDROOT
BRANCH   2   4
ATOM      4  C   UNL     1      -1.345   0.146   0.838  0.00  0.00    -0.023 A 
ATOM      5  C   UNL     1      -2.414  -0.196   0.012  0.00  0.00    +0.012 A 
ATOM      6  C   UNL     1      -3.133  -1.469  -0.177  0.00  0.00    +0.076 C 
ATOM      7  C   UNL     1      -4.389  -1.086  -0.936  0.00  0.00    +0.210 C 
ATOM      8  O   UNL     1      -4.231   0.278  -1.247  0.00  0.00    -0.475 OA
ATOM      9  C   UNL     1      -3.142   0.817  -0.589  0.00  0.00    +0.134 A 
ATOM     10  C   UNL     1      -2.658   2.120  -0.537  0.00  0.00    +0.037 A 
ATOM     11  C   UNL     1      -1.846   2.401   0.551  0.00  0.00    +0.003 A 
ATOM     12  C   UNL     1      -0.924   1.399   0.831  0.00  0.00    -0.004 A 
ENDBRANCH   2   4
BRANCH   1  13
ATOM     13  C   UNL     1       1.881  -1.714  -0.268  0.00  0.00    +0.115 C 
BRANCH  13  15
ATOM     14  C   UNL     1       3.993  -0.615   0.246  0.00  0.00    +0.241 C 
ATOM     15  N   UNL     1       3.062  -1.006  -0.770  0.00  0.00    -0.205 NA
ATOM     16  O   UNL     1       4.493  -1.576   0.875  0.00  0.00    -0.273 OA
BRANCH  14  18
ATOM     17  C   UNL     1       4.269   1.494   0.498  0.00  0.00    +0.010 C 
ATOM     18  C   UNL     1       4.694   0.685   0.285  0.00  0.00    +0.087 C 
ENDBRANCH  14  18
ENDBRANCH  13  15
ENDBRANCH   1  13
TORSDOF 4
