REMARK  Name = 
REMARK  5 active torsions:
REMARK  status: ('A' for Active; 'I' for Inactive)
REMARK    1  A    between atoms: N_5  and  C_6
REMARK    2  A    between atoms: C_6  and  C_7
REMARK    3  A    between atoms: C_7  and  C_8
REMARK    4  A    between atoms: C_8  and  N_9
REMARK    5  A    between atoms: C_20  and  C_21
REMARK                            x       y       z     vdW  Elec       q    Type
REMARK                         _______ _______ _______ _____ _____    ______ ____
ROOT
ATOM      1  N   UNL     1      -0.589  -0.825  -0.392  0.00  0.00    -0.286 N 
ATOM      2  C   UNL     1      -1.570   0.078   0.101  0.00  0.00    +0.058 A 
ATOM      3  C   UNL     1      -2.502  -0.268   1.063  0.00  0.00    +0.043 A 
ATOM      4  C   UNL     1      -3.803   0.213   0.974  0.00  0.00    +0.008 A 
ATOM      5  C   UNL     1      -3.947   1.410   0.285  0.00  0.00    +0.004 A 
ATOM      6  C   UNL     1      -2.839   2.096  -0.193  0.00  0.00    +0.073 A 
ATOM      7  S   UNL     1      -2.114  -1.719   2.050  0.00  0.00    -0.084 S 
ATOM      8  C   UNL     1      -1.062  -2.742   1.010  0.00  0.00    +0.043 A 
ATOM      9  C   UNL     1      -1.331  -4.098   1.062  0.00  0.00    +0.008 A 
ATOM     10  C   UNL     1      -0.953  -4.971   0.070  0.00  0.00    +0.001 A 
ATOM     11  C   UNL     1      -0.739  -4.465  -1.198  0.00  0.00    +0.001 A 
ATOM     12  C   UNL     1      -0.417  -3.116  -1.273  0.00  0.00    +0.015 A 
ATOM     13  C   UNL     1      -1.654   1.389  -0.357  0.00  0.00    +0.019 A 
ATOM     14  C   UNL     1      -0.766  -2.240  -0.252  0.00  0.00    +0.058 A 
ENDROOT
BRANCH   6  15
ATOM     15  C   UNL     1      -2.922   3.561  -0.490  0.00  0.00    +0.419 C 
ATOM     16  F   UNL     1      -3.826   4.180   0.335  0.00  0.00    -0.166 F 
ATOM     17  F   UNL     1      -3.233   3.765  -1.812  0.00  0.00    -0.166 F 
ATOM     18  F   UNL     1      -1.673   4.084  -0.171  0.00  0.00    -0.166 F 
ENDBRANCH   6  15
BRANCH   1  19
ATOM     19  C   UNL     1       0.289  -0.369  -1.466  0.00  0.00    +0.097 C 
BRANCH  19  20
ATOM     20  C   UNL     1       1.046   0.875  -1.111  0.00  0.00    +0.039 C 
BRANCH  20  21
ATOM     21  C   UNL     1       1.645   0.857   0.260  0.00  0.00    +0.074 C 
BRANCH  21  26
ATOM     22  C   UNL     1       7.088   0.241   0.050  0.00  0.00    +0.090 C 
ATOM     23  N   UNL     1       5.663   0.078   0.185  0.00  0.00    -0.269 NA
ATOM     24  C   UNL     1       4.952   0.394  -1.052  0.00  0.00    +0.090 C 
ATOM     25  C   UNL     1       3.548  -0.088  -0.895  0.00  0.00    +0.090 C 
ATOM     26  N   UNL     1       2.911   0.203   0.327  0.00  0.00    -0.270 NA
ATOM     27  C   UNL     1       3.707   0.489   1.456  0.00  0.00    +0.090 C 
ATOM     28  C   UNL     1       5.092   0.990   1.176  0.00  0.00    +0.090 C 
ENDBRANCH  21  26
ENDBRANCH  20  21
ENDBRANCH  19  20
ENDBRANCH   1  19
TORSDOF 5
