REMARK  Name = 
REMARK  18 active torsions:
REMARK  status: ('A' for Active; 'I' for Inactive)
REMARK    1  A    between atoms: C_2  and  C_3
REMARK    2  A    between atoms: C_3  and  C_4
REMARK    3  A    between atoms: C_4  and  C_5
REMARK    4  A    between atoms: C_10  and  N_11
REMARK    5  A    between atoms: N_11  and  S_12
REMARK    6  A    between atoms: C_18  and  C_19
REMARK    7  A    between atoms: C_19  and  C_21
REMARK    8  A    between atoms: C_24  and  O_25
REMARK    9  A    between atoms: O_25  and  C_26
REMARK   10  A    between atoms: C_26  and  C_27
REMARK   11  A    between atoms: C_27  and  C_28
REMARK   12  A    between atoms: C_28  and  N_29
REMARK   13  A    between atoms: N_29  and  C_30
REMARK   14  A    between atoms: N_29  and  C_34
REMARK   15  A    between atoms: C_30  and  C_31
REMARK   16  A    between atoms: C_31  and  C_32
REMARK   17  A    between atoms: C_34  and  C_35
REMARK   18  A    between atoms: C_35  and  C_36
REMARK                            x       y       z     vdW  Elec       q    Type
REMARK                         _______ _______ _______ _____ _____    ______ ____
ROOT
ATOM      1  C   UNL     1      -2.079  -0.816  -1.459  0.00  0.00    +0.198 C 
ATOM      2  O   UNL     1      -2.809  -0.432  -2.422  0.00  0.00    -0.286 OA
ENDROOT
BRANCH   1   4
ATOM      3  C   UNL     1      -2.654  -1.554   0.929  0.00  0.00    +0.126 A 
ATOM      4  C   UNL     1      -2.615  -0.638  -0.114  0.00  0.00    +0.072 A 
ATOM      5  C   UNL     1      -3.077   0.582   0.368  0.00  0.00    +0.042 A 
ATOM      6  C   UNL     1      -3.166   0.383   1.740  0.00  0.00    +0.145 A 
ATOM      7  C   UNL     1      -3.721   1.424   2.470  0.00  0.00    +0.039 A 
ATOM      8  C   UNL     1      -4.545   2.360   1.871  0.00  0.00    +0.021 A 
ATOM      9  C   UNL     1      -4.677   2.406   0.488  0.00  0.00    +0.091 A 
ATOM     10  C   UNL     1      -3.751   1.648  -0.217  0.00  0.00    +0.021 A 
ATOM     11  O   UNL     1      -2.954  -0.879   2.009  0.00  0.00    -0.458 OA
BRANCH   3  12
ATOM     12  C   UNL     1      -2.724  -3.034   0.716  0.00  0.00    +0.065 C 
BRANCH  12  13
ATOM     13  C   UNL     1      -4.201  -3.355   0.521  0.00  0.00    +0.008 C 
BRANCH  13  15
ATOM     14  C   UNL     1      -4.337  -5.670   1.255  0.00  0.00    +0.000 C 
ATOM     15  C   UNL     1      -4.324  -4.788   0.019  0.00  0.00    +0.000 C 
ENDBRANCH  13  15
ENDBRANCH  12  13
ENDBRANCH   3  12
BRANCH   9  16
ATOM     16  N   UNL     1      -5.831   2.974  -0.141  0.00  0.00    -0.101 NA
BRANCH  16  17
ATOM     17  S   UNL     1      -7.212   1.971  -0.338  0.00  0.00    +0.075 S 
ATOM     18  O   UNL     1      -6.868   0.634  -0.905  0.00  0.00    -0.153 OA
ATOM     19  O   UNL     1      -8.125   2.653  -1.323  0.00  0.00    -0.153 OA
ATOM     20  C   UNL     1      -7.974   1.744   1.241  0.00  0.00    +0.202 C 
ENDBRANCH  16  17
ENDBRANCH   9  16
ENDBRANCH   1   4
BRANCH   1  21
ATOM     21  C   UNL     1      -0.631  -0.627  -1.614  0.00  0.00    +0.039 A 
ATOM     22  C   UNL     1      -0.148   0.659  -1.404  0.00  0.00    +0.006 A 
ATOM     23  C   UNL     1       1.189   0.863  -1.100  0.00  0.00    +0.037 A 
ATOM     24  C   UNL     1       2.064  -0.215  -1.095  0.00  0.00    +0.139 A 
ATOM     25  C   UNL     1       1.519  -1.470  -0.960  0.00  0.00    +0.037 A 
ATOM     26  C   UNL     1       0.158  -1.672  -1.149  0.00  0.00    +0.006 A 
BRANCH  24  27
ATOM     27  O   UNL     1       3.410   0.007  -1.369  0.00  0.00    -0.475 OA
BRANCH  27  28
ATOM     28  C   UNL     1       3.953   1.274  -1.008  0.00  0.00    +0.207 C 
BRANCH  28  29
ATOM     29  C   UNL     1       4.277   1.275   0.480  0.00  0.00    +0.065 C 
BRANCH  29  30
ATOM     30  C   UNL     1       5.100   0.043   0.764  0.00  0.00    +0.076 C 
BRANCH  30  31
ATOM     31  N   UNL     1       6.259  -0.076  -0.080  0.00  0.00    -0.273 NA
BRANCH  31  32
ATOM     32  C   UNL     1       7.340   0.807   0.336  0.00  0.00    +0.072 C 
BRANCH  32  33
ATOM     33  C   UNL     1       7.101   2.216  -0.149  0.00  0.00    +0.017 C 
BRANCH  33  34
ATOM     34  C   UNL     1       7.741   2.491  -1.482  0.00  0.00    +0.001 C 
ATOM     35  C   UNL     1       7.006   3.625  -2.142  0.00  0.00    +0.000 C 
ENDBRANCH  33  34
ENDBRANCH  32  33
ENDBRANCH  31  32
BRANCH  31  36
ATOM     36  C   UNL     1       6.699  -1.469  -0.076  0.00  0.00    +0.072 C 
BRANCH  36  37
ATOM     37  C   UNL     1       6.987  -1.820   1.376  0.00  0.00    +0.017 C 
BRANCH  37  38
ATOM     38  C   UNL     1       8.461  -2.186   1.462  0.00  0.00    +0.001 C 
ATOM     39  C   UNL     1       9.157  -1.336   2.500  0.00  0.00    +0.000 C 
ENDBRANCH  37  38
ENDBRANCH  36  37
ENDBRANCH  31  36
ENDBRANCH  30  31
ENDBRANCH  29  30
ENDBRANCH  28  29
ENDBRANCH  27  28
ENDBRANCH  24  27
ENDBRANCH   1  21
TORSDOF 18
