REMARK  Name = 
REMARK  12 active torsions:
REMARK  status: ('A' for Active; 'I' for Inactive)
REMARK    1  A    between atoms: C_2  and  C_9
REMARK    2  A    between atoms: N_3  and  C_4
REMARK    3  A    between atoms: C_4  and  C_5
REMARK    4  A    between atoms: C_5  and  C_7
REMARK    5  A    between atoms: C_12  and  C_13
REMARK    6  A    between atoms: N_15  and  C_16
REMARK    7  A    between atoms: C_16  and  C_17
REMARK    8  A    between atoms: C_17  and  C_19
REMARK    9  A    between atoms: C_23  and  N_24
REMARK   10  A    between atoms: N_24  and  C_25
REMARK   11  A    between atoms: C_25  and  C_26
REMARK   12  A    between atoms: C_28  and  C_30
REMARK                            x       y       z     vdW  Elec       q    Type
REMARK                         _______ _______ _______ _____ _____    ______ ____
ROOT
ATOM      1  C   UNL     1       0.852  -1.124   0.196  0.00  0.00    +0.067 A 
ATOM      2  C   UNL     1       1.216   0.192   0.305  0.00  0.00    +0.049 A 
ATOM      3  I   UNL     1       3.213   0.683   0.811  0.00  0.00    -0.041 I 
ATOM      4  C   UNL     1       0.305   1.243   0.282  0.00  0.00    +0.065 A 
ATOM      5  C   UNL     1      -1.020   0.950   0.584  0.00  0.00    +0.049 A 
ATOM      6  I   UNL     1      -2.263   2.267   1.647  0.00  0.00    -0.041 I 
ATOM      7  C   UNL     1      -1.440  -0.360   0.471  0.00  0.00    +0.067 A 
ATOM      8  C   UNL     1      -0.514  -1.376   0.271  0.00  0.00    +0.040 A 
ATOM      9  I   UNL     1      -1.153  -3.376   0.519  0.00  0.00    -0.042 I 
ENDROOT
BRANCH   1  11
ATOM     10  O   UNL     1       1.358  -3.130   0.855  0.00  0.00    -0.268 OA
ATOM     11  C   UNL     1       1.768  -2.239   0.450  0.00  0.00    +0.266 C 
ATOM     12  N   UNL     1       3.088  -2.333   0.002  0.00  0.00    -0.199 NA
BRANCH  12  13
ATOM     13  C   UNL     1       3.510  -3.596  -0.547  0.00  0.00    +0.151 C 
BRANCH  13  14
ATOM     14  C   UNL     1       4.960  -3.271  -1.312  0.00  0.00    +0.206 C 
ATOM     15  O   UNL     1       4.425  -1.965  -1.931  0.00  0.00    -0.218 OA
BRANCH  14  16
ATOM     16  C   UNL     1       5.557  -2.465   0.028  0.00  0.00    +0.217 C 
ATOM     17  O   UNL     1       6.371  -1.485  -0.553  0.00  0.00    -0.218 OA
ENDBRANCH  14  16
ENDBRANCH  13  14
ENDBRANCH  12  13
ENDBRANCH   1  11
BRANCH   4  18
ATOM     18  N   UNL     1       0.718   2.615   0.323  0.00  0.00    -0.253 N 
ATOM     19  C   UNL     1      -0.032   3.644  -0.339  0.00  0.00    +0.263 C 
ATOM     20  O   UNL     1       0.130   3.690  -1.594  0.00  0.00    -0.272 OA
BRANCH  19  21
ATOM     21  C   UNL     1      -0.375   4.866   0.433  0.00  0.00    +0.267 C 
ATOM     22  O   UNL     1       0.121   6.026  -0.129  0.00  0.00    -0.210 OA
ENDBRANCH  19  21
BRANCH  18  23
ATOM     23  C   UNL     1       2.166   2.805   0.216  0.00  0.00    +0.134 C 
BRANCH  23  24
ATOM     24  C   UNL     1       2.578   4.239   0.295  0.00  0.00    +0.204 C 
ATOM     25  O   UNL     1       3.167   4.678  -0.901  0.00  0.00    -0.218 OA
ENDBRANCH  23  24
ENDBRANCH  18  23
ENDBRANCH   4  18
BRANCH   7  26
ATOM     26  C   UNL     1      -2.845  -0.592   0.165  0.00  0.00    +0.266 C 
ATOM     27  N   UNL     1      -3.856  -0.730   1.142  0.00  0.00    -0.199 NA
ATOM     28  O   UNL     1      -3.238  -0.300  -1.006  0.00  0.00    -0.268 OA
BRANCH  27  29
ATOM     29  C   UNL     1      -5.258  -0.878   0.816  0.00  0.00    +0.151 C 
BRANCH  29  30
ATOM     30  C   UNL     1      -5.131  -1.767  -0.595  0.00  0.00    +0.206 C 
ATOM     31  O   UNL     1      -6.090  -0.813  -1.332  0.00  0.00    -0.218 OA
BRANCH  30  32
ATOM     32  C   UNL     1      -6.400  -2.755  -0.133  0.00  0.00    +0.217 C 
ATOM     33  O   UNL     1      -5.887  -3.342   1.025  0.00  0.00    -0.218 OA
ENDBRANCH  30  32
ENDBRANCH  29  30
ENDBRANCH  27  29
ENDBRANCH   7  26
TORSDOF 12
