REMARK  Name = 
REMARK  3 active torsions:
REMARK  status: ('A' for Active; 'I' for Inactive)
REMARK    1  A    between atoms: C_5  and  C_6
REMARK    2  A    between atoms: N_8  and  C_9
REMARK    3  A    between atoms: C_9  and  C_10
REMARK                            x       y       z     vdW  Elec       q    Type
REMARK                         _______ _______ _______ _____ _____    ______ ____
ROOT
ATOM      1  N   UNL     1       4.928  -0.708  -0.335  0.00  0.00    -0.128 NA
ATOM      2  C   UNL     1       3.546  -0.349  -0.333  0.00  0.00    +0.089 A 
ATOM      3  C   UNL     1       2.675  -1.175   0.343  0.00  0.00    +0.018 A 
ATOM      4  C   UNL     1       1.348  -1.212  -0.029  0.00  0.00    +0.006 A 
ATOM      5  C   UNL     1       0.759  -0.116  -0.649  0.00  0.00    +0.055 A 
ATOM      6  C   UNL     1       1.646   0.802  -1.185  0.00  0.00    +0.006 A 
ATOM      7  C   UNL     1       3.005   0.525  -1.262  0.00  0.00    +0.018 A 
ENDROOT
BRANCH   5   8
ATOM      8  C   UNL     1      -0.640   0.251  -0.395  0.00  0.00    +0.265 C 
ATOM      9  N   UNL     1      -1.473  -0.531   0.435  0.00  0.00    -0.189 NA
ATOM     10  O   UNL     1      -0.944   1.478  -0.499  0.00  0.00    -0.268 OA
BRANCH   9  11
ATOM     11  C   UNL     1      -2.374   0.019   1.430  0.00  0.00    +0.229 C 
BRANCH  11  12
ATOM     12  C   UNL     1      -3.792  -0.065   1.035  0.00  0.00    +0.387 C 
ATOM     13  O   UNL     1      -4.067   0.066  -0.329  0.00  0.00    -0.244 OA
ATOM     14  O   UNL     1      -4.617  -0.675   1.774  0.00  0.00    -0.244 OA
ENDBRANCH  11  12
ENDBRANCH   9  11
ENDBRANCH   5   8
TORSDOF 3
