REMARK  Name = 
REMARK  6 active torsions:
REMARK  status: ('A' for Active; 'I' for Inactive)
REMARK    1  A    between atoms: C_2  and  N_3
REMARK    2  A    between atoms: N_3  and  C_4
REMARK    3  A    between atoms: N_3  and  C_6
REMARK    4  A    between atoms: C_6  and  C_7
REMARK    5  A    between atoms: C_7  and  N_8
REMARK    6  A    between atoms: C_9  and  C_11
REMARK                            x       y       z     vdW  Elec       q    Type
REMARK                         _______ _______ _______ _____ _____    ______ ____
ROOT
ATOM      1  N   UNL     1       0.210  -1.163   0.304  0.00  0.00    -0.200 NA
ATOM      2  C   UNL     1      -0.970  -1.663  -0.336  0.00  0.00    +0.265 C 
ATOM      3  O   UNL     1      -0.869  -2.803  -0.836  0.00  0.00    -0.268 OA
ENDROOT
BRANCH   2   4
ATOM      4  C   UNL     1      -2.234  -0.926  -0.248  0.00  0.00    +0.055 A 
ATOM      5  C   UNL     1      -2.653  -0.418   0.977  0.00  0.00    +0.006 A 
ATOM      6  C   UNL     1      -3.340   0.789   1.052  0.00  0.00    +0.018 A 
ATOM      7  C   UNL     1      -3.408   1.628  -0.048  0.00  0.00    +0.089 A 
ATOM      8  N   UNL     1      -3.247   3.043   0.068  0.00  0.00    -0.128 NA
ATOM      9  C   UNL     1      -3.282   1.005  -1.282  0.00  0.00    +0.018 A 
ATOM     10  C   UNL     1      -2.799  -0.297  -1.352  0.00  0.00    +0.006 A 
ENDBRANCH   2   4
BRANCH   1  11
ATOM     11  C   UNL     1       1.510  -1.328  -0.331  0.00  0.00    +0.133 C 
BRANCH  11  12
ATOM     12  C   UNL     1       2.310  -0.097   0.019  0.00  0.00    +0.096 C 
BRANCH  12  13
ATOM     13  N   UNL     1       3.717  -0.401   0.234  0.00  0.00    -0.271 NA
BRANCH  13  14
ATOM     14  C   UNL     1       3.978  -0.156   1.650  0.00  0.00    +0.072 C 
ATOM     15  C   UNL     1       3.017   0.902   2.176  0.00  0.00    +0.019 C 
ENDBRANCH  13  14
BRANCH  13  17
ATOM     16  C   UNL     1       3.586   1.282  -1.531  0.00  0.00    +0.019 C 
ATOM     17  C   UNL     1       4.473   0.602  -0.514  0.00  0.00    +0.072 C 
ENDBRANCH  13  17
ENDBRANCH  12  13
ENDBRANCH  11  12
ENDBRANCH   1  11
TORSDOF 6
