REMARK  Name = 
REMARK  9 active torsions:
REMARK  status: ('A' for Active; 'I' for Inactive)
REMARK    1  A    between atoms: C_2  and  C_4
REMARK    2  A    between atoms: C_8  and  C_9
REMARK    3  A    between atoms: C_12  and  N_13
REMARK    4  A    between atoms: C_14  and  C_16
REMARK    5  A    between atoms: C_16  and  N_17
REMARK    6  A    between atoms: N_17  and  C_18
REMARK    7  A    between atoms: N_17  and  C_22
REMARK    8  A    between atoms: C_18  and  C_19
REMARK    9  A    between atoms: C_22  and  C_23
REMARK                            x       y       z     vdW  Elec       q    Type
REMARK                         _______ _______ _______ _____ _____    ______ ____
ROOT
ATOM      1  N   UNL     1      -1.009   0.008  -0.592  0.00  0.00    -0.179 NA
ATOM      2  C   UNL     1       0.165  -0.305   0.167  0.00  0.00    +0.262 C 
ATOM      3  O   UNL     1       0.002  -1.204   1.046  0.00  0.00    -0.271 OA
ENDROOT
BRANCH   1   5
ATOM      4  C   UNL     1      -3.230  -0.736  -0.098  0.00  0.00    -0.007 A 
ATOM      5  C   UNL     1      -2.246   0.225   0.097  0.00  0.00    +0.065 A 
ATOM      6  C   UNL     1      -2.701   1.533   0.211  0.00  0.00    -0.007 A 
ATOM      7  C   UNL     1      -4.042   1.815   0.437  0.00  0.00    -0.003 A 
ATOM      8  C   UNL     1      -4.971   0.868   0.074  0.00  0.00    -0.001 A 
ATOM      9  C   UNL     1      -4.571  -0.417  -0.221  0.00  0.00    -0.003 A 
BRANCH   4  11
ATOM     10  C   UNL     1      -3.672  -2.780   1.212  0.00  0.00    +0.005 C 
ATOM     11  C   UNL     1      -2.804  -2.150   0.131  0.00  0.00    +0.024 C 
ATOM     12  C   UNL     1      -3.022  -2.946  -1.143  0.00  0.00    +0.005 C 
ENDBRANCH   4  11
BRANCH   6  13
ATOM     13  C   UNL     1      -1.712   2.632   0.015  0.00  0.00    +0.024 C 
ATOM     14  C   UNL     1      -0.734   2.709   1.181  0.00  0.00    +0.005 C 
ATOM     15  C   UNL     1      -2.443   3.967   0.009  0.00  0.00    +0.005 C 
ENDBRANCH   6  13
ENDBRANCH   1   5
BRANCH   2  16
ATOM     16  C   UNL     1       1.512  -0.191  -0.469  0.00  0.00    +0.161 C 
BRANCH  16  17
ATOM     17  N   UNL     1       2.487  -0.360   0.584  0.00  0.00    -0.246 NA
BRANCH  17  18
ATOM     18  C   UNL     1       3.329   0.807   0.652  0.00  0.00    +0.189 C 
BRANCH  18  19
ATOM     19  C   UNL     1       3.976   1.121  -0.647  0.00  0.00    +0.381 C 
ATOM     20  O   UNL     1       4.249   2.453  -0.964  0.00  0.00    -0.244 OA
ATOM     21  O   UNL     1       4.489   0.226  -1.370  0.00  0.00    -0.244 OA
ENDBRANCH  18  19
ENDBRANCH  17  18
BRANCH  17  22
ATOM     22  C   UNL     1       3.224  -1.584   0.353  0.00  0.00    +0.189 C 
BRANCH  22  23
ATOM     23  C   UNL     1       4.167  -1.844   1.477  0.00  0.00    +0.381 C 
ATOM     24  O   UNL     1       5.006  -0.817   1.854  0.00  0.00    -0.244 OA
ATOM     25  O   UNL     1       4.549  -3.030   1.703  0.00  0.00    -0.244 OA
ENDBRANCH  22  23
ENDBRANCH  17  22
ENDBRANCH  16  17
ENDBRANCH   2  16
TORSDOF 9
