REMARK  Name = 
REMARK  4 active torsions:
REMARK  status: ('A' for Active; 'I' for Inactive)
REMARK    1  A    between atoms: C_2  and  C_3
REMARK    2  A    between atoms: C_2  and  C_21
REMARK    3  A    between atoms: C_5  and  C_6
REMARK    4  A    between atoms: C_16  and  C_17
REMARK                            x       y       z     vdW  Elec       q    Type
REMARK                         _______ _______ _______ _____ _____    ______ ____
ROOT
ATOM      1  C   UNL     1       0.642   0.885  -0.184  0.00  0.00    +0.012 A 
ATOM      2  C   UNL     1       0.089  -0.338  -0.353  0.00  0.00    +0.016 A 
ATOM      3  C   UNL     1       0.804  -1.105  -1.262  0.00  0.00    +0.001 A 
ATOM      4  C   UNL     1       0.158  -2.115  -1.955  0.00  0.00    +0.000 A 
ATOM      5  C   UNL     1      -1.077  -2.532  -1.475  0.00  0.00    +0.005 A 
ATOM      6  C   UNL     1      -1.803  -1.694  -0.650  0.00  0.00    +0.089 A 
ATOM      7  C   UNL     1      -1.296  -0.420  -0.455  0.00  0.00    +0.085 A 
ATOM      8  N   UNL     1      -1.930   0.427   0.394  0.00  0.00    -0.241 NA
ATOM      9  C   UNL     1      -1.469   1.695   0.523  0.00  0.00    +0.152 A 
ATOM     10  C   UNL     1      -0.081   1.790   0.590  0.00  0.00    +0.021 A 
ENDROOT
BRANCH   6  11
ATOM     11  C   UNL     1      -3.079  -2.151  -0.069  0.00  0.00    +0.420 C 
ATOM     12  F   UNL     1      -3.942  -2.334  -1.140  0.00  0.00    -0.166 F 
ATOM     13  F   UNL     1      -3.576  -1.253   0.836  0.00  0.00    -0.166 F 
ATOM     14  F   UNL     1      -2.880  -3.388   0.495  0.00  0.00    -0.166 F 
ENDBRANCH   6  11
BRANCH   9  15
ATOM     15  C   UNL     1      -2.305   2.807   1.071  0.00  0.00    +0.435 C 
ATOM     16  F   UNL     1      -2.390   3.713   0.023  0.00  0.00    -0.164 F 
ATOM     17  F   UNL     1      -3.543   2.336   1.417  0.00  0.00    -0.164 F 
ATOM     18  F   UNL     1      -1.699   3.455   2.123  0.00  0.00    -0.164 F 
ENDBRANCH   9  15
BRANCH   1  20
ATOM     19  O   UNL     1       1.858   0.103   1.603  0.00  0.00    -0.217 OA
ATOM     20  C   UNL     1       2.198   0.910   0.331  0.00  0.00    +0.190 C 
BRANCH  20  21
ATOM     21  C   UNL     1       2.677  -0.533  -0.548  0.00  0.00    +0.107 C 
ATOM     22  N   UNL     1       3.721  -0.940   0.560  0.00  0.00    -0.217 NA
ATOM     23  C   UNL     1       5.001  -1.098  -0.023  0.00  0.00    +0.089 C 
ATOM     24  C   UNL     1       5.622   0.295   0.113  0.00  0.00    +0.019 C 
ATOM     25  C   UNL     1       4.535   1.173  -0.510  0.00  0.00    +0.003 C 
ATOM     26  C   UNL     1       3.765   0.311  -1.455  0.00  0.00    +0.020 C 
ENDBRANCH  20  21
ENDBRANCH   1  20
TORSDOF 4
