REMARK  Name = 
REMARK  3 active torsions:
REMARK  status: ('A' for Active; 'I' for Inactive)
REMARK    1  A    between atoms: C_2  and  C_4
REMARK    2  A    between atoms: C_4  and  C_6
REMARK    3  A    between atoms: C_6  and  C_8
REMARK                            x       y       z     vdW  Elec       q    Type
REMARK                         _______ _______ _______ _____ _____    ______ ____
ROOT
ATOM      1  C   UNL     1      -0.701   0.394   0.865  0.00  0.00    +0.287 C 
ATOM      2  O   UNL     1      -1.651   1.115  -0.105  0.00  0.00    -0.208 OA
ENDROOT
BRANCH   1   4
ATOM      3  O   UNL     1      -0.388  -1.304  -0.401  0.00  0.00    -0.243 OA
ATOM      4  C   UNL     1      -0.856  -1.004   0.018  0.00  0.00    +0.397 C 
ATOM      5  O   UNL     1      -2.152  -1.468   0.276  0.00  0.00    -0.243 OA
ENDBRANCH   1   4
BRANCH   1   6
ATOM      6  C   UNL     1       0.700   0.865  -0.097  0.00  0.00    +0.226 C 
ATOM      7  O   UNL     1       0.887   2.145   0.721  0.00  0.00    -0.217 OA
BRANCH   6   8
ATOM      8  C   UNL     1       1.727   0.028   0.908  0.00  0.00    +0.218 C 
ATOM      9  O   UNL     1       2.433  -0.769  -0.006  0.00  0.00    -0.217 OA
ENDBRANCH   6   8
ENDBRANCH   1   6
TORSDOF 3
