REMARK  Name = 
REMARK  4 active torsions:
REMARK  status: ('A' for Active; 'I' for Inactive)
REMARK    1  A    between atoms: CA_6  and  N_7
REMARK    2  A    between atoms: C_8  and  CA_10
REMARK    3  A    between atoms: CA_10  and  C_12
REMARK    4  A    between atoms: CA_22  and  C_23
REMARK                            x       y       z     vdW  Elec       q    Type
REMARK                         _______ _______ _______ _____ _____    ______ ____
ROOT
ATOM      1  C   UNL     1       3.080  -0.586   2.419  0.00  0.00    +0.013 C 
ATOM      2  C   UNL     1       3.123   0.429   1.496  0.00  0.00    +0.068 C 
ATOM      3  CA  UNL     1       4.079  -0.172   0.258  0.00  0.00    +0.189 C 
ATOM      4  N   UNL     1       2.934  -1.143  -0.269  0.00  0.00    -0.259 N 
ATOM      5  C   UNL     1       1.973  -0.171  -0.923  0.00  0.00    +0.153 C 
ATOM      6  CA  UNL     1       0.941  -1.515  -0.949  0.00  0.00    +0.200 C 
ATOM      7  C   UNL     1       2.043  -2.180   0.043  0.00  0.00    +0.249 C 
ATOM      8  O   UNL     1       2.164  -3.419   0.047  0.00  0.00    -0.273 OA
ATOM      9  S   UNL     1       1.590   0.680   0.746  0.00  0.00    -0.118 S 
ATOM     10  C   UNL     1       3.887   1.551   2.078  0.00  0.00    +0.013 C 
ENDROOT
BRANCH   3  11
ATOM     11  C   UNL     1       3.762   1.048  -0.798  0.00  0.00    +0.383 C 
ATOM     12  OXT UNL     1       4.386   0.713  -1.979  0.00  0.00    -0.244 OA
ATOM     13  O   UNL     1       3.582   2.158  -0.329  0.00  0.00    -0.244 OA
ENDBRANCH   3  11
BRANCH   6  14
ATOM     14  N   UNL     1      -0.029  -1.083   0.256  0.00  0.00    -0.194 NA
ATOM     15  C   UNL     1      -1.276  -0.725  -0.279  0.00  0.00    +0.264 C 
ATOM     16  O   UNL     1      -1.462  -0.005  -1.252  0.00  0.00    -0.271 OA
BRANCH  15  17
ATOM     17  CA  UNL     1      -2.548  -1.654   0.190  0.00  0.00    +0.191 C 
ATOM     18  N   UNL     1      -2.919  -2.038  -1.333  0.00  0.00    -0.118 NA
BRANCH  17  19
ATOM     19  C   UNL     1      -3.546  -0.362   0.253  0.00  0.00    +0.004 A 
ATOM     20  C   UNL     1      -4.588  -0.263  -0.551  0.00  0.00    +0.001 A 
ATOM     21  C   UNL     1      -5.100   1.023  -0.727  0.00  0.00    +0.042 A 
ATOM     22  C   UNL     1      -4.519   2.109  -0.078  0.00  0.00    +0.196 A 
ATOM     23  O   UNL     1      -4.305   3.321  -0.729  0.00  0.00    -0.287 OA
ATOM     24  C   UNL     1      -3.924   1.772   1.136  0.00  0.00    +0.042 A 
ATOM     25  C   UNL     1      -3.332   0.514   1.272  0.00  0.00    +0.001 A 
ENDBRANCH  17  19
ENDBRANCH  15  17
ENDBRANCH   6  14
TORSDOF 4
