REMARK  Name = 
REMARK  9 active torsions:
REMARK  status: ('A' for Active; 'I' for Inactive)
REMARK    1  A    between atoms: C_2  and  O_3
REMARK    2  A    between atoms: O_3  and  C_4
REMARK    3  A    between atoms: C_4  and  O_6
REMARK    4  A    between atoms: O_6  and  C_7
REMARK    5  A    between atoms: C_7  and  C_8
REMARK    6  A    between atoms: C_8  and  C_10
REMARK    7  A    between atoms: C_10  and  O_11
REMARK    8  A    between atoms: O_11  and  C_12
REMARK    9  A    between atoms: C_12  and  C_14
REMARK                            x       y       z     vdW  Elec       q    Type
REMARK                         _______ _______ _______ _____ _____    ______ ____
ROOT
ATOM      1  C   UNL     1       1.636   1.122  -0.105  0.00  0.00    +0.193 C 
ATOM      2  C   UNL     1       0.148   0.939  -0.109  0.00  0.00    +0.043 C 
ATOM      3  C   UNL     1       0.179  -0.662   0.230  0.00  0.00    +0.004 C 
ATOM      4  C   UNL     1      -1.428  -0.656   0.821  0.00  0.00    +0.003 C 
ATOM      5  C   UNL     1      -2.071  -0.651  -0.741  0.00  0.00    +0.038 C 
ATOM      6  C   UNL     1      -2.123   1.079  -0.749  0.00  0.00    +0.153 C 
ATOM      7  O   UNL     1      -2.710   1.103  -2.171  0.00  0.00    -0.223 OA
ATOM      8  C   UNL     1      -3.589  -0.792  -0.231  0.00  0.00    +0.036 C 
ATOM      9  C   UNL     1      -3.796  -2.186   0.205  0.00  0.00    -0.038 C 
ATOM     10  C   UNL     1      -5.052  -2.635   0.206  0.00  0.00    +0.034 C 
ATOM     11  C   UNL     1      -6.140  -1.767  -0.262  0.00  0.00    +0.195 C 
ATOM     12  C   UNL     1      -5.764  -0.677  -1.170  0.00  0.00    +0.038 C 
ATOM     13  O   UNL     1      -7.356  -2.019  -0.009  0.00  0.00    -0.287 OA
ATOM     14  C   UNL     1      -2.856  -2.686   1.257  0.00  0.00    +0.022 C 
ATOM     15  C   UNL     1      -3.838   0.157   0.872  0.00  0.00    +0.009 C 
ATOM     16  C   UNL     1      -4.476  -0.536  -1.397  0.00  0.00    -0.020 C 
ATOM     17  C   UNL     1      -1.453  -2.274   0.896  0.00  0.00    +0.004 C 
ATOM     18  C   UNL     1       0.830  -0.312   1.697  0.00  0.00    +0.004 C 
ATOM     19  C   UNL     1      -0.368   1.638   1.098  0.00  0.00    +0.004 C 
ATOM     20  C   UNL     1      -0.566   1.138  -1.366  0.00  0.00    +0.037 C 
ATOM     21  C   UNL     1       1.966   0.615   1.266  0.00  0.00    +0.048 C 
ENDROOT
BRANCH   1  22
ATOM     22  C   UNL     1       2.338   0.434  -1.200  0.00  0.00    +0.230 C 
ATOM     23  O   UNL     1       3.272   0.997  -1.772  0.00  0.00    -0.288 OA
BRANCH  22  24
ATOM     24  C   UNL     1       2.447  -1.062  -1.249  0.00  0.00    +0.276 C 
BRANCH  24  25
ATOM     25  O   UNL     1       3.774  -1.408  -0.859  0.00  0.00    -0.440 OA
BRANCH  25  26
ATOM     26  C   UNL     1       3.875  -2.505   0.004  0.00  0.00    +0.317 C 
ATOM     27  O   UNL     1       2.983  -3.405  -0.032  0.00  0.00    -0.250 OA
BRANCH  26  28
ATOM     28  C   UNL     1       5.170  -2.712   0.681  0.00  0.00    +0.110 C 
ATOM     29  C   UNL     1       6.129  -3.499  -0.178  0.00  0.00    +0.012 C 
ENDBRANCH  26  28
ENDBRANCH  25  26
ENDBRANCH  24  25
ENDBRANCH  22  24
ENDBRANCH   1  22
BRANCH   1  30
ATOM     30  O   UNL     1       1.831   2.514  -0.274  0.00  0.00    -0.418 OA
BRANCH  30  31
ATOM     31  C   UNL     1       2.688   3.276   0.477  0.00  0.00    +0.512 C 
ATOM     32  O   UNL     1       2.832   2.924   1.676  0.00  0.00    -0.203 OA
BRANCH  31  33
ATOM     33  O   UNL     1       3.314   4.341  -0.119  0.00  0.00    -0.418 OA
BRANCH  33  35
ATOM     34  C   UNL     1       3.813   5.184   1.998  0.00  0.00    +0.051 C 
ATOM     35  C   UNL     1       4.361   4.982   0.608  0.00  0.00    +0.212 C 
ENDBRANCH  33  35
ENDBRANCH  31  33
ENDBRANCH  30  31
ENDBRANCH   1  30
TORSDOF 9
