REMARK  Name = 
REMARK  7 active torsions:
REMARK  status: ('A' for Active; 'I' for Inactive)
REMARK    1  A    between atoms: C_2  and  C_3
REMARK    2  A    between atoms: C_3  and  N_4
REMARK    3  A    between atoms: N_4  and  C_5
REMARK    4  A    between atoms: C_5  and  C_6
REMARK    5  A    between atoms: C_6  and  N_7
REMARK    6  A    between atoms: N_7  and  C_8
REMARK    7  A    between atoms: C_8  and  C_9
REMARK                            x       y       z     vdW  Elec       q    Type
REMARK                         _______ _______ _______ _____ _____    ______ ____
ROOT
ATOM      1  C   UNL     1      -0.695  -1.075   0.237  0.00  0.00    +0.108 C 
ENDROOT
BRANCH   1   2
ATOM      2  N   UNL     1      -1.249   0.270   0.293  0.00  0.00    -0.215 NA
BRANCH   2   3
ATOM      3  C   UNL     1      -2.315   0.336  -0.700  0.00  0.00    +0.109 C 
BRANCH   3   5
ATOM      4  N   UNL     1      -4.004   0.985   0.838  0.00  0.00    -0.130 NA
ATOM      5  C   UNL     1      -3.589  -0.133  -0.008  0.00  0.00    +0.128 C 
ENDBRANCH   3   5
ENDBRANCH   2   3
ENDBRANCH   1   2
BRANCH   1   6
ATOM      6  C   UNL     1       0.656  -0.969  -0.460  0.00  0.00    +0.108 C 
BRANCH   6   7
ATOM      7  N   UNL     1       1.576  -0.446   0.550  0.00  0.00    -0.215 NA
BRANCH   7   8
ATOM      8  C   UNL     1       2.944  -0.792   0.250  0.00  0.00    +0.109 C 
BRANCH   8   9
ATOM      9  C   UNL     1       3.685   0.280  -0.490  0.00  0.00    +0.128 C 
ATOM     10  N   UNL     1       2.991   1.543  -0.537  0.00  0.00    -0.130 NA
ENDBRANCH   8   9
ENDBRANCH   7   8
ENDBRANCH   6   7
ENDBRANCH   1   6
TORSDOF 7
