REMARK  Name = 
REMARK  8 active torsions:
REMARK  status: ('A' for Active; 'I' for Inactive)
REMARK    1  A    between atoms: C_2  and  N_3
REMARK    2  A    between atoms: N_3  and  C_4
REMARK    3  A    between atoms: N_3  and  C_6
REMARK    4  A    between atoms: C_6  and  C_7
REMARK    5  A    between atoms: C_7  and  C_8
REMARK    6  A    between atoms: C_8  and  C_9
REMARK    7  A    between atoms: C_9  and  N_11
REMARK    8  A    between atoms: N_11  and  C_12
REMARK                            x       y       z     vdW  Elec       q    Type
REMARK                         _______ _______ _______ _____ _____    ______ ____
ROOT
ATOM      1  N   UNL     1       0.242   0.079   0.805  0.00  0.00    -0.239 NA
ENDROOT
BRANCH   1   2
ATOM      2  C   UNL     1       1.410  -0.741   0.674  0.00  0.00    +0.068 A 
ATOM      3  C   UNL     1       2.495  -0.174   0.017  0.00  0.00    +0.033 A 
ATOM      4  C   UNL     1       3.599  -0.987  -0.200  0.00  0.00    +0.083 A 
ATOM      5  C   UNL     1       4.847  -0.383  -0.303  0.00  0.00    +0.031 A 
ATOM      6  C   UNL     1       5.015   0.976  -0.154  0.00  0.00    +0.059 A 
ATOM      7  C   UNL     1       3.871   1.752  -0.260  0.00  0.00    +0.012 A 
ATOM      8 CL   UNL     1       6.608   1.676   0.005  0.00  0.00    -0.082 Cl
ATOM      9  N   UNL     1       3.480  -2.336  -0.245  0.00  0.00    -0.244 NA
ATOM     10  C   UNL     1       2.376  -2.924   0.265  0.00  0.00    +0.100 A 
ATOM     11  C   UNL     1       2.633   1.184  -0.146  0.00  0.00    +0.004 A 
ATOM     12  C   UNL     1       1.338  -2.128   0.705  0.00  0.00    +0.037 A 
ENDBRANCH   1   2
BRANCH   1  13
ATOM     13  C   UNL     1      -0.975  -0.485  -0.065  0.00  0.00    +0.093 C 
ATOM     14  C   UNL     1      -0.246  -0.003  -1.488  0.00  0.00    +0.023 C 
BRANCH  13  15
ATOM     15  C   UNL     1      -1.794   0.964   0.063  0.00  0.00    +0.023 C 
BRANCH  15  16
ATOM     16  C   UNL     1      -3.176   0.484  -0.371  0.00  0.00    +0.019 C 
BRANCH  16  17
ATOM     17  C   UNL     1      -4.021   0.199   0.840  0.00  0.00    +0.072 C 
BRANCH  17  18
ATOM     18  N   UNL     1      -5.390   0.519   0.499  0.00  0.00    -0.273 NA
BRANCH  18  19
ATOM     19  C   UNL     1      -5.895  -0.550  -0.327  0.00  0.00    +0.072 C 
ATOM     20  C   UNL     1      -6.439  -1.688   0.509  0.00  0.00    +0.019 C 
ENDBRANCH  18  19
BRANCH  18  22
ATOM     21  C   UNL     1      -4.534   2.820   0.268  0.00  0.00    +0.019 C 
ATOM     22  C   UNL     1      -5.444   1.748  -0.271  0.00  0.00    +0.072 C 
ENDBRANCH  18  22
ENDBRANCH  17  18
ENDBRANCH  16  17
ENDBRANCH  15  16
ENDBRANCH  13  15
ENDBRANCH   1  13
TORSDOF 8
