REMARK  Name = 
REMARK  5 active torsions:
REMARK  status: ('A' for Active; 'I' for Inactive)
REMARK    1  A    between atoms: C_2  and  C_3
REMARK    2  A    between atoms: C_9  and  N_10
REMARK    3  A    between atoms: C_12  and  C_13
REMARK    4  A    between atoms: C_16  and  O_17
REMARK    5  A    between atoms: O_17  and  C_18
REMARK                            x       y       z     vdW  Elec       q    Type
REMARK                         _______ _______ _______ _____ _____    ______ ____
ROOT
ATOM      1  N   UNL     1      -1.547  -0.191   0.458  0.00  0.00    -0.234 N 
ATOM      2  C   UNL     1      -1.954  -0.796  -0.640  0.00  0.00    +0.165 A 
ATOM      3  N   UNL     1      -3.064  -0.630  -1.359  0.00  0.00    -0.205 NA
ATOM      4  C   UNL     1      -3.108  -1.052  -2.641  0.00  0.00    +0.202 A 
ATOM      5  N   UNL     1      -2.160  -1.939  -3.030  0.00  0.00    -0.206 NA
ATOM      6  C   UNL     1      -0.940  -1.942  -2.438  0.00  0.00    +0.176 A 
ATOM      7  N   UNL     1       0.199  -2.537  -3.034  0.00  0.00    -0.107 NA
ATOM      8  C   UNL     1      -0.788  -1.122  -1.326  0.00  0.00    +0.090 A 
ATOM      9  C   UNL     1       0.132  -1.282  -0.294  0.00  0.00    +0.107 A 
ATOM     10  N   UNL     1      -0.351  -0.633   0.794  0.00  0.00    -0.168 NA
ENDROOT
BRANCH   1  14
ATOM     11  C   UNL     1      -6.017   1.284   0.482  0.00  0.00    +0.249 C 
ATOM     12  N   UNL     1      -4.909   0.682   1.116  0.00  0.00    -0.274 N 
ATOM     13  C   UNL     1      -3.615   0.968   0.551  0.00  0.00    +0.118 C 
ATOM     14  C   UNL     1      -2.542   0.264   1.619  0.00  0.00    +0.127 C 
ATOM     15  C   UNL     1      -3.370  -1.190   1.607  0.00  0.00    +0.028 C 
ATOM     16  C   UNL     1      -4.242  -0.951   2.836  0.00  0.00    +0.024 C 
ATOM     17  C   UNL     1      -5.138   0.190   2.451  0.00  0.00    +0.094 C 
ATOM     18  O   UNL     1      -6.188   1.010  -0.744  0.00  0.00    -0.270 OA
BRANCH  11  20
ATOM     19  C   UNL     1      -6.505   3.482   0.367  0.00  0.00    +0.005 C 
ATOM     20  C   UNL     1      -6.470   2.624   0.879  0.00  0.00    +0.058 C 
ENDBRANCH  11  20
ENDBRANCH   1  14
BRANCH   9  21
ATOM     21  C   UNL     1       1.557  -1.470  -0.598  0.00  0.00    +0.020 A 
ATOM     22  C   UNL     1       2.252  -0.464  -1.260  0.00  0.00    +0.005 A 
ATOM     23  C   UNL     1       3.515  -0.067  -0.832  0.00  0.00    +0.038 A 
ATOM     24  C   UNL     1       4.134  -0.690   0.248  0.00  0.00    +0.145 A 
ATOM     25  C   UNL     1       3.638  -1.963   0.509  0.00  0.00    +0.038 A 
ATOM     26  C   UNL     1       2.357  -2.347   0.125  0.00  0.00    +0.005 A 
BRANCH  24  27
ATOM     27  O   UNL     1       4.762   0.045   1.260  0.00  0.00    -0.453 OA
BRANCH  27  28
ATOM     28  C   UNL     1       5.763   0.960   0.916  0.00  0.00    +0.145 A 
ATOM     29  C   UNL     1       6.736   0.469   0.054  0.00  0.00    +0.037 A 
ATOM     30  C   UNL     1       7.822   1.276  -0.167  0.00  0.00    +0.003 A 
ATOM     31  C   UNL     1       7.839   2.568   0.324  0.00  0.00    +0.000 A 
ATOM     32  C   UNL     1       6.632   3.120   0.687  0.00  0.00    +0.003 A 
ATOM     33  C   UNL     1       5.570   2.323   1.077  0.00  0.00    +0.037 A 
ENDBRANCH  27  28
ENDBRANCH  24  27
ENDBRANCH   9  21
TORSDOF 5
