REMARK  Name = 
REMARK  1 active torsions:
REMARK  status: ('A' for Active; 'I' for Inactive)
REMARK    1  A    between atoms: C_11  and  C_12
REMARK                            x       y       z     vdW  Elec       q    Type
REMARK                         _______ _______ _______ _____ _____    ______ ____
ROOT
ATOM      1  O   UNL     1       0.528   3.946   0.178  0.00  0.00    -0.268 OA
ATOM      2  C   UNL     1       0.441   3.044   0.398  0.00  0.00    +0.300 C 
ATOM      3  C   UNL     1      -0.794   2.638  -0.599  0.00  0.00    +0.333 C 
ATOM      4  O   UNL     1      -1.802   3.446   0.228  0.00  0.00    -0.186 OA
ATOM      5  N   UNL     1      -1.125   1.274   0.173  0.00  0.00    -0.233 NA
ATOM      6  C   UNL     1      -0.568   0.246  -0.414  0.00  0.00    +0.080 C 
ATOM      7  C   UNL     1       0.883  -0.028  -0.338  0.00  0.00    +0.034 A 
ATOM      8  C   UNL     1       1.867   0.849   0.111  0.00  0.00    +0.075 A 
ATOM      9  C   UNL     1       3.046   0.407   0.711  0.00  0.00    +0.018 A 
ATOM     10  C   UNL     1       3.445  -0.872   0.352  0.00  0.00    +0.013 A 
ATOM     11  C   UNL     1       2.579  -1.674  -0.384  0.00  0.00    +0.058 A 
ATOM     12 CL   UNL     1       3.132  -3.311  -0.727  0.00  0.00    -0.082 Cl
ATOM     13  C   UNL     1       1.234  -1.332  -0.471  0.00  0.00    +0.014 A 
ATOM     14  N   UNL     1       1.595   2.217   0.439  0.00  0.00    -0.175 NA
ENDROOT
BRANCH   6  15
ATOM     15  C   UNL     1      -1.326  -1.006  -0.522  0.00  0.00    +0.017 A 
ATOM     16  C   UNL     1      -1.278  -1.938   0.493  0.00  0.00    +0.001 A 
ATOM     17  C   UNL     1      -2.384  -2.608   0.933  0.00  0.00    +0.000 A 
ATOM     18  C   UNL     1      -3.527  -2.472   0.192  0.00  0.00    +0.000 A 
ATOM     19  C   UNL     1      -3.517  -1.815  -1.027  0.00  0.00    +0.000 A 
ATOM     20  C   UNL     1      -2.429  -1.012  -1.338  0.00  0.00    +0.001 A 
ENDBRANCH   6  15
TORSDOF 1
