REMARK  Name = 
REMARK  12 active torsions:
REMARK  status: ('A' for Active; 'I' for Inactive)
REMARK    1  A    between atoms: C_2  and  C_3
REMARK    2  A    between atoms: C_3  and  C_4
REMARK    3  A    between atoms: C_3  and  N_7
REMARK    4  A    between atoms: N_10  and  C_11
REMARK    5  A    between atoms: C_14  and  N_15
REMARK    6  A    between atoms: N_18  and  C_19
REMARK    7  A    between atoms: C_22  and  O_23
REMARK    8  A    between atoms: O_23  and  C_24
REMARK    9  A    between atoms: C_24  and  C_25
REMARK   10  A    between atoms: C_28  and  C_29
REMARK   11  A    between atoms: C_28  and  C_35
REMARK   12  A    between atoms: C_29  and  N_30
REMARK                            x       y       z     vdW  Elec       q    Type
REMARK                         _______ _______ _______ _____ _____    ______ ____
ROOT
ATOM      1  C   UNL     1      -0.306  -0.542  -0.352  0.00  0.00    +0.048 A 
ATOM      2  C   UNL     1      -0.358  -0.410  -1.736  0.00  0.00    +0.018 A 
ATOM      3  C   UNL     1      -1.594  -0.566  -2.354  0.00  0.00    +0.038 A 
ATOM      4  C   UNL     1      -2.698  -0.986  -1.629  0.00  0.00    +0.139 A 
ATOM      5  C   UNL     1      -2.436  -1.563  -0.393  0.00  0.00    +0.038 A 
ATOM      6  C   UNL     1      -1.165  -1.504   0.167  0.00  0.00    +0.018 A 
ENDROOT
BRANCH   1  10
ATOM      7  N   UNL     1       3.128   0.221  -0.932  0.00  0.00    -0.304 N 
ATOM      8  C   UNL     1       2.071   1.188  -1.243  0.00  0.00    +0.112 C 
ATOM      9  C   UNL     1       1.278   1.267   0.059  0.00  0.00    +0.112 C 
ATOM     10  N   UNL     1       0.821  -0.078   0.401  0.00  0.00    -0.304 N 
ATOM     11  C   UNL     1       1.875  -1.071   0.594  0.00  0.00    +0.112 C 
ATOM     12  C   UNL     1       2.612  -1.135  -0.740  0.00  0.00    +0.112 C 
BRANCH   7  16
ATOM     13  C   UNL     1       6.423   1.281   1.311  0.00  0.00    +0.070 A 
ATOM     14  C   UNL     1       5.708   0.173   1.734  0.00  0.00    +0.019 A 
ATOM     15  C   UNL     1       4.516  -0.132   1.088  0.00  0.00    +0.016 A 
ATOM     16  C   UNL     1       3.991   0.687   0.115  0.00  0.00    +0.048 A 
ATOM     17  C   UNL     1       4.436   2.004   0.121  0.00  0.00    +0.016 A 
ATOM     18  C   UNL     1       5.687   2.259   0.655  0.00  0.00    +0.019 A 
BRANCH  13  22
ATOM     19  N   UNL     1       9.655   0.317   0.454  0.00  0.00    -0.200 N 
ATOM     20  C   UNL     1       8.476   0.844   0.042  0.00  0.00    +0.352 A 
ATOM     21  O   UNL     1       7.946   0.861  -1.085  0.00  0.00    -0.244 OA
ATOM     22  N   UNL     1       7.848   1.267   1.166  0.00  0.00    -0.240 N 
ATOM     23  C   UNL     1       8.694   1.014   2.177  0.00  0.00    +0.207 A 
ATOM     24  N   UNL     1       9.904   0.886   1.578  0.00  0.00    -0.144 NA
BRANCH  19  25
ATOM     25  C   UNL     1      10.666   0.049  -0.723  0.00  0.00    +0.140 C 
BRANCH  25  26
ATOM     26  C   UNL     1      10.925  -1.644  -0.318  0.00  0.00    +0.174 C 
ATOM     27  O   UNL     1      11.006  -1.388   1.190  0.00  0.00    -0.221 OA
ATOM     28  C   UNL     1       9.291  -1.973  -0.245  0.00  0.00    +0.038 C 
ENDBRANCH  25  26
BRANCH  25  30
ATOM     29  C   UNL     1      11.957   1.826   0.008  0.00  0.00    +0.002 C 
ATOM     30  C   UNL     1      12.023   0.523   0.096  0.00  0.00    +0.027 C 
ENDBRANCH  25  30
ENDBRANCH  19  25
ENDBRANCH  13  22
ENDBRANCH   7  16
ENDBRANCH   1  10
BRANCH   4  31
ATOM     31  O   UNL     1      -3.990  -0.541  -1.928  0.00  0.00    -0.475 OA
BRANCH  31  32
ATOM     32  C   UNL     1      -4.479   0.512  -1.103  0.00  0.00    +0.208 C 
BRANCH  32  33
ATOM     33  C   UNL     1      -4.863  -0.321   0.276  0.00  0.00    +0.076 C 
ATOM     34  C   UNL     1      -6.337  -0.767  -0.332  0.00  0.00    +0.040 C 
ATOM     35  C   UNL     1      -7.230  -0.320   0.787  0.00  0.00    +0.136 C 
ATOM     36  O   UNL     1      -6.401   0.255   1.764  0.00  0.00    -0.352 OA
ATOM     37  C   UNL     1      -5.538   1.024   0.965  0.00  0.00    +0.146 C 
BRANCH  35  38
ATOM     38  C   UNL     1      -8.183   0.750   0.386  0.00  0.00    +0.032 A 
ATOM     39  C   UNL     1      -8.110   1.230  -0.917  0.00  0.00    +0.141 A 
ATOM     40  F   UNL     1      -8.047   0.301  -1.891  0.00  0.00    -0.204 F 
ATOM     41  C   UNL     1      -8.466   2.551  -1.164  0.00  0.00    +0.059 A 
ATOM     42  C   UNL     1      -9.003   3.330  -0.147  0.00  0.00    +0.142 A 
ATOM     43  F   UNL     1      -8.922   4.691  -0.153  0.00  0.00    -0.204 F 
ATOM     44  C   UNL     1      -9.326   2.735   1.064  0.00  0.00    +0.030 A 
ATOM     45  C   UNL     1      -8.806   1.485   1.379  0.00  0.00    +0.003 A 
ENDBRANCH  35  38
BRANCH  35  46
ATOM     46  C   UNL     1      -7.946  -1.530   1.363  0.00  0.00    +0.160 C 
BRANCH  46  47
ATOM     47  N   UNL     1      -7.563  -2.729   0.647  0.00  0.00    -0.227 N 
ATOM     48  N   UNL     1      -6.404  -3.370   0.761  0.00  0.00    -0.145 NA
ATOM     49  C   UNL     1      -6.561  -4.666   0.423  0.00  0.00    +0.221 A 
ATOM     50  N   UNL     1      -7.809  -4.752  -0.093  0.00  0.00    -0.201 NA
ATOM     51  C   UNL     1      -8.395  -3.545  -0.025  0.00  0.00    +0.197 A 
ENDBRANCH  46  47
ENDBRANCH  35  46
ENDBRANCH  32  33
ENDBRANCH  31  32
ENDBRANCH   4  31
TORSDOF 12
