REMARK  Name = 
REMARK  16 active torsions:
REMARK  status: ('A' for Active; 'I' for Inactive)
REMARK    1  A    between atoms: C_2  and  C_3
REMARK    2  A    between atoms: C_5  and  C_6
REMARK    3  A    between atoms: C_6  and  C_8
REMARK    4  A    between atoms: C_8  and  N_9
REMARK    5  A    between atoms: N_9  and  C_10
REMARK    6  A    between atoms: C_10  and  C_11
REMARK    7  A    between atoms: C_11  and  C_12
REMARK    8  A    between atoms: C_12  and  C_13
REMARK    9  A    between atoms: C_13  and  C_14
REMARK   10  A    between atoms: C_14  and  C_15
REMARK   11  A    between atoms: C_15  and  O_16
REMARK   12  A    between atoms: O_16  and  C_17
REMARK   13  A    between atoms: C_17  and  C_18
REMARK   14  A    between atoms: C_18  and  C_19
REMARK   15  A    between atoms: C_19  and  C_20
REMARK   16  A    between atoms: C_20  and  C_21
REMARK                            x       y       z     vdW  Elec       q    Type
REMARK                         _______ _______ _______ _____ _____    ______ ____
ROOT
ATOM      1  C   UNL     1      -1.193  -0.043   0.020  0.00  0.00    +0.019 C 
ENDROOT
BRANCH   1   2
ATOM      2  C   UNL     1      -1.881   0.503  -1.225  0.00  0.00    +0.089 C 
BRANCH   2   3
ATOM      3  N   UNL     1      -1.731  -0.446  -2.317  0.00  0.00    -0.215 NA
BRANCH   3   4
ATOM      4  C   UNL     1      -3.049  -0.931  -2.708  0.00  0.00    +0.126 C 
BRANCH   4   5
ATOM      5  C   UNL     1      -3.977   0.463  -2.687  0.00  0.00    +0.192 C 
ATOM      6  O   UNL     1      -4.848  -0.052  -3.849  0.00  0.00    -0.217 OA
BRANCH   5  12
ATOM      7  C   UNL     1      -6.354   0.821   0.207  0.00  0.00    +0.049 A 
ATOM      8  C   UNL     1      -6.086  -0.305   0.975  0.00  0.00    +0.194 A 
ATOM      9  O   UNL     1      -6.399  -0.298   2.323  0.00  0.00    -0.287 OA
ATOM     10  C   UNL     1      -5.308  -1.310   0.416  0.00  0.00    +0.042 A 
ATOM     11  C   UNL     1      -4.777  -1.157  -0.858  0.00  0.00    +0.001 A 
ATOM     12  C   UNL     1      -5.059  -0.087  -1.589  0.00  0.00    +0.009 A 
ATOM     13  C   UNL     1      -5.760   0.978  -1.035  0.00  0.00    -0.000 A 
BRANCH   7  15
ATOM     14  O   UNL     1      -7.294   2.014   1.141  0.00  0.00    -0.215 OA
ATOM     15  C   UNL     1      -7.226   1.864   0.819  0.00  0.00    +0.212 C 
ENDBRANCH   7  15
ENDBRANCH   5  12
ENDBRANCH   4   5
ENDBRANCH   3   4
ENDBRANCH   2   3
ENDBRANCH   1   2
BRANCH   1  16
ATOM     16  C   UNL     1      -0.025  -0.880  -0.462  0.00  0.00    +0.002 C 
BRANCH  16  17
ATOM     17  C   UNL     1       0.929   0.117  -1.111  0.00  0.00    +0.003 C 
BRANCH  17  18
ATOM     18  C   UNL     1       2.091   0.328  -0.157  0.00  0.00    +0.032 C 
BRANCH  18  19
ATOM     19  C   UNL     1       2.552  -1.079   0.209  0.00  0.00    +0.142 C 
BRANCH  19  20
ATOM     20  O   UNL     1       3.001  -1.151   1.519  0.00  0.00    -0.354 OA
BRANCH  20  21
ATOM     21  C   UNL     1       2.462  -0.111   2.258  0.00  0.00    +0.142 C 
BRANCH  21  22
ATOM     22  C   UNL     1       3.489   0.655   3.050  0.00  0.00    +0.032 C 
BRANCH  22  23
ATOM     23  C   UNL     1       4.709   0.974   2.187  0.00  0.00    +0.007 C 
BRANCH  23  24
ATOM     24  C   UNL     1       5.398  -0.346   1.849  0.00  0.00    +0.026 C 
BRANCH  24  25
ATOM     25  C   UNL     1       6.644   0.006   1.095  0.00  0.00    -0.022 A 
ATOM     26  C   UNL     1       6.597   0.564  -0.178  0.00  0.00    -0.004 A 
ATOM     27  C   UNL     1       7.699   0.533  -1.024  0.00  0.00    -0.000 A 
ATOM     28  C   UNL     1       8.858  -0.111  -0.650  0.00  0.00    -0.000 A 
ATOM     29  C   UNL     1       8.815  -0.877   0.478  0.00  0.00    -0.000 A 
ATOM     30  C   UNL     1       7.725  -0.844   1.301  0.00  0.00    -0.004 A 
ENDBRANCH  24  25
ENDBRANCH  23  24
ENDBRANCH  22  23
ENDBRANCH  21  22
ENDBRANCH  20  21
ENDBRANCH  19  20
ENDBRANCH  18  19
ENDBRANCH  17  18
ENDBRANCH  16  17
ENDBRANCH   1  16
TORSDOF 16
