REMARK  Name = 
REMARK  0 active torsions:
REMARK  status: ('A' for Active; 'I' for Inactive)
REMARK                            x       y       z     vdW  Elec       q    Type
REMARK                         _______ _______ _______ _____ _____    ______ ____
ROOT
ATOM      1  C   UNL     1      -4.475   0.675   0.987  0.00  0.00    +0.033 C 
ATOM      2  C   UNL     1      -3.826  -0.011   0.021  0.00  0.00    +0.127 C 
ATOM      3  C   UNL     1      -2.394   0.285  -0.187  0.00  0.00    +0.026 C 
ATOM      4  C   UNL     1      -1.777  -0.829   0.841  0.00  0.00    +0.002 C 
ATOM      5  C   UNL     1      -0.297  -0.860   0.000  0.00  0.00    +0.000 C 
ATOM      6  C   UNL     1       0.252   0.474   0.907  0.00  0.00    +0.003 C 
ATOM      7  C   UNL     1      -0.371   1.552  -0.162  0.00  0.00    +0.000 C 
ATOM      8  C   UNL     1       1.725   0.489   0.202  0.00  0.00    +0.041 C 
ATOM      9  C   UNL     1       2.510  -0.543   1.221  0.00  0.00    +0.015 C 
ATOM     10  C   UNL     1       3.799  -0.674   0.194  0.00  0.00    +0.110 C 
ATOM     11  C   UNL     1       4.320   0.691   0.064  0.00  0.00    +0.317 C 
ATOM     12  O   UNL     1       3.644   1.845   0.369  0.00  0.00    -0.448 OA
ATOM     13  O   UNL     1       5.382   0.796  -0.587  0.00  0.00    -0.250 OA
ATOM     14  C   UNL     1       1.809  -1.888   0.561  0.00  0.00    +0.001 C 
ATOM     15  C   UNL     1       1.737  -0.040  -1.117  0.00  0.00    +0.004 C 
ATOM     16  C   UNL     1       2.235   1.853   0.476  0.00  0.00    +0.208 C 
ATOM     17  C   UNL     1       0.380  -1.894   1.033  0.00  0.00    +0.000 C 
ATOM     18  C   UNL     1      -2.451  -2.018  -0.065  0.00  0.00    +0.003 C 
ATOM     19  C   UNL     1      -2.039  -0.128  -1.572  0.00  0.00    +0.002 C 
ATOM     20  C   UNL     1      -1.827   1.537   0.315  0.00  0.00    +0.002 C 
ATOM     21  C   UNL     1      -3.874  -1.527   0.198  0.00  0.00    +0.030 C 
ATOM     22  O   UNL     1      -4.461   0.215  -1.212  0.00  0.00    -0.226 OA
ENDROOT
TORSDOF 0
