REMARK  Name = 
REMARK  5 active torsions:
REMARK  status: ('A' for Active; 'I' for Inactive)
REMARK    1  A    between atoms: C_2  and  C_3
REMARK    2  A    between atoms: C_3  and  C_5
REMARK    3  A    between atoms: C_5  and  C_7
REMARK    4  A    between atoms: C_7  and  C_9
REMARK    5  A    between atoms: C_9  and  C_11
REMARK                            x       y       z     vdW  Elec       q    Type
REMARK                         _______ _______ _______ _____ _____    ______ ____
ROOT
ATOM      1  C   UNL     1       0.758  -0.100  -1.081  0.00  0.00    +0.225 C 
ATOM      2  O   UNL     1       0.333  -1.548  -1.015  0.00  0.00    -0.217 OA
ENDROOT
BRANCH   1   3
ATOM      3  C   UNL     1       1.097   0.024   0.620  0.00  0.00    +0.258 C 
ATOM      4  F   UNL     1       1.885  -1.280   0.679  0.00  0.00    -0.226 F 
BRANCH   3   6
ATOM      5  O   UNL     1       3.209   0.458  -0.418  0.00  0.00    -0.285 OA
ATOM      6  C   UNL     1       2.464   0.902   0.408  0.00  0.00    +0.245 C 
ENDBRANCH   3   6
ENDBRANCH   1   3
BRANCH   1   7
ATOM      7  C   UNL     1      -0.892   0.376  -1.004  0.00  0.00    +0.218 C 
ATOM      8  O   UNL     1      -0.564   1.846  -0.894  0.00  0.00    -0.217 OA
BRANCH   7   9
ATOM      9  C   UNL     1      -1.058   0.191   0.710  0.00  0.00    +0.218 C 
ATOM     10  O   UNL     1      -1.361  -1.301   0.574  0.00  0.00    -0.217 OA
BRANCH   9  11
ATOM     11  C   UNL     1      -2.653   0.604   0.624  0.00  0.00    +0.217 C 
ATOM     12  O   UNL     1      -3.219  -0.172  -0.333  0.00  0.00    -0.217 OA
ENDBRANCH   9  11
ENDBRANCH   7   9
ENDBRANCH   1   7
TORSDOF 5
