REMARK  Name = 
REMARK  4 active torsions:
REMARK  status: ('A' for Active; 'I' for Inactive)
REMARK    1  A    between atoms: CA_6  and  N_7
REMARK    2  A    between atoms: C_8  and  C_10
REMARK    3  A    between atoms: C_10  and  C_11
REMARK    4  A    between atoms: CA_20  and  C_21
REMARK                            x       y       z     vdW  Elec       q    Type
REMARK                         _______ _______ _______ _____ _____    ______ ____
ROOT
ATOM      1  C   UNL     1      -4.581   0.385   1.536  0.00  0.00    +0.013 C 
ATOM      2  C   UNL     1      -3.522   0.564   0.883  0.00  0.00    +0.068 C 
ATOM      3  CA  UNL     1      -3.899   0.357  -0.742  0.00  0.00    +0.189 C 
ATOM      4  N   UNL     1      -2.369   0.450  -1.208  0.00  0.00    -0.259 N 
ATOM      5  C   UNL     1      -1.842  -0.900  -0.759  0.00  0.00    +0.153 C 
ATOM      6  CA  UNL     1      -0.364  -0.200  -1.219  0.00  0.00    +0.200 C 
ATOM      7  C   UNL     1      -1.159   1.193  -0.937  0.00  0.00    +0.249 C 
ATOM      8  O   UNL     1      -0.725   2.243  -1.430  0.00  0.00    -0.273 OA
ATOM      9  S   UNL     1      -2.035  -0.335   1.060  0.00  0.00    -0.118 S 
ATOM     10  C   UNL     1      -3.200   2.056   0.852  0.00  0.00    +0.013 C 
ENDROOT
BRANCH   3  11
ATOM     11  C   UNL     1      -3.969  -1.290  -0.655  0.00  0.00    +0.383 C 
ATOM     12  OXT UNL     1      -4.527  -1.797   0.484  0.00  0.00    -0.244 OA
ATOM     13  O   UNL     1      -4.540  -1.656  -1.734  0.00  0.00    -0.244 OA
ENDBRANCH   3  11
BRANCH   6  14
ATOM     14  N   UNL     1       0.306  -0.256   0.242  0.00  0.00    -0.195 NA
ATOM     15  C   UNL     1       1.735  -0.242   0.195  0.00  0.00    +0.246 C 
ATOM     16  O   UNL     1       2.325  -0.050  -0.906  0.00  0.00    -0.273 OA
BRANCH  15  17
ATOM     17  C   UNL     1       2.471  -0.173   1.479  0.00  0.00    +0.113 C 
BRANCH  17  18
ATOM     18  C   UNL     1       3.932  -0.082   1.152  0.00  0.00    -0.013 A 
ATOM     19  C   UNL     1       4.484  -1.242   0.632  0.00  0.00    -0.004 A 
ATOM     20  C   UNL     1       5.519  -1.238  -0.283  0.00  0.00    -0.000 A 
ATOM     21  C   UNL     1       6.144  -0.023  -0.505  0.00  0.00    -0.000 A 
ATOM     22  C   UNL     1       5.515   1.143  -0.144  0.00  0.00    -0.000 A 
ATOM     23  C   UNL     1       4.303   1.093   0.505  0.00  0.00    -0.004 A 
ENDBRANCH  17  18
ENDBRANCH  15  17
ENDBRANCH   6  14
TORSDOF 4
