REMARK  Name = 
REMARK  5 active torsions:
REMARK  status: ('A' for Active; 'I' for Inactive)
REMARK    1  A    between atoms: C_6  and  N_7
REMARK    2  A    between atoms: N_7  and  C_8
REMARK    3  A    between atoms: C_13  and  S_14
REMARK    4  A    between atoms: S_14  and  N_17
REMARK    5  A    between atoms: N_20  and  C_21
REMARK                            x       y       z     vdW  Elec       q    Type
REMARK                         _______ _______ _______ _____ _____    ______ ____
ROOT
ATOM      1  C   UNL     1      -1.057  -1.129   0.188  0.00  0.00    +0.093 A 
ATOM      2  C   UNL     1       0.313  -1.324   0.058  0.00  0.00    +0.163 A 
ATOM      3  C   UNL     1       0.699  -2.637  -0.178  0.00  0.00    +0.121 A 
ATOM      4  N   UNL     1      -0.134  -3.681  -0.015  0.00  0.00    -0.241 NA
ATOM      5  C   UNL     1      -1.462  -3.479  -0.188  0.00  0.00    +0.100 A 
ATOM      6  C   UNL     1      -1.934  -2.198   0.050  0.00  0.00    +0.039 A 
ENDROOT
BRANCH   2   7
ATOM      7  S   UNL     1       1.205  -0.053  -0.772  0.00  0.00    +0.107 S 
ATOM      8  O   UNL     1       0.478   1.261  -0.705  0.00  0.00    -0.146 OA
ATOM      9  O   UNL     1       1.296  -0.437  -2.233  0.00  0.00    -0.146 OA
BRANCH   7  10
ATOM     10  N   UNL     1       2.813   0.089  -0.204  0.00  0.00    -0.071 NA
ATOM     11  C   UNL     1       3.157  -0.037   1.026  0.00  0.00    +0.371 C 
ATOM     12  N   UNL     1       4.312   0.650   1.482  0.00  0.00    -0.185 NA
ATOM     13  O   UNL     1       2.321  -0.778   1.833  0.00  0.00    -0.244 OA
BRANCH  12  14
ATOM     14  C   UNL     1       5.319   0.990   0.513  0.00  0.00    +0.097 C 
ATOM     15  C   UNL     1       6.289  -0.166   0.386  0.00  0.00    +0.023 C 
ATOM     16  C   UNL     1       6.111   2.217   0.873  0.00  0.00    +0.023 C 
ENDBRANCH  12  14
ENDBRANCH   7  10
ENDBRANCH   2   7
BRANCH   1  17
ATOM     17  N   UNL     1      -1.492   0.150   0.620  0.00  0.00    -0.211 NA
BRANCH  17  21
ATOM     18  C   UNL     1      -4.190   3.888  -0.893  0.00  0.00    +0.031 C 
ATOM     19  C   UNL     1      -4.141   2.477  -0.405  0.00  0.00    -0.021 A 
ATOM     20  C   UNL     1      -3.091   1.991   0.358  0.00  0.00    +0.012 A 
ATOM     21  C   UNL     1      -2.817   0.633   0.455  0.00  0.00    +0.070 A 
ATOM     22  C   UNL     1      -3.910  -0.205   0.288  0.00  0.00    +0.016 A 
ATOM     23  C   UNL     1      -5.021   0.230  -0.420  0.00  0.00    +0.001 A 
ATOM     24  C   UNL     1      -5.066   1.548  -0.848  0.00  0.00    -0.004 A 
ENDBRANCH  17  21
ENDBRANCH   1  17
TORSDOF 5
