REMARK  Name = 
REMARK  21 active torsions:
REMARK  status: ('A' for Active; 'I' for Inactive)
REMARK    1  A    between atoms: C_2  and  C_3
REMARK    2  A    between atoms: C_3  and  C_4
REMARK    3  A    between atoms: C_4  and  C_5
REMARK    4  A    between atoms: C_5  and  C_6
REMARK    5  A    between atoms: C_6  and  C_7
REMARK    6  A    between atoms: C_7  and  C_8
REMARK    7  A    between atoms: C_8  and  C_9
REMARK    8  A    between atoms: C_9  and  C_10
REMARK    9  A    between atoms: C_10  and  C_11
REMARK   10  A    between atoms: C_11  and  C_12
REMARK   11  A    between atoms: C_12  and  C_13
REMARK   12  A    between atoms: C_13  and  C_14
REMARK   13  A    between atoms: C_14  and  C_15
REMARK   14  A    between atoms: C_15  and  C_16
REMARK   15  A    between atoms: C_16  and  N_17
REMARK   16  A    between atoms: N_17  and  C_20
REMARK   17  A    between atoms: C_20  and  C_21
REMARK   18  A    between atoms: C_21  and  N_22
REMARK   19  A    between atoms: N_22  and  C_23
REMARK   20  A    between atoms: C_23  and  C_24
REMARK   21  A    between atoms: C_27  and  O_28
REMARK                            x       y       z     vdW  Elec       q    Type
REMARK                         _______ _______ _______ _____ _____    ______ ____
ROOT
ATOM      1  N   UNL     1      -0.910  -0.409  -1.414  0.00  0.00    +0.307 N 
ATOM      2  C   UNL     1      -1.796  -0.103  -2.530  0.00  0.00    +0.171 C 
ATOM      3  C   UNL     1       0.228  -1.179  -1.876  0.00  0.00    +0.171 C 
ENDROOT
BRANCH   1   4
ATOM      4  C   UNL     1      -0.514   0.848  -0.816  0.00  0.00    +0.109 C 
BRANCH   4   5
ATOM      5  C   UNL     1       0.935   0.675  -0.379  0.00  0.00    +0.061 C 
BRANCH   5   6
ATOM      6  C   UNL     1       1.856   1.199  -1.470  0.00  0.00    +0.006 C 
BRANCH   6   7
ATOM      7  C   UNL     1       3.214   1.471  -0.838  0.00  0.00    +0.000 C 
BRANCH   7   8
ATOM      8  C   UNL     1       3.635   0.293   0.010  0.00  0.00    +0.000 C 
BRANCH   8   9
ATOM      9  C   UNL     1       4.945  -0.290  -0.466  0.00  0.00    +0.000 C 
BRANCH   9  10
ATOM     10  C   UNL     1       5.515   0.628  -1.541  0.00  0.00    +0.000 C 
BRANCH  10  11
ATOM     11  C   UNL     1       5.641  -0.107  -2.859  0.00  0.00    +0.000 C 
BRANCH  11  12
ATOM     12  C   UNL     1       6.801  -1.091  -2.792  0.00  0.00    +0.000 C 
BRANCH  12  13
ATOM     13  C   UNL     1       8.116  -0.408  -3.080  0.00  0.00    +0.000 C 
BRANCH  13  14
ATOM     14  C   UNL     1       9.056  -0.681  -1.931  0.00  0.00    +0.000 C 
BRANCH  14  15
ATOM     15  C   UNL     1       8.791   0.343  -0.833  0.00  0.00    +0.000 C 
BRANCH  15  16
ATOM     16  C   UNL     1       8.715  -0.329   0.532  0.00  0.00    +0.000 C 
BRANCH  16  17
ATOM     17  C   UNL     1      10.128  -0.620   1.022  0.00  0.00    +0.000 C 
BRANCH  17  19
ATOM     18  C   UNL     1      10.205  -0.427   3.452  0.00  0.00    +0.000 C 
ATOM     19  C   UNL     1      10.383   0.358   2.162  0.00  0.00    +0.000 C 
ENDBRANCH  17  19
ENDBRANCH  16  17
ENDBRANCH  15  16
ENDBRANCH  14  15
ENDBRANCH  13  14
ENDBRANCH  12  13
ENDBRANCH  11  12
ENDBRANCH  10  11
ENDBRANCH   9  10
ENDBRANCH   8   9
ENDBRANCH   7   8
ENDBRANCH   6   7
ENDBRANCH   5   6
ENDBRANCH   4   5
ENDBRANCH   1   4
BRANCH   1  20
ATOM     20  C   UNL     1      -1.699  -1.175  -0.460  0.00  0.00    +0.131 C 
BRANCH  20  21
ATOM     21  C   UNL     1      -1.981  -0.316   0.752  0.00  0.00    +0.155 C 
BRANCH  21  22
ATOM     22  N   UNL     1      -3.316   0.274   0.698  0.00  0.00    -0.268 N 
ATOM     23  C   UNL     1      -4.379  -0.548   0.205  0.00  0.00    +0.221 A 
ATOM     24  N   UNL     1      -5.161  -0.055  -0.769  0.00  0.00    -0.212 NA
ATOM     25  C   UNL     1      -5.853  -0.885  -1.587  0.00  0.00    +0.103 A 
ATOM     26  C   UNL     1      -5.973  -2.239  -1.299  0.00  0.00    +0.041 A 
ATOM     27  C   UNL     1      -5.090  -2.739  -0.353  0.00  0.00    +0.103 A 
ATOM     28  N   UNL     1      -4.284  -1.894   0.320  0.00  0.00    -0.212 NA
BRANCH  22  29
ATOM     29  C   UNL     1      -3.531   1.442   1.515  0.00  0.00    +0.121 C 
BRANCH  29  30
ATOM     30  C   UNL     1      -4.813   1.388   2.268  0.00  0.00    -0.002 A 
ATOM     31  C   UNL     1      -5.183   0.292   3.036  0.00  0.00    +0.001 A 
ATOM     32  C   UNL     1      -6.498  -0.154   3.019  0.00  0.00    +0.037 A 
ATOM     33  C   UNL     1      -7.492   0.525   2.325  0.00  0.00    +0.139 A 
ATOM     34  C   UNL     1      -7.171   1.830   1.968  0.00  0.00    +0.037 A 
ATOM     35  C   UNL     1      -5.847   2.245   1.911  0.00  0.00    +0.001 A 
BRANCH  33  36
ATOM     36  O   UNL     1      -8.515  -0.158   1.661  0.00  0.00    -0.471 OA
ATOM     37  C   UNL     1      -8.157  -0.784   0.438  0.00  0.00    +0.252 C 
ENDBRANCH  33  36
ENDBRANCH  29  30
ENDBRANCH  22  29
ENDBRANCH  21  22
ENDBRANCH  20  21
ENDBRANCH   1  20
TORSDOF 21
