REMARK  Name = 
REMARK  3 active torsions:
REMARK  status: ('A' for Active; 'I' for Inactive)
REMARK    1  A    between atoms: C_2  and  C_4
REMARK    2  A    between atoms: N_6  and  C_7
REMARK    3  A    between atoms: C_7  and  C_8
REMARK                            x       y       z     vdW  Elec       q    Type
REMARK                         _______ _______ _______ _____ _____    ______ ____
ROOT
ATOM      1  C   UNL     1       1.081  -0.217  -0.464  0.00  0.00    +0.252 C 
ATOM      2  N   UNL     1      -0.203  -0.486   0.067  0.00  0.00    -0.192 NA
ATOM      3  O   UNL     1       1.262   0.168  -1.611  0.00  0.00    -0.272 OA
ENDROOT
BRANCH   1   5
ATOM      4  C   UNL     1       3.453  -0.073  -0.335  0.00  0.00    +0.022 C 
ATOM      5  C   UNL     1       2.227  -0.663   0.488  0.00  0.00    +0.136 C 
ATOM      6  S   UNL     1       2.070   0.860   1.635  0.00  0.00    -0.073 S 
ENDBRANCH   1   5
BRANCH   2   7
ATOM      7  C   UNL     1      -1.389  -0.352  -0.738  0.00  0.00    +0.228 C 
BRANCH   7   8
ATOM      8  C   UNL     1      -2.521   0.154   0.085  0.00  0.00    +0.387 C 
ATOM      9  O   UNL     1      -2.930  -0.618   1.149  0.00  0.00    -0.244 OA
ATOM     10  O   UNL     1      -3.050   1.228  -0.277  0.00  0.00    -0.244 OA
ENDBRANCH   7   8
ENDBRANCH   2   7
TORSDOF 3
