REMARK  Name = 
REMARK  5 active torsions:
REMARK  status: ('A' for Active; 'I' for Inactive)
REMARK    1  A    between atoms: CA_2  and  C_3
REMARK    2  A    between atoms: CA_2  and  C_21
REMARK    3  A    between atoms: C_3  and  C_4
REMARK    4  A    between atoms: C_8  and  O_9
REMARK    5  A    between atoms: O_9  and  C_10
REMARK                            x       y       z     vdW  Elec       q    Type
REMARK                         _______ _______ _______ _____ _____    ______ ____
ROOT
ATOM      1  C   UNL     1       2.408  -0.905   0.145  0.00  0.00    -0.019 A 
ATOM      2  C   UNL     1       1.422  -1.092   1.085  0.00  0.00    +0.005 A 
ATOM      3  C   UNL     1       0.103  -1.365   0.739  0.00  0.00    +0.065 A 
ATOM      4  I   UNL     1      -1.184  -2.317   2.113  0.00  0.00    -0.039 I 
ATOM      5  C   UNL     1      -0.248  -1.183  -0.592  0.00  0.00    +0.156 A 
ATOM      6  C   UNL     1       0.734  -1.153  -1.556  0.00  0.00    +0.065 A 
ATOM      7  I   UNL     1       0.153  -1.283  -3.562  0.00  0.00    -0.039 I 
ATOM      8  C   UNL     1       2.065  -0.988  -1.194  0.00  0.00    +0.005 A 
ENDROOT
BRANCH   1   9
ATOM      9  C   UNL     1       3.830  -0.729   0.585  0.00  0.00    +0.057 C 
BRANCH   9  11
ATOM     10  N   UNL     1       5.868  -0.486  -0.549  0.00  0.00    -0.120 NA
ATOM     11  CA  UNL     1       4.436   0.233  -0.645  0.00  0.00    +0.199 C 
BRANCH  11  12
ATOM     12  C   UNL     1       4.914   1.408   0.403  0.00  0.00    +0.382 C 
ATOM     13  OXT UNL     1       3.895   1.812   1.268  0.00  0.00    -0.244 OA
ATOM     14  O   UNL     1       5.306   2.357  -0.350  0.00  0.00    -0.244 OA
ENDBRANCH  11  12
ENDBRANCH   9  11
ENDBRANCH   1   9
BRANCH   5  15
ATOM     15  O   UNL     1      -1.613  -1.205  -0.899  0.00  0.00    -0.453 OA
BRANCH  15  16
ATOM     16  C   UNL     1      -2.497  -0.397  -0.190  0.00  0.00    +0.146 A 
ATOM     17  C   UNL     1      -3.841  -0.469  -0.496  0.00  0.00    +0.046 A 
ATOM     18  C   UNL     1      -4.728   0.528  -0.124  0.00  0.00    +0.072 A 
ATOM     19  I   UNL     1      -6.792   0.392  -0.553  0.00  0.00    -0.039 I 
ATOM     20  C   UNL     1      -4.263   1.661   0.514  0.00  0.00    +0.201 A 
ATOM     21  O   UNL     1      -4.910   2.878   0.279  0.00  0.00    -0.286 OA
ATOM     22  C   UNL     1      -2.996   1.585   1.067  0.00  0.00    +0.046 A 
ATOM     23  C   UNL     1      -2.062   0.717   0.521  0.00  0.00    +0.041 A 
ENDBRANCH  15  16
ENDBRANCH   5  15
TORSDOF 5
