REMARK  Name = 
REMARK  2 active torsions:
REMARK  status: ('A' for Active; 'I' for Inactive)
REMARK    1  A    between atoms: C_2  and  C_3
REMARK    2  A    between atoms: C_3  and  C_4
REMARK                            x       y       z     vdW  Elec       q    Type
REMARK                         _______ _______ _______ _____ _____    ______ ____
ROOT
ATOM      1  C   UNL     1       0.674   0.568  -0.612  0.00  0.00    -0.017 A 
ATOM      2  C   UNL     1       0.054  -0.668  -0.639  0.00  0.00    +0.041 A 
ATOM      3  C   UNL     1      -1.273  -0.706  -0.245  0.00  0.00    +0.234 A 
ATOM      4  O   UNL     1      -2.051  -1.857  -0.399  0.00  0.00    -0.283 OA
ATOM      5  C   UNL     1      -1.860   0.322   0.483  0.00  0.00    +0.234 A 
ATOM      6  O   UNL     1      -2.682   0.045   1.579  0.00  0.00    -0.283 OA
ATOM      7  C   UNL     1      -1.283   1.579   0.377  0.00  0.00    +0.045 A 
ATOM      8  C   UNL     1      -0.015   1.690  -0.178  0.00  0.00    -0.001 A 
ENDROOT
BRANCH   1   9
ATOM      9  C   UNL     1       2.155   0.572  -0.704  0.00  0.00    +0.047 C 
BRANCH   9  11
ATOM     10  N   UNL     1       3.550  -0.740   0.769  0.00  0.00    -0.131 NA
ATOM     11  C   UNL     1       2.731  -0.806  -0.432  0.00  0.00    +0.114 C 
ENDBRANCH   9  11
ENDBRANCH   1   9
TORSDOF 2
