REMARK  Name = 
REMARK  9 active torsions:
REMARK  status: ('A' for Active; 'I' for Inactive)
REMARK    1  A    between atoms: C_4  and  C_5
REMARK    2  A    between atoms: C_8  and  N_9
REMARK    3  A    between atoms: N_10  and  C_11
REMARK    4  A    between atoms: C_18  and  S_19
REMARK    5  A    between atoms: C_26  and  S_27
REMARK    6  A    between atoms: C_36  and  N_37
REMARK    7  A    between atoms: N_38  and  C_39
REMARK    8  A    between atoms: C_46  and  S_47
REMARK    9  A    between atoms: C_54  and  S_55
REMARK                            x       y       z     vdW  Elec       q    Type
REMARK                         _______ _______ _______ _____ _____    ______ ____
ROOT
ATOM      1  C   UNL     1       3.094  -3.082   1.954  0.00  0.00    +0.033 C 
ATOM      2  C   UNL     1       2.578  -2.007   1.056  0.00  0.00    -0.002 A 
ATOM      3  C   UNL     1       2.985  -1.974  -0.272  0.00  0.00    +0.099 A 
ATOM      4  C   UNL     1       2.510  -0.898  -1.012  0.00  0.00    +0.021 A 
ATOM      5  C   UNL     1       1.373  -0.197  -0.630  0.00  0.00    +0.002 A 
ATOM      6  C   UNL     1       1.110  -0.122   0.730  0.00  0.00    -0.000 A 
ATOM      7  C   UNL     1       1.646  -1.101   1.540  0.00  0.00    -0.003 A 
ENDROOT
BRANCH   6   8
ATOM      8  C   UNL     1      -0.205   0.419   1.094  0.00  0.00    -0.000 A 
ATOM      9  C   UNL     1      -1.055  -0.256   1.962  0.00  0.00    -0.003 A 
ATOM     10  C   UNL     1      -2.422  -0.142   1.756  0.00  0.00    -0.002 A 
ATOM     11  C   UNL     1      -3.326  -1.073   2.461  0.00  0.00    +0.033 C 
ATOM     12  C   UNL     1      -2.961   0.793   0.895  0.00  0.00    +0.099 A 
ATOM     13  C   UNL     1      -2.103   1.792   0.454  0.00  0.00    +0.021 A 
ATOM     14  C   UNL     1      -0.749   1.509   0.438  0.00  0.00    +0.002 A 
BRANCH  12  15
ATOM     15  N   UNL     1      -4.301   0.760   0.445  0.00  0.00    -0.148 NA
ATOM     16  N   UNL     1      -5.008  -0.280   0.374  0.00  0.00    -0.143 NA
BRANCH  16  17
ATOM     17  C   UNL     1      -6.423  -0.150   0.356  0.00  0.00    +0.161 A 
ATOM     18  C   UNL     1      -7.168  -1.093  -0.343  0.00  0.00    +0.159 A 
ATOM     19  C   UNL     1      -8.525  -0.865  -0.528  0.00  0.00    +0.023 A 
ATOM     20  C   UNL     1      -9.138   0.313  -0.135  0.00  0.00    +0.007 A 
ATOM     21  C   UNL     1      -8.424   1.200   0.628  0.00  0.00    +0.057 A 
ATOM     22  C   UNL     1      -9.025   2.398   0.991  0.00  0.00    +0.094 A 
ATOM     23  C   UNL     1     -10.238   2.780   0.445  0.00  0.00    +0.039 A 
ATOM     24  C   UNL     1     -10.863   1.983  -0.504  0.00  0.00    +0.138 A 
ATOM     25  N   UNL     1      -8.278   3.331   1.765  0.00  0.00    -0.128 NA
ATOM     26  C   UNL     1     -10.393   0.681  -0.603  0.00  0.00    +0.021 A 
ATOM     27  C   UNL     1      -7.083   0.958   0.851  0.00  0.00    +0.217 A 
ATOM     28  O   UNL     1      -6.294   2.011   1.284  0.00  0.00    -0.285 OA
BRANCH  24  29
ATOM     29  S   UNL     1     -11.841   2.705  -1.775  0.00  0.00    +0.141 S 
ATOM     30  O   UNL     1     -10.840   3.021  -3.080  0.00  0.00    -0.043 OA
ATOM     31  O   UNL     1     -12.471   3.940  -1.224  0.00  0.00    -0.140 OA
ATOM     32  O   UNL     1     -12.883   1.713  -2.228  0.00  0.00    -0.140 OA
ENDBRANCH  24  29
BRANCH  18  33
ATOM     33  S   UNL     1      -6.568  -2.719  -0.513  0.00  0.00    +0.142 S 
ATOM     34  O   UNL     1      -5.755  -3.224   0.863  0.00  0.00    -0.043 OA
ATOM     35  O   UNL     1      -5.617  -2.780  -1.682  0.00  0.00    -0.140 OA
ATOM     36  O   UNL     1      -7.690  -3.677  -0.829  0.00  0.00    -0.140 OA
ENDBRANCH  18  33
ENDBRANCH  16  17
ENDBRANCH  12  15
ENDBRANCH   6   8
BRANCH   3  37
ATOM     37  N   UNL     1       4.322  -2.427  -0.514  0.00  0.00    -0.148 NA
ATOM     38  N   UNL     1       5.176  -1.540  -0.769  0.00  0.00    -0.143 NA
BRANCH  38  39
ATOM     39  C   UNL     1       6.576  -1.705  -0.685  0.00  0.00    +0.161 A 
ATOM     40  C   UNL     1       7.322  -1.517  -1.839  0.00  0.00    +0.159 A 
ATOM     41  C   UNL     1       8.591  -0.953  -1.814  0.00  0.00    +0.023 A 
ATOM     42  C   UNL     1       9.153  -0.584  -0.598  0.00  0.00    +0.007 A 
ATOM     43  C   UNL     1       8.479  -0.882   0.580  0.00  0.00    +0.057 A 
ATOM     44  C   UNL     1       8.992  -0.494   1.811  0.00  0.00    +0.094 A 
ATOM     45  C   UNL     1       9.856   0.592   1.799  0.00  0.00    +0.039 A 
ATOM     46  C   UNL     1      10.523   0.961   0.649  0.00  0.00    +0.138 A 
ATOM     47  N   UNL     1       8.110  -0.596   2.934  0.00  0.00    -0.128 NA
ATOM     48  C   UNL     1      10.221   0.294  -0.530  0.00  0.00    +0.021 A 
ATOM     49  C   UNL     1       7.256  -1.525   0.513  0.00  0.00    +0.217 A 
ATOM     50  O   UNL     1       6.598  -1.976   1.656  0.00  0.00    -0.285 OA
BRANCH  46  51
ATOM     51  S   UNL     1      11.405   2.483   0.637  0.00  0.00    +0.141 S 
ATOM     52  O   UNL     1      10.315   3.679   0.172  0.00  0.00    -0.043 OA
ATOM     53  O   UNL     1      12.531   2.436  -0.359  0.00  0.00    -0.140 OA
ATOM     54  O   UNL     1      11.877   2.763   2.025  0.00  0.00    -0.140 OA
ENDBRANCH  46  51
BRANCH  40  55
ATOM     55  S   UNL     1       6.472  -1.466  -3.379  0.00  0.00    +0.142 S 
ATOM     56  O   UNL     1       5.717   0.022  -3.603  0.00  0.00    -0.043 OA
ATOM     57  O   UNL     1       7.446  -1.694  -4.488  0.00  0.00    -0.140 OA
ATOM     58  O   UNL     1       5.416  -2.542  -3.390  0.00  0.00    -0.140 OA
ENDBRANCH  40  55
ENDBRANCH  38  39
ENDBRANCH   3  37
TORSDOF 9
