REMARK  Name = 
REMARK  2 active torsions:
REMARK  status: ('A' for Active; 'I' for Inactive)
REMARK    1  A    between atoms: C_23  and  C_25
REMARK    2  A    between atoms: C_25  and  C_27
REMARK                            x       y       z     vdW  Elec       q    Type
REMARK                         _______ _______ _______ _____ _____    ______ ____
ROOT
ATOM      1  C   UNL     1       1.892  -1.030   0.952  0.00  0.00    +0.003 C 
ATOM      2  C   UNL     1       1.819   0.035  -0.157  0.00  0.00    +0.037 C 
ATOM      3  C   UNL     1       3.072  -0.086  -0.818  0.00  0.00    +0.207 C 
ATOM      4  O   UNL     1       3.392   0.994  -1.603  0.00  0.00    -0.215 OA
ATOM      5  C   UNL     1       2.983  -1.403  -1.800  0.00  0.00    +0.186 C 
ATOM      6  O   UNL     1       2.318  -0.668  -2.956  0.00  0.00    -0.220 OA
ATOM      7  C   UNL     1       1.573  -1.983  -1.165  0.00  0.00    +0.036 C 
ATOM      8  C   UNL     1       0.821  -0.570  -1.276  0.00  0.00    +0.008 C 
ATOM      9  C   UNL     1      -0.338  -0.777  -0.060  0.00  0.00    +0.034 C 
ATOM     10  C   UNL     1      -1.326  -1.798  -0.835  0.00  0.00    +0.007 C 
ATOM     11  C   UNL     1      -2.507  -1.858   0.123  0.00  0.00    +0.023 C 
ATOM     12  C   UNL     1      -2.736  -0.508   0.763  0.00  0.00    -0.035 C 
ATOM     13  C   UNL     1      -2.436   0.616  -0.198  0.00  0.00    +0.064 C 
ATOM     14  C   UNL     1      -3.045   1.923   0.232  0.00  0.00    +0.011 C 
ATOM     15  C   UNL     1      -3.520   0.256  -1.205  0.00  0.00    -0.017 C 
ATOM     16  C   UNL     1      -4.761   0.143  -0.689  0.00  0.00    +0.038 C 
ATOM     17  C   UNL     1      -4.985   0.407   0.745  0.00  0.00    +0.195 C 
ATOM     18  O   UNL     1      -5.842   1.117   1.269  0.00  0.00    -0.287 OA
ATOM     19  C   UNL     1      -3.866  -0.244   1.460  0.00  0.00    +0.034 C 
ATOM     20  C   UNL     1      -1.107   0.509  -0.628  0.00  0.00    +0.168 C 
ATOM     21  F   UNL     1      -1.193   0.385  -2.032  0.00  0.00    -0.237 F 
ATOM     22  C   UNL     1      -0.117   1.783  -0.427  0.00  0.00    +0.182 C 
ATOM     23  O   UNL     1      -0.749   2.188   0.901  0.00  0.00    -0.220 OA
ATOM     24  C   UNL     1       1.129   1.093   0.401  0.00  0.00    +0.039 C 
ENDROOT
BRANCH   3  25
ATOM     25  C   UNL     1       4.174  -0.519   0.112  0.00  0.00    +0.213 C 
ATOM     26  O   UNL     1       4.445  -1.710   0.280  0.00  0.00    -0.291 OA
BRANCH  25  27
ATOM     27  C   UNL     1       5.463   0.217   0.287  0.00  0.00    +0.248 C 
ATOM     28  O   UNL     1       5.447   1.490  -0.205  0.00  0.00    -0.212 OA
ENDBRANCH  25  27
ENDBRANCH   3  25
TORSDOF 2
