REMARK  Name = 
REMARK  4 active torsions:
REMARK  status: ('A' for Active; 'I' for Inactive)
REMARK    1  A    between atoms: C_2  and  C_3
REMARK    2  A    between atoms: C_2  and  C_7
REMARK    3  A    between atoms: C_3  and  N_4
REMARK    4  A    between atoms: C_7  and  N_8
REMARK                            x       y       z     vdW  Elec       q    Type
REMARK                         _______ _______ _______ _____ _____    ______ ____
ROOT
ATOM      1  N   UNL     1      -0.206  -0.072  -0.189  0.00  0.00    -0.287 N 
ATOM      2  C   UNL     1      -0.810   1.217  -0.004  0.00  0.00    +0.048 A 
ATOM      3  C   UNL     1      -2.150   1.588   0.012  0.00  0.00    -0.008 A 
ATOM      4  C   UNL     1      -2.486   2.922   0.199  0.00  0.00    -0.003 A 
ATOM      5  C   UNL     1      -1.507   3.899   0.333  0.00  0.00    -0.000 A 
ATOM      6  C   UNL     1      -0.196   3.450   0.414  0.00  0.00    +0.001 A 
ATOM      7  C   UNL     1      -3.281   0.871  -0.652  0.00  0.00    +0.032 C 
ATOM      8  C   UNL     1      -3.433  -0.511  -0.052  0.00  0.00    +0.032 C 
ATOM      9  C   UNL     1      -2.358  -1.431  -0.540  0.00  0.00    -0.008 A 
ATOM     10  C   UNL     1      -2.877  -2.719  -0.617  0.00  0.00    -0.003 A 
ATOM     11  C   UNL     1      -1.982  -3.778  -0.711  0.00  0.00    -0.000 A 
ATOM     12  C   UNL     1      -0.667  -3.492  -1.053  0.00  0.00    +0.001 A 
ATOM     13  C   UNL     1      -0.129  -2.235  -0.862  0.00  0.00    +0.015 A 
ATOM     14  C   UNL     1       0.102   2.096   0.524  0.00  0.00    +0.015 A 
ATOM     15  C   UNL     1      -0.988  -1.224  -0.532  0.00  0.00    +0.048 A 
ENDROOT
BRANCH   1  16
ATOM     16  C   UNL     1       1.002  -0.362   0.580  0.00  0.00    +0.097 C 
BRANCH  16  18
ATOM     17  C   UNL     1       2.835  -1.870   0.449  0.00  0.00    +0.003 C 
ATOM     18  C   UNL     1       2.154  -0.735  -0.527  0.00  0.00    +0.036 C 
BRANCH  18  19
ATOM     19  C   UNL     1       3.167   0.433   0.030  0.00  0.00    +0.074 C 
BRANCH  19  20
ATOM     20  N   UNL     1       4.088   0.587  -1.066  0.00  0.00    -0.270 NA
ATOM     21  C   UNL     1       4.712   1.877  -1.140  0.00  0.00    +0.090 C 
ATOM     22  C   UNL     1       5.012  -0.509  -1.197  0.00  0.00    +0.090 C 
ENDBRANCH  19  20
ENDBRANCH  18  19
ENDBRANCH  16  18
ENDBRANCH   1  16
TORSDOF 4
