REMARK  Name = 
REMARK  6 active torsions:
REMARK  status: ('A' for Active; 'I' for Inactive)
REMARK    1  A    between atoms: C_2  and  N_3
REMARK    2  A    between atoms: N_3  and  C_4
REMARK    3  A    between atoms: C_4  and  C_5
REMARK    4  A    between atoms: C_11  and  C_13
REMARK    5  A    between atoms: C_13  and  C_14
REMARK    6  A    between atoms: C_13  and  C_16
REMARK                            x       y       z     vdW  Elec       q    Type
REMARK                         _______ _______ _______ _____ _____    ______ ____
ROOT
ATOM      1  N   UNL     1       0.666  -1.183  -0.218  0.00  0.00    -0.275 N 
ATOM      2  C   UNL     1      -0.681  -0.931  -0.620  0.00  0.00    +0.232 C 
ATOM      3  O   UNL     1      -0.928  -0.319  -1.646  0.00  0.00    -0.274 OA
ENDROOT
BRANCH   1   5
ATOM      4  C   UNL     1       0.856  -3.594  -0.182  0.00  0.00    +0.023 C 
ATOM      5  C   UNL     1       0.914  -2.325   0.656  0.00  0.00    +0.094 C 
ENDBRANCH   1   5
BRANCH   2   6
ATOM      6  C   UNL     1      -1.707  -0.921   0.615  0.00  0.00    +0.132 C 
BRANCH   6   7
ATOM      7  C   UNL     1      -2.379   0.490   0.217  0.00  0.00    -0.011 A 
ATOM      8  C   UNL     1      -3.732   0.598   0.325  0.00  0.00    -0.004 A 
ATOM      9  C   UNL     1      -4.276   1.873   0.256  0.00  0.00    -0.000 A 
ATOM     10  C   UNL     1      -3.602   2.863   0.921  0.00  0.00    -0.000 A 
ATOM     11  C   UNL     1      -2.287   2.647   1.294  0.00  0.00    -0.000 A 
ATOM     12  C   UNL     1      -1.665   1.470   0.904  0.00  0.00    -0.004 A 
ENDBRANCH   6   7
BRANCH   6  13
ATOM     13  C   UNL     1      -2.856  -1.822  -0.120  0.00  0.00    +0.195 C 
ATOM     14  O   UNL     1      -2.671  -1.906  -1.437  0.00  0.00    -0.220 OA
ENDBRANCH   6  13
ENDBRANCH   2   6
BRANCH   1  15
ATOM     15  C   UNL     1       1.722  -0.860  -1.152  0.00  0.00    +0.120 C 
BRANCH  15  16
ATOM     16  C   UNL     1       2.613   0.176  -0.547  0.00  0.00    +0.001 A 
ATOM     17  C   UNL     1       3.648   0.639  -1.344  0.00  0.00    +0.018 A 
ATOM     18  C   UNL     1       4.799   1.088  -0.722  0.00  0.00    +0.099 A 
ATOM     19  N   UNL     1       4.918   1.109   0.621  0.00  0.00    -0.242 NA
ATOM     20  C   UNL     1       3.960   0.507   1.364  0.00  0.00    +0.099 A 
ATOM     21  C   UNL     1       2.687   0.399   0.814  0.00  0.00    +0.018 A 
ENDBRANCH  15  16
ENDBRANCH   1  15
TORSDOF 6
