REMARK  Name = 
REMARK  1 active torsions:
REMARK  status: ('A' for Active; 'I' for Inactive)
REMARK    1  A    between atoms: N_2  and  C_3
REMARK                            x       y       z     vdW  Elec       q    Type
REMARK                         _______ _______ _______ _____ _____    ______ ____
ROOT
ATOM      1  C   UNL     1       0.430   0.328   0.451  0.00  0.00    +0.059 C 
ATOM      2  C   UNL     1       0.197   0.372  -0.946  0.00  0.00    +0.014 C 
ATOM      3  C   UNL     1       1.138  -0.230  -1.896  0.00  0.00    +0.001 C 
ATOM      4  C   UNL     1      -0.303   1.746  -1.384  0.00  0.00    +0.001 C 
ATOM      5  C   UNL     1      -1.166  -0.493  -1.175  0.00  0.00    +0.001 C 
ATOM      6  C   UNL     1      -1.938   0.488  -0.147  0.00  0.00    +0.001 C 
ATOM      7  C   UNL     1      -0.756  -1.653  -0.112  0.00  0.00    +0.000 C 
ATOM      8  C   UNL     1      -1.255  -1.248   1.173  0.00  0.00    +0.001 C 
ATOM      9  C   UNL     1      -1.022   0.365   1.182  0.00  0.00    +0.015 C 
ATOM     10  C   UNL     1       0.974   1.695   0.881  0.00  0.00    +0.017 C 
ENDROOT
BRANCH   1  12
ATOM     11  C   UNL     1       2.451  -0.765   0.885  0.00  0.00    +0.107 C 
ATOM     12  N   UNL     1       1.251  -0.604   1.088  0.00  0.00    -0.219 NA
ENDBRANCH   1  12
TORSDOF 1
