REMARK  Name = 
REMARK  2 active torsions:
REMARK  status: ('A' for Active; 'I' for Inactive)
REMARK    1  A    between atoms: N_5  and  C_6
REMARK    2  A    between atoms: C_8  and  C_9
REMARK                            x       y       z     vdW  Elec       q    Type
REMARK                         _______ _______ _______ _____ _____    ______ ____
ROOT
ATOM      1  C   UNL     1      -0.576  -1.249  -0.682  0.00  0.00    +0.274 C 
ATOM      2  C   UNL     1      -1.187  -1.353   0.841  0.00  0.00    +0.338 C 
ATOM      3  F   UNL     1      -0.447  -2.014   1.660  0.00  0.00    -0.197 F 
ATOM      4  F   UNL     1      -2.417  -1.902   0.674  0.00  0.00    -0.197 F 
ATOM      5  C   UNL     1      -1.345   0.210   1.191  0.00  0.00    +0.247 C 
ATOM      6  O   UNL     1      -2.607   0.034   2.006  0.00  0.00    -0.214 OA
ATOM      7  C   UNL     1      -2.239   0.292  -0.276  0.00  0.00    +0.186 C 
ATOM      8  O   UNL     1      -0.899   0.217  -0.925  0.00  0.00    -0.328 OA
ENDROOT
BRANCH   1  14
ATOM      9  N   UNL     1       3.450   2.247   0.311  0.00  0.00    -0.107 NA
ATOM     10  C   UNL     1       2.923   0.981   0.082  0.00  0.00    +0.176 A 
ATOM     11  N   UNL     1       2.732   0.408  -1.114  0.00  0.00    -0.174 NA
ATOM     12  C   UNL     1       1.602  -0.313  -1.352  0.00  0.00    +0.353 A 
ATOM     13  O   UNL     1       1.478  -0.898  -2.472  0.00  0.00    -0.244 OA
ATOM     14  N   UNL     1       0.919  -0.859  -0.305  0.00  0.00    -0.251 N 
ATOM     15  C   UNL     1       1.237  -0.423   0.864  0.00  0.00    +0.085 A 
ATOM     16  C   UNL     1       2.336   0.324   1.156  0.00  0.00    +0.057 A 
ENDBRANCH   1  14
BRANCH   7  17
ATOM     17  C   UNL     1      -2.192   1.930  -0.232  0.00  0.00    +0.214 C 
ATOM     18  O   UNL     1      -2.769   2.369  -1.426  0.00  0.00    -0.218 OA
ENDBRANCH   7  17
TORSDOF 2
