REMARK  Name = 
REMARK  2 active torsions:
REMARK  status: ('A' for Active; 'I' for Inactive)
REMARK    1  A    between atoms: N_17  and  C_18
REMARK    2  A    between atoms: C_18  and  C_19
REMARK                            x       y       z     vdW  Elec       q    Type
REMARK                         _______ _______ _______ _____ _____    ______ ____
ROOT
ATOM      1  O   UNL     1      -5.264   1.055  -0.627  0.00  0.00    -0.287 OA
ATOM      2  C   UNL     1      -3.877   1.022  -0.716  0.00  0.00    +0.195 A 
ATOM      3  C   UNL     1      -3.194  -0.051  -0.153  0.00  0.00    +0.038 A 
ATOM      4  C   UNL     1      -1.825  -0.046  -0.140  0.00  0.00    -0.021 A 
ATOM      5  C   UNL     1      -0.979  -0.911   0.749  0.00  0.00    +0.047 C 
ATOM      6  C   UNL     1      -0.670  -0.272   2.053  0.00  0.00    +0.024 C 
ATOM      7  C   UNL     1       0.704   0.055   2.373  0.00  0.00    +0.073 C 
ATOM      8  N   UNL     1       1.746  -0.004   1.478  0.00  0.00    -0.271 NA
ATOM      9  C   UNL     1       1.226   0.163  -0.015  0.00  0.00    +0.090 C 
ATOM     10  C   UNL     1       0.066   1.264   0.432  0.00  0.00    +0.044 C 
ATOM     11  C   UNL     1       0.279  -1.183   0.067  0.00  0.00    +0.143 C 
ATOM     12  O   UNL     1       1.049  -2.152   0.698  0.00  0.00    -0.224 OA
ATOM     13  C   UNL     1       0.135  -1.662  -1.376  0.00  0.00    +0.032 C 
ATOM     14  C   UNL     1      -0.454  -3.058  -1.187  0.00  0.00    +0.003 C 
ATOM     15  C   UNL     1      -1.723  -3.017  -0.398  0.00  0.00    +0.000 C 
ATOM     16  C   UNL     1      -1.653  -2.244   0.882  0.00  0.00    +0.007 C 
ATOM     17  C   UNL     1      -1.057   1.046  -0.543  0.00  0.00    -0.024 A 
ATOM     18  C   UNL     1      -1.780   2.159  -0.959  0.00  0.00    -0.001 A 
ATOM     19  C   UNL     1      -3.149   2.137  -1.060  0.00  0.00    +0.042 A 
ENDROOT
BRANCH   8  20
ATOM     20  C   UNL     1       2.681   1.092   1.644  0.00  0.00    +0.072 C 
BRANCH  20  21
ATOM     21  C   UNL     1       3.414   1.400   0.346  0.00  0.00    +0.016 C 
ATOM     22  C   UNL     1       4.692   2.162   0.667  0.00  0.00    +0.001 C 
ATOM     23  C   UNL     1       5.439   0.855   0.445  0.00  0.00    +0.000 C 
ATOM     24  C   UNL     1       4.193   0.191  -0.127  0.00  0.00    +0.001 C 
ENDBRANCH  20  21
ENDBRANCH   8  20
TORSDOF 2
