REMARK  Name = 
REMARK  7 active torsions:
REMARK  status: ('A' for Active; 'I' for Inactive)
REMARK    1  A    between atoms: C_2  and  C_3
REMARK    2  A    between atoms: C_3  and  C_6
REMARK    3  A    between atoms: C_6  and  O_8
REMARK    4  A    between atoms: O_8  and  C_9
REMARK    5  A    between atoms: C_19  and  C_20
REMARK    6  A    between atoms: C_20  and  C_21
REMARK    7  A    between atoms: C_21  and  C_22
REMARK                            x       y       z     vdW  Elec       q    Type
REMARK                         _______ _______ _______ _____ _____    ______ ____
ROOT
ATOM      1  C   UNL     1      -2.326  -0.317  -0.658  0.00  0.00    +0.173 C 
ATOM      2  C   UNL     1      -0.973  -0.389   0.368  0.00  0.00    +0.062 C 
ATOM      3  C   UNL     1      -1.609  -1.832   0.649  0.00  0.00    -0.024 C 
ATOM      4  C   UNL     1      -0.767  -2.211   1.811  0.00  0.00    -0.009 C 
ATOM      5  C   UNL     1       0.542  -1.871   1.646  0.00  0.00    -0.027 C 
ATOM      6  C   UNL     1       0.519  -2.451   0.141  0.00  0.00    +0.022 C 
ATOM      7  C   UNL     1       2.116  -2.597  -0.038  0.00  0.00    +0.005 C 
ATOM      8  C   UNL     1      -1.903  -2.616  -0.336  0.00  0.00    -0.030 C 
ATOM      9  C   UNL     1      -2.526  -2.131  -1.724  0.00  0.00    +0.025 C 
ATOM     10  C   UNL     1      -1.589  -3.115  -2.633  0.00  0.00    +0.005 C 
ATOM     11  C   UNL     1       0.241  -0.965  -0.645  0.00  0.00    +0.012 C 
ATOM     12  C   UNL     1      -1.564  -0.809  -2.021  0.00  0.00    +0.048 C 
ENDROOT
BRANCH   1  13
ATOM     13  O   UNL     1      -2.373   1.213  -0.873  0.00  0.00    -0.452 OA
BRANCH  13  14
ATOM     14  C   UNL     1      -3.768   1.438  -0.853  0.00  0.00    +0.316 C 
ATOM     15  O   UNL     1      -4.517   0.634  -1.510  0.00  0.00    -0.250 OA
BRANCH  14  16
ATOM     16  C   UNL     1      -4.600   2.273   0.049  0.00  0.00    +0.090 C 
ATOM     17  C   UNL     1      -4.070   3.616   0.410  0.00  0.00    +0.011 C 
ATOM     18  C   UNL     1      -5.920   2.553  -0.686  0.00  0.00    +0.011 C 
BRANCH  16  20
ATOM     19  C   UNL     1      -5.091   0.918   1.765  0.00  0.00    +0.001 C 
ATOM     20  C   UNL     1      -5.167   1.553   1.233  0.00  0.00    +0.011 C 
ENDBRANCH  16  20
ENDBRANCH  14  16
ENDBRANCH  13  14
ENDBRANCH   1  13
BRANCH  11  21
ATOM     21  C   UNL     1       1.381  -0.156   0.134  0.00  0.00    +0.004 C 
BRANCH  21  22
ATOM     22  C   UNL     1       2.679  -0.186  -0.705  0.00  0.00    +0.044 C 
BRANCH  22  23
ATOM     23  C   UNL     1       3.637  -0.119   0.663  0.00  0.00    +0.171 C 
ATOM     24  O   UNL     1       4.949  -0.379  -0.111  0.00  0.00    -0.452 OA
ATOM     25  C   UNL     1       6.093   0.009   0.602  0.00  0.00    +0.319 C 
ATOM     26  O   UNL     1       7.242  -0.273   0.114  0.00  0.00    -0.250 OA
ATOM     27  C   UNL     1       5.880   1.405   1.135  0.00  0.00    +0.142 C 
ATOM     28  C   UNL     1       4.986   1.941  -0.147  0.00  0.00    +0.167 C 
ATOM     29  O   UNL     1       4.913   3.345   0.423  0.00  0.00    -0.222 OA
ATOM     30  C   UNL     1       3.586   1.520   0.579  0.00  0.00    +0.077 C 
ENDBRANCH  22  23
ENDBRANCH  21  22
ENDBRANCH  11  21
TORSDOF 7
