REMARK  Name = 
REMARK  5 active torsions:
REMARK  status: ('A' for Active; 'I' for Inactive)
REMARK    1  A    between atoms: CA_6  and  N_7
REMARK    2  A    between atoms: C_8  and  C_10
REMARK    3  A    between atoms: C_10  and  O_11
REMARK    4  A    between atoms: O_11  and  C_12
REMARK    5  A    between atoms: CA_21  and  C_22
REMARK                            x       y       z     vdW  Elec       q    Type
REMARK                         _______ _______ _______ _____ _____    ______ ____
ROOT
ATOM      1  C   UNL     1      -3.871  -0.064  -1.680  0.00  0.00    +0.013 C 
ATOM      2  C   UNL     1      -3.724   0.058  -1.510  0.00  0.00    +0.068 C 
ATOM      3  CA  UNL     1      -2.425  -0.593  -0.750  0.00  0.00    +0.189 C 
ATOM      4  N   UNL     1      -2.624   0.179   0.595  0.00  0.00    -0.259 N 
ATOM      5  C   UNL     1      -2.856   1.645   0.306  0.00  0.00    +0.153 C 
ATOM      6  CA  UNL     1      -1.252   1.816   0.791  0.00  0.00    +0.200 C 
ATOM      7  C   UNL     1      -1.549   0.418   1.534  0.00  0.00    +0.249 C 
ATOM      8  O   UNL     1      -1.631   0.396   2.800  0.00  0.00    -0.273 OA
ATOM      9  S   UNL     1      -2.781   1.627  -1.591  0.00  0.00    -0.118 S 
ATOM     10  C   UNL     1      -4.864   0.079  -0.532  0.00  0.00    +0.013 C 
ENDROOT
BRANCH   3  11
ATOM     11  C   UNL     1      -3.290  -1.867  -0.254  0.00  0.00    +0.383 C 
ATOM     12  OXT UNL     1      -2.758  -2.465   0.887  0.00  0.00    -0.244 OA
ATOM     13  O   UNL     1      -3.438  -2.656  -1.237  0.00  0.00    -0.244 OA
ENDBRANCH   3  11
BRANCH   6  14
ATOM     14  N   UNL     1      -0.544   1.132  -0.439  0.00  0.00    -0.192 NA
ATOM     15  C   UNL     1       0.805   0.763  -0.249  0.00  0.00    +0.286 C 
ATOM     16  O   UNL     1       1.037   0.142   0.832  0.00  0.00    -0.269 OA
BRANCH  15  17
ATOM     17  C   UNL     1       1.943   1.325  -1.041  0.00  0.00    +0.291 C 
BRANCH  17  18
ATOM     18  O   UNL     1       2.936   0.374  -1.306  0.00  0.00    -0.466 OA
BRANCH  18  19
ATOM     19  C   UNL     1       3.960   0.183  -0.374  0.00  0.00    +0.139 A 
ATOM     20  C   UNL     1       5.148   0.888  -0.425  0.00  0.00    +0.037 A 
ATOM     21  C   UNL     1       6.307   0.305   0.060  0.00  0.00    +0.003 A 
ATOM     22  C   UNL     1       6.340  -0.992   0.530  0.00  0.00    +0.000 A 
ATOM     23  C   UNL     1       5.138  -1.618   0.732  0.00  0.00    +0.003 A 
ATOM     24  C   UNL     1       3.993  -1.075   0.213  0.00  0.00    +0.037 A 
ENDBRANCH  18  19
ENDBRANCH  17  18
ENDBRANCH  15  17
ENDBRANCH   6  14
TORSDOF 5
