REMARK  Name = 
REMARK  14 active torsions:
REMARK  status: ('A' for Active; 'I' for Inactive)
REMARK    1  A    between atoms: C_2  and  C_3
REMARK    2  A    between atoms: C_4  and  C_5
REMARK    3  A    between atoms: C_5  and  C_6
REMARK    4  A    between atoms: C_7  and  C_8
REMARK    5  A    between atoms: C_8  and  C_9
REMARK    6  A    between atoms: C_10  and  C_11
REMARK    7  A    between atoms: C_11  and  C_12
REMARK    8  A    between atoms: C_13  and  C_14
REMARK    9  A    between atoms: C_14  and  C_15
REMARK   10  A    between atoms: C_16  and  C_17
REMARK   11  A    between atoms: C_17  and  C_18
REMARK   12  A    between atoms: C_19  and  C_20
REMARK   13  A    between atoms: C_20  and  C_21
REMARK   14  A    between atoms: C_21  and  C_22
REMARK                            x       y       z     vdW  Elec       q    Type
REMARK                         _______ _______ _______ _____ _____    ______ ____
ROOT
ATOM      1  C   UNL     1       0.582   0.237  -1.692  0.00  0.00    -0.026 C 
ATOM      2  C   UNL     1      -0.468  -0.491  -2.057  0.00  0.00    -0.026 C 
ENDROOT
BRANCH   1   3
ATOM      3  C   UNL     1       0.297   1.403  -0.802  0.00  0.00    +0.051 C 
BRANCH   3   5
ATOM      4  C   UNL     1       2.635   1.042  -0.200  0.00  0.00    -0.026 C 
ATOM      5  C   UNL     1       1.487   1.653   0.062  0.00  0.00    -0.026 C 
BRANCH   4   6
ATOM      6  C   UNL     1       2.700  -0.140  -1.118  0.00  0.00    +0.051 C 
BRANCH   6   8
ATOM      7  C   UNL     1       4.719  -1.527  -0.766  0.00  0.00    -0.026 C 
ATOM      8  C   UNL     1       3.461  -1.231  -0.443  0.00  0.00    -0.026 C 
BRANCH   7   9
ATOM      9  C   UNL     1       5.326  -0.693  -1.855  0.00  0.00    +0.051 C 
BRANCH   9  11
ATOM     10  C   UNL     1       7.213  -0.388  -0.398  0.00  0.00    -0.030 C 
ATOM     11  C   UNL     1       6.774  -0.483  -1.649  0.00  0.00    -0.026 C 
BRANCH  10  13
ATOM     12  C   UNL     1       6.481  -0.348   1.985  0.00  0.00    +0.005 C 
ATOM     13  C   UNL     1       6.381   0.310   0.621  0.00  0.00    +0.026 C 
ENDBRANCH  10  13
ENDBRANCH   9  11
ENDBRANCH   7   9
ENDBRANCH   6   8
ENDBRANCH   4   6
ENDBRANCH   3   5
ENDBRANCH   1   3
BRANCH   2  14
ATOM     14  C   UNL     1      -1.422  -0.898  -1.011  0.00  0.00    +0.051 C 
BRANCH  14  15
ATOM     15  C   UNL     1      -0.777  -1.268   0.272  0.00  0.00    -0.026 C 
ATOM     16  C   UNL     1      -1.520  -1.249   1.384  0.00  0.00    -0.026 C 
BRANCH  16  17
ATOM     17  C   UNL     1      -2.595  -0.208   1.481  0.00  0.00    +0.051 C 
BRANCH  17  18
ATOM     18  C   UNL     1      -3.917  -0.809   1.742  0.00  0.00    -0.026 C 
ATOM     19  C   UNL     1      -4.812  -0.752   0.750  0.00  0.00    -0.030 C 
BRANCH  19  20
ATOM     20  C   UNL     1      -4.918   0.499  -0.064  0.00  0.00    +0.038 C 
BRANCH  20  21
ATOM     21  C   UNL     1      -6.386   0.714  -0.376  0.00  0.00    +0.119 C 
BRANCH  21  22
ATOM     22  C   UNL     1      -7.103   0.679   0.937  0.00  0.00    +0.365 C 
ATOM     23  O   UNL     1      -6.783   1.716   1.817  0.00  0.00    -0.246 OA
ATOM     24  O   UNL     1      -7.355  -0.481   1.380  0.00  0.00    -0.246 OA
ENDBRANCH  21  22
ENDBRANCH  20  21
ENDBRANCH  19  20
ENDBRANCH  17  18
ENDBRANCH  16  17
ENDBRANCH  14  15
ENDBRANCH   2  14
TORSDOF 14
