REMARK  Name = 
REMARK  3 active torsions:
REMARK  status: ('A' for Active; 'I' for Inactive)
REMARK    1  A    between atoms: C_2  and  C_3
REMARK    2  A    between atoms: C_2  and  C_6
REMARK    3  A    between atoms: C_9  and  C_10
REMARK                            x       y       z     vdW  Elec       q    Type
REMARK                         _______ _______ _______ _____ _____    ______ ____
ROOT
ATOM      1  C   UNL     1       1.795  -0.660   0.113  0.00  0.00    -0.010 A 
ATOM      2  C   UNL     1       1.170  -0.209  -0.995  0.00  0.00    +0.026 A 
ATOM      3  C   UNL     1      -0.127   0.269  -0.832  0.00  0.00    +0.140 A 
ATOM      4  F   UNL     1      -0.617   1.259  -1.635  0.00  0.00    -0.204 F 
ATOM      5  C   UNL     1      -0.780   0.022   0.370  0.00  0.00    +0.027 A 
ATOM      6  C   UNL     1      -0.034  -0.303   1.498  0.00  0.00    +0.002 A 
ATOM      7  C   UNL     1       1.330  -0.567   1.397  0.00  0.00    -0.004 A 
ENDROOT
BRANCH   5   8
ATOM      8  C   UNL     1      -2.225   0.150   0.379  0.00  0.00    +0.002 A 
ATOM      9  C   UNL     1      -2.745   1.389   0.095  0.00  0.00    +0.000 A 
ATOM     10  C   UNL     1      -4.102   1.539   0.042  0.00  0.00    +0.000 A 
ATOM     11  C   UNL     1      -4.893   0.400   0.131  0.00  0.00    +0.000 A 
ATOM     12  C   UNL     1      -4.351  -0.872   0.196  0.00  0.00    +0.000 A 
ATOM     13  C   UNL     1      -2.989  -0.974   0.117  0.00  0.00    +0.000 A 
ENDBRANCH   5   8
BRANCH   1  15
ATOM     14  C   UNL     1       3.064  -1.980  -1.404  0.00  0.00    +0.017 C 
ATOM     15  C   UNL     1       3.365  -1.080  -0.025  0.00  0.00    +0.126 C 
BRANCH  15  16
ATOM     16  C   UNL     1       3.738   0.304  -0.815  0.00  0.00    +0.368 C 
ATOM     17  O   UNL     1       3.937   0.275  -2.140  0.00  0.00    -0.245 OA
ATOM     18  O   UNL     1       4.464   1.039  -0.084  0.00  0.00    -0.245 OA
ENDBRANCH  15  16
ENDBRANCH   1  15
TORSDOF 3
