REMARK  Name = 
REMARK  1 active torsions:
REMARK  status: ('A' for Active; 'I' for Inactive)
REMARK    1  A    between atoms: C_3  and  C_4
REMARK                            x       y       z     vdW  Elec       q    Type
REMARK                         _______ _______ _______ _____ _____    ______ ____
ROOT
ATOM      1  C   UNL     1      -1.082  -1.720  -0.596  0.00  0.00    +0.020 C 
ATOM      2  C   UNL     1      -0.916  -0.159  -1.021  0.00  0.00    +0.089 C 
ATOM      3  N   UNL     1      -2.441   0.132  -0.888  0.00  0.00    -0.268 NA
ATOM      4  C   UNL     1      -2.552   1.359  -1.678  0.00  0.00    +0.090 C 
ATOM      5  C   UNL     1      -2.807   0.415   0.432  0.00  0.00    +0.105 C 
ATOM      6  C   UNL     1      -2.343  -0.532   1.493  0.00  0.00    +0.160 C 
ATOM      7  O   UNL     1      -0.949  -0.667   1.368  0.00  0.00    -0.349 OA
ATOM      8  C   UNL     1      -0.535   0.514   0.520  0.00  0.00    +0.152 C 
ENDROOT
BRANCH   8   9
ATOM      9  C   UNL     1       1.005   0.060   0.504  0.00  0.00    +0.006 A 
ATOM     10  C   UNL     1       1.808   1.151   0.802  0.00  0.00    -0.002 A 
ATOM     11  C   UNL     1       3.039   1.292   0.170  0.00  0.00    -0.000 A 
ATOM     12  C   UNL     1       3.494   0.166  -0.507  0.00  0.00    -0.000 A 
ATOM     13  C   UNL     1       2.830  -1.050  -0.386  0.00  0.00    -0.000 A 
ATOM     14  C   UNL     1       1.451  -0.962  -0.213  0.00  0.00    -0.002 A 
ENDBRANCH   8   9
TORSDOF 1
