REMARK  Name = 
REMARK  9 active torsions:
REMARK  status: ('A' for Active; 'I' for Inactive)
REMARK    1  A    between atoms: C_2  and  O_4
REMARK    2  A    between atoms: C_2  and  C_35
REMARK    3  A    between atoms: O_4  and  N_5
REMARK    4  A    between atoms: C_6  and  C_7
REMARK    5  A    between atoms: C_6  and  C_29
REMARK    6  A    between atoms: N_9  and  CA_10
REMARK    7  A    between atoms: CA_14  and  C_15
REMARK    8  A    between atoms: C_18  and  C_19
REMARK    9  A    between atoms: C_19  and  N_20
REMARK                            x       y       z     vdW  Elec       q    Type
REMARK                         _______ _______ _______ _____ _____    ______ ____
ROOT
ATOM      1  CA  UNL     1      -0.032  -1.167  -0.380  0.00  0.00    +0.201 C 
ATOM      2  C   UNL     1       1.392  -0.681  -1.174  0.00  0.00    +0.157 C 
ATOM      3  N   UNL     1       1.940  -0.675   0.248  0.00  0.00    -0.242 N 
ATOM      4  CA  UNL     1       3.274  -0.154   0.272  0.00  0.00    +0.134 C 
ATOM      5  C   UNL     1       3.845   0.500  -0.744  0.00  0.00    +0.064 C 
ATOM      6  C   UNL     1       3.065   1.550  -1.491  0.00  0.00    +0.089 C 
ATOM      7  S   UNL     1       1.284   1.226  -1.193  0.00  0.00    -0.114 S 
ATOM      8  C   UNL     1       0.671  -0.425   0.895  0.00  0.00    +0.253 C 
ATOM      9  O   UNL     1       0.385  -0.917   2.036  0.00  0.00    -0.273 OA
ENDROOT
BRANCH   1  11
ATOM     10  C   UNL     1      -2.260  -0.277  -1.199  0.00  0.00    +0.288 C 
ATOM     11  N   UNL     1      -0.938   0.098  -0.784  0.00  0.00    -0.190 NA
ATOM     12  O   UNL     1      -2.279  -1.127  -2.142  0.00  0.00    -0.267 OA
BRANCH  10  14
ATOM     13  N   UNL     1      -3.630   1.032   0.150  0.00  0.00    -0.076 NA
ATOM     14  C   UNL     1      -3.447  -0.157  -0.343  0.00  0.00    +0.192 C 
BRANCH  14  15
ATOM     15  C   UNL     1      -4.146  -1.338   0.198  0.00  0.00    +0.115 A 
ATOM     16  N   UNL     1      -4.245  -1.495   1.534  0.00  0.00    -0.220 NA
ATOM     17  C   UNL     1      -5.213  -2.395   1.838  0.00  0.00    +0.201 A 
ATOM     18  N   UNL     1      -5.959  -2.535   3.045  0.00  0.00    -0.100 NA
ATOM     19  S   UNL     1      -4.850  -3.589   0.656  0.00  0.00    -0.048 S 
ATOM     20  C   UNL     1      -3.968  -2.577  -0.417  0.00  0.00    +0.059 A 
ENDBRANCH  14  15
BRANCH  13  21
ATOM     21  O   UNL     1      -3.812   2.007  -0.817  0.00  0.00    -0.374 OA
BRANCH  21  23
ATOM     22  C   UNL     1      -5.330   3.025  -1.586  0.00  0.00    +0.058 C 
ATOM     23  C   UNL     1      -5.058   2.698  -0.726  0.00  0.00    +0.253 C 
ATOM     24  C   UNL     1      -4.821   3.833   0.262  0.00  0.00    +0.058 C 
BRANCH  23  25
ATOM     25  C   UNL     1      -6.098   1.826  -0.097  0.00  0.00    +0.403 C 
ATOM     26  O   UNL     1      -6.022   1.645   1.280  0.00  0.00    -0.242 OA
ATOM     27  O   UNL     1      -6.831   1.122  -0.837  0.00  0.00    -0.242 OA
ENDBRANCH  23  25
ENDBRANCH  21  23
ENDBRANCH  13  21
ENDBRANCH  10  14
ENDBRANCH   1  11
BRANCH   4  28
ATOM     28  C   UNL     1       4.146  -0.450   1.410  0.00  0.00    +0.401 C 
ATOM     29  OXT UNL     1       3.632  -1.282   2.422  0.00  0.00    -0.239 OA
ATOM     30  O   UNL     1       4.907   0.435   1.920  0.00  0.00    -0.239 OA
ENDBRANCH   4  28
BRANCH   5  31
ATOM     31  C   UNL     1       5.016  -0.176  -1.339  0.00  0.00    +0.348 C 
BRANCH  31  32
ATOM     32  N   UNL     1       6.263  -0.009  -0.679  0.00  0.00    -0.156 N 
ATOM     33  C   UNL     1       7.032  -1.127  -0.579  0.00  0.00    +0.290 A 
ATOM     34  C   UNL     1       8.258  -1.045   0.056  0.00  0.00    +0.076 A 
ATOM     35  C   UNL     1       8.712   0.221   0.407  0.00  0.00    +0.013 A 
ATOM     36  C   UNL     1       8.147   1.279  -0.287  0.00  0.00    +0.076 A 
ATOM     37  C   UNL     1       6.970   1.103  -1.006  0.00  0.00    +0.290 A 
ENDBRANCH  31  32
ENDBRANCH   5  31
TORSDOF 9
