REMARK  Name = 
REMARK  6 active torsions:
REMARK  status: ('A' for Active; 'I' for Inactive)
REMARK    1  A    between atoms: C_9  and  C_10
REMARK    2  A    between atoms: C_20  and  C_21
REMARK    3  A    between atoms: C_21  and  C_23
REMARK    4  A    between atoms: C_23  and  C_24
REMARK    5  A    between atoms: C_24  and  C_25
REMARK    6  A    between atoms: C_25  and  C_26
REMARK                            x       y       z     vdW  Elec       q    Type
REMARK                         _______ _______ _______ _____ _____    ______ ____
ROOT
ATOM      1  C   UNL     1       2.068   0.131  -0.210  0.00  0.00    -0.009 C 
ATOM      2  C   UNL     1       1.111  -0.713  -0.522  0.00  0.00    -0.045 C 
ATOM      3  C   UNL     1      -0.328   0.022  -0.305  0.00  0.00    +0.018 C 
ATOM      4  C   UNL     1      -0.116   0.107   1.329  0.00  0.00    +0.004 C 
ATOM      5  C   UNL     1      -1.445  -0.222   1.843  0.00  0.00    +0.000 C 
ATOM      6  C   UNL     1      -2.340  -0.571   0.520  0.00  0.00    +0.000 C 
ATOM      7  C   UNL     1      -1.118  -1.424  -0.126  0.00  0.00    +0.003 C 
ATOM      8  C   UNL     1      -0.462  -2.218   0.851  0.00  0.00    +0.000 C 
ATOM      9  C   UNL     1      -1.366  -1.767  -1.497  0.00  0.00    +0.001 C 
ATOM     10  C   UNL     1      -0.119  -2.039  -2.250  0.00  0.00    +0.004 C 
ATOM     11  C   UNL     1       1.066  -1.205  -1.922  0.00  0.00    +0.022 C 
ENDROOT
BRANCH   1  15
ATOM     12  C   UNL     1       3.578   0.224   1.627  0.00  0.00    -0.005 C 
ATOM     13  C   UNL     1       4.296   0.807   1.133  0.00  0.00    -0.026 C 
ATOM     14  C   UNL     1       4.286   0.882  -0.348  0.00  0.00    -0.024 C 
ATOM     15  C   UNL     1       3.243   0.422  -1.035  0.00  0.00    -0.005 C 
ATOM     16  C   UNL     1       5.328   1.778  -0.844  0.00  0.00    +0.059 C 
ATOM     17  C   UNL     1       6.764   0.909  -0.815  0.00  0.00    +0.157 C 
ATOM     18  O   UNL     1       7.441   1.975   0.076  0.00  0.00    -0.223 OA
ATOM     19  C   UNL     1       6.369  -0.022   0.525  0.00  0.00    +0.038 C 
ATOM     20  C   UNL     1       5.753   0.933   1.504  0.00  0.00    +0.029 C 
ENDBRANCH   1  15
BRANCH   6  21
ATOM     21  C   UNL     1      -3.052  -1.914   1.324  0.00  0.00    +0.000 C 
ATOM     22  C   UNL     1      -3.453  -2.663  -0.071  0.00  0.00    +0.000 C 
BRANCH  21  23
ATOM     23  C   UNL     1      -4.485  -1.133   1.430  0.00  0.00    +0.000 C 
BRANCH  23  24
ATOM     24  C   UNL     1      -4.868  -0.670   0.091  0.00  0.00    +0.003 C 
BRANCH  24  25
ATOM     25  C   UNL     1      -4.521   0.703  -0.323  0.00  0.00    +0.030 C 
BRANCH  25  26
ATOM     26  C   UNL     1      -5.667   1.657  -0.195  0.00  0.00    +0.127 C 
ATOM     27  O   UNL     1      -6.840   1.184  -0.747  0.00  0.00    -0.226 OA
ATOM     28  C   UNL     1      -5.836   1.869   1.306  0.00  0.00    +0.033 C 
ATOM     29  C   UNL     1      -5.287   2.957  -0.865  0.00  0.00    +0.033 C 
ENDBRANCH  25  26
ENDBRANCH  24  25
ENDBRANCH  23  24
ENDBRANCH  21  23
ENDBRANCH   6  21
TORSDOF 6
