REMARK  Name = 
REMARK  9 active torsions:
REMARK  status: ('A' for Active; 'I' for Inactive)
REMARK    1  A    between atoms: C_12  and  C_13
REMARK    2  A    between atoms: C_13  and  N_14
REMARK    3  A    between atoms: N_14  and  C_15
REMARK    4  A    between atoms: C_18  and  C_19
REMARK    5  A    between atoms: N_21  and  CA_22
REMARK    6  A    between atoms: CA_22  and  CB_23
REMARK    7  A    between atoms: CA_22  and  C_28
REMARK    8  A    between atoms: CB_23  and  CG_24
REMARK    9  A    between atoms: CG_24  and  CD_25
REMARK                            x       y       z     vdW  Elec       q    Type
REMARK                         _______ _______ _______ _____ _____    ______ ____
ROOT
ATOM      1  C   UNK A   0      -0.452   1.038   0.566  0.00  0.00    +0.065 A 
ATOM      2  C   UNK A   0      -0.067   0.284   1.667  0.00  0.00    +0.016 A 
ATOM      3  C   UNK A   0       1.064  -0.522   1.620  0.00  0.00    +0.006 A 
ATOM      4  C   UNK A   0       2.073  -0.208   0.730  0.00  0.00    +0.055 A 
ATOM      5  C   UNK A   0       1.650   0.375  -0.460  0.00  0.00    +0.006 A 
ATOM      6  C   UNK A   0       0.380   0.935  -0.535  0.00  0.00    +0.016 A 
ENDROOT
BRANCH   4   7
ATOM      7  C   UNK A   0       3.483  -0.174   1.136  0.00  0.00    +0.265 C 
ATOM      8  N   GLU A   1       4.354  -1.173   0.636  0.00  0.00    -0.192 NA
ATOM      9  O   UNK A   0       3.957   0.749   1.836  0.00  0.00    -0.268 OA
BRANCH   8  10
ATOM     10  CA  GLU A   1       5.792  -0.532   0.321  0.00  0.00    +0.199 C 
BRANCH  10  11
ATOM     11  C   GLU A   1       5.839  -1.200  -1.178  0.00  0.00    +0.384 C 
ATOM     12  OXT GLU A   1       5.503  -2.499  -1.278  0.00  0.00    -0.244 OA
ATOM     13  O   GLU A   1       6.064  -0.375  -2.081  0.00  0.00    -0.244 OA
ENDBRANCH  10  11
BRANCH  10  14
ATOM     14  CB  GLU A   1       6.584  -1.840   1.010  0.00  0.00    +0.045 C 
BRANCH  14  15
ATOM     15  CG  GLU A   1       7.808  -1.109   1.552  0.00  0.00    +0.116 C 
BRANCH  15  16
ATOM     16  CD  GLU A   1       8.825  -1.128   0.465  0.00  0.00    +0.365 C 
ATOM     17  OE2 GLU A   1       9.231   0.010  -0.220  0.00  0.00    -0.246 OA
ATOM     18  OE1 GLU A   1       9.014  -2.227  -0.112  0.00  0.00    -0.246 OA
ENDBRANCH  15  16
ENDBRANCH  14  15
ENDBRANCH  10  14
ENDBRANCH   8  10
ENDBRANCH   4   7
BRANCH   1  19
ATOM     19  N   UNK A   0      -1.194   2.248   0.681  0.00  0.00    -0.236 NA
BRANCH  19  20
ATOM     20  C   UNK A   0      -2.623   2.328   0.751  0.00  0.00    +0.134 C 
BRANCH  20  28
ATOM     21  N   UNK A   0      -7.881  -2.660  -0.257  0.00  0.00    -0.086 NA
ATOM     22  C   UNK A   0      -7.187  -1.641  -0.539  0.00  0.00    +0.260 A 
ATOM     23  N   UNK A   0      -7.586  -0.451  -0.026  0.00  0.00    -0.171 NA
ATOM     24  C   UNK A   0      -6.853   0.669  -0.240  0.00  0.00    +0.298 A 
ATOM     25  O   UNK A   0      -7.309   1.757   0.227  0.00  0.00    -0.264 OA
ATOM     26  C   UNK A   0      -5.504   0.563  -0.557  0.00  0.00    +0.146 A 
ATOM     27  N   UNK A   0      -4.674   1.618  -0.097  0.00  0.00    -0.243 N 
ATOM     28  C   UNK A   0      -3.164   1.532  -0.612  0.00  0.00    +0.124 C 
ATOM     29  C   UNK A   0      -2.944   0.047   0.118  0.00  0.00    +0.136 C 
ATOM     30  N   UNK A   0      -3.626  -0.881  -0.758  0.00  0.00    -0.217 NA
ATOM     31  C   UNK A   0      -5.169   2.939  -0.332  0.00  0.00    +0.307 C 
ATOM     32  O   UNK A   0      -4.438   3.940  -0.107  0.00  0.00    -0.265 OA
ATOM     33  C   UNK A   0      -5.041  -0.692  -0.882  0.00  0.00    +0.169 A 
ATOM     34  N   UNK A   0      -5.909  -1.720  -0.991  0.00  0.00    -0.193 NA
ENDBRANCH  20  28
ENDBRANCH  19  20
ENDBRANCH   1  19
TORSDOF 9
