REMARK  Name = 
REMARK  8 active torsions:
REMARK  status: ('A' for Active; 'I' for Inactive)
REMARK    1  A    between atoms: C_2  and  C_3
REMARK    2  A    between atoms: C_9  and  C_10
REMARK    3  A    between atoms: C_10  and  C_11
REMARK    4  A    between atoms: C_11  and  C_12
REMARK    5  A    between atoms: C_12  and  C_13
REMARK    6  A    between atoms: C_13  and  N_14
REMARK    7  A    between atoms: N_17  and  C_18
REMARK    8  A    between atoms: C_23  and  C_24
REMARK                            x       y       z     vdW  Elec       q    Type
REMARK                         _______ _______ _______ _____ _____    ______ ____
ROOT
ATOM      1  N   UNL     1       0.117  -1.444  -0.942  0.00  0.00    -0.270 NA
ATOM      2  C   UNL     1       0.858  -0.260  -1.309  0.00  0.00    +0.094 C 
ATOM      3  C   UNL     1       0.772   0.697  -0.125  0.00  0.00    +0.108 C 
ATOM      4  N   UNL     1       1.413  -0.007   0.986  0.00  0.00    -0.305 N 
ATOM      5  C   UNL     1       0.682  -1.192   1.438  0.00  0.00    +0.108 C 
ATOM      6  C   UNL     1       0.636  -2.111   0.222  0.00  0.00    +0.094 C 
ENDROOT
BRANCH   4   7
ATOM      7  C   UNL     1       2.823  -0.216   0.819  0.00  0.00    +0.048 A 
ATOM      8  C   UNL     1       3.658   0.877   0.640  0.00  0.00    +0.018 A 
ATOM      9  C   UNL     1       4.963   0.710   0.198  0.00  0.00    +0.039 A 
ATOM     10  C   UNL     1       5.453  -0.576   0.026  0.00  0.00    +0.146 A 
ATOM     11  O   UNL     1       6.744  -0.487  -0.151  0.00  0.00    -0.449 OA
ATOM     12  C   UNL     1       7.141   0.755  -0.184  0.00  0.00    +0.202 A 
ATOM     13  C   UNL     1       4.544  -1.573  -0.217  0.00  0.00    +0.039 A 
ATOM     14  C   UNL     1       6.050   1.560   0.035  0.00  0.00    +0.045 A 
ATOM     15  C   UNL     1       3.270  -1.405   0.254  0.00  0.00    +0.018 A 
BRANCH  12  16
ATOM     16  C   UNL     1       8.491   1.213  -0.523  0.00  0.00    +0.319 C 
ATOM     17  O   UNL     1       8.748   2.433  -0.652  0.00  0.00    -0.263 OA
ATOM     18  N   UNL     1       9.548   0.288  -0.655  0.00  0.00    -0.081 NA
ENDBRANCH  12  16
ENDBRANCH   4   7
BRANCH   1  19
ATOM     19  C   UNL     1      -1.301  -1.174  -0.811  0.00  0.00    +0.072 C 
BRANCH  19  20
ATOM     20  C   UNL     1      -1.797  -1.956   0.385  0.00  0.00    +0.018 C 
BRANCH  20  21
ATOM     21  C   UNL     1      -3.267  -1.774   0.637  0.00  0.00    +0.006 C 
BRANCH  21  22
ATOM     22  C   UNL     1      -3.560  -0.822   1.773  0.00  0.00    +0.028 C 
BRANCH  22  30
ATOM     23  C   UNL     1      -7.401   0.078  -0.315  0.00  0.00    +0.069 A 
ATOM     24  C   UNL     1      -6.482   0.112   0.727  0.00  0.00    +0.012 A 
ATOM     25  C   UNL     1      -5.253   0.736   0.608  0.00  0.00    +0.016 A 
ATOM     26  C   UNL     1      -5.140   1.709  -0.376  0.00  0.00    +0.081 A 
ATOM     27  N   UNL     1      -3.866   2.160  -0.274  0.00  0.00    -0.244 NA
ATOM     28  C   UNL     1      -3.190   1.466   0.649  0.00  0.00    +0.095 A 
ATOM     29  C   UNL     1      -6.112   1.804  -1.364  0.00  0.00    +0.020 A 
ATOM     30  C   UNL     1      -4.007   0.463   1.151  0.00  0.00    -0.002 A 
ATOM     31  C   UNL     1      -7.114   0.845  -1.436  0.00  0.00    +0.012 A 
BRANCH  23  33
ATOM     32  N   UNL     1      -9.005  -1.958  -0.367  0.00  0.00    -0.191 NA
ATOM     33  C   UNL     1      -8.415  -0.950  -0.373  0.00  0.00    +0.100 C 
ENDBRANCH  23  33
ENDBRANCH  22  30
ENDBRANCH  21  22
ENDBRANCH  20  21
ENDBRANCH  19  20
ENDBRANCH   1  19
TORSDOF 8
