REMARK  Name = 
REMARK  5 active torsions:
REMARK  status: ('A' for Active; 'I' for Inactive)
REMARK    1  A    between atoms: C_2  and  C_3
REMARK    2  A    between atoms: C_4  and  C_5
REMARK    3  A    between atoms: C_14  and  C_15
REMARK    4  A    between atoms: C_16  and  C_17
REMARK    5  A    between atoms: C_19  and  C_20
REMARK                            x       y       z     vdW  Elec       q    Type
REMARK                         _______ _______ _______ _____ _____    ______ ____
ROOT
ATOM      1  C   UNL     1       0.597   1.998  -1.380  0.00  0.00    +0.031 C 
ATOM      2  C   UNL     1       0.598   0.549  -1.028  0.00  0.00    -0.022 C 
ATOM      3  C   UNL     1       1.515   0.011  -0.225  0.00  0.00    -0.004 C 
ENDROOT
BRANCH   3   4
ATOM      4  C   UNL     1       1.728  -1.430  -0.416  0.00  0.00    -0.001 C 
ATOM      5  C   UNL     1       2.997  -1.824  -0.295  0.00  0.00    -0.004 C 
BRANCH   5   6
ATOM      6  C   UNL     1       3.639  -1.452   0.973  0.00  0.00    -0.015 C 
ATOM      7  C   UNL     1       4.839  -0.885   0.851  0.00  0.00    +0.082 C 
ATOM      8  C   UNL     1       3.386  -2.389   2.113  0.00  0.00    +0.031 C 
BRANCH   7   9
ATOM      9  C   UNL     1       4.904   0.265  -0.057  0.00  0.00    +0.388 C 
ATOM     10  O   UNL     1       4.960   0.010  -1.430  0.00  0.00    -0.241 OA
ATOM     11  O   UNL     1       5.524   1.273   0.399  0.00  0.00    -0.241 OA
ENDBRANCH   7   9
ENDBRANCH   5   6
ENDBRANCH   3   4
BRANCH   2  12
ATOM     12  C   UNL     1      -0.716  -0.105  -1.008  0.00  0.00    -0.005 C 
ATOM     13  C   UNL     1      -1.372  -0.389   0.092  0.00  0.00    -0.005 C 
BRANCH  13  14
ATOM     14  C   UNL     1      -2.745   0.059   0.360  0.00  0.00    -0.031 C 
ATOM     15  C   UNL     1      -3.860  -0.270  -0.581  0.00  0.00    +0.018 C 
ATOM     16  C   UNL     1      -4.529  -1.559  -0.121  0.00  0.00    +0.004 C 
ATOM     17  C   UNL     1      -3.307  -0.466  -1.988  0.00  0.00    +0.004 C 
ATOM     18  C   UNL     1      -4.842   0.864  -0.650  0.00  0.00    +0.004 C 
ATOM     19  C   UNL     1      -4.218   2.174  -0.214  0.00  0.00    +0.005 C 
ATOM     20  C   UNL     1      -3.917   2.032   1.275  0.00  0.00    +0.022 C 
ATOM     21  C   UNL     1      -3.029   0.834   1.404  0.00  0.00    -0.048 C 
ATOM     22  C   UNL     1      -2.155   0.700   2.611  0.00  0.00    +0.026 C 
ENDBRANCH  13  14
ENDBRANCH   2  12
TORSDOF 5
