REMARK  Name = 
REMARK  1 active torsions:
REMARK  status: ('A' for Active; 'I' for Inactive)
REMARK    1  A    between atoms: C_5  and  C_6
REMARK                            x       y       z     vdW  Elec       q    Type
REMARK                         _______ _______ _______ _____ _____    ______ ____
ROOT
ATOM      1  N   UNL     1      -4.253   0.061  -1.279  0.00  0.00    -0.085 NA
ATOM      2  C   UNL     1      -3.213   0.340  -0.339  0.00  0.00    +0.276 A 
ATOM      3  N   UNL     1      -2.887  -0.530   0.649  0.00  0.00    -0.190 NA
ATOM      4  C   UNL     1      -1.589  -0.757   0.971  0.00  0.00    +0.192 A 
ATOM      5  N   UNL     1      -1.220  -1.422   2.186  0.00  0.00    -0.105 NA
ATOM      6  C   UNL     1      -0.642   0.097   0.416  0.00  0.00    +0.138 A 
ATOM      7  N   UNL     1      -1.058   1.252  -0.160  0.00  0.00    -0.142 NA
ATOM      8  N   UNL     1      -2.337   1.357  -0.522  0.00  0.00    -0.109 NA
ENDROOT
BRANCH   6   9
ATOM      9  C   UNL     1       0.708  -0.409   0.299  0.00  0.00    +0.034 A 
ATOM     10  C   UNL     1       1.743   0.513   0.271  0.00  0.00    +0.070 A 
ATOM     11 CL   UNL     1       1.381   2.207   0.591  0.00  0.00    -0.081 Cl
ATOM     12  C   UNL     1       2.937   0.269  -0.385  0.00  0.00    +0.068 A 
ATOM     13 CL   UNL     1       4.207   1.465  -0.344  0.00  0.00    -0.081 Cl
ATOM     14  C   UNL     1       3.137  -0.951  -1.013  0.00  0.00    +0.012 A 
ATOM     15  C   UNL     1       2.115  -1.861  -1.034  0.00  0.00    +0.001 A 
ATOM     16  C   UNL     1       0.973  -1.631  -0.307  0.00  0.00    +0.003 A 
ENDBRANCH   6   9
TORSDOF 1
