REMARK  Name = 
REMARK  4 active torsions:
REMARK  status: ('A' for Active; 'I' for Inactive)
REMARK    1  A    between atoms: C_2  and  C_4
REMARK    2  A    between atoms: C_4  and  C_5
REMARK    3  A    between atoms: C_10  and  N_11
REMARK    4  A    between atoms: N_11  and  C_12
REMARK                            x       y       z     vdW  Elec       q    Type
REMARK                         _______ _______ _______ _____ _____    ______ ____
ROOT
ATOM      1  C   UNL     1       1.876  -0.348   0.049  0.00  0.00    +0.004 A 
ATOM      2  C   UNL     1       0.495  -0.451   0.159  0.00  0.00    +0.067 A 
ATOM      3  C   UNL     1      -0.128  -1.678   0.359  0.00  0.00    +0.016 A 
ATOM      4  C   UNL     1       0.651  -2.815   0.531  0.00  0.00    +0.001 A 
ATOM      5  C   UNL     1       2.001  -2.600   0.764  0.00  0.00    -0.000 A 
ATOM      6  C   UNL     1       2.620  -1.397   0.526  0.00  0.00    -0.002 A 
ENDROOT
BRANCH   1   7
ATOM      7  C   UNL     1       2.411   0.669  -0.897  0.00  0.00    +0.142 C 
BRANCH   7   9
ATOM      8  O   UNL     1       3.046   2.843  -0.149  0.00  0.00    -0.245 OA
ATOM      9  C   UNL     1       3.328   1.627  -0.250  0.00  0.00    +0.369 C 
ATOM     10  O   UNL     1       4.528   1.200   0.314  0.00  0.00    -0.245 OA
ENDBRANCH   7   9
ENDBRANCH   1   7
BRANCH   2  11
ATOM     11  N   UNL     1      -0.238   0.753  -0.043  0.00  0.00    -0.211 NA
BRANCH  11  12
ATOM     12  C   UNL     1      -1.647   0.677  -0.293  0.00  0.00    +0.091 A 
ATOM     13  C   UNL     1      -2.582   0.981   0.690  0.00  0.00    +0.074 A 
ATOM     14 CL   UNL     1      -2.051   2.091   1.945  0.00  0.00    -0.081 Cl
ATOM     15  C   UNL     1      -3.724   0.205   0.830  0.00  0.00    +0.013 A 
ATOM     16  C   UNL     1      -4.045  -0.749  -0.127  0.00  0.00    +0.002 A 
ATOM     17  C   UNL     1      -3.387  -0.594  -1.341  0.00  0.00    +0.013 A 
ATOM     18  C   UNL     1      -2.080  -0.133  -1.323  0.00  0.00    +0.074 A 
ATOM     19 CL   UNL     1      -1.073  -0.281  -2.754  0.00  0.00    -0.081 Cl
ENDBRANCH  11  12
ENDBRANCH   2  11
TORSDOF 4
