REMARK  Name = 
REMARK  6 active torsions:
REMARK  status: ('A' for Active; 'I' for Inactive)
REMARK    1  A    between atoms: C_4  and  C_5
REMARK    2  A    between atoms: C_6  and  C_7
REMARK    3  A    between atoms: C_12  and  N_13
REMARK    4  A    between atoms: N_13  and  C_14
REMARK    5  A    between atoms: N_19  and  C_20
REMARK    6  A    between atoms: C_23  and  C_24
REMARK                            x       y       z     vdW  Elec       q    Type
REMARK                         _______ _______ _______ _____ _____    ______ ____
ROOT
ATOM      1  C   UNL     1       0.069  -1.663  -0.297  0.00  0.00    +0.156 A 
ATOM      2  N   UNL     1      -1.072  -1.948   0.380  0.00  0.00    -0.195 NA
ATOM      3  C   UNL     1      -2.281  -1.502  -0.029  0.00  0.00    +0.242 A 
ATOM      4  N   UNL     1      -3.359  -1.271   0.885  0.00  0.00    -0.178 NA
ATOM      5  N   UNL     1      -2.378  -1.181  -1.341  0.00  0.00    -0.211 NA
ATOM      6  C   UNL     1      -1.309  -0.746  -2.053  0.00  0.00    +0.105 A 
ATOM      7  C   UNL     1      -0.086  -0.830  -1.400  0.00  0.00    +0.057 A 
ENDROOT
BRANCH   4   8
ATOM      8  C   UNL     1      -4.284  -0.214   0.602  0.00  0.00    +0.074 A 
ATOM      9  C   UNL     1      -5.380   0.027   1.379  0.00  0.00    +0.017 A 
ATOM     10  C   UNL     1      -5.908   1.313   1.425  0.00  0.00    +0.012 A 
ATOM     11  C   UNL     1      -5.459   2.314   0.575  0.00  0.00    +0.069 A 
ATOM     12  C   UNL     1      -4.361   2.066  -0.228  0.00  0.00    +0.012 A 
ATOM     13  C   UNL     1      -3.883   0.786  -0.268  0.00  0.00    +0.017 A 
BRANCH  11  14
ATOM     14  C   UNL     1      -6.234   3.511   0.338  0.00  0.00    +0.100 C 
ATOM     15  N   UNL     1      -7.069   4.272   0.055  0.00  0.00    -0.191 NA
ENDBRANCH  11  14
ENDBRANCH   4   8
BRANCH   1  16
ATOM     16  N   UNL     1       1.242  -2.477  -0.180  0.00  0.00    -0.195 NA
BRANCH  16  19
ATOM     17  C   UNL     1       2.762  -2.844   2.199  0.00  0.00    +0.032 C 
ATOM     18  C   UNL     1       3.271  -2.054   1.057  0.00  0.00    -0.007 A 
ATOM     19  C   UNL     1       2.551  -1.958  -0.127  0.00  0.00    +0.064 A 
ATOM     20  C   UNL     1       3.126  -1.391  -1.257  0.00  0.00    -0.007 A 
ATOM     21  C   UNL     1       2.776  -1.954  -2.585  0.00  0.00    +0.032 C 
ATOM     22  C   UNL     1       4.178  -0.513  -1.058  0.00  0.00    -0.003 A 
ATOM     23  C   UNL     1       4.734  -0.329   0.197  0.00  0.00    +0.000 A 
ATOM     24  C   UNL     1       4.428  -1.289   1.153  0.00  0.00    -0.003 A 
BRANCH  23  25
ATOM     25  C   UNL     1       5.390   0.924   0.589  0.00  0.00    +0.011 C 
ATOM     26  C   UNL     1       5.221   2.044  -0.093  0.00  0.00    +0.078 C 
BRANCH  26  27
ATOM     27  C   UNL     1       6.211   3.092  -0.038  0.00  0.00    +0.101 C 
ATOM     28  N   UNL     1       7.105   3.812  -0.016  0.00  0.00    -0.191 NA
ENDBRANCH  26  27
ENDBRANCH  23  25
ENDBRANCH  16  19
ENDBRANCH   1  16
TORSDOF 6
