REMARK  Name = 
REMARK  6 active torsions:
REMARK  status: ('A' for Active; 'I' for Inactive)
REMARK    1  A    between atoms: O_2  and  C_3
REMARK    2  A    between atoms: C_5  and  C_6
REMARK    3  A    between atoms: C_6  and  C_7
REMARK    4  A    between atoms: C_7  and  C_9
REMARK    5  A    between atoms: C_20  and  O_21
REMARK    6  A    between atoms: C_37  and  O_38
REMARK                            x       y       z     vdW  Elec       q    Type
REMARK                         _______ _______ _______ _____ _____    ______ ____
ROOT
ATOM      1  C   UNL     1       2.318  -1.538  -0.880  0.00  0.00    +0.176 C 
ATOM      2  O   UNL     1       2.651  -0.860  -2.209  0.00  0.00    -0.451 OA
ATOM      3  C   UNL     1       3.046   0.406  -2.012  0.00  0.00    +0.335 C 
ATOM      4  O   UNL     1       4.015   0.856  -2.654  0.00  0.00    -0.248 OA
ATOM      5  C   UNL     1       2.231   1.404  -1.041  0.00  0.00    +0.175 C 
ATOM      6  N   UNL     1       0.841   1.224  -1.738  0.00  0.00    -0.265 N 
ATOM      7  C   UNL     1      -0.282   0.588  -1.070  0.00  0.00    +0.094 C 
ATOM      8  C   UNL     1      -0.452   0.790   0.334  0.00  0.00    +0.022 C 
ATOM      9  C   UNL     1       0.850   0.933   0.987  0.00  0.00    +0.004 C 
ATOM     10  C   UNL     1       0.787   2.234  -2.701  0.00  0.00    +0.289 C 
ATOM     11  O   UNL     1      -0.088   1.994  -3.588  0.00  0.00    -0.267 OA
ATOM     12  C   UNL     1       1.261   3.584  -2.361  0.00  0.00    +0.279 C 
ATOM     13  O   UNL     1       0.520   4.423  -3.004  0.00  0.00    -0.281 OA
ATOM     14  C   UNL     1       1.734   4.052  -1.072  0.00  0.00    +0.279 C 
ATOM     15  O   UNL     1       0.516   4.264  -0.407  0.00  0.00    -0.329 OA
ATOM     16  C   UNL     1       0.868   4.716   0.998  0.00  0.00    +0.121 C 
ATOM     17  C   UNL     1       1.207   6.258   0.526  0.00  0.00    +0.030 C 
ATOM     18  C   UNL     1       1.061   6.394  -0.911  0.00  0.00    +0.008 C 
ATOM     19  C   UNL     1      -0.646   5.170   1.464  0.00  0.00    +0.063 C 
ATOM     20  C   UNL     1      -1.644   4.322   0.473  0.00  0.00    +0.136 C 
ATOM     21  C   UNL     1      -2.784   3.988   1.591  0.00  0.00    -0.017 C 
ATOM     22  C   UNL     1      -2.281   3.889   3.005  0.00  0.00    +0.029 C 
ATOM     23  C   UNL     1      -3.262   2.819   1.148  0.00  0.00    -0.006 C 
ATOM     24  C   UNL     1      -4.370   2.791   0.181  0.00  0.00    -0.001 C 
ATOM     25  C   UNL     1      -5.463   3.275   0.719  0.00  0.00    -0.000 C 
ATOM     26  C   UNL     1      -6.544   2.324   1.016  0.00  0.00    -0.005 C 
ATOM     27  C   UNL     1      -6.611   1.100   0.543  0.00  0.00    -0.026 C 
ATOM     28  C   UNL     1      -5.402   0.142   0.981  0.00  0.00    +0.022 C 
ATOM     29  C   UNL     1      -5.777   0.273   2.567  0.00  0.00    +0.005 C 
ATOM     30  C   UNL     1      -6.258  -1.249   0.840  0.00  0.00    +0.012 C 
ATOM     31  C   UNL     1      -5.098  -2.129   1.593  0.00  0.00    +0.061 C 
ATOM     32  C   UNL     1      -6.137  -2.852   2.623  0.00  0.00    +0.008 C 
ATOM     33  C   UNL     1      -5.134  -3.300   0.501  0.00  0.00    +0.180 C 
ATOM     34  O   UNL     1      -6.247  -3.759   0.236  0.00  0.00    -0.293 OA
ATOM     35  C   UNL     1      -4.273  -4.594   0.947  0.00  0.00    +0.206 C 
ATOM     36  C   UNL     1      -3.661  -4.791  -0.660  0.00  0.00    +0.204 C 
ATOM     37  O   UNL     1      -4.357  -6.127  -0.764  0.00  0.00    -0.216 OA
ATOM     38  C   UNL     1      -2.240  -5.456  -0.251  0.00  0.00    -0.015 C 
ATOM     39  C   UNL     1      -2.310  -6.422   0.900  0.00  0.00    +0.029 C 
ATOM     40  C   UNL     1      -1.296  -4.668  -0.463  0.00  0.00    -0.025 C 
ATOM     41  C   UNL     1       0.070  -4.784  -1.260  0.00  0.00    +0.079 C 
ATOM     42  C   UNL     1      -0.564  -4.013  -2.564  0.00  0.00    +0.012 C 
ATOM     43  C   UNL     1       0.682  -3.443  -0.580  0.00  0.00    +0.158 C 
ATOM     44  O   UNL     1       1.111  -3.856   0.475  0.00  0.00    -0.296 OA
ATOM     45  O   UNL     1       2.717   3.806  -0.322  0.00  0.00    -0.187 OA
ATOM     46  C   UNL     1       2.210   5.523  -1.671  0.00  0.00    +0.062 C 
ATOM     47  C   UNL     1       3.358   5.940  -0.584  0.00  0.00    +0.006 C 
ATOM     48  C   UNL     1       1.906   0.269   0.112  0.00  0.00    +0.031 C 
ATOM     49  C   UNL     1       1.244  -2.554  -1.559  0.00  0.00    +0.108 C 
ENDROOT
BRANCH   1  50
ATOM     50  C   UNL     1       3.546  -2.737  -0.947  0.00  0.00    +0.041 C 
ATOM     51  C   UNL     1       3.310  -3.204  -2.484  0.00  0.00    +0.004 C 
BRANCH  50  52
ATOM     52  C   UNL     1       4.772  -1.801  -1.388  0.00  0.00    +0.004 C 
BRANCH  52  58
ATOM     53  C   UNL     1       6.219  -1.283   2.076  0.00  0.00    +0.146 C 
ATOM     54  C   UNL     1       7.340  -2.601   1.963  0.00  0.00    +0.179 C 
ATOM     55  O   UNL     1       8.007  -2.099   0.699  0.00  0.00    -0.221 OA
ATOM     56  C   UNL     1       6.378  -3.717   1.290  0.00  0.00    +0.035 C 
ATOM     57  C   UNL     1       5.309  -3.373   0.494  0.00  0.00    +0.003 C 
ATOM     58  C   UNL     1       6.044  -2.273  -0.462  0.00  0.00    +0.003 C 
ATOM     59  C   UNL     1       5.754  -1.085   0.558  0.00  0.00    +0.032 C 
BRANCH  53  61
ATOM     60  C   UNL     1       5.168  -2.327   3.576  0.00  0.00    +0.174 C 
ATOM     61  O   UNL     1       5.025  -2.132   2.483  0.00  0.00    -0.351 OA
ENDBRANCH  53  61
ENDBRANCH  52  58
ENDBRANCH  50  52
ENDBRANCH   1  50
BRANCH  20  62
ATOM     62  O   UNL     1      -2.380   5.586   0.043  0.00  0.00    -0.349 OA
ATOM     63  C   UNL     1      -2.656   6.295   1.187  0.00  0.00    +0.174 C 
ENDBRANCH  20  62
BRANCH  35  64
ATOM     64  O   UNL     1      -3.032  -3.913   1.440  0.00  0.00    -0.343 OA
ATOM     65  C   UNL     1      -2.825  -2.689   1.038  0.00  0.00    +0.175 C 
ENDBRANCH  35  64
TORSDOF 6
