REMARK  Name = 
REMARK  11 active torsions:
REMARK  status: ('A' for Active; 'I' for Inactive)
REMARK    1  A    between atoms: O_2  and  C_3
REMARK    2  A    between atoms: C_3  and  C_4
REMARK    3  A    between atoms: N_6  and  C_7
REMARK    4  A    between atoms: C_10  and  C_11
REMARK    5  A    between atoms: N_13  and  C_14
REMARK    6  A    between atoms: C_14  and  C_15
REMARK    7  A    between atoms: C_15  and  C_17
REMARK    8  A    between atoms: C_21  and  C_22
REMARK    9  A    between atoms: N_24  and  C_26
REMARK   10  A    between atoms: C_26  and  C_27
REMARK   11  A    between atoms: C_27  and  C_29
REMARK                            x       y       z     vdW  Elec       q    Type
REMARK                         _______ _______ _______ _____ _____    ______ ____
ROOT
ATOM      1  C   UNL     1      -0.253   1.768  -0.258  0.00  0.00    +0.084 A 
ATOM      2  C   UNL     1       0.733   0.985   0.336  0.00  0.00    +0.051 A 
ATOM      3  I   UNL     1       1.199   1.186   2.400  0.00  0.00    -0.041 I 
ATOM      4  C   UNL     1       1.140  -0.140  -0.373  0.00  0.00    +0.066 A 
ATOM      5  C   UNL     1       0.229  -0.654  -1.288  0.00  0.00    +0.040 A 
ATOM      6  I   UNL     1       0.611  -2.541  -2.169  0.00  0.00    -0.042 I 
ATOM      7  C   UNL     1      -1.063  -0.153  -1.419  0.00  0.00    +0.067 A 
ATOM      8  C   UNL     1      -1.206   1.168  -1.082  0.00  0.00    +0.051 A 
ATOM      9  I   UNL     1      -3.050   2.078  -1.504  0.00  0.00    -0.041 I 
ENDROOT
BRANCH   4  10
ATOM     10  C   UNL     1       2.145  -1.006   0.191  0.00  0.00    +0.250 C 
ATOM     11  N   UNL     1       3.501  -0.646   0.347  0.00  0.00    -0.272 N 
ATOM     12  C   UNL     1       3.963   0.720   0.206  0.00  0.00    +0.115 C 
ATOM     13  O   UNL     1       1.803  -2.211   0.377  0.00  0.00    -0.270 OA
BRANCH  11  14
ATOM     14  C   UNL     1       4.515  -1.687   0.249  0.00  0.00    +0.129 C 
BRANCH  14  15
ATOM     15  C   UNL     1       5.490  -1.340   1.538  0.00  0.00    +0.204 C 
ATOM     16  O   UNL     1       4.398  -1.668   2.546  0.00  0.00    -0.218 OA
BRANCH  15  17
ATOM     17  C   UNL     1       6.129  -2.864   1.618  0.00  0.00    +0.217 C 
ATOM     18  O   UNL     1       5.056  -3.704   1.474  0.00  0.00    -0.218 OA
ENDBRANCH  15  17
ENDBRANCH  14  15
ENDBRANCH  11  14
ENDBRANCH   4  10
BRANCH   7  19
ATOM     19  C   UNL     1      -2.145  -1.060  -1.760  0.00  0.00    +0.266 C 
ATOM     20  N   UNL     1      -3.512  -0.763  -1.637  0.00  0.00    -0.199 NA
ATOM     21  O   UNL     1      -1.910  -2.303  -1.642  0.00  0.00    -0.268 OA
BRANCH  20  22
ATOM     22  C   UNL     1      -4.604  -1.580  -2.020  0.00  0.00    +0.151 C 
BRANCH  22  23
ATOM     23  C   UNL     1      -4.619  -2.891  -1.021  0.00  0.00    +0.206 C 
ATOM     24  O   UNL     1      -4.277  -2.078   0.219  0.00  0.00    -0.218 OA
BRANCH  23  25
ATOM     25  C   UNL     1      -6.243  -2.736  -0.762  0.00  0.00    +0.217 C 
ATOM     26  O   UNL     1      -6.417  -3.113   0.568  0.00  0.00    -0.218 OA
ENDBRANCH  23  25
ENDBRANCH  22  23
ENDBRANCH  20  22
ENDBRANCH   7  19
BRANCH   1  28
ATOM     27  C   UNL     1       0.402   4.013   0.673  0.00  0.00    +0.276 C 
ATOM     28  N   UNL     1      -0.561   2.978   0.434  0.00  0.00    -0.176 NA
ATOM     29  O   UNL     1       1.585   3.818   0.299  0.00  0.00    -0.270 OA
BRANCH  27  30
ATOM     30  C   UNL     1       0.064   5.218   1.498  0.00  0.00    +0.229 C 
BRANCH  30  32
ATOM     31  C   UNL     1      -1.779   5.899   0.512  0.00  0.00    +0.175 C 
ATOM     32  O   UNL     1      -1.327   5.308   1.450  0.00  0.00    -0.342 OA
ENDBRANCH  30  32
ENDBRANCH  27  30
ENDBRANCH   1  28
TORSDOF 11
