REMARK  Name = 
REMARK  0 active torsions:
REMARK  status: ('A' for Active; 'I' for Inactive)
REMARK                            x       y       z     vdW  Elec       q    Type
REMARK                         _______ _______ _______ _____ _____    ______ ____
ROOT
ATOM      1  C   UNL     1       4.496  -1.326   0.823  0.00  0.00    +0.033 C 
ATOM      2  C   UNL     1       4.280  -0.161  -0.138  0.00  0.00    +0.127 C 
ATOM      3  C   UNL     1       2.863   0.020  -0.529  0.00  0.00    +0.026 C 
ATOM      4  C   UNL     1       2.311   0.018   1.012  0.00  0.00    +0.002 C 
ATOM      5  C   UNL     1       0.881   0.810   0.555  0.00  0.00    +0.000 C 
ATOM      6  C   UNL     1       0.139  -0.669   0.163  0.00  0.00    +0.000 C 
ATOM      7  C   UNL     1       0.702  -0.601  -1.374  0.00  0.00    +0.000 C 
ATOM      8  C   UNL     1      -1.284   0.028  -0.222  0.00  0.00    +0.005 C 
ATOM      9  C   UNL     1      -2.011   0.013   1.255  0.00  0.00    +0.008 C 
ATOM     10  C   UNL     1      -3.220   1.017   0.751  0.00  0.00    +0.069 C 
ATOM     11  C   UNL     1      -4.092   0.169  -0.085  0.00  0.00    +0.172 C 
ATOM     12  C   UNL     1      -3.498  -0.837  -0.941  0.00  0.00    +0.055 C 
ATOM     13  C   UNL     1      -4.281  -1.857  -1.296  0.00  0.00    +0.233 C 
ATOM     14  O   UNL     1      -5.529  -2.084  -0.721  0.00  0.00    -0.283 OA
ATOM     15  O   UNL     1      -5.337   0.267   0.056  0.00  0.00    -0.292 OA
ATOM     16  C   UNL     1      -1.123   1.286   1.815  0.00  0.00    +0.000 C 
ATOM     17  C   UNL     1      -1.138   1.377  -0.679  0.00  0.00    +0.000 C 
ATOM     18  C   UNL     1      -2.031  -0.941  -1.076  0.00  0.00    +0.033 C 
ATOM     19  C   UNL     1       0.267   0.773   2.043  0.00  0.00    +0.000 C 
ATOM     20  C   UNL     1       3.099   1.424   1.284  0.00  0.00    +0.003 C 
ATOM     21  C   UNL     1       2.688   1.402  -1.056  0.00  0.00    +0.002 C 
ATOM     22  C   UNL     1       2.155  -1.056  -1.220  0.00  0.00    +0.002 C 
ATOM     23  C   UNL     1       4.466   1.092   0.721  0.00  0.00    +0.030 C 
ATOM     24  O   UNL     1       5.195  -0.163  -1.170  0.00  0.00    -0.226 OA
ENDROOT
TORSDOF 0
