REMARK  Name = 
REMARK  0 active torsions:
REMARK  status: ('A' for Active; 'I' for Inactive)
REMARK                            x       y       z     vdW  Elec       q    Type
REMARK                         _______ _______ _______ _____ _____    ______ ____
ROOT
ATOM      1  C   UNL     1       1.076   1.738   0.330  0.00  0.00    +0.133 C 
ATOM      2  N   UNL     1       0.146   0.729  -0.120  0.00  0.00    -0.303 N 
ATOM      3  C   UNL     1       0.458  -0.582  -0.261  0.00  0.00    +0.182 A 
ATOM      4  S   UNL     1       1.844  -1.272   0.261  0.00  0.00    -0.011 S 
ATOM      5  N   UNL     1      -0.746  -1.202  -0.179  0.00  0.00    -0.219 NA
ATOM      6  C   UNL     1      -1.643  -0.342  -0.699  0.00  0.00    +0.120 A 
ATOM      7  C   UNL     1      -1.135   0.932  -0.520  0.00  0.00    +0.098 A 
ENDROOT
TORSDOF 0
