REMARK  Name = 
REMARK  0 active torsions:
REMARK  status: ('A' for Active; 'I' for Inactive)
REMARK                            x       y       z     vdW  Elec       q    Type
REMARK                         _______ _______ _______ _____ _____    ______ ____
ROOT
ATOM      1  C   UNL     1      -1.861  -1.873   1.082  0.00  0.00    +0.090 C 
ATOM      2  N   UNL     1      -2.438  -1.813  -0.019  0.00  0.00    -0.269 NA
ATOM      3  C   UNL     1      -1.433  -1.000  -0.958  0.00  0.00    +0.084 C 
ATOM      4  C   UNL     1      -0.194  -2.008  -0.513  0.00  0.00    +0.047 C 
ATOM      5  C   UNL     1       0.925  -1.224  -0.080  0.00  0.00    -0.017 A 
ATOM      6  C   UNL     1       1.166   0.113  -0.243  0.00  0.00    +0.038 A 
ATOM      7  C   UNL     1      -0.071   0.915  -0.161  0.00  0.00    -0.000 A 
ATOM      8  C   UNL     1      -0.005   2.269   0.006  0.00  0.00    -0.000 A 
ATOM      9  C   UNL     1      -1.181   2.962   0.179  0.00  0.00    -0.000 A 
ATOM     10  C   UNL     1      -2.317   2.257   0.453  0.00  0.00    -0.004 A 
ATOM     11  C   UNL     1      -2.334   0.869   0.352  0.00  0.00    -0.023 A 
ATOM     12  C   UNL     1      -3.684   0.289   0.199  0.00  0.00    +0.043 C 
ATOM     13  C   UNL     1       2.393   0.640   0.152  0.00  0.00    +0.234 A 
ATOM     14  O   UNL     1       2.526   2.009  -0.037  0.00  0.00    -0.283 OA
ATOM     15  C   UNL     1       3.504  -0.168   0.367  0.00  0.00    +0.234 A 
ATOM     16  O   UNL     1       4.751   0.259  -0.044  0.00  0.00    -0.283 OA
ATOM     17  C   UNL     1       3.204  -1.489   0.651  0.00  0.00    +0.045 A 
ATOM     18  C   UNL     1       1.908  -1.971   0.561  0.00  0.00    -0.001 A 
ATOM     19  C   UNL     1      -1.163   0.127   0.205  0.00  0.00    -0.011 A 
ATOM     20  C   UNL     1      -3.695  -1.162  -0.132  0.00  0.00    +0.077 C 
ENDROOT
TORSDOF 0
