REMARK  Name = 
REMARK  4 active torsions:
REMARK  status: ('A' for Active; 'I' for Inactive)
REMARK    1  A    between atoms: C_9  and  O_10
REMARK    2  A    between atoms: O_10  and  C_11
REMARK    3  A    between atoms: C_11  and  C_13
REMARK    4  A    between atoms: C_13  and  C_15
REMARK                            x       y       z     vdW  Elec       q    Type
REMARK                         _______ _______ _______ _____ _____    ______ ____
ROOT
ATOM      1  O   UNL     1      -0.304  -0.063  -0.245  0.00  0.00    -0.450 OA
ENDROOT
BRANCH   1   6
ATOM      2  C   UNL     1      -4.761  -0.614  -0.028  0.00  0.00    +0.170 C 
ATOM      3  N   UNL     1      -3.717  -0.332  -0.088  0.00  0.00    +0.298 N 
ATOM      4  C   UNL     1      -2.917  -0.635   1.242  0.00  0.00    +0.062 C 
ATOM      5  C   UNL     1      -1.912  -1.704   0.579  0.00  0.00    +0.099 C 
ATOM      6  C   UNL     1      -1.263  -0.298   0.681  0.00  0.00    +0.180 C 
ATOM      7  C   UNL     1      -2.028   0.882   1.149  0.00  0.00    +0.099 C 
ATOM      8  C   UNL     1      -4.229  -1.415   1.726  0.00  0.00    +0.061 C 
ATOM      9  C   UNL     1      -4.274   0.107   2.147  0.00  0.00    +0.061 C 
ATOM     10  C   UNL     1      -3.654   0.934   0.850  0.00  0.00    +0.062 C 
ATOM     11  C   UNL     1      -3.042   0.098  -1.162  0.00  0.00    +0.170 C 
ENDBRANCH   1   6
BRANCH   1  12
ATOM     12  C   UNL     1       1.020   0.122   0.097  0.00  0.00    +0.352 C 
ATOM     13  O   UNL     1       1.227   0.944   1.031  0.00  0.00    -0.247 OA
BRANCH  12  14
ATOM     14  C   UNL     1       1.633   0.595  -1.334  0.00  0.00    +0.272 C 
ATOM     15  O   UNL     1       1.653  -0.839  -1.853  0.00  0.00    -0.206 OA
BRANCH  14  16
ATOM     16  C   UNL     1       3.146   0.509  -0.779  0.00  0.00    +0.019 A 
ATOM     17  C   UNL     1       3.561  -0.591  -0.117  0.00  0.00    -0.001 A 
ATOM     18  C   UNL     1       4.925  -0.612   0.173  0.00  0.00    -0.000 A 
ATOM     19  C   UNL     1       5.736  -0.115  -0.842  0.00  0.00    -0.000 A 
ATOM     20  C   UNL     1       5.275   0.957  -1.599  0.00  0.00    -0.000 A 
ATOM     21  C   UNL     1       3.923   1.255  -1.629  0.00  0.00    -0.001 A 
ENDBRANCH  14  16
ENDBRANCH  12  14
ENDBRANCH   1  12
TORSDOF 4
