REMARK  Name = 
REMARK  1 active torsions:
REMARK  status: ('A' for Active; 'I' for Inactive)
REMARK    1  A    between atoms: C_2  and  C_4
REMARK                            x       y       z     vdW  Elec       q    Type
REMARK                         _______ _______ _______ _____ _____    ______ ____
ROOT
ATOM      1  C   UNL     1       0.301   0.097  -0.377  0.00  0.00    +0.099 A 
ATOM      2  C   UNL     1      -0.493  -0.930  -0.858  0.00  0.00    +0.105 A 
ATOM      3  N   UNL     1      -1.783  -1.045  -0.452  0.00  0.00    -0.242 NA
ATOM      4  C   UNL     1      -2.329  -0.179   0.436  0.00  0.00    +0.099 A 
ATOM      5  C   UNL     1      -1.708   1.061   0.519  0.00  0.00    +0.021 A 
ATOM      6  C   UNL     1      -0.374   1.189   0.153  0.00  0.00    +0.010 A 
ENDROOT
BRANCH   1   8
ATOM      7  O   UNL     1       1.958  -0.846   0.990  0.00  0.00    -0.240 OA
ATOM      8  C   UNL     1       1.708  -0.097  -0.003  0.00  0.00    +0.389 C 
ATOM      9  O   UNL     1       2.722   0.750  -0.408  0.00  0.00    -0.240 OA
ENDBRANCH   1   8
TORSDOF 1
