REMARK  Name = 
REMARK  10 active torsions:
REMARK  status: ('A' for Active; 'I' for Inactive)
REMARK    1  A    between atoms: C_2  and  C_3
REMARK    2  A    between atoms: C_3  and  N_4
REMARK    3  A    between atoms: N_4  and  S_5
REMARK    4  A    between atoms: S_5  and  N_8
REMARK    5  A    between atoms: C_13  and  O_14
REMARK    6  A    between atoms: O_14  and  C_15
REMARK    7  A    between atoms: C_15  and  C_16
REMARK    8  A    between atoms: C_16  and  O_17
REMARK    9  A    between atoms: O_17  and  C_18
REMARK   10  A    between atoms: C_25  and  C_26
REMARK                            x       y       z     vdW  Elec       q    Type
REMARK                         _______ _______ _______ _____ _____    ______ ____
ROOT
ATOM      1  N   UNL     1      -3.060   0.754  -1.081  0.00  0.00    -0.065 NA
ATOM      2  C   UNL     1      -1.936   0.796  -0.192  0.00  0.00    +0.179 A 
ATOM      3  C   UNL     1      -0.989  -0.202  -0.387  0.00  0.00    +0.088 A 
ATOM      4  C   UNL     1       0.365   0.004  -0.227  0.00  0.00    +0.229 A 
ATOM      5  N   UNL     1       0.755   1.233   0.130  0.00  0.00    -0.189 NA
ATOM      6  C   UNL     1      -0.130   2.245   0.286  0.00  0.00    +0.203 A 
ATOM      7  N   UNL     1      -1.451   2.035   0.068  0.00  0.00    -0.205 NA
ENDROOT
BRANCH   3   8
ATOM      8  C   UNL     1      -1.527  -1.568  -0.328  0.00  0.00    +0.007 A 
ATOM      9  C   UNL     1      -1.888  -2.005   0.941  0.00  0.00    +0.001 A 
ATOM     10  C   UNL     1      -2.240  -3.334   1.120  0.00  0.00    +0.007 A 
ATOM     11  C   UNL     1      -2.120  -4.211   0.054  0.00  0.00    +0.035 A 
ATOM     12 BR   UNL     1      -3.091  -5.843   0.093  0.00  0.00    -0.049 Br
ATOM     13  C   UNL     1      -1.339  -3.810  -1.000  0.00  0.00    +0.007 A 
ATOM     14  C   UNL     1      -0.895  -2.503  -1.137  0.00  0.00    +0.001 A 
ENDBRANCH   3   8
BRANCH   1  15
ATOM     15  S   UNL     1      -4.684   0.648  -0.569  0.00  0.00    +0.148 S 
ATOM     16  O   UNL     1      -5.099  -0.751  -0.245  0.00  0.00    -0.135 OA
ATOM     17  O   UNL     1      -5.549   1.101  -1.725  0.00  0.00    -0.135 OA
BRANCH  15  18
ATOM     18  N   UNL     1      -5.048   1.641   0.778  0.00  0.00    -0.062 NA
BRANCH  18  19
ATOM     19  C   UNL     1      -5.469   2.983   0.384  0.00  0.00    +0.117 C 
BRANCH  19  21
ATOM     20  C   UNL     1      -4.137   5.101   0.562  0.00  0.00    +0.002 C 
ATOM     21  C   UNL     1      -4.747   3.935   1.328  0.00  0.00    +0.021 C 
ENDBRANCH  19  21
ENDBRANCH  18  19
ENDBRANCH  15  18
ENDBRANCH   1  15
BRANCH   4  22
ATOM     22  O   UNL     1       1.254  -0.984  -0.663  0.00  0.00    -0.456 OA
BRANCH  22  23
ATOM     23  C   UNL     1       2.640  -0.916  -0.473  0.00  0.00    +0.254 C 
BRANCH  23  24
ATOM     24  C   UNL     1       2.964  -1.672   0.802  0.00  0.00    +0.256 C 
BRANCH  24  25
ATOM     25  O   UNL     1       4.114  -1.136   1.407  0.00  0.00    -0.443 OA
BRANCH  25  26
ATOM     26  C   UNL     1       4.806  -0.103   0.816  0.00  0.00    +0.320 A 
ATOM     27  N   UNL     1       5.250  -0.231  -0.435  0.00  0.00    -0.192 NA
ATOM     28  C   UNL     1       6.265   0.503  -0.938  0.00  0.00    +0.112 A 
ATOM     29  C   UNL     1       6.905   1.381  -0.083  0.00  0.00    +0.073 A 
ATOM     30 BR   UNL     1       8.128   2.702  -0.728  0.00  0.00    -0.046 Br
ATOM     31  C   UNL     1       6.534   1.437   1.253  0.00  0.00    +0.112 A 
ATOM     32  N   UNL     1       5.420   0.771   1.641  0.00  0.00    -0.192 NA
ENDBRANCH  25  26
ENDBRANCH  24  25
ENDBRANCH  23  24
ENDBRANCH  22  23
ENDBRANCH   4  22
TORSDOF 10
