REMARK  Name = 
REMARK  7 active torsions:
REMARK  status: ('A' for Active; 'I' for Inactive)
REMARK    1  A    between atoms: C_2  and  O_4
REMARK    2  A    between atoms: O_4  and  C_5
REMARK    3  A    between atoms: C_5  and  C_7
REMARK    4  A    between atoms: C_7  and  O_10
REMARK    5  A    between atoms: O_10  and  C_11
REMARK    6  A    between atoms: C_14  and  C_15
REMARK    7  A    between atoms: C_15  and  C_17
REMARK                            x       y       z     vdW  Elec       q    Type
REMARK                         _______ _______ _______ _____ _____    ______ ____
ROOT
ATOM      1  C   UNL     1       1.195  -1.097  -0.694  0.00  0.00    +0.139 A 
ATOM      2  C   UNL     1       0.712  -2.360  -0.374  0.00  0.00    +0.037 A 
ATOM      3  C   UNL     1      -0.628  -2.514  -0.036  0.00  0.00    +0.006 A 
ATOM      4  C   UNL     1      -1.531  -1.462  -0.153  0.00  0.00    +0.039 A 
ATOM      5  C   UNL     1      -1.119  -0.447  -1.009  0.00  0.00    +0.006 A 
ATOM      6  C   UNL     1       0.240  -0.216  -1.189  0.00  0.00    +0.037 A 
ENDROOT
BRANCH   4   7
ATOM      7  C   UNL     1      -2.626  -1.272   0.806  0.00  0.00    +0.196 C 
ATOM      8  O   UNL     1      -2.298  -1.111   2.020  0.00  0.00    -0.287 OA
BRANCH   7   9
ATOM      9  C   UNL     1      -3.791  -0.482   0.383  0.00  0.00    +0.039 A 
ATOM     10  C   UNL     1      -3.664   0.551  -0.514  0.00  0.00    +0.004 A 
ATOM     11  C   UNL     1      -4.762   1.316  -0.860  0.00  0.00    +0.011 A 
ATOM     12  C   UNL     1      -5.923   1.205  -0.123  0.00  0.00    +0.058 A 
ATOM     13 CL   UNL     1      -7.077   2.504   0.004  0.00  0.00    -0.082 Cl
ATOM     14  C   UNL     1      -6.107   0.044   0.615  0.00  0.00    +0.011 A 
ATOM     15  C   UNL     1      -5.041  -0.793   0.902  0.00  0.00    +0.004 A 
ENDBRANCH   7   9
ENDBRANCH   4   7
BRANCH   1  16
ATOM     16  O   UNL     1       2.429  -0.636  -0.226  0.00  0.00    -0.472 OA
BRANCH  16  17
ATOM     17  C   UNL     1       2.588   0.643   0.348  0.00  0.00    +0.221 C 
ATOM     18  C   UNL     1       1.566   0.808   1.459  0.00  0.00    +0.055 C 
ATOM     19  C   UNL     1       2.344   1.695  -0.726  0.00  0.00    +0.055 C 
BRANCH  17  20
ATOM     20  C   UNL     1       3.975   0.775   0.840  0.00  0.00    +0.353 C 
ATOM     21  O   UNL     1       4.347   1.906   1.224  0.00  0.00    -0.246 OA
BRANCH  20  22
ATOM     22  O   UNL     1       4.971  -0.167   0.603  0.00  0.00    -0.450 OA
BRANCH  22  24
ATOM     23  C   UNL     1       7.325  -0.725   0.819  0.00  0.00    +0.047 C 
ATOM     24  C   UNL     1       6.289   0.189   0.211  0.00  0.00    +0.169 C 
ATOM     25  C   UNL     1       6.586   1.645   0.448  0.00  0.00    +0.047 C 
ENDBRANCH  22  24
ENDBRANCH  20  22
ENDBRANCH  17  20
ENDBRANCH  16  17
ENDBRANCH   1  16
TORSDOF 7
