REMARK  Name = 
REMARK  3 active torsions:
REMARK  status: ('A' for Active; 'I' for Inactive)
REMARK    1  A    between atoms: O_2  and  C_3
REMARK    2  A    between atoms: C_12  and  C_14
REMARK    3  A    between atoms: C_31  and  O_32
REMARK                            x       y       z     vdW  Elec       q    Type
REMARK                         _______ _______ _______ _____ _____    ______ ____
ROOT
ATOM      1  C   UNL     1       5.984  -0.261   0.791  0.00  0.00    +0.174 A 
ATOM      2  C   UNL     1       6.266   0.690  -0.154  0.00  0.00    +0.173 A 
ATOM      3  C   UNL     1       5.234   1.305  -0.851  0.00  0.00    +0.044 A 
ATOM      4  C   UNL     1       3.934   0.943  -0.597  0.00  0.00    +0.056 A 
ATOM      5  C   UNL     1       3.677   0.167   0.513  0.00  0.00    +0.090 A 
ATOM      6  N   UNL     1       2.406   0.045   0.894  0.00  0.00    -0.213 NA
ATOM      7  C   UNL     1       1.353   0.508   0.176  0.00  0.00    +0.221 A 
ATOM      8  N   UNL     1       1.610   0.932  -1.078  0.00  0.00    -0.195 NA
ATOM      9  N   UNL     1       0.097  -0.087   0.543  0.00  0.00    -0.275 N 
ATOM     10  C   UNL     1      -0.192   0.008   1.972  0.00  0.00    +0.115 C 
ATOM     11  C   UNL     1      -1.326  -0.925   2.378  0.00  0.00    +0.115 C 
ATOM     12  N   UNL     1      -2.116  -1.072   1.153  0.00  0.00    -0.273 N 
ATOM     13  C   UNL     1      -2.563   0.132   0.654  0.00  0.00    +0.270 C 
ATOM     14  O   UNL     1      -2.532   1.258   1.211  0.00  0.00    -0.271 OA
ATOM     15  C   UNL     1      -1.441  -1.990   0.230  0.00  0.00    +0.115 C 
ATOM     16  C   UNL     1      -0.234  -1.248  -0.259  0.00  0.00    +0.115 C 
ATOM     17  C   UNL     1       2.877   1.270  -1.423  0.00  0.00    +0.174 A 
ATOM     18  N   UNL     1       3.204   1.539  -2.791  0.00  0.00    -0.107 NA
ATOM     19  C   UNL     1       4.696  -0.472   1.201  0.00  0.00    +0.059 A 
ENDROOT
BRANCH  13  20
ATOM     20  C   UNL     1      -3.803   0.176  -0.409  0.00  0.00    +0.284 C 
ATOM     21  O   UNL     1      -4.862   0.256   0.745  0.00  0.00    -0.463 OA
ATOM     22  C   UNL     1      -6.143   0.068   0.208  0.00  0.00    +0.173 A 
ATOM     23  C   UNL     1      -6.249  -0.663  -0.970  0.00  0.00    +0.172 A 
ATOM     24  C   UNL     1      -7.349  -0.477  -1.795  0.00  0.00    +0.040 A 
ATOM     25  C   UNL     1      -8.100   0.677  -1.603  0.00  0.00    +0.003 A 
ATOM     26  C   UNL     1      -8.305   1.076  -0.286  0.00  0.00    +0.003 A 
ATOM     27  O   UNL     1      -5.198  -1.502  -1.268  0.00  0.00    -0.468 OA
ATOM     28  C   UNL     1      -7.235   0.816   0.567  0.00  0.00    +0.040 A 
ATOM     29  C   UNL     1      -3.986  -1.487  -0.516  0.00  0.00    +0.258 C 
ENDBRANCH  13  20
BRANCH   1  31
ATOM     30  C   UNL     1       7.138  -1.684   1.474  0.00  0.00    +0.253 C 
ATOM     31  O   UNL     1       6.925  -1.259   1.060  0.00  0.00    -0.468 OA
ENDBRANCH   1  31
BRANCH   2  32
ATOM     32  O   UNL     1       7.525   0.787  -0.744  0.00  0.00    -0.468 OA
ATOM     33  C   UNL     1       8.708   0.474  -0.040  0.00  0.00    +0.253 C 
ENDBRANCH   2  32
TORSDOF 3
