REMARK  Name = 
REMARK  4 active torsions:
REMARK  status: ('A' for Active; 'I' for Inactive)
REMARK    1  A    between atoms: C_2  and  O_4
REMARK    2  A    between atoms: O_4  and  C_5
REMARK    3  A    between atoms: C_5  and  C_6
REMARK    4  A    between atoms: C_6  and  C_8
REMARK                            x       y       z     vdW  Elec       q    Type
REMARK                         _______ _______ _______ _____ _____    ______ ____
ROOT
ATOM      1  C   UNL     1       2.369  -0.965  -0.069  0.00  0.00    +0.181 C 
ATOM      2  C   UNL     1       0.929  -0.933  -0.364  0.00  0.00    +0.039 C 
ATOM      3  C   UNL     1       0.441  -0.262   1.040  0.00  0.00    +0.004 C 
ATOM      4  C   UNL     1      -0.918   0.456   0.337  0.00  0.00    +0.008 C 
ATOM      5  C   UNL     1      -1.887  -0.843   0.846  0.00  0.00    +0.061 C 
ATOM      6  C   UNL     1      -1.338  -1.797  -0.332  0.00  0.00    +0.151 C 
ATOM      7  O   UNL     1      -2.109  -2.753  -0.426  0.00  0.00    -0.296 OA
ATOM      8  C   UNL     1      -3.192  -0.303   0.030  0.00  0.00    +0.022 C 
ATOM      9  C   UNL     1      -3.313   1.143   0.407  0.00  0.00    -0.042 C 
ATOM     10  C   UNL     1      -4.314   1.757  -0.225  0.00  0.00    +0.029 C 
ATOM     11  C   UNL     1      -5.362   0.846  -0.714  0.00  0.00    +0.173 C 
ATOM     12  C   UNL     1      -5.625  -0.325   0.169  0.00  0.00    +0.069 C 
ATOM     13  O   UNL     1      -6.033   1.131  -1.728  0.00  0.00    -0.291 OA
ATOM     14  C   UNL     1      -2.668   1.686   1.624  0.00  0.00    +0.022 C 
ATOM     15  C   UNL     1      -3.065  -0.501  -1.405  0.00  0.00    +0.004 C 
ATOM     16  C   UNL     1      -4.379  -1.063   0.554  0.00  0.00    +0.012 C 
ATOM     17  C   UNL     1      -1.206   1.313   1.665  0.00  0.00    +0.005 C 
ATOM     18  C   UNL     1       1.413   1.015   0.751  0.00  0.00    +0.003 C 
ATOM     19  C   UNL     1       0.654  -0.003  -1.472  0.00  0.00    +0.003 C 
ATOM     20  C   UNL     1       0.118  -2.157  -0.272  0.00  0.00    +0.067 C 
ATOM     21  C   UNL     1       2.636   0.121   0.980  0.00  0.00    +0.038 C 
ATOM     22  O   UNL     1       2.881  -2.192   0.311  0.00  0.00    -0.218 OA
ENDROOT
BRANCH   1  23
ATOM     23  C   UNL     1       3.258  -0.468  -1.182  0.00  0.00    +0.222 C 
ATOM     24  O   UNL     1       3.021   0.646  -1.658  0.00  0.00    -0.290 OA
BRANCH  23  25
ATOM     25  C   UNL     1       4.726  -0.640  -0.893  0.00  0.00    +0.275 C 
BRANCH  25  26
ATOM     26  O   UNL     1       5.412   0.611  -0.919  0.00  0.00    -0.440 OA
BRANCH  26  28
ATOM     27  C   UNL     1       5.572   2.661   0.483  0.00  0.00    +0.121 C 
ATOM     28  C   UNL     1       5.722   1.291   0.263  0.00  0.00    +0.318 C 
ATOM     29  O   UNL     1       6.255   0.531   1.129  0.00  0.00    -0.250 OA
ENDBRANCH  26  28
ENDBRANCH  25  26
ENDBRANCH  23  25
ENDBRANCH   1  23
TORSDOF 4
