REMARK  Name = 
REMARK  8 active torsions:
REMARK  status: ('A' for Active; 'I' for Inactive)
REMARK    1  A    between atoms: C_2  and  N_4
REMARK    2  A    between atoms: N_4  and  C_5
REMARK    3  A    between atoms: N_4  and  C_23
REMARK    4  A    between atoms: C_5  and  C_6
REMARK    5  A    between atoms: C_6  and  C_7
REMARK    6  A    between atoms: C_7  and  C_8
REMARK    7  A    between atoms: C_7  and  C_11
REMARK    8  A    between atoms: C_7  and  C_17
REMARK                            x       y       z     vdW  Elec       q    Type
REMARK                         _______ _______ _______ _____ _____    ______ ____
ROOT
ATOM      1  C   UNL     1      -0.901  -0.012  -0.557  0.00  0.00    +0.127 C 
ENDROOT
BRANCH   1   2
ATOM      2  C   UNL     1      -0.707   1.237   0.189  0.00  0.00    -0.009 A 
ATOM      3  C   UNL     1      -0.945   1.419   1.524  0.00  0.00    -0.003 A 
ATOM      4  C   UNL     1      -1.349   2.682   1.939  0.00  0.00    -0.000 A 
ATOM      5  C   UNL     1      -0.960   3.796   1.238  0.00  0.00    -0.000 A 
ATOM      6  C   UNL     1      -0.280   3.602   0.061  0.00  0.00    -0.000 A 
ATOM      7  C   UNL     1      -0.177   2.330  -0.488  0.00  0.00    -0.003 A 
ENDBRANCH   1   2
BRANCH   1   8
ATOM      8  C   UNL     1      -1.895  -0.928   0.033  0.00  0.00    +0.070 A 
ATOM      9  N   UNL     1      -2.371  -1.888  -0.798  0.00  0.00    -0.247 NA
ATOM     10  C   UNL     1      -3.246  -2.811  -0.397  0.00  0.00    +0.098 A 
ATOM     11  C   UNL     1      -3.519  -2.902   0.941  0.00  0.00    +0.021 A 
ATOM     12  C   UNL     1      -3.225  -1.852   1.771  0.00  0.00    +0.003 A 
ATOM     13  C   UNL     1      -2.278  -0.944   1.345  0.00  0.00    +0.016 A 
ENDBRANCH   1   8
BRANCH   1  14
ATOM     14  C   UNL     1      -1.419   0.339  -1.918  0.00  0.00    +0.269 C 
ATOM     15  O   UNL     1      -2.655   0.572  -1.990  0.00  0.00    -0.271 OA
ATOM     16  N   UNL     1      -0.549   1.038  -2.783  0.00  0.00    -0.087 NA
ENDBRANCH   1  14
BRANCH   1  17
ATOM     17  C   UNL     1       0.400  -0.728  -0.769  0.00  0.00    +0.036 C 
BRANCH  17  18
ATOM     18  C   UNL     1       1.351  -0.632   0.377  0.00  0.00    +0.073 C 
BRANCH  18  19
ATOM     19  N   UNL     1       2.661  -0.166   0.044  0.00  0.00    -0.275 NA
BRANCH  19  20
ATOM     20  C   UNL     1       3.425  -1.010  -0.815  0.00  0.00    +0.058 C 
ATOM     21  C   UNL     1       2.649  -1.809  -1.804  0.00  0.00    +0.017 C 
ATOM     22  C   UNL     1       4.500  -0.214  -1.501  0.00  0.00    +0.017 C 
ENDBRANCH  19  20
BRANCH  19  24
ATOM     23  C   UNL     1       4.560   0.431   1.136  0.00  0.00    +0.017 C 
ATOM     24  C   UNL     1       3.402  -0.082   1.304  0.00  0.00    +0.058 C 
ATOM     25  C   UNL     1       3.529  -1.466   1.916  0.00  0.00    +0.017 C 
ENDBRANCH  19  24
ENDBRANCH  18  19
ENDBRANCH  17  18
ENDBRANCH   1  17
TORSDOF 8
