REMARK  Name = 
REMARK  6 active torsions:
REMARK  status: ('A' for Active; 'I' for Inactive)
REMARK    1  A    between atoms: C_2  and  N_4
REMARK    2  A    between atoms: N_4  and  C_5
REMARK    3  A    between atoms: C_5  and  C_6
REMARK    4  A    between atoms: C_6  and  C_8
REMARK    5  A    between atoms: C_11  and  N_12
REMARK    6  A    between atoms: N_12  and  S_13
REMARK                            x       y       z     vdW  Elec       q    Type
REMARK                         _______ _______ _______ _____ _____    ______ ____
ROOT
ATOM      1  C   UNL     1      -0.843  -1.428  -0.340  0.00  0.00    +0.009 A 
ATOM      2  C   UNL     1       0.037  -2.457  -0.420  0.00  0.00    -0.000 A 
ATOM      3  C   UNL     1       1.353  -2.131  -0.088  0.00  0.00    +0.018 A 
ATOM      4  C   UNL     1       1.726  -0.833   0.137  0.00  0.00    +0.091 A 
ATOM      5  C   UNL     1       0.880   0.138  -0.385  0.00  0.00    +0.018 A 
ATOM      6  C   UNL     1      -0.462  -0.148  -0.602  0.00  0.00    -0.000 A 
ENDROOT
BRANCH   1   7
ATOM      7  C   UNL     1      -2.406  -1.763  -0.622  0.00  0.00    +0.192 C 
ATOM      8  O   UNL     1      -2.424  -2.848   0.456  0.00  0.00    -0.217 OA
BRANCH   7   9
ATOM      9  C   UNL     1      -2.898  -0.607   0.467  0.00  0.00    +0.126 C 
BRANCH   9  10
ATOM     10  N   UNL     1      -3.530   0.355  -0.386  0.00  0.00    -0.216 NA
BRANCH  10  12
ATOM     11  C   UNL     1      -3.026   2.698  -0.960  0.00  0.00    +0.019 C 
ATOM     12  C   UNL     1      -3.499   1.706   0.045  0.00  0.00    +0.073 C 
ATOM     13  C   UNL     1      -3.039   1.951   1.435  0.00  0.00    +0.019 C 
ENDBRANCH  10  12
ENDBRANCH   9  10
ENDBRANCH   7   9
ENDBRANCH   1   7
BRANCH   4  14
ATOM     14  N   UNL     1       2.906  -0.388   0.752  0.00  0.00    -0.101 NA
BRANCH  14  15
ATOM     15  S   UNL     1       3.651   1.065   0.238  0.00  0.00    +0.075 S 
ATOM     16  O   UNL     1       4.337   1.709   1.422  0.00  0.00    -0.153 OA
ATOM     17  O   UNL     1       4.701   0.711  -0.759  0.00  0.00    -0.153 OA
ATOM     18  C   UNL     1       2.534   2.270  -0.390  0.00  0.00    +0.202 C 
ENDBRANCH  14  15
ENDBRANCH   4  14
TORSDOF 6
