REMARK  Name = 
REMARK  7 active torsions:
REMARK  status: ('A' for Active; 'I' for Inactive)
REMARK    1  A    between atoms: C_2  and  O_3
REMARK    2  A    between atoms: C_2  and  C_22
REMARK    3  A    between atoms: O_3  and  C_4
REMARK    4  A    between atoms: C_4  and  C_5
REMARK    5  A    between atoms: C_5  and  C_6
REMARK    6  A    between atoms: C_24  and  C_25
REMARK    7  A    between atoms: C_30  and  C_31
REMARK                            x       y       z     vdW  Elec       q    Type
REMARK                         _______ _______ _______ _____ _____    ______ ____
ROOT
ATOM      1  C   UNL     1      -0.976   0.933   1.209  0.00  0.00    +0.162 C 
ENDROOT
BRANCH   1   2
ATOM      2  C   UNL     1      -2.178   0.426   0.476  0.00  0.00    +0.105 C 
ATOM      3  N   UNL     1      -2.867   1.547  -0.099  0.00  0.00    -0.212 NA
ATOM      4  C   UNL     1      -4.101   1.878   0.605  0.00  0.00    +0.109 C 
ATOM      5  C   UNL     1      -5.122   0.803   0.419  0.00  0.00    +0.095 C 
ATOM      6  N   UNL     1      -6.159   0.807   1.427  0.00  0.00    -0.207 NA
ATOM      7  C   UNL     1      -7.159  -0.090   0.930  0.00  0.00    +0.241 C 
ATOM      8  O   UNL     1      -7.821  -0.965   1.558  0.00  0.00    -0.273 OA
ATOM      9  C   UNL     1      -7.231   0.212  -0.532  0.00  0.00    +0.089 C 
ATOM     10  C   UNL     1      -5.915   0.912  -0.848  0.00  0.00    +0.031 C 
ATOM     11  C   UNL     1      -4.408  -0.526   0.538  0.00  0.00    +0.023 C 
ATOM     12  C   UNL     1      -3.175  -0.269   1.397  0.00  0.00    +0.024 C 
BRANCH   2  13
ATOM     13  C   UNL     1      -1.804  -0.595  -0.548  0.00  0.00    -0.006 A 
ATOM     14  C   UNL     1      -1.481  -0.296  -1.839  0.00  0.00    -0.003 A 
ATOM     15  C   UNL     1      -1.069  -1.345  -2.650  0.00  0.00    -0.000 A 
ATOM     16  C   UNL     1      -1.160  -2.662  -2.256  0.00  0.00    -0.000 A 
ATOM     17  C   UNL     1      -1.233  -2.926  -0.897  0.00  0.00    -0.000 A 
ATOM     18  C   UNL     1      -1.575  -1.875  -0.057  0.00  0.00    -0.003 A 
ENDBRANCH   2  13
ENDBRANCH   1   2
BRANCH   1  19
ATOM     19  O   UNL     1       0.189   0.953   0.425  0.00  0.00    -0.350 OA
BRANCH  19  21
ATOM     20  C   UNL     1       1.427   0.981   2.392  0.00  0.00    +0.037 C 
ATOM     21  C   UNL     1       0.962  -0.139   1.215  0.00  0.00    +0.138 C 
BRANCH  21  22
ATOM     22  C   UNL     1       2.319   0.086   0.309  0.00  0.00    +0.004 A 
ATOM     23  C   UNL     1       2.876  -1.073  -0.150  0.00  0.00    +0.002 A 
ATOM     24  C   UNL     1       4.172  -0.988  -0.646  0.00  0.00    +0.071 A 
ATOM     25  C   UNL     1       4.766   0.266  -0.709  0.00  0.00    +0.008 A 
ATOM     26  C   UNL     1       4.100   1.424  -0.319  0.00  0.00    +0.071 A 
ATOM     27  C   UNL     1       2.808   1.329   0.200  0.00  0.00    +0.002 A 
BRANCH  24  28
ATOM     28  C   UNL     1       5.000  -2.231  -0.604  0.00  0.00    +0.419 C 
ATOM     29  F   UNL     1       5.818  -2.362  -1.692  0.00  0.00    -0.166 F 
ATOM     30  F   UNL     1       4.180  -3.323  -0.504  0.00  0.00    -0.166 F 
ATOM     31  F   UNL     1       5.810  -2.105   0.515  0.00  0.00    -0.166 F 
ENDBRANCH  24  28
BRANCH  26  32
ATOM     32  C   UNL     1       5.008   2.557   0.053  0.00  0.00    +0.419 C 
ATOM     33  F   UNL     1       4.332   3.522   0.750  0.00  0.00    -0.166 F 
ATOM     34  F   UNL     1       6.033   2.097   0.875  0.00  0.00    -0.166 F 
ATOM     35  F   UNL     1       5.633   3.037  -1.080  0.00  0.00    -0.166 F 
ENDBRANCH  26  32
ENDBRANCH  21  22
ENDBRANCH  19  21
ENDBRANCH   1  19
TORSDOF 7
