REMARK  Name = 
REMARK  5 active torsions:
REMARK  status: ('A' for Active; 'I' for Inactive)
REMARK    1  A    between atoms: C_2  and  C_3
REMARK    2  A    between atoms: C_2  and  C_11
REMARK    3  A    between atoms: C_2  and  C_17
REMARK    4  A    between atoms: C_3  and  C_4
REMARK    5  A    between atoms: C_4  and  N_5
REMARK                            x       y       z     vdW  Elec       q    Type
REMARK                         _______ _______ _______ _____ _____    ______ ____
ROOT
ATOM      1  O   UNL     1      -1.399   0.218  -1.529  0.00  0.00    -0.221 OA
ATOM      2  C   UNL     1      -0.786   0.103  -0.419  0.00  0.00    +0.147 C 
ENDROOT
BRANCH   2   3
ATOM      3  C   UNL     1      -1.264   1.209   0.517  0.00  0.00    +0.032 C 
ATOM      4  C   UNL     1      -0.400   2.425   0.202  0.00  0.00    +0.003 C 
ATOM      5  C   UNL     1      -1.181   3.328  -0.726  0.00  0.00    +0.000 C 
ATOM      6  C   UNL     1      -2.292   3.950   0.103  0.00  0.00    +0.000 C 
ATOM      7  C   UNL     1      -3.142   2.841   0.679  0.00  0.00    +0.000 C 
ATOM      8  C   UNL     1      -2.708   1.485   0.191  0.00  0.00    +0.003 C 
ENDBRANCH   2   3
BRANCH   2   9
ATOM      9  C   UNL     1      -1.159  -1.175   0.221  0.00  0.00    +0.005 A 
ATOM     10  C   UNL     1      -0.768  -2.359  -0.393  0.00  0.00    -0.002 A 
ATOM     11  C   UNL     1      -1.203  -3.544   0.186  0.00  0.00    -0.000 A 
ATOM     12  C   UNL     1      -2.189  -3.524   1.151  0.00  0.00    -0.000 A 
ATOM     13  C   UNL     1      -2.987  -2.390   1.227  0.00  0.00    -0.000 A 
ATOM     14  C   UNL     1      -2.409  -1.211   0.826  0.00  0.00    -0.002 A 
ENDBRANCH   2   9
BRANCH   2  15
ATOM     15  C   UNL     1       0.695   0.292  -0.572  0.00  0.00    +0.052 C 
BRANCH  15  16
ATOM     16  C   UNL     1       1.394  -0.858  -1.230  0.00  0.00    +0.075 C 
BRANCH  16  17
ATOM     17  N   UNL     1       2.683  -1.026  -0.642  0.00  0.00    -0.273 NA
ATOM     18  C   UNL     1       3.792  -0.612  -1.416  0.00  0.00    +0.072 C 
ATOM     19  C   UNL     1       4.531   0.589  -0.914  0.00  0.00    +0.017 C 
ATOM     20  C   UNL     1       4.722   0.577   0.596  0.00  0.00    +0.003 C 
ATOM     21  C   UNL     1       3.314   0.511   1.178  0.00  0.00    +0.017 C 
ATOM     22  C   UNL     1       2.757  -0.827   0.764  0.00  0.00    +0.072 C 
ENDBRANCH  16  17
ENDBRANCH  15  16
ENDBRANCH   2  15
TORSDOF 5
