REMARK  Name = 
REMARK  12 active torsions:
REMARK  status: ('A' for Active; 'I' for Inactive)
REMARK    1  A    between atoms: N_4  and  C_5
REMARK    2  A    between atoms: N_4  and  C_10
REMARK    3  A    between atoms: C_5  and  C_6
REMARK    4  A    between atoms: C_6  and  C_8
REMARK    5  A    between atoms: C_13  and  C_14
REMARK    6  A    between atoms: N_16  and  C_17
REMARK    7  A    between atoms: C_17  and  C_18
REMARK    8  A    between atoms: C_18  and  C_20
REMARK    9  A    between atoms: C_24  and  C_25
REMARK   10  A    between atoms: N_27  and  C_28
REMARK   11  A    between atoms: C_28  and  C_29
REMARK   12  A    between atoms: C_29  and  C_31
REMARK                            x       y       z     vdW  Elec       q    Type
REMARK                         _______ _______ _______ _____ _____    ______ ____
ROOT
ATOM      1  C   UNL     1      -0.202  -1.557   0.039  0.00  0.00    +0.065 A 
ATOM      2  C   UNL     1       1.175  -1.390   0.028  0.00  0.00    +0.049 A 
ATOM      3  I   UNL     1       2.502  -3.012  -0.230  0.00  0.00    -0.041 I 
ATOM      4  C   UNL     1       1.693  -0.127  -0.063  0.00  0.00    +0.067 A 
ATOM      5  C   UNL     1       0.825   0.931  -0.319  0.00  0.00    +0.040 A 
ATOM      6  I   UNL     1       1.740   2.767  -0.830  0.00  0.00    -0.042 I 
ATOM      7  C   UNL     1      -0.452   0.684  -0.804  0.00  0.00    +0.067 A 
ATOM      8  C   UNL     1      -1.010  -0.512  -0.372  0.00  0.00    +0.049 A 
ATOM      9  I   UNL     1      -3.027  -0.804  -0.938  0.00  0.00    -0.041 I 
ENDROOT
BRANCH   1  12
ATOM     10  C   UNL     1      -0.970  -3.250  -2.565  0.00  0.00    +0.095 C 
ATOM     11  C   UNL     1      -0.527  -3.673  -1.209  0.00  0.00    +0.230 C 
ATOM     12  N   UNL     1      -0.756  -2.875  -0.049  0.00  0.00    -0.255 N 
ATOM     13  O   UNL     1      -0.067  -4.843  -1.041  0.00  0.00    -0.275 OA
BRANCH  12  14
ATOM     14  C   UNL     1      -1.319  -3.530   1.125  0.00  0.00    +0.134 C 
BRANCH  14  15
ATOM     15  C   UNL     1      -2.900  -3.845   0.701  0.00  0.00    +0.205 C 
ATOM     16  O   UNL     1      -2.745  -5.328   1.065  0.00  0.00    -0.218 OA
BRANCH  15  17
ATOM     17  C   UNL     1      -3.440  -3.485   2.237  0.00  0.00    +0.217 C 
ATOM     18  O   UNL     1      -4.721  -2.991   2.032  0.00  0.00    -0.218 OA
ENDBRANCH  15  17
ENDBRANCH  14  15
ENDBRANCH  12  14
ENDBRANCH   1  12
BRANCH   4  19
ATOM     19  C   UNL     1       2.946   0.111   0.663  0.00  0.00    +0.266 C 
ATOM     20  N   UNL     1       4.247   0.034   0.104  0.00  0.00    -0.199 NA
ATOM     21  O   UNL     1       2.861   0.763   1.734  0.00  0.00    -0.268 OA
BRANCH  20  22
ATOM     22  C   UNL     1       4.973   1.208  -0.145  0.00  0.00    +0.151 C 
BRANCH  22  23
ATOM     23  C   UNL     1       6.281   1.300   0.875  0.00  0.00    +0.206 C 
ATOM     24  O   UNL     1       5.649   0.399   1.946  0.00  0.00    -0.218 OA
BRANCH  23  25
ATOM     25  C   UNL     1       5.663   2.690   1.561  0.00  0.00    +0.217 C 
ATOM     26  O   UNL     1       5.761   2.534   2.913  0.00  0.00    -0.218 OA
ENDBRANCH  23  25
ENDBRANCH  22  23
ENDBRANCH  20  22
ENDBRANCH   4  19
BRANCH   7  27
ATOM     27  C   UNL     1      -1.297   1.802  -1.242  0.00  0.00    +0.266 C 
ATOM     28  N   UNL     1      -1.798   2.649  -0.209  0.00  0.00    -0.199 NA
ATOM     29  O   UNL     1      -1.977   1.680  -2.304  0.00  0.00    -0.268 OA
BRANCH  28  30
ATOM     30  C   UNL     1      -3.156   3.186  -0.264  0.00  0.00    +0.151 C 
BRANCH  30  31
ATOM     31  C   UNL     1      -2.904   4.428  -1.349  0.00  0.00    +0.206 C 
ATOM     32  O   UNL     1      -4.019   3.923  -2.275  0.00  0.00    -0.218 OA
BRANCH  31  33
ATOM     33  C   UNL     1      -3.957   5.443  -0.547  0.00  0.00    +0.217 C 
ATOM     34  O   UNL     1      -5.067   4.689  -0.267  0.00  0.00    -0.218 OA
ENDBRANCH  31  33
ENDBRANCH  30  31
ENDBRANCH  28  30
ENDBRANCH   7  27
TORSDOF 12
