REMARK  Name = 
REMARK  4 active torsions:
REMARK  status: ('A' for Active; 'I' for Inactive)
REMARK    1  A    between atoms: O_2  and  C_3
REMARK    2  A    between atoms: C_3  and  C_5
REMARK    3  A    between atoms: C_5  and  C_6
REMARK    4  A    between atoms: C_5  and  N_13
REMARK                            x       y       z     vdW  Elec       q    Type
REMARK                         _______ _______ _______ _____ _____    ______ ____
ROOT
ATOM      1  C   UNL     1      -0.768   0.680  -0.883  0.00  0.00    +0.182 C 
ENDROOT
BRANCH   1   2
ATOM      2  N   UNL     1       0.468   0.487   0.121  0.00  0.00    -0.257 NA
ATOM      3  C   UNL     1       1.100  -0.606  -0.618  0.00  0.00    +0.100 C 
ATOM      4  C   UNL     1       2.541  -0.735  -0.330  0.00  0.00    -0.004 A 
ATOM      5  C   UNL     1       3.255   0.417  -0.071  0.00  0.00    +0.006 A 
ATOM      6  S   UNL     1       4.861  -0.179  -0.007  0.00  0.00    -0.091 S 
ATOM      7  C   UNL     1       4.507  -1.859  -0.081  0.00  0.00    +0.035 A 
ATOM      8  C   UNL     1       2.618   1.734   0.152  0.00  0.00    +0.050 C 
ATOM      9  C   UNL     1       3.169  -1.848   0.202  0.00  0.00    +0.004 A 
ATOM     10  C   UNL     1       1.183   1.691  -0.183  0.00  0.00    +0.078 C 
ENDBRANCH   1   2
BRANCH   1  11
ATOM     11  C   UNL     1      -1.446  -0.731  -0.413  0.00  0.00    +0.014 A 
ATOM     12  C   UNL     1      -2.422  -0.701   0.510  0.00  0.00    +0.055 A 
ATOM     13 CL   UNL     1      -1.831   0.113   1.964  0.00  0.00    -0.083 Cl
ATOM     14  C   UNL     1      -3.329  -1.747   0.559  0.00  0.00    +0.011 A 
ATOM     15  C   UNL     1      -3.401  -2.589  -0.543  0.00  0.00    +0.001 A 
ATOM     16  C   UNL     1      -2.301  -2.730  -1.376  0.00  0.00    -0.000 A 
ATOM     17  C   UNL     1      -1.379  -1.695  -1.416  0.00  0.00    -0.002 A 
ENDBRANCH   1  11
BRANCH   1  18
ATOM     18  C   UNL     1      -1.590   1.634   0.169  0.00  0.00    +0.336 C 
ATOM     19  O   UNL     1      -2.719   1.784  -0.406  0.00  0.00    -0.248 OA
BRANCH  18  21
ATOM     20  C   UNL     1      -1.551   4.011   0.680  0.00  0.00    +0.256 C 
ATOM     21  O   UNL     1      -0.965   2.868   0.378  0.00  0.00    -0.443 OA
ENDBRANCH  18  21
ENDBRANCH   1  18
TORSDOF 4
