REMARK  Name = 
REMARK  4 active torsions:
REMARK  status: ('A' for Active; 'I' for Inactive)
REMARK    1  A    between atoms: O_2  and  C_3
REMARK    2  A    between atoms: C_3  and  N_5
REMARK    3  A    between atoms: C_11  and  C_12
REMARK    4  A    between atoms: C_12  and  C_14
REMARK                            x       y       z     vdW  Elec       q    Type
REMARK                         _______ _______ _______ _____ _____    ______ ____
ROOT
ATOM      1  N   UNL     1       3.761   0.522  -0.991  0.00  0.00    -0.106 NA
ATOM      2  C   UNL     1       2.909  -0.377  -0.590  0.00  0.00    +0.246 A 
ATOM      3  N   UNL     1       2.026  -1.091  -1.297  0.00  0.00    -0.211 NA
ATOM      4  C   UNL     1       0.971  -1.454  -0.535  0.00  0.00    +0.102 A 
ATOM      5  C   UNL     1       1.271  -1.016   0.737  0.00  0.00    +0.102 A 
ATOM      6  C   UNL     1       0.241  -0.991   1.670  0.00  0.00    +0.021 A 
ATOM      7  C   UNL     1      -1.089  -1.004   1.303  0.00  0.00    +0.005 A 
ATOM      8  C   UNL     1      -1.390  -1.298  -0.016  0.00  0.00    +0.041 A 
ATOM      9  C   UNL     1      -0.369  -1.597  -0.876  0.00  0.00    +0.024 A 
ATOM     10  N   UNL     1       2.456  -0.372   0.687  0.00  0.00    -0.211 NA
ENDROOT
BRANCH   1  11
ATOM     11  C   UNL     1       4.599   1.188  -0.064  0.00  0.00    +0.428 C 
ATOM     12  O   UNL     1       4.484   0.969   1.168  0.00  0.00    -0.224 OA
BRANCH  11  14
ATOM     13  C   UNL     1       6.448   2.727   0.285  0.00  0.00    +0.257 C 
ATOM     14  O   UNL     1       5.794   1.753  -0.494  0.00  0.00    -0.429 OA
ENDBRANCH  11  14
ENDBRANCH   1  11
BRANCH   8  15
ATOM     15  C   UNL     1      -2.757  -1.251  -0.521  0.00  0.00    +0.196 C 
ATOM     16  O   UNL     1      -3.141  -2.281  -1.153  0.00  0.00    -0.287 OA
BRANCH  15  17
ATOM     17  C   UNL     1      -3.654  -0.123  -0.296  0.00  0.00    +0.039 A 
ATOM     18  C   UNL     1      -4.727  -0.350   0.556  0.00  0.00    +0.003 A 
ATOM     19  C   UNL     1      -5.555   0.695   0.945  0.00  0.00    +0.000 A 
ATOM     20  C   UNL     1      -5.008   1.966   0.923  0.00  0.00    +0.000 A 
ATOM     21  C   UNL     1      -4.042   2.207  -0.044  0.00  0.00    +0.000 A 
ATOM     22  C   UNL     1      -3.228   1.176  -0.489  0.00  0.00    +0.003 A 
ENDBRANCH  15  17
ENDBRANCH   8  15
TORSDOF 4
