REMARK  Name = 
REMARK  4 active torsions:
REMARK  status: ('A' for Active; 'I' for Inactive)
REMARK    1  A    between atoms: SI_2  and  O_4
REMARK    2  A    between atoms: O_4  and  SI_5
REMARK    3  A    between atoms: SI_5  and  O_8
REMARK    4  A    between atoms: O_8  and  SI_9
REMARK                            x       y       z     vdW  Elec       q    Type
REMARK                         _______ _______ _______ _____ _____    ______ ____
ROOT
ATOM      1 SI   UNL     1       0.137   1.005  -0.451  0.00  0.00    +0.000 Si
ATOM      2  O   UNL     1      -0.523   2.341  -1.275  0.00  0.00    +0.000 OA
ATOM      3  O   UNL     1       0.325   1.431   1.208  0.00  0.00    +0.000 OA
ENDROOT
BRANCH   1   4
ATOM      4  O   UNL     1       1.727   0.615  -1.057  0.00  0.00    +0.000 OA
BRANCH   4   6
ATOM      5  O   UNL     1       1.931  -1.987  -0.038  0.00  0.00    +0.000 OA
ATOM      6 SI   UNL     1       2.613  -0.561  -0.111  0.00  0.00    +0.000 Si
ATOM      7  O   UNL     1       3.365   0.031   1.343  0.00  0.00    +0.000 OA
ENDBRANCH   4   6
ENDBRANCH   1   4
BRANCH   1   8
ATOM      8  O   UNL     1      -0.854  -0.397  -0.510  0.00  0.00    +0.000 OA
BRANCH   8   9
ATOM      9 SI   UNL     1      -2.484  -0.483   0.037  0.00  0.00    +0.000 Si
ATOM     10  O   UNL     1      -3.504  -1.677  -0.738  0.00  0.00    +0.000 OA
ATOM     11  O   UNL     1      -2.732  -0.318   1.592  0.00  0.00    +0.000 OA
ENDBRANCH   8   9
ENDBRANCH   1   8
TORSDOF 4
