REMARK  Name = 
REMARK  5 active torsions:
REMARK  status: ('A' for Active; 'I' for Inactive)
REMARK    1  A    between atoms: C_2  and  C_4
REMARK    2  A    between atoms: C_4  and  C_5
REMARK    3  A    between atoms: C_5  and  C_6
REMARK    4  A    between atoms: C_6  and  C_7
REMARK    5  A    between atoms: C_7  and  N_8
REMARK                            x       y       z     vdW  Elec       q    Type
REMARK                         _______ _______ _______ _____ _____    ______ ____
ROOT
ATOM      1  N   UNL     1      -0.312   0.376   0.615  0.00  0.00    -0.247 N 
ATOM      2  C   UNL     1      -0.403  -0.898   0.983  0.00  0.00    +0.335 A 
ATOM      3  O   UNL     1       0.662  -1.472   1.363  0.00  0.00    -0.246 OA
ATOM      4  N   UNL     1      -1.500  -1.605   0.621  0.00  0.00    -0.263 N 
ATOM      5  C   UNL     1      -1.645  -2.975   1.102  0.00  0.00    +0.137 C 
ATOM      6  C   UNL     1      -2.620  -1.025   0.151  0.00  0.00    +0.170 A 
ATOM      7  N   UNL     1      -3.909  -1.387   0.007  0.00  0.00    -0.206 NA
ATOM      8  C   UNL     1      -4.562  -0.361  -0.591  0.00  0.00    +0.180 A 
ATOM      9  N   UNL     1      -3.812   0.744  -0.475  0.00  0.00    -0.302 N 
ATOM     10  C   UNL     1      -4.050   2.091  -0.957  0.00  0.00    +0.132 C 
ATOM     11  C   UNL     1      -2.592   0.325  -0.082  0.00  0.00    +0.153 A 
ATOM     12  C   UNL     1      -1.476   1.020   0.367  0.00  0.00    +0.283 A 
ATOM     13  O   UNL     1      -1.481   2.288   0.363  0.00  0.00    -0.265 OA
ENDROOT
BRANCH   1  14
ATOM     14  C   UNL     1       0.903   1.111   0.409  0.00  0.00    +0.114 C 
BRANCH  14  15
ATOM     15  C   UNL     1       2.139   0.261   0.428  0.00  0.00    +0.025 C 
BRANCH  15  16
ATOM     16  C   UNL     1       3.313   1.203   0.185  0.00  0.00    +0.010 C 
BRANCH  16  17
ATOM     17  C   UNL     1       4.555   0.621   0.846  0.00  0.00    +0.065 C 
BRANCH  17  19
ATOM     18  C   UNL     1       6.745   0.333  -0.561  0.00  0.00    +0.072 C 
ATOM     19  C   UNL     1       5.345  -0.028  -0.248  0.00  0.00    +0.151 C 
ATOM     20  O   UNL     1       4.700  -0.622  -1.099  0.00  0.00    -0.296 OA
ENDBRANCH  17  19
ENDBRANCH  16  17
ENDBRANCH  15  16
ENDBRANCH  14  15
ENDBRANCH   1  14
TORSDOF 5
