REMARK  Name = 
REMARK  4 active torsions:
REMARK  status: ('A' for Active; 'I' for Inactive)
REMARK    1  A    between atoms: C_2  and  N_5
REMARK    2  A    between atoms: N_5  and  C_6
REMARK    3  A    between atoms: C_6  and  C_7
REMARK    4  A    between atoms: C_7  and  C_9
REMARK                            x       y       z     vdW  Elec       q    Type
REMARK                         _______ _______ _______ _____ _____    ______ ____
ROOT
ATOM      1  C   UNL     1       0.741   0.247  -0.531  0.00  0.00    +0.192 C 
ATOM      2  O   UNL     1       1.220   0.971   0.723  0.00  0.00    -0.217 OA
ENDROOT
BRANCH   1   3
ATOM      3  C   UNL     1      -0.783   0.199   0.036  0.00  0.00    +0.015 A 
ATOM      4  C   UNL     1      -1.498  -0.854  -0.498  0.00  0.00    +0.040 A 
ATOM      5  C   UNL     1      -2.867  -0.827  -0.417  0.00  0.00    +0.199 A 
ATOM      6  O   UNL     1      -3.615  -1.987  -0.269  0.00  0.00    -0.286 OA
ATOM      7  C   UNL     1      -3.506   0.392  -0.406  0.00  0.00    +0.084 A 
ATOM      8  C   UNL     1      -2.737   1.530  -0.243  0.00  0.00    +0.199 A 
ATOM      9  O   UNL     1      -3.327   2.764  -0.536  0.00  0.00    -0.286 OA
ATOM     10  C   UNL     1      -1.384   1.449   0.025  0.00  0.00    +0.040 A 
ENDBRANCH   1   3
BRANCH   1  11
ATOM     11  C   UNL     1       1.077  -1.237   0.122  0.00  0.00    +0.126 C 
BRANCH  11  12
ATOM     12  N   UNL     1       2.404  -1.550  -0.393  0.00  0.00    -0.218 NA
BRANCH  12  14
ATOM     13  C   UNL     1       3.165  -0.459   0.060  0.00  0.00    +0.017 C 
ATOM     14  C   UNL     1       3.223  -0.417  -0.042  0.00  0.00    +0.060 C 
ATOM     15  C   UNL     1       3.581   0.422  -1.227  0.00  0.00    +0.017 C 
ATOM     16  C   UNL     1       4.306  -0.642   0.949  0.00  0.00    +0.017 C 
ENDBRANCH  12  14
ENDBRANCH  11  12
ENDBRANCH   1  11
TORSDOF 4
