REMARK  Name = 
REMARK  6 active torsions:
REMARK  status: ('A' for Active; 'I' for Inactive)
REMARK    1  A    between atoms: C_2  and  C_18
REMARK    2  A    between atoms: N_3  and  CA_4
REMARK    3  A    between atoms: CA_4  and  C_5
REMARK    4  A    between atoms: CA_4  and  C_7
REMARK    5  A    between atoms: C_7  and  C_9
REMARK    6  A    between atoms: C_12  and  N_13
REMARK                            x       y       z     vdW  Elec       q    Type
REMARK                         _______ _______ _______ _____ _____    ______ ____
ROOT
ATOM      1  C   UNL     1       0.725  -0.652  -0.170  0.00  0.00    +0.197 C 
ATOM      2  O   UNL     1       0.682   0.270  -1.405  0.00  0.00    -0.216 OA
ENDROOT
BRANCH   1   3
ATOM      3  C   UNL     1      -0.895  -0.536   0.057  0.00  0.00    +0.010 A 
ATOM      4  C   UNL     1      -1.573  -1.548  -0.580  0.00  0.00    +0.005 A 
ATOM      5  C   UNL     1      -2.957  -1.431  -0.632  0.00  0.00    +0.075 A 
ATOM      6  C   UNL     1      -3.550  -0.191  -0.433  0.00  0.00    +0.290 A 
ATOM      7  C   UNL     1      -2.799   0.826   0.115  0.00  0.00    +0.075 A 
ATOM      8  C   UNL     1      -1.419   0.712   0.017  0.00  0.00    +0.005 A 
BRANCH   6   9
ATOM      9  N   UNL     1      -4.972  -0.058  -0.318  0.00  0.00    +0.081 N 
ATOM     10  O   UNL     1      -5.489   0.566   0.805  0.00  0.00    -0.576 OA
ATOM     11  O   UNL     1      -5.651   0.007  -1.370  0.00  0.00    +0.041 OA
ENDBRANCH   6   9
ENDBRANCH   1   3
BRANCH   1  12
ATOM     12  CA  UNL     1       1.052   0.689   0.920  0.00  0.00    +0.163 C 
BRANCH  12  15
ATOM     13  O   UNL     1       3.038  -0.787  -0.170  0.00  0.00    -0.271 OA
ATOM     14  C   UNL     1       3.206   0.187  -0.347  0.00  0.00    +0.272 C 
ATOM     15  N   UNL     1       2.324   1.167   0.120  0.00  0.00    -0.199 NA
BRANCH  14  16
ATOM     16  C   UNL     1       4.493   0.687  -0.933  0.00  0.00    +0.236 C 
ATOM     17 CL   UNL     1       5.761  -0.485  -0.470  0.00  0.00    -0.087 Cl
ATOM     18 CL   UNL     1       4.935   2.206  -0.094  0.00  0.00    -0.087 Cl
ENDBRANCH  14  16
ENDBRANCH  12  15
BRANCH  12  19
ATOM     19  C   UNL     1       1.943  -0.269   1.925  0.00  0.00    +0.207 C 
ATOM     20  O   UNL     1       1.145  -1.362   2.179  0.00  0.00    -0.218 OA
ENDBRANCH  12  19
ENDBRANCH   1  12
TORSDOF 6
