REMARK  Name = 
REMARK  8 active torsions:
REMARK  status: ('A' for Active; 'I' for Inactive)
REMARK    1  A    between atoms: C_2  and  C_3
REMARK    2  A    between atoms: C_3  and  O_4
REMARK    3  A    between atoms: O_4  and  C_5
REMARK    4  A    between atoms: C_5  and  C_6
REMARK    5  A    between atoms: C_6  and  N_7
REMARK    6  A    between atoms: N_10  and  C_11
REMARK    7  A    between atoms: C_11  and  C_12
REMARK    8  A    between atoms: C_11  and  C_18
REMARK                            x       y       z     vdW  Elec       q    Type
REMARK                         _______ _______ _______ _____ _____    ______ ____
ROOT
ATOM      1  C   UNL     1      -1.845  -0.533  -1.376  0.00  0.00    +0.103 C 
ENDROOT
BRANCH   1   2
ATOM      2  C   UNL     1      -2.272  -1.431  -0.097  0.00  0.00    -0.004 A 
ATOM      3  C   UNL     1      -3.659  -1.569  -0.194  0.00  0.00    -0.002 A 
ATOM      4  C   UNL     1      -4.467  -1.567   0.942  0.00  0.00    +0.011 A 
ATOM      5  C   UNL     1      -3.876  -1.458   2.196  0.00  0.00    +0.058 A 
ATOM      6 CL   UNL     1      -4.729  -0.713   3.547  0.00  0.00    -0.082 Cl
ATOM      7  C   UNL     1      -2.501  -1.656   2.225  0.00  0.00    +0.011 A 
ATOM      8  C   UNL     1      -1.782  -1.259   1.106  0.00  0.00    -0.002 A 
ENDBRANCH   1   2
BRANCH   1   9
ATOM      9  C   UNL     1      -1.786   0.874  -0.587  0.00  0.00    -0.004 A 
ATOM     10  C   UNL     1      -1.032   1.176   0.411  0.00  0.00    -0.003 A 
ATOM     11  C   UNL     1      -1.371   2.055   1.407  0.00  0.00    -0.000 A 
ATOM     12  C   UNL     1      -2.647   2.564   1.409  0.00  0.00    -0.000 A 
ATOM     13  C   UNL     1      -3.474   2.301   0.334  0.00  0.00    -0.000 A 
ATOM     14  C   UNL     1      -3.062   1.428  -0.665  0.00  0.00    -0.003 A 
ENDBRANCH   1   9
BRANCH   1  18
ATOM     15  N   UNL     1       2.137   0.130  -1.605  0.00  0.00    -0.268 NA
ATOM     16  C   UNL     1       1.188   0.317  -2.619  0.00  0.00    +0.090 C 
ATOM     17  C   UNL     1       0.210  -0.855  -2.626  0.00  0.00    +0.090 C 
ATOM     18  N   UNL     1      -0.325  -0.879  -1.324  0.00  0.00    -0.264 NA
ATOM     19  C   UNL     1       0.376  -0.882  -0.241  0.00  0.00    +0.090 C 
ATOM     20  C   UNL     1       1.751  -0.326  -0.341  0.00  0.00    +0.090 C 
BRANCH  15  21
ATOM     21  C   UNL     1       3.419   0.681  -1.771  0.00  0.00    +0.105 C 
BRANCH  21  22
ATOM     22  C   UNL     1       4.545  -0.270  -1.454  0.00  0.00    +0.160 C 
BRANCH  22  23
ATOM     23  O   UNL     1       5.558   0.534  -0.905  0.00  0.00    -0.350 OA
BRANCH  23  24
ATOM     24  C   UNL     1       5.490   0.376   0.488  0.00  0.00    +0.178 C 
BRANCH  24  26
ATOM     25  O   UNL     1       7.202   0.293   0.821  0.00  0.00    -0.218 OA
ATOM     26  C   UNL     1       6.954   0.294   0.918  0.00  0.00    +0.214 C 
ENDBRANCH  24  26
ENDBRANCH  23  24
ENDBRANCH  22  23
ENDBRANCH  21  22
ENDBRANCH  15  21
ENDBRANCH   1  18
TORSDOF 8
