REMARK  Name = 
REMARK  4 active torsions:
REMARK  status: ('A' for Active; 'I' for Inactive)
REMARK    1  A    between atoms: CA_2  and  CB_3
REMARK    2  A    between atoms: CA_2  and  C_8
REMARK    3  A    between atoms: CB_3  and  CG_4
REMARK    4  A    between atoms: CG_4  and  CD_5
REMARK                            x       y       z     vdW  Elec       q    Type
REMARK                         _______ _______ _______ _____ _____    ______ ____
ROOT
ATOM      1  N   GLU A   1      -0.659   1.004   0.954  0.00  0.00    -0.121 NA
ATOM      2  CA  GLU A   1      -1.019   0.572  -0.550  0.00  0.00    +0.195 C 
ENDROOT
BRANCH   2   3
ATOM      3  C   GLU A   1      -2.246  -0.389  -0.022  0.00  0.00    +0.382 C 
ATOM      4  OXT GLU A   1      -2.586  -1.364  -0.970  0.00  0.00    -0.244 OA
ATOM      5  O   GLU A   1      -3.182   0.358   0.390  0.00  0.00    -0.244 OA
ENDBRANCH   2   3
BRANCH   2   6
ATOM      6  CB  GLU A   1       0.041  -0.723  -0.549  0.00  0.00    +0.042 C 
BRANCH   6   7
ATOM      7  CG  GLU A   1       1.167  -0.380   0.325  0.00  0.00    +0.116 C 
BRANCH   7   8
ATOM      8  CD  GLU A   1       2.369   0.180  -0.329  0.00  0.00    +0.365 C 
ATOM      9  OE2 GLU A   1       2.816   1.414   0.163  0.00  0.00    -0.246 OA
ATOM     10  OE1 GLU A   1       3.299  -0.671  -0.486  0.00  0.00    -0.246 OA
ENDBRANCH   7   8
ENDBRANCH   6   7
ENDBRANCH   2   6
TORSDOF 4
