REMARK  Name = 
REMARK  13 active torsions:
REMARK  status: ('A' for Active; 'I' for Inactive)
REMARK    1  A    between atoms: C_2  and  N_5
REMARK    2  A    between atoms: C_6  and  C_8
REMARK    3  A    between atoms: N_17  and  C_18
REMARK    4  A    between atoms: C_18  and  C_19
REMARK    5  A    between atoms: C_19  and  C_21
REMARK    6  A    between atoms: C_21  and  C_22
REMARK    7  A    between atoms: C_21  and  N_29
REMARK    8  A    between atoms: C_22  and  C_23
REMARK    9  A    between atoms: C_30  and  C_32
REMARK   10  A    between atoms: C_32  and  C_33
REMARK   11  A    between atoms: C_32  and  N_37
REMARK   12  A    between atoms: C_33  and  C_34
REMARK   13  A    between atoms: C_38  and  C_40
REMARK                            x       y       z     vdW  Elec       q    Type
REMARK                         _______ _______ _______ _____ _____    ______ ____
ROOT
ATOM      1  C   UNL     1      -1.374  -0.427   0.609  0.00  0.00    +0.131 C 
ENDROOT
BRANCH   1   2
ATOM      2  N   UNL     1       0.056  -0.045   1.121  0.00  0.00    -0.203 NA
ATOM      3  C   UNL     1       1.089   0.161   0.197  0.00  0.00    +0.262 C 
ATOM      4  O   UNL     1       0.765   0.609  -0.945  0.00  0.00    -0.271 OA
BRANCH   3   5
ATOM      5  C   UNL     1       2.162  -1.033  -0.030  0.00  0.00    +0.182 C 
BRANCH   5   6
ATOM      6  N   UNL     1       3.262  -0.076  -0.643  0.00  0.00    -0.192 NA
ATOM      7  C   UNL     1       4.072  -0.896  -1.500  0.00  0.00    +0.283 C 
ATOM      8  O   UNL     1       3.569  -1.835  -2.191  0.00  0.00    -0.267 OA
BRANCH   7   9
ATOM      9  C   UNL     1       5.457  -0.577  -1.823  0.00  0.00    +0.136 A 
ATOM     10  N   UNL     1       6.472  -0.669  -0.950  0.00  0.00    -0.241 NA
ATOM     11  C   UNL     1       7.543   0.156  -1.040  0.00  0.00    +0.081 A 
ATOM     12  C   UNL     1       7.801   0.693  -2.290  0.00  0.00    +0.018 A 
ATOM     13  C   UNL     1       8.789   1.635  -2.452  0.00  0.00    +0.001 A 
ATOM     14  C   UNL     1       9.567   1.937  -1.369  0.00  0.00    +0.000 A 
ATOM     15  C   UNL     1       9.070   1.738  -0.090  0.00  0.00    +0.002 A 
ATOM     16  C   UNL     1       6.968   0.427  -3.344  0.00  0.00    +0.003 A 
ATOM     17  C   UNL     1       8.179   0.685   0.062  0.00  0.00    +0.019 A 
ATOM     18  C   UNL     1       5.782  -0.217  -3.114  0.00  0.00    +0.024 A 
ENDBRANCH   7   9
ENDBRANCH   5   6
BRANCH   5  19
ATOM     19  C   UNL     1       2.797  -0.911   1.484  0.00  0.00    +0.120 C 
BRANCH  19  20
ATOM     20  C   UNL     1       2.916   0.512   1.802  0.00  0.00    +0.263 C 
ATOM     21  O   UNL     1       2.384   0.851   2.906  0.00  0.00    -0.272 OA
ATOM     22  N   UNL     1       4.110   1.254   1.519  0.00  0.00    -0.088 NA
ENDBRANCH  19  20
ENDBRANCH   5  19
ENDBRANCH   3   5
ENDBRANCH   1   2
BRANCH   1  23
ATOM     23  C   UNL     1      -2.224   0.249   1.950  0.00  0.00    +0.188 C 
ATOM     24  O   UNL     1      -3.226  -0.886   2.009  0.00  0.00    -0.220 OA
BRANCH  23  25
ATOM     25  C   UNL     1      -3.227   1.199   1.072  0.00  0.00    +0.107 C 
BRANCH  25  27
ATOM     26  C   UNL     1      -4.964   1.013  -0.530  0.00  0.00    +0.137 C 
ATOM     27  N   UNL     1      -3.465   0.634  -0.190  0.00  0.00    -0.264 NA
ATOM     28  C   UNL     1      -2.835   1.583  -1.119  0.00  0.00    +0.072 C 
ATOM     29  C   UNL     1      -3.872   1.803  -2.346  0.00  0.00    +0.016 C 
ATOM     30  C   UNL     1      -3.908   0.142  -2.688  0.00  0.00    +0.003 C 
ATOM     31  C   UNL     1      -5.010   0.316  -3.868  0.00  0.00    +0.000 C 
ATOM     32  C   UNL     1      -4.649   1.496  -4.690  0.00  0.00    +0.000 C 
ATOM     33  C   UNL     1      -3.155   1.618  -4.744  0.00  0.00    +0.000 C 
ATOM     34  C   UNL     1      -2.672   2.073  -3.402  0.00  0.00    +0.001 C 
ATOM     35  C   UNL     1      -5.060  -0.226  -1.609  0.00  0.00    +0.025 C 
BRANCH  26  37
ATOM     36  N   UNL     1      -6.832  -0.546   0.282  0.00  0.00    -0.208 NA
ATOM     37  C   UNL     1      -5.639   0.153   0.666  0.00  0.00    +0.256 C 
ATOM     38  O   UNL     1      -5.882   1.020   1.569  0.00  0.00    -0.272 OA
BRANCH  36  40
ATOM     39  C   UNL     1      -8.007  -0.314   1.135  0.00  0.00    +0.022 C 
ATOM     40  C   UNL     1      -7.950  -0.643   1.136  0.00  0.00    +0.079 C 
ATOM     41  C   UNL     1      -9.257  -0.947   0.575  0.00  0.00    +0.022 C 
ATOM     42  C   UNL     1      -7.676  -0.989   2.549  0.00  0.00    +0.022 C 
ENDBRANCH  36  40
ENDBRANCH  26  37
ENDBRANCH  25  27
ENDBRANCH  23  25
ENDBRANCH   1  23
BRANCH   1  43
ATOM     43  C   UNL     1      -1.294  -1.909   1.270  0.00  0.00    +0.051 C 
BRANCH  43  44
ATOM     44  C   UNL     1      -0.751  -1.875   2.591  0.00  0.00    -0.020 A 
ATOM     45  C   UNL     1      -0.500  -0.915   3.508  0.00  0.00    -0.004 A 
ATOM     46  C   UNL     1       0.377  -1.060   4.574  0.00  0.00    -0.000 A 
ATOM     47  C   UNL     1       0.479  -2.336   5.087  0.00  0.00    -0.000 A 
ATOM     48  C   UNL     1       0.122  -3.399   4.272  0.00  0.00    -0.000 A 
ATOM     49  C   UNL     1      -0.358  -3.143   3.023  0.00  0.00    -0.004 A 
ENDBRANCH  43  44
ENDBRANCH   1  43
TORSDOF 13
