REMARK  Name = 
REMARK  7 active torsions:
REMARK  status: ('A' for Active; 'I' for Inactive)
REMARK    1  A    between atoms: C_2  and  C_4
REMARK    2  A    between atoms: C_2  and  C_15
REMARK    3  A    between atoms: C_4  and  S_5
REMARK    4  A    between atoms: S_5  and  C_8
REMARK    5  A    between atoms: N_17  and  C_18
REMARK    6  A    between atoms: C_21  and  C_22
REMARK    7  A    between atoms: C_24  and  C_25
REMARK                            x       y       z     vdW  Elec       q    Type
REMARK                         _______ _______ _______ _____ _____    ______ ____
ROOT
ATOM      1  C   UNL     1      -0.095   0.984   0.441  0.00  0.00    +0.275 C 
ATOM      2  N   UNL     1      -0.869  -0.169   0.792  0.00  0.00    -0.177 NA
ATOM      3  O   UNL     1      -0.480   2.070   0.970  0.00  0.00    -0.270 OA
ENDROOT
BRANCH   2   4
ATOM      4  C   UNL     1      -2.262  -0.124   1.003  0.00  0.00    +0.073 A 
ATOM      5  C   UNL     1      -3.134  -1.064   0.469  0.00  0.00    +0.021 A 
ATOM      6  C   UNL     1      -4.419  -0.664   0.124  0.00  0.00    +0.082 A 
ATOM      7  C   UNL     1      -4.888   0.586   0.508  0.00  0.00    +0.072 A 
ATOM      8  C   UNL     1      -4.117   1.357   1.368  0.00  0.00    +0.012 A 
ATOM      9  C   UNL     1      -2.821   0.947   1.656  0.00  0.00    +0.017 A 
BRANCH   6  10
ATOM     10  C   UNL     1      -5.446  -1.670  -0.264  0.00  0.00    +0.419 C 
ATOM     11  F   UNL     1      -5.352  -2.016  -1.592  0.00  0.00    -0.166 F 
ATOM     12  F   UNL     1      -6.726  -1.240  -0.029  0.00  0.00    -0.166 F 
ATOM     13  F   UNL     1      -5.259  -2.815   0.497  0.00  0.00    -0.166 F 
ENDBRANCH   6  10
BRANCH   7  14
ATOM     14  C   UNL     1      -5.913   1.178  -0.321  0.00  0.00    +0.100 C 
ATOM     15  N   UNL     1      -6.667   1.654  -1.070  0.00  0.00    -0.191 NA
ENDBRANCH   7  14
ENDBRANCH   2   4
BRANCH   1  17
ATOM     16  C   UNL     1       1.292   1.366  -1.482  0.00  0.00    +0.044 C 
ATOM     17  C   UNL     1       1.298   0.849  -0.088  0.00  0.00    +0.218 C 
ATOM     18  O   UNL     1       2.109   1.681   0.687  0.00  0.00    -0.214 OA
BRANCH  17  19
ATOM     19  C   UNL     1       1.680  -0.595   0.030  0.00  0.00    +0.195 C 
BRANCH  19  20
ATOM     20  S   UNL     1       3.095  -1.038  -0.920  0.00  0.00    +0.012 S 
ATOM     21  O   UNL     1       2.883  -0.895  -2.390  0.00  0.00    -0.169 OA
ATOM     22  O   UNL     1       3.361  -2.504  -0.657  0.00  0.00    -0.169 OA
BRANCH  20  23
ATOM     23  C   UNL     1       4.514  -0.173  -0.377  0.00  0.00    +0.106 A 
ATOM     24  C   UNL     1       4.871  -0.318   0.952  0.00  0.00    +0.021 A 
ATOM     25  C   UNL     1       6.151   0.041   1.341  0.00  0.00    +0.031 A 
ATOM     26  C   UNL     1       7.045   0.535   0.408  0.00  0.00    +0.140 A 
ATOM     27  F   UNL     1       8.389   0.408   0.586  0.00  0.00    -0.204 F 
ATOM     28  C   UNL     1       6.542   0.931  -0.825  0.00  0.00    +0.031 A 
ATOM     29  C   UNL     1       5.218   0.697  -1.173  0.00  0.00    +0.021 A 
ENDBRANCH  20  23
ENDBRANCH  19  20
ENDBRANCH  17  19
ENDBRANCH   1  17
TORSDOF 7
