REMARK  Name = 
REMARK  6 active torsions:
REMARK  status: ('A' for Active; 'I' for Inactive)
REMARK    1  A    between atoms: N_2  and  C_4
REMARK    2  A    between atoms: C_4  and  C_5
REMARK    3  A    between atoms: C_5  and  O_6
REMARK    4  A    between atoms: O_6  and  C_7
REMARK    5  A    between atoms: C_12  and  C_13
REMARK    6  A    between atoms: C_13  and  C_14
REMARK                            x       y       z     vdW  Elec       q    Type
REMARK                         _______ _______ _______ _____ _____    ______ ____
ROOT
ATOM      1  C   UNL     1       0.905  -0.786  -1.336  0.00  0.00    +0.135 A 
ATOM      2  C   UNL     1      -0.265  -1.212  -0.716  0.00  0.00    +0.016 A 
ATOM      3  C   UNL     1      -1.317  -1.736  -1.459  0.00  0.00    -0.001 A 
ATOM      4  C   UNL     1      -1.239  -1.798  -2.845  0.00  0.00    -0.000 A 
ATOM      5  C   UNL     1       0.000  -1.615  -3.422  0.00  0.00    +0.003 A 
ATOM      6  C   UNL     1       1.087  -1.285  -2.621  0.00  0.00    +0.037 A 
ENDROOT
BRANCH   2   7
ATOM      7  C   UNL     1      -0.495  -0.649   0.652  0.00  0.00    +0.056 C 
BRANCH   7   8
ATOM      8  C   UNL     1      -1.842  -0.042   0.752  0.00  0.00    -0.018 A 
ATOM      9  C   UNL     1      -2.049   1.264   0.399  0.00  0.00    -0.004 A 
ATOM     10  C   UNL     1      -3.205   1.899   0.804  0.00  0.00    -0.000 A 
ATOM     11  C   UNL     1      -4.101   1.241   1.608  0.00  0.00    -0.000 A 
ATOM     12  C   UNL     1      -4.045  -0.143   1.675  0.00  0.00    -0.000 A 
ATOM     13  C   UNL     1      -2.911  -0.789   1.215  0.00  0.00    -0.004 A 
ENDBRANCH   7   8
ENDBRANCH   2   7
BRANCH   1  14
ATOM     14  O   UNL     1       1.602   0.339  -0.882  0.00  0.00    -0.474 OA
BRANCH  14  15
ATOM     15  C   UNL     1       2.035   0.342   0.469  0.00  0.00    +0.223 C 
BRANCH  15  16
ATOM     16  C   UNL     1       3.557   0.368   0.452  0.00  0.00    +0.120 C 
BRANCH  16  18
ATOM     17  C   UNL     1       2.978   1.879   2.138  0.00  0.00    +0.090 C 
ATOM     18  N   UNL     1       4.040   0.984   1.685  0.00  0.00    -0.267 NA
ATOM     19  C   UNL     1       5.265   1.737   1.434  0.00  0.00    +0.090 C 
ENDBRANCH  16  18
ENDBRANCH  15  16
ENDBRANCH  14  15
ENDBRANCH   1  14
TORSDOF 6
