REMARK  Name = 
REMARK  4 active torsions:
REMARK  status: ('A' for Active; 'I' for Inactive)
REMARK    1  A    between atoms: S_2  and  C_5
REMARK    2  A    between atoms: C_10  and  C_11
REMARK    3  A    between atoms: C_16  and  C_17
REMARK    4  A    between atoms: C_17  and  C_18
REMARK                            x       y       z     vdW  Elec       q    Type
REMARK                         _______ _______ _______ _____ _____    ______ ____
ROOT
ATOM      1  C   UNL     1       2.618   0.035   0.743  0.00  0.00    +0.130 A 
ATOM      2  C   UNL     1       2.477   0.783  -0.417  0.00  0.00    +0.091 A 
ATOM      3  C   UNL     1       1.300   0.757  -1.157  0.00  0.00    +0.023 A 
ATOM      4  C   UNL     1       0.303  -0.125  -0.778  0.00  0.00    +0.086 A 
ATOM      5  N   UNL     1      -1.061   0.075  -1.182  0.00  0.00    -0.218 NA
ATOM      6  C   UNL     1      -2.040  -0.935  -0.455  0.00  0.00    +0.193 C 
ATOM      7  N   UNL     1      -1.470  -2.172  -1.270  0.00  0.00    -0.057 NA
ATOM      8  S   UNL     1      -0.238  -2.648  -0.130  0.00  0.00    +0.080 S 
ATOM      9  O   UNL     1       0.622  -3.757  -0.597  0.00  0.00    -0.152 OA
ATOM     10  O   UNL     1      -0.954  -2.951   1.142  0.00  0.00    -0.152 OA
ATOM     11  C   UNL     1       0.653  -1.147   0.101  0.00  0.00    +0.140 A 
ATOM     12  C   UNL     1       1.716  -1.002   0.940  0.00  0.00    +0.041 A 
ENDROOT
BRANCH   1  14
ATOM     13  N   UNL     1       2.997   0.379   3.036  0.00  0.00    +0.039 NA
ATOM     14  S   UNL     1       3.572   0.698   2.018  0.00  0.00    +0.094 S 
ATOM     15  O   UNL     1       4.859   0.024   2.259  0.00  0.00    -0.150 OA
ATOM     16  O   UNL     1       3.579   2.165   2.099  0.00  0.00    -0.150 OA
ENDBRANCH   1  14
BRANCH   2  17
ATOM     17  C   UNL     1       3.681   1.432  -0.973  0.00  0.00    +0.420 C 
ATOM     18  F   UNL     1       3.586   2.820  -0.964  0.00  0.00    -0.166 F 
ATOM     19  F   UNL     1       4.854   0.994  -0.437  0.00  0.00    -0.166 F 
ATOM     20  F   UNL     1       3.725   1.092  -2.324  0.00  0.00    -0.166 F 
ENDBRANCH   2  17
BRANCH   6  21
ATOM     21  C   UNL     1      -3.250  -0.661  -1.542  0.00  0.00    +0.068 C 
BRANCH  21  22
ATOM     22  C   UNL     1      -4.215   0.139  -0.749  0.00  0.00    -0.019 A 
ATOM     23  C   UNL     1      -4.188   0.217   0.629  0.00  0.00    -0.004 A 
ATOM     24  C   UNL     1      -5.279   0.609   1.368  0.00  0.00    -0.000 A 
ATOM     25  C   UNL     1      -6.431   0.883   0.656  0.00  0.00    -0.000 A 
ATOM     26  C   UNL     1      -6.268   1.345  -0.645  0.00  0.00    -0.000 A 
ATOM     27  C   UNL     1      -5.149   0.952  -1.370  0.00  0.00    -0.004 A 
ENDBRANCH  21  22
ENDBRANCH   6  21
TORSDOF 4
