REMARK  Name = 
REMARK  2 active torsions:
REMARK  status: ('A' for Active; 'I' for Inactive)
REMARK    1  A    between atoms: C_5  and  S_6
REMARK    2  A    between atoms: S_6  and  C_9
REMARK                            x       y       z     vdW  Elec       q    Type
REMARK                         _______ _______ _______ _____ _____    ______ ____
ROOT
ATOM      1  S   UNL     1      -0.213   0.090  -1.086  0.00  0.00    +0.027 S 
ATOM      2  O   UNL     1      -0.505  -0.990  -2.102  0.00  0.00    -0.164 OA
ATOM      3  O   UNL     1      -0.322   1.400  -1.827  0.00  0.00    -0.164 OA
ENDROOT
BRANCH   1   8
ATOM      4  N   UNL     1      -5.380  -0.188   0.948  0.00  0.00    -0.128 NA
ATOM      5  C   UNL     1      -3.987  -0.089   1.172  0.00  0.00    +0.089 A 
ATOM      6  C   UNL     1      -3.181  -1.221   1.180  0.00  0.00    +0.019 A 
ATOM      7  C   UNL     1      -1.907  -1.176   0.625  0.00  0.00    +0.020 A 
ATOM      8  C   UNL     1      -1.324   0.030   0.256  0.00  0.00    +0.110 A 
ATOM      9  C   UNL     1      -1.968   1.157   0.755  0.00  0.00    +0.020 A 
ATOM     10  C   UNL     1      -3.297   1.117   1.163  0.00  0.00    +0.019 A 
ENDBRANCH   1   8
BRANCH   1  11
ATOM     11  C   UNL     1       1.447  -0.173  -0.572  0.00  0.00    +0.110 A 
ATOM     12  C   UNL     1       1.826   0.018   0.727  0.00  0.00    +0.020 A 
ATOM     13  C   UNL     1       3.112   0.409   1.015  0.00  0.00    +0.019 A 
ATOM     14  C   UNL     1       4.101   0.267   0.068  0.00  0.00    +0.089 A 
ATOM     15  N   UNL     1       5.467   0.241   0.461  0.00  0.00    -0.128 NA
ATOM     16  C   UNL     1       3.728  -0.088  -1.218  0.00  0.00    +0.019 A 
ATOM     17  C   UNL     1       2.401  -0.263  -1.565  0.00  0.00    +0.020 A 
ENDBRANCH   1  11
TORSDOF 2
