REMARK  Name = 
REMARK  2 active torsions:
REMARK  status: ('A' for Active; 'I' for Inactive)
REMARK    1  A    between atoms: P_2  and  C_5
REMARK    2  A    between atoms: C_5  and  P_6
REMARK                            x       y       z     vdW  Elec       q    Type
REMARK                         _______ _______ _______ _____ _____    ______ ____
ROOT
ATOM      1  C   UNL     1       0.049   0.556  -0.922  0.00  0.00    +0.118 C 
ENDROOT
BRANCH   1   3
ATOM      2  O   UNL     1       1.318  -1.510   0.380  0.00  0.00    -0.460 OA
ATOM      3  P   UNL     1       1.504  -0.062  -0.046  0.00  0.00    +0.124 P 
ATOM      4  O   UNL     1       1.854   0.892   1.320  0.00  0.00    -0.357 OA
ATOM      5  O   UNL     1       2.816   0.097  -1.117  0.00  0.00    -0.357 OA
ENDBRANCH   1   3
BRANCH   1   6
ATOM      6  P   UNL     1      -1.494   0.102  -0.124  0.00  0.00    +0.124 P 
ATOM      7  O   UNL     1      -2.393   1.460   0.368  0.00  0.00    -0.357 OA
ATOM      8  O   UNL     1      -1.250  -0.883   1.220  0.00  0.00    -0.357 OA
ATOM      9  O   UNL     1      -2.405  -0.652  -1.080  0.00  0.00    -0.460 OA
ENDBRANCH   1   6
TORSDOF 2
