REMARK  Name = 
REMARK  2 active torsions:
REMARK  status: ('A' for Active; 'I' for Inactive)
REMARK    1  A    between atoms: N_5  and  C1*_6
REMARK    2  A    between atoms: C4*_8  and  C5*_9
REMARK                            x       y       z     vdW  Elec       q    Type
REMARK                         _______ _______ _______ _____ _____    ______ ____
ROOT
ATOM      1  C1* UNL     1      -0.437   0.366   0.673  0.00  0.00    +0.243 C 
ATOM      2  C2* UNL     1      -0.758   1.617  -0.503  0.00  0.00    +0.234 C 
ATOM      3  O2* UNL     1      -0.943   2.608   0.626  0.00  0.00    -0.216 OA
ATOM      4  C3* UNL     1      -2.420   1.196  -0.689  0.00  0.00    +0.216 C 
ATOM      5  O3* UNL     1      -3.010   2.386   0.044  0.00  0.00    -0.218 OA
ATOM      6  C4* UNL     1      -2.358   0.202   0.730  0.00  0.00    +0.183 C 
ATOM      7  O4* UNL     1      -1.341  -0.639  -0.063  0.00  0.00    -0.330 OA
ENDROOT
BRANCH   1  13
ATOM      8  N   UNL     1       4.608  -1.002  -0.658  0.00  0.00    -0.086 NA
ATOM      9  C   UNL     1       3.505  -0.719  -0.370  0.00  0.00    +0.262 A 
ATOM     10  N   UNL     1       2.606  -1.629   0.068  0.00  0.00    -0.156 NA
ATOM     11  C   UNL     1       1.303  -1.334   0.279  0.00  0.00    +0.356 A 
ATOM     12  O   UNL     1       0.534  -2.197   0.800  0.00  0.00    -0.244 OA
ATOM     13  N   UNL     1       0.859  -0.128  -0.148  0.00  0.00    -0.237 N 
ATOM     14  C   UNL     1       1.788   0.862  -0.156  0.00  0.00    +0.187 A 
ATOM     15  N   UNL     1       3.107   0.571  -0.246  0.00  0.00    -0.190 NA
ENDBRANCH   1  13
BRANCH   6  16
ATOM     16  C5* UNL     1      -3.694  -0.649   0.229  0.00  0.00    +0.214 C 
ATOM     17  O5* UNL     1      -3.351  -1.511  -0.734  0.00  0.00    -0.218 OA
ENDBRANCH   6  16
TORSDOF 2
