REMARK  Name = 
REMARK  0 active torsions:
REMARK  status: ('A' for Active; 'I' for Inactive)
REMARK                            x       y       z     vdW  Elec       q    Type
REMARK                         _______ _______ _______ _____ _____    ______ ____
ROOT
ATOM      1  N   UNL     1      -1.429   2.548  -0.853  0.00  0.00    -0.069 NA
ATOM      2  C   UNL     1      -0.545   2.139   0.200  0.00  0.00    +0.350 C 
ATOM      3  N   UNL     1      -0.153   0.764   0.316  0.00  0.00    -0.219 N 
ATOM      4  C   UNL     1      -1.255  -0.141   0.399  0.00  0.00    +0.060 A 
ATOM      5  C   UNL     1      -1.200  -1.524   0.512  0.00  0.00    +0.014 A 
ATOM      6  C   UNL     1      -2.200  -2.337  -0.008  0.00  0.00    +0.001 A 
ATOM      7  C   UNL     1      -3.065  -1.804  -0.959  0.00  0.00    +0.000 A 
ATOM      8  C   UNL     1      -3.337  -0.451  -0.812  0.00  0.00    +0.001 A 
ATOM      9  C   UNL     1      -0.017  -2.280   0.940  0.00  0.00    +0.001 C 
ATOM     10  C   UNL     1       1.275  -1.940   0.947  0.00  0.00    +0.001 C 
ATOM     11  C   UNL     1       1.884  -0.693   0.467  0.00  0.00    +0.014 A 
ATOM     12  C   UNL     1       3.111  -0.874  -0.147  0.00  0.00    +0.001 A 
ATOM     13  C   UNL     1       3.630   0.056  -1.040  0.00  0.00    +0.000 A 
ATOM     14  C   UNL     1       3.162   1.349  -0.959  0.00  0.00    +0.001 A 
ATOM     15  C   UNL     1       1.913   1.537  -0.415  0.00  0.00    +0.015 A 
ATOM     16  C   UNL     1      -2.413   0.364  -0.179  0.00  0.00    +0.015 A 
ATOM     17  C   UNL     1       1.257   0.533   0.286  0.00  0.00    +0.060 A 
ATOM     18  O   UNL     1      -0.619   2.756   1.307  0.00  0.00    -0.248 OA
ENDROOT
TORSDOF 0
