REMARK  Name = 
REMARK  8 active torsions:
REMARK  status: ('A' for Active; 'I' for Inactive)
REMARK    1  A    between atoms: C_2  and  N_4
REMARK    2  A    between atoms: N_4  and  C_5
REMARK    3  A    between atoms: N_4  and  C_23
REMARK    4  A    between atoms: C_5  and  C_6
REMARK    5  A    between atoms: C_6  and  C_7
REMARK    6  A    between atoms: C_7  and  C_8
REMARK    7  A    between atoms: C_7  and  C_11
REMARK    8  A    between atoms: C_7  and  C_17
REMARK                            x       y       z     vdW  Elec       q    Type
REMARK                         _______ _______ _______ _____ _____    ______ ____
ROOT
ATOM      1  C   UNL     1      -0.893  -0.104  -0.556  0.00  0.00    +0.127 C 
ENDROOT
BRANCH   1   2
ATOM      2  C   UNL     1      -1.064  -1.039   0.601  0.00  0.00    -0.009 A 
ATOM      3  C   UNL     1      -2.147  -0.957   1.447  0.00  0.00    -0.003 A 
ATOM      4  C   UNL     1      -2.508  -2.049   2.226  0.00  0.00    -0.000 A 
ATOM      5  C   UNL     1      -2.120  -3.316   1.808  0.00  0.00    -0.000 A 
ATOM      6  C   UNL     1      -0.904  -3.401   1.143  0.00  0.00    -0.000 A 
ATOM      7  C   UNL     1      -0.514  -2.303   0.427  0.00  0.00    -0.003 A 
ENDBRANCH   1   2
BRANCH   1   8
ATOM      8  C   UNL     1      -1.307   1.275  -0.214  0.00  0.00    +0.070 A 
ATOM      9  N   UNL     1      -2.615   1.473   0.072  0.00  0.00    -0.247 NA
ATOM     10  C   UNL     1      -3.077   2.721   0.230  0.00  0.00    +0.098 A 
ATOM     11  C   UNL     1      -2.354   3.837  -0.163  0.00  0.00    +0.021 A 
ATOM     12  C   UNL     1      -1.175   3.591  -0.839  0.00  0.00    +0.003 A 
ATOM     13  C   UNL     1      -0.624   2.340  -0.753  0.00  0.00    +0.016 A 
ENDBRANCH   1   8
BRANCH   1  14
ATOM     14  C   UNL     1      -1.754  -0.624  -1.643  0.00  0.00    +0.269 C 
ATOM     15  O   UNL     1      -2.925  -0.989  -1.328  0.00  0.00    -0.271 OA
ATOM     16  N   UNL     1      -1.297  -0.934  -2.943  0.00  0.00    -0.087 NA
ENDBRANCH   1  14
BRANCH   1  17
ATOM     17  C   UNL     1       0.578  -0.120  -0.933  0.00  0.00    +0.036 C 
BRANCH  17  18
ATOM     18  C   UNL     1       1.433  -0.286   0.317  0.00  0.00    +0.073 C 
BRANCH  18  19
ATOM     19  N   UNL     1       2.727   0.291   0.075  0.00  0.00    -0.275 NA
BRANCH  19  20
ATOM     20  C   UNL     1       3.266   1.009   1.200  0.00  0.00    +0.058 C 
ATOM     21  C   UNL     1       4.255   0.172   2.000  0.00  0.00    +0.017 C 
ATOM     22  C   UNL     1       3.969   2.257   0.699  0.00  0.00    +0.017 C 
ENDBRANCH  19  20
BRANCH  19  24
ATOM     23  C   UNL     1       4.111  -0.179  -1.887  0.00  0.00    +0.017 C 
ATOM     24  C   UNL     1       3.673  -0.611  -0.523  0.00  0.00    +0.058 C 
ATOM     25  C   UNL     1       3.264  -2.055  -0.462  0.00  0.00    +0.017 C 
ENDBRANCH  19  24
ENDBRANCH  18  19
ENDBRANCH  17  18
ENDBRANCH   1  17
TORSDOF 8
