REMARK  Name = 
REMARK  13 active torsions:
REMARK  status: ('A' for Active; 'I' for Inactive)
REMARK    1  A    between atoms: C_2  and  O_4
REMARK    2  A    between atoms: O_4  and  C_5
REMARK    3  A    between atoms: C_5  and  C_7
REMARK    4  A    between atoms: C_7  and  C_8
REMARK    5  A    between atoms: C_8  and  C_9
REMARK    6  A    between atoms: C_9  and  C_10
REMARK    7  A    between atoms: C_11  and  C_12
REMARK    8  A    between atoms: C_12  and  C_13
REMARK    9  A    between atoms: C_14  and  C_15
REMARK   10  A    between atoms: C_16  and  C_17
REMARK   11  A    between atoms: C_17  and  C_20
REMARK   12  A    between atoms: C_20  and  O_21
REMARK   13  A    between atoms: O_21  and  C_22
REMARK                            x       y       z     vdW  Elec       q    Type
REMARK                         _______ _______ _______ _____ _____    ______ ____
ROOT
ATOM      1  C   UNL     1       0.370  -1.058  -0.187  0.00  0.00    +0.041 C 
ATOM      2  C   UNL     1       0.083  -1.909  -1.618  0.00  0.00    +0.155 C 
ATOM      3  O   UNL     1       1.399  -2.668  -1.727  0.00  0.00    -0.223 OA
ATOM      4  C   UNL     1      -0.762  -3.150  -1.101  0.00  0.00    +0.066 C 
ATOM      5  C   UNL     1      -0.297  -3.534   0.377  0.00  0.00    +0.159 C 
ATOM      6  O   UNL     1       1.204  -3.623   0.195  0.00  0.00    -0.223 OA
ATOM      7  C   UNL     1      -0.400  -1.958   0.971  0.00  0.00    +0.055 C 
ENDROOT
BRANCH   7   8
ATOM      8  C   UNL     1      -1.852  -1.714   0.336  0.00  0.00    -0.023 C 
ATOM      9  C   UNL     1      -2.161  -0.452   0.129  0.00  0.00    +0.038 C 
BRANCH   9  10
ATOM     10  C   UNL     1      -3.381   0.006  -0.622  0.00  0.00    +0.322 C 
ATOM     11  F   UNL     1      -3.276  -0.341  -1.969  0.00  0.00    -0.196 F 
ATOM     12  F   UNL     1      -3.351   1.363  -0.525  0.00  0.00    -0.196 F 
BRANCH  10  13
ATOM     13  C   UNL     1      -4.449  -0.755  -0.050  0.00  0.00    +0.276 C 
BRANCH  13  14
ATOM     14  O   UNL     1      -5.674  -0.390   0.260  0.00  0.00    -0.469 OA
BRANCH  14  15
ATOM     15  C   UNL     1      -6.282   0.749   0.713  0.00  0.00    +0.139 A 
ATOM     16  C   UNL     1      -5.612   1.560   1.595  0.00  0.00    +0.037 A 
ATOM     17  C   UNL     1      -5.912   2.917   1.585  0.00  0.00    +0.003 A 
ATOM     18  C   UNL     1      -6.787   3.424   0.638  0.00  0.00    +0.000 A 
ATOM     19  C   UNL     1      -7.713   2.532   0.110  0.00  0.00    +0.003 A 
ATOM     20  C   UNL     1      -7.278   1.251  -0.121  0.00  0.00    +0.037 A 
ENDBRANCH  14  15
ENDBRANCH  13  14
ENDBRANCH  10  13
ENDBRANCH   9  10
ENDBRANCH   7   8
BRANCH   1  21
ATOM     21  C   UNL     1       1.907  -1.479   0.136  0.00  0.00    +0.029 C 
BRANCH  21  23
ATOM     22  C   UNL     1       2.355   0.641   1.136  0.00  0.00    -0.031 C 
ATOM     23  C   UNL     1       2.153  -0.661   1.354  0.00  0.00    -0.031 C 
BRANCH  22  24
ATOM     24  C   UNL     1       3.096   1.141  -0.038  0.00  0.00    +0.026 C 
BRANCH  24  25
ATOM     25  C   UNL     1       3.661   0.059  -0.913  0.00  0.00    +0.016 C 
BRANCH  25  26
ATOM     26  C   UNL     1       4.990  -0.357  -0.318  0.00  0.00    +0.110 C 
BRANCH  26  27
ATOM     27  C   UNL     1       6.022   0.687  -0.460  0.00  0.00    +0.317 C 
ATOM     28  O   UNL     1       5.695   1.893  -0.643  0.00  0.00    -0.250 OA
BRANCH  27  29
ATOM     29  O   UNL     1       7.360   0.380  -0.487  0.00  0.00    -0.452 OA
BRANCH  29  31
ATOM     30  C   UNL     1       8.427   1.632  -0.936  0.00  0.00    +0.047 C 
ATOM     31  C   UNL     1       8.380   1.376  -0.444  0.00  0.00    +0.169 C 
ATOM     32  C   UNL     1       8.087   2.436   0.615  0.00  0.00    +0.047 C 
ENDBRANCH  29  31
ENDBRANCH  27  29
ENDBRANCH  26  27
ENDBRANCH  25  26
ENDBRANCH  24  25
ENDBRANCH  22  24
ENDBRANCH  21  23
ENDBRANCH   1  21
TORSDOF 13
