REMARK  Name = 
REMARK  5 active torsions:
REMARK  status: ('A' for Active; 'I' for Inactive)
REMARK    1  A    between atoms: C_6  and  O_7
REMARK    2  A    between atoms: O_7  and  C_8
REMARK    3  A    between atoms: C_8  and  C_10
REMARK    4  A    between atoms: C_10  and  C_12
REMARK    5  A    between atoms: C_10  and  C_18
REMARK                            x       y       z     vdW  Elec       q    Type
REMARK                         _______ _______ _______ _____ _____    ______ ____
ROOT
ATOM      1  C   UNL     1      -1.437  -0.381   0.244  0.00  0.00    +0.233 C 
ATOM      2  O   UNL     1      -1.973  -1.129   1.297  0.00  0.00    -0.210 OA
ENDROOT
BRANCH   1   3
ATOM      3  C   UNL     1      -2.275   0.849   0.049  0.00  0.00    +0.015 A 
ATOM      4  C   UNL     1      -3.222   1.210   0.975  0.00  0.00    -0.001 A 
ATOM      5  C   UNL     1      -3.443   2.531   1.313  0.00  0.00    -0.000 A 
ATOM      6  C   UNL     1      -2.739   3.529   0.681  0.00  0.00    -0.000 A 
ATOM      7  C   UNL     1      -2.114   3.212  -0.516  0.00  0.00    -0.000 A 
ATOM      8  C   UNL     1      -1.789   1.880  -0.747  0.00  0.00    -0.001 A 
ENDBRANCH   1   3
BRANCH   1   9
ATOM      9  C   UNL     1      -1.578  -1.171  -1.017  0.00  0.00    +0.043 C 
ATOM     10  C   UNL     1      -0.410  -2.033  -1.363  0.00  0.00    +0.003 C 
ATOM     11  C   UNL     1      -1.021  -3.197  -2.137  0.00  0.00    +0.000 C 
ATOM     12  C   UNL     1      -2.382  -3.408  -1.484  0.00  0.00    +0.000 C 
ATOM     13  C   UNL     1      -2.788  -2.094  -0.886  0.00  0.00    +0.003 C 
ENDBRANCH   1   9
BRANCH   1  14
ATOM     14  C   UNL     1      -0.068   0.049   0.562  0.00  0.00    +0.349 C 
ATOM     15  O   UNL     1       0.037   1.172   1.144  0.00  0.00    -0.247 OA
BRANCH  14  16
ATOM     16  O   UNL     1       1.026  -0.816   0.652  0.00  0.00    -0.444 OA
BRANCH  16  20
ATOM     17  C   UNL     1       4.757   0.300   1.088  0.00  0.00    +0.171 C 
ATOM     18  N   UNL     1       4.366  -0.174   0.172  0.00  0.00    +0.309 N 
ATOM     19  C   UNL     1       3.299  -1.168   0.315  0.00  0.00    +0.153 C 
ATOM     20  C   UNL     1       2.322  -0.087   1.127  0.00  0.00    +0.229 C 
ATOM     21  C   UNL     1       2.296   0.930  -0.195  0.00  0.00    +0.111 C 
ATOM     22  C   UNL     1       3.698   0.774  -0.688  0.00  0.00    +0.113 C 
ATOM     23  C   UNL     1       5.439  -0.778  -0.587  0.00  0.00    +0.171 C 
ENDBRANCH  16  20
ENDBRANCH  14  16
ENDBRANCH   1  14
TORSDOF 5
