REMARK  Name = 
REMARK  6 active torsions:
REMARK  status: ('A' for Active; 'I' for Inactive)
REMARK    1  A    between atoms: C_2  and  N_3
REMARK    2  A    between atoms: N_9  and  CA_10
REMARK    3  A    between atoms: CA_10  and  C_11
REMARK    4  A    between atoms: CA_10  and  C_27
REMARK    5  A    between atoms: N_13  and  CA_14
REMARK    6  A    between atoms: CA_23  and  C_24
REMARK                            x       y       z     vdW  Elec       q    Type
REMARK                         _______ _______ _______ _____ _____    ______ ____
ROOT
ATOM      1  CA  UNL     1      -0.448  -2.071  -1.093  0.00  0.00    +0.196 C 
ENDROOT
BRANCH   1   9
ATOM      2  N   UNL     1      -5.072   1.774   0.425  0.00  0.00    -0.271 N 
ATOM      3  C   UNL     1      -5.226   1.593  -0.986  0.00  0.00    +0.303 C 
ATOM      4  O   UNL     1      -6.247   1.950  -1.607  0.00  0.00    -0.265 OA
ATOM      5  C   UNL     1      -4.009   1.305  -1.757  0.00  0.00    +0.310 C 
ATOM      6  O   UNL     1      -4.036   1.209  -3.007  0.00  0.00    -0.264 OA
ATOM      7  N   UNL     1      -2.800   0.927  -1.109  0.00  0.00    -0.204 N 
ATOM      8  C   UNL     1      -1.920  -0.074  -1.644  0.00  0.00    +0.330 C 
ATOM      9  N   UNL     1      -1.674  -1.139  -0.745  0.00  0.00    -0.176 NA
ATOM     10  O   UNL     1      -1.980  -0.426  -2.854  0.00  0.00    -0.250 OA
ATOM     11  C   UNL     1      -2.701   1.247   0.306  0.00  0.00    +0.124 C 
ATOM     12  C   UNL     1      -4.004   0.993   1.038  0.00  0.00    +0.116 C 
BRANCH   2  14
ATOM     13  C   UNL     1      -5.660   3.223   2.213  0.00  0.00    +0.023 C 
ATOM     14  C   UNL     1      -6.109   2.443   1.177  0.00  0.00    +0.094 C 
ENDBRANCH   2  14
ENDBRANCH   1   9
BRANCH   1  15
ATOM     15  C   UNL     1      -0.983  -3.274  -0.161  0.00  0.00    +0.006 A 
ATOM     16  C   UNL     1      -0.461  -4.507  -0.421  0.00  0.00    -0.002 A 
ATOM     17  C   UNL     1      -0.851  -5.552   0.408  0.00  0.00    -0.000 A 
ATOM     18  C   UNL     1      -1.514  -5.291   1.588  0.00  0.00    -0.000 A 
ATOM     19  C   UNL     1      -1.771  -3.992   1.951  0.00  0.00    -0.000 A 
ATOM     20  C   UNL     1      -1.678  -3.052   0.952  0.00  0.00    -0.002 A 
ENDBRANCH   1  15
BRANCH   1  21
ATOM     21  C   UNL     1       0.496  -1.434   0.051  0.00  0.00    +0.266 C 
ATOM     22  N   UNL     1       1.783  -0.969  -0.393  0.00  0.00    -0.193 NA
ATOM     23  O   UNL     1       0.013  -1.254   1.166  0.00  0.00    -0.271 OA
BRANCH  22  24
ATOM     24  CA  UNL     1       2.521  -0.480   0.913  0.00  0.00    +0.200 C 
ATOM     25  C   UNL     1       4.026  -0.107   0.265  0.00  0.00    +0.153 C 
ATOM     26  S   UNL     1       3.602   0.809  -1.355  0.00  0.00    -0.118 S 
ATOM     27  C   UNL     1       5.040   1.818  -0.896  0.00  0.00    +0.068 C 
ATOM     28  CA  UNL     1       4.763   2.221   0.672  0.00  0.00    +0.189 C 
ATOM     29  C   UNL     1       5.115   3.120  -1.616  0.00  0.00    +0.013 C 
ATOM     30  C   UNL     1       6.289   1.067  -1.025  0.00  0.00    +0.013 C 
ATOM     31  N   UNL     1       3.640   1.176   0.963  0.00  0.00    -0.259 N 
ATOM     32  C   UNL     1       2.239   1.077   0.655  0.00  0.00    +0.249 C 
ATOM     33  O   UNL     1       1.180   1.702   0.620  0.00  0.00    -0.273 OA
BRANCH  28  34
ATOM     34  C   UNL     1       5.962   1.349   1.316  0.00  0.00    +0.383 C 
ATOM     35  OXT UNL     1       6.724   2.289   2.035  0.00  0.00    -0.244 OA
ATOM     36  O   UNL     1       5.750   0.333   1.954  0.00  0.00    -0.244 OA
ENDBRANCH  28  34
ENDBRANCH  22  24
ENDBRANCH   1  21
TORSDOF 6
