REMARK  Name = 
REMARK  6 active torsions:
REMARK  status: ('A' for Active; 'I' for Inactive)
REMARK    1  A    between atoms: C_5  and  C_6
REMARK    2  A    between atoms: C_6  and  S_7
REMARK    3  A    between atoms: S_7  and  C_8
REMARK    4  A    between atoms: C_8  and  C_9
REMARK    5  A    between atoms: C_8  and  C_15
REMARK    6  A    between atoms: C_9  and  N_10
REMARK                            x       y       z     vdW  Elec       q    Type
REMARK                         _______ _______ _______ _____ _____    ______ ____
ROOT
ATOM      1  C   UNL     1      -0.937   0.312  -0.691  0.00  0.00    +0.093 C 
ENDROOT
BRANCH   1   2
ATOM      2  C   UNL     1      -2.031  -0.693  -0.206  0.00  0.00    +0.000 A 
ATOM      3  C   UNL     1      -2.656  -1.465  -1.159  0.00  0.00    +0.055 A 
ATOM      4 CL   UNL     1      -2.216  -1.310  -2.853  0.00  0.00    -0.083 Cl
ATOM      5  C   UNL     1      -3.515  -2.474  -0.741  0.00  0.00    +0.022 A 
ATOM      6  C   UNL     1      -3.627  -2.810   0.587  0.00  0.00    +0.058 A 
ATOM      7 CL   UNL     1      -4.863  -3.892   1.202  0.00  0.00    -0.082 Cl
ATOM      8  C   UNL     1      -3.026  -1.985   1.527  0.00  0.00    +0.011 A 
ATOM      9  C   UNL     1      -2.019  -1.137   1.082  0.00  0.00    -0.002 A 
ENDBRANCH   1   2
BRANCH   1  10
ATOM     10  S   UNL     1       0.540  -0.646   0.053  0.00  0.00    -0.130 S 
BRANCH  10  11
ATOM     11  C   UNL     1       1.725   0.565   0.673  0.00  0.00    +0.084 C 
BRANCH  11  16
ATOM     12 CL   UNL     1       6.931  -1.829  -0.214  0.00  0.00    -0.082 Cl
ATOM     13  C   UNL     1       5.598  -1.006  -0.011  0.00  0.00    +0.058 A 
ATOM     14  C   UNL     1       4.759  -0.697  -1.065  0.00  0.00    +0.011 A 
ATOM     15  C   UNL     1       3.524  -0.131  -0.898  0.00  0.00    -0.003 A 
ATOM     16  C   UNL     1       3.124   0.209   0.380  0.00  0.00    -0.011 A 
ATOM     17  C   UNL     1       4.027   0.148   1.407  0.00  0.00    -0.003 A 
ATOM     18  C   UNL     1       5.254  -0.458   1.217  0.00  0.00    +0.011 A 
ENDBRANCH  11  16
ENDBRANCH  10  11
ENDBRANCH   1  10
BRANCH   1  19
ATOM     19  C   UNL     1      -1.093   1.310   0.543  0.00  0.00    +0.123 C 
BRANCH  19  20
ATOM     20  N   UNL     1      -1.509   2.591   0.041  0.00  0.00    -0.307 N 
ATOM     21  C   UNL     1      -2.606   2.811  -0.703  0.00  0.00    +0.179 A 
ATOM     22  N   UNL     1      -2.630   4.095  -1.116  0.00  0.00    -0.222 NA
ATOM     23  C   UNL     1      -1.651   4.698  -0.407  0.00  0.00    +0.119 A 
ATOM     24  C   UNL     1      -1.105   3.795   0.497  0.00  0.00    +0.098 A 
ENDBRANCH  19  20
ENDBRANCH   1  19
TORSDOF 6
