REMARK  Name = 
REMARK  6 active torsions:
REMARK  status: ('A' for Active; 'I' for Inactive)
REMARK    1  A    between atoms: C_6  and  C_7
REMARK    2  A    between atoms: C_7  and  C_20
REMARK    3  A    between atoms: C_8  and  C_9
REMARK    4  A    between atoms: C_9  and  C_10
REMARK    5  A    between atoms: C_10  and  N_11
REMARK    6  A    between atoms: C_15  and  C_16
REMARK                            x       y       z     vdW  Elec       q    Type
REMARK                         _______ _______ _______ _____ _____    ______ ____
ROOT
ATOM      1  C   UNL     1      -1.821   0.279  -0.289  0.00  0.00    +0.007 C 
ATOM      2  C   UNL     1      -0.701   0.009  -0.911  0.00  0.00    -0.024 C 
ENDROOT
BRANCH   1   5
ATOM      3  C   UNL     1      -4.254   1.489   1.190  0.00  0.00    +0.032 C 
ATOM      4  C   UNL     1      -3.294   2.254   0.449  0.00  0.00    -0.015 A 
ATOM      5  C   UNL     1      -2.209   1.694  -0.216  0.00  0.00    +0.026 A 
ATOM      6  S   UNL     1      -1.616   3.051  -1.085  0.00  0.00    -0.087 S 
ATOM      7  C   UNL     1      -2.569   4.269  -0.339  0.00  0.00    +0.035 A 
ATOM      8  C   UNL     1      -3.022   3.576   0.778  0.00  0.00    +0.003 A 
ENDBRANCH   1   5
BRANCH   1   9
ATOM      9  C   UNL     1      -2.808  -0.797  -0.126  0.00  0.00    +0.026 A 
ATOM     10  C   UNL     1      -2.744  -1.737   0.896  0.00  0.00    -0.015 A 
ATOM     11  C   UNL     1      -1.763  -1.686   2.027  0.00  0.00    +0.032 C 
ATOM     12  C   UNL     1      -3.889  -2.482   0.958  0.00  0.00    +0.003 A 
ATOM     13  C   UNL     1      -4.249  -2.966  -0.294  0.00  0.00    +0.035 A 
ATOM     14  S   UNL     1      -3.747  -1.653  -1.280  0.00  0.00    -0.087 S 
ENDBRANCH   1   9
BRANCH   2  15
ATOM     15  C   UNL     1       0.533  -0.499  -0.279  0.00  0.00    +0.043 C 
BRANCH  15  16
ATOM     16  C   UNL     1       1.429  -0.935  -1.426  0.00  0.00    +0.077 C 
BRANCH  16  17
ATOM     17  N   UNL     1       2.631  -1.574  -1.007  0.00  0.00    -0.272 NA
ATOM     18  C   UNL     1       3.789  -0.762  -1.194  0.00  0.00    +0.083 C 
ATOM     19  C   UNL     1       3.713   0.162   0.162  0.00  0.00    +0.119 C 
ATOM     20  C   UNL     1       4.486  -0.980   1.052  0.00  0.00    +0.014 C 
ATOM     21  C   UNL     1       3.354  -1.917   1.338  0.00  0.00    +0.018 C 
ATOM     22  C   UNL     1       2.570  -2.354   0.162  0.00  0.00    +0.072 C 
BRANCH  19  23
ATOM     23  C   UNL     1       5.067   0.954  -0.182  0.00  0.00    +0.366 C 
ATOM     24  O   UNL     1       5.066   2.296   0.172  0.00  0.00    -0.246 OA
ATOM     25  O   UNL     1       6.046   0.307  -0.555  0.00  0.00    -0.246 OA
ENDBRANCH  19  23
ENDBRANCH  16  17
ENDBRANCH  15  16
ENDBRANCH   2  15
TORSDOF 6
