REMARK  Name = 
REMARK  1 active torsions:
REMARK  status: ('A' for Active; 'I' for Inactive)
REMARK    1  A    between atoms: C_11  and  C_12
REMARK                            x       y       z     vdW  Elec       q    Type
REMARK                         _______ _______ _______ _____ _____    ______ ____
ROOT
ATOM      1  O   UNL     1      -2.807  -3.195   0.018  0.00  0.00    -0.268 OA
ATOM      2  C   UNL     1      -2.167  -2.198  -0.086  0.00  0.00    +0.300 C 
ATOM      3  C   UNL     1      -1.386  -2.020   1.342  0.00  0.00    +0.333 C 
ATOM      4  O   UNL     1      -1.823  -0.550   1.556  0.00  0.00    -0.186 OA
ATOM      5  N   UNL     1       0.013  -1.684   0.646  0.00  0.00    -0.233 NA
ATOM      6  C   UNL     1       0.318  -0.576   0.138  0.00  0.00    +0.081 C 
ATOM      7  C   UNL     1      -0.557   0.408  -0.475  0.00  0.00    +0.034 A 
ATOM      8  C   UNL     1      -1.771   0.086  -1.076  0.00  0.00    +0.075 A 
ATOM      9  C   UNL     1      -2.507   1.148  -1.523  0.00  0.00    +0.018 A 
ATOM     10  C   UNL     1      -2.262   2.453  -1.116  0.00  0.00    +0.013 A 
ATOM     11  C   UNL     1      -1.198   2.687  -0.271  0.00  0.00    +0.058 A 
ATOM     12 CL   UNL     1      -1.346   3.978   0.924  0.00  0.00    -0.082 Cl
ATOM     13  C   UNL     1      -0.208   1.718  -0.170  0.00  0.00    +0.014 A 
ATOM     14  N   UNL     1      -2.499  -1.143  -0.945  0.00  0.00    -0.175 NA
ENDROOT
BRANCH   6  15
ATOM     15  C   UNL     1       1.705  -0.112   0.191  0.00  0.00    +0.028 A 
ATOM     16  C   UNL     1       2.664  -0.930  -0.340  0.00  0.00    +0.059 A 
ATOM     17 CL   UNL     1       2.223  -2.371  -1.208  0.00  0.00    -0.082 Cl
ATOM     18  C   UNL     1       3.990  -0.641  -0.048  0.00  0.00    +0.011 A 
ATOM     19  C   UNL     1       4.255   0.400   0.808  0.00  0.00    +0.001 A 
ATOM     20  C   UNL     1       3.338   1.424   0.977  0.00  0.00    +0.000 A 
ATOM     21  C   UNL     1       2.029   1.118   0.661  0.00  0.00    +0.002 A 
ENDBRANCH   6  15
TORSDOF 1
