REMARK  Name = 
REMARK  4 active torsions:
REMARK  status: ('A' for Active; 'I' for Inactive)
REMARK    1  A    between atoms: C_4  and  C_6
REMARK    2  A    between atoms: N_12  and  C_13
REMARK    3  A    between atoms: C_16  and  N_17
REMARK    4  A    between atoms: N_27  and  C_28
REMARK                            x       y       z     vdW  Elec       q    Type
REMARK                         _______ _______ _______ _____ _____    ______ ____
ROOT
ATOM      1  C   UNL     1      -3.801   1.065   0.022  0.00  0.00    +0.115 A 
ATOM      2  N   UNL     1      -3.276  -0.119  -0.331  0.00  0.00    -0.311 N 
ATOM      3  C   UNL     1      -1.926   0.006  -0.342  0.00  0.00    +0.148 A 
ATOM      4  C   UNL     1      -1.600   1.325  -0.059  0.00  0.00    +0.055 A 
ATOM      5  C   UNL     1      -0.276   1.620   0.135  0.00  0.00    +0.105 A 
ATOM      6  N   UNL     1       0.622   0.612   0.248  0.00  0.00    -0.210 NA
ATOM      7  C   UNL     1       0.353  -0.622  -0.242  0.00  0.00    +0.244 A 
ATOM      8  N   UNL     1       1.176  -1.742   0.104  0.00  0.00    -0.159 NA
ATOM      9  N   UNL     1      -0.904  -0.800  -0.713  0.00  0.00    -0.195 NA
ATOM     10  C   UNL     1      -2.798   2.021   0.034  0.00  0.00    +0.026 A 
ENDROOT
BRANCH   8  11
ATOM     11  C   UNL     1       2.594  -1.606   0.148  0.00  0.00    +0.155 A 
ATOM     12  N   UNL     1       3.244  -1.409  -1.024  0.00  0.00    -0.226 NA
ATOM     13  C   UNL     1       4.396  -0.701  -1.038  0.00  0.00    +0.115 A 
ATOM     14  C   UNL     1       4.798   0.081   0.039  0.00  0.00    +0.067 A 
ATOM     15  C   UNL     1       4.323  -0.329   1.279  0.00  0.00    +0.019 A 
ATOM     16  C   UNL     1       3.258  -1.220   1.303  0.00  0.00    +0.037 A 
BRANCH  14  17
ATOM     17  N   UNL     1       5.305   1.408  -0.145  0.00  0.00    -0.303 N 
ATOM     18  C   UNL     1       5.948   1.643  -1.437  0.00  0.00    +0.110 C 
ATOM     19  C   UNL     1       7.413   1.273  -1.240  0.00  0.00    +0.110 C 
ATOM     20  N   UNL     1       7.578   0.417  -0.068  0.00  0.00    -0.214 NA
ATOM     21  C   UNL     1       7.276   1.145   1.159  0.00  0.00    +0.110 C 
ATOM     22  C   UNL     1       6.010   1.979   1.001  0.00  0.00    +0.110 C 
ENDBRANCH  14  17
ENDBRANCH   8  11
BRANCH   1  25
ATOM     23  C   UNL     1      -5.975   1.844  -1.851  0.00  0.00    +0.115 C 
ATOM     24  N   UNL     1      -6.220   1.144  -0.599  0.00  0.00    -0.271 N 
ATOM     25  C   UNL     1      -5.203   1.252   0.391  0.00  0.00    +0.265 C 
ATOM     26  O   UNL     1      -5.422   1.776   1.513  0.00  0.00    -0.268 OA
ATOM     27  C   UNL     1      -7.597   0.959  -0.192  0.00  0.00    +0.115 C 
ENDBRANCH   1  25
BRANCH   2  28
ATOM     28  C   UNL     1      -3.956  -1.403  -0.211  0.00  0.00    +0.087 C 
ATOM     29  C   UNL     1      -4.320  -1.966  -1.565  0.00  0.00    +0.023 C 
ATOM     30  C   UNL     1      -4.522  -3.437  -1.234  0.00  0.00    +0.002 C 
ATOM     31  C   UNL     1      -3.424  -3.771  -0.250  0.00  0.00    +0.002 C 
ATOM     32  C   UNL     1      -3.075  -2.449   0.412  0.00  0.00    +0.023 C 
ENDBRANCH   2  28
TORSDOF 4
