REMARK  Name = 
REMARK  8 active torsions:
REMARK  status: ('A' for Active; 'I' for Inactive)
REMARK    1  A    between atoms: O_2  and  C_3
REMARK    2  A    between atoms: C_3  and  C_5
REMARK    3  A    between atoms: C_11  and  C_12
REMARK    4  A    between atoms: C_12  and  O_14
REMARK    5  A    between atoms: O_14  and  C_15
REMARK    6  A    between atoms: C_15  and  C_16
REMARK    7  A    between atoms: C_19  and  C_20
REMARK    8  A    between atoms: C_25  and  N_26
REMARK                            x       y       z     vdW  Elec       q    Type
REMARK                         _______ _______ _______ _____ _____    ______ ____
ROOT
ATOM      1  C   UNL     1      -0.369   1.451   0.235  0.00  0.00    +0.073 C 
ATOM      2  C   UNL     1      -0.873   0.033   0.884  0.00  0.00    +0.087 C 
ATOM      3  C   UNL     1       0.643  -0.558   0.891  0.00  0.00    +0.073 C 
ATOM      4  C   UNL     1       1.266   0.023   1.927  0.00  0.00    +0.051 C 
ATOM      5  C   UNL     1       2.521  -0.722   2.253  0.00  0.00    +0.049 C 
ATOM      6  N   UNL     1       1.084   1.427   2.193  0.00  0.00    -0.221 NA
ATOM      7  C   UNL     1       0.485   2.081   1.056  0.00  0.00    +0.051 C 
ATOM      8  C   UNL     1       0.740   3.530   0.768  0.00  0.00    +0.049 C 
ENDROOT
BRANCH   2   9
ATOM      9  C   UNL     1      -1.288  -0.686  -0.522  0.00  0.00    +0.055 A 
ATOM     10  C   UNL     1      -2.046  -1.829  -0.263  0.00  0.00    +0.287 A 
ATOM     11  C   UNL     1      -2.806  -2.353  -1.306  0.00  0.00    +0.075 A 
ATOM     12  C   UNL     1      -2.697  -1.773  -2.566  0.00  0.00    +0.006 A 
ATOM     13  C   UNL     1      -2.401  -0.430  -2.591  0.00  0.00    +0.000 A 
ATOM     14  C   UNL     1      -1.859   0.132  -1.476  0.00  0.00    +0.002 A 
BRANCH  10  15
ATOM     15  N   UNL     1      -2.596  -2.143   1.025  0.00  0.00    +0.081 N 
ATOM     16  O   UNL     1      -3.959  -2.038   1.266  0.00  0.00    -0.576 OA
ATOM     17  O   UNL     1      -1.846  -2.068   1.996  0.00  0.00    +0.041 OA
ENDBRANCH  10  15
ENDBRANCH   2   9
BRANCH   1  18
ATOM     18  C   UNL     1      -1.503   2.330  -0.123  0.00  0.00    +0.339 C 
ATOM     19  O   UNL     1      -1.306   3.136  -1.051  0.00  0.00    -0.245 OA
BRANCH  18  21
ATOM     20  C   UNL     1      -3.190   3.767   0.849  0.00  0.00    +0.256 C 
ATOM     21  O   UNL     1      -2.529   2.623   0.772  0.00  0.00    -0.442 OA
ENDBRANCH  18  21
ENDBRANCH   1  18
BRANCH   3  22
ATOM     22  C   UNL     1       1.286  -0.852  -0.349  0.00  0.00    +0.339 C 
ATOM     23  O   UNL     1       1.123  -0.213  -1.435  0.00  0.00    -0.245 OA
BRANCH  22  24
ATOM     24  O   UNL     1       2.549  -1.419  -0.248  0.00  0.00    -0.446 OA
BRANCH  24  25
ATOM     25  C   UNL     1       3.534  -1.251  -1.266  0.00  0.00    +0.209 C 
BRANCH  25  26
ATOM     26  C   UNL     1       4.919  -1.084  -0.721  0.00  0.00    +0.044 C 
ATOM     27  C   UNL     1       5.238   0.362  -0.365  0.00  0.00    +0.004 C 
ATOM     28  C   UNL     1       5.879  -1.475  -1.830  0.00  0.00    +0.004 C 
ENDBRANCH  25  26
ENDBRANCH  24  25
ENDBRANCH  22  24
ENDBRANCH   3  22
TORSDOF 8
