REMARK  Name = 
REMARK  5 active torsions:
REMARK  status: ('A' for Active; 'I' for Inactive)
REMARK    1  A    between atoms: O_2  and  C_3
REMARK    2  A    between atoms: C_8  and  C_9
REMARK    3  A    between atoms: C_9  and  C_12
REMARK    4  A    between atoms: N_28  and  C_29
REMARK    5  A    between atoms: C_29  and  C_30
REMARK                            x       y       z     vdW  Elec       q    Type
REMARK                         _______ _______ _______ _____ _____    ______ ____
ROOT
ATOM      1  C   UNL     1       1.549   0.559  -0.723  0.00  0.00    +0.132 C 
ATOM      2  C   UNL     1       0.291   0.449  -1.775  0.00  0.00    +0.194 C 
ATOM      3  O   UNL     1       0.145   1.975  -1.896  0.00  0.00    -0.474 OA
ATOM      4  C   UNL     1      -0.577   2.462  -0.903  0.00  0.00    +0.173 A 
ATOM      5  C   UNL     1      -1.505   1.556  -0.527  0.00  0.00    +0.014 A 
ATOM      6  C   UNL     1      -2.138   1.630   0.718  0.00  0.00    -0.022 A 
ATOM      7  C   UNL     1      -2.377   2.938   1.137  0.00  0.00    -0.001 A 
ATOM      8  C   UNL     1      -1.797   4.021   0.475  0.00  0.00    +0.045 A 
ATOM      9  C   UNL     1      -2.676   0.440   1.281  0.00  0.00    +0.042 C 
ATOM     10  C   UNL     1      -1.552  -0.726   1.542  0.00  0.00    +0.062 C 
ATOM     11  N   UNL     1      -2.130  -1.705   0.455  0.00  0.00    -0.274 NA
ATOM     12  C   UNL     1      -2.912  -1.012  -0.492  0.00  0.00    +0.073 C 
ATOM     13  C   UNL     1      -1.875  -0.522  -1.471  0.00  0.00    +0.025 C 
ATOM     14  C   UNL     1      -0.378  -0.167   0.565  0.00  0.00    +0.021 C 
ATOM     15  C   UNL     1       0.689  -1.176   0.730  0.00  0.00    +0.007 C 
ATOM     16  C   UNL     1       0.281   0.987   1.329  0.00  0.00    +0.004 C 
ATOM     17  C   UNL     1      -0.711   3.732  -0.348  0.00  0.00    +0.229 A 
ATOM     18  O   UNL     1       0.343   4.638  -0.522  0.00  0.00    -0.283 OA
ATOM     19  C   UNL     1      -0.885   0.238  -0.667  0.00  0.00    +0.063 C 
ATOM     20  C   UNL     1       1.778  -1.032  -0.475  0.00  0.00    +0.056 C 
ATOM     21  C   UNL     1       1.408   1.322   0.409  0.00  0.00    +0.031 C 
ENDROOT
BRANCH  20  22
ATOM     22  C   UNL     1       3.075  -0.857   0.489  0.00  0.00    +0.129 C 
ATOM     23  O   UNL     1       3.805   0.224   0.139  0.00  0.00    -0.226 OA
ATOM     24  C   UNL     1       2.786  -0.955   1.905  0.00  0.00    +0.033 C 
BRANCH  22  25
ATOM     25  C   UNL     1       3.999  -2.031   0.151  0.00  0.00    +0.026 C 
ATOM     26  C   UNL     1       5.369  -1.594   0.663  0.00  0.00    +0.002 C 
ATOM     27  C   UNL     1       4.087  -2.279  -1.324  0.00  0.00    +0.002 C 
ATOM     28  C   UNL     1       3.498  -3.228   0.904  0.00  0.00    +0.002 C 
ENDBRANCH  22  25
ENDBRANCH  20  22
BRANCH   1  30
ATOM     29  C   UNL     1       2.756   1.465  -1.829  0.00  0.00    +0.174 C 
ATOM     30  O   UNL     1       2.514   0.993  -1.633  0.00  0.00    -0.352 OA
ENDBRANCH   1  30
BRANCH  11  31
ATOM     31  C   UNL     1      -2.973  -2.566   1.228  0.00  0.00    +0.072 C 
BRANCH  31  32
ATOM     32  C   UNL     1      -3.783  -3.473   0.357  0.00  0.00    +0.016 C 
ATOM     33  C   UNL     1      -4.814  -2.903  -0.595  0.00  0.00    +0.001 C 
ATOM     34  C   UNL     1      -5.289  -3.401   0.704  0.00  0.00    +0.001 C 
ENDBRANCH  31  32
ENDBRANCH  11  31
TORSDOF 5
