REMARK  Name = 
REMARK  0 active torsions:
REMARK  status: ('A' for Active; 'I' for Inactive)
REMARK                            x       y       z     vdW  Elec       q    Type
REMARK                         _______ _______ _______ _____ _____    ______ ____
ROOT
ATOM      1  N   UNL     1       0.165   1.929   0.001  0.00  0.00    -0.119 NA
ATOM      2  C   UNL     1      -0.429   0.678  -0.763  0.00  0.00    +0.221 C 
ATOM      3  C   UNL     1       0.722  -0.342  -0.273  0.00  0.00    +0.311 C 
ATOM      4  O   UNL     1       2.007   0.032  -0.036  0.00  0.00    -0.265 OA
ATOM      5  N   UNL     1       0.066  -1.429   0.008  0.00  0.00    -0.043 NA
ATOM      6  O   UNL     1      -1.145  -1.135   0.549  0.00  0.00    -0.373 OA
ATOM      7  C   UNL     1      -1.386   0.267   0.513  0.00  0.00    +0.267 C 
ENDROOT
TORSDOF 0
