REMARK  Name = 
REMARK  20 active torsions:
REMARK  status: ('A' for Active; 'I' for Inactive)
REMARK    1  A    between atoms: C_2  and  O_3
REMARK    2  A    between atoms: O_3  and  C_4
REMARK    3  A    between atoms: C_7  and  C_8
REMARK    4  A    between atoms: C_8  and  C_9
REMARK    5  A    between atoms: C_9  and  C_10
REMARK    6  A    between atoms: C_9  and  N_27
REMARK    7  A    between atoms: C_10  and  N_11
REMARK    8  A    between atoms: N_11  and  C_12
REMARK    9  A    between atoms: N_11  and  C_23
REMARK   10  A    between atoms: C_12  and  C_13
REMARK   11  A    between atoms: C_13  and  N_14
REMARK   12  A    between atoms: N_14  and  C_15
REMARK   13  A    between atoms: N_14  and  C_19
REMARK   14  A    between atoms: C_15  and  C_16
REMARK   15  A    between atoms: C_19  and  C_20
REMARK   16  A    between atoms: C_23  and  C_24
REMARK   17  A    between atoms: N_27  and  C_28
REMARK   18  A    between atoms: N_27  and  C_32
REMARK   19  A    between atoms: C_28  and  C_29
REMARK   20  A    between atoms: C_32  and  C_33
REMARK                            x       y       z     vdW  Elec       q    Type
REMARK                         _______ _______ _______ _____ _____    ______ ____
ROOT
ATOM      1  C   UNL     1      -0.823  -0.899   0.182  0.00  0.00    +0.079 C 
ENDROOT
BRANCH   1   2
ATOM      2  N   UNL     1      -1.535  -2.246   0.667  0.00  0.00    -0.253 NA
BRANCH   2   3
ATOM      3  C   UNL     1      -0.650  -2.938   1.527  0.00  0.00    +0.188 C 
BRANCH   3   4
ATOM      4  C   UNL     1      -0.759  -4.391   1.328  0.00  0.00    +0.381 C 
ATOM      5  O   UNL     1      -1.991  -5.035   1.375  0.00  0.00    -0.244 OA
ATOM      6  O   UNL     1       0.155  -4.936   0.647  0.00  0.00    -0.244 OA
ENDBRANCH   3   4
ENDBRANCH   2   3
BRANCH   2   7
ATOM      7  C   UNL     1      -1.472  -2.973  -0.603  0.00  0.00    +0.188 C 
BRANCH   7   8
ATOM      8  C   UNL     1      -2.772  -3.103  -1.266  0.00  0.00    +0.381 C 
ATOM      9  O   UNL     1      -3.978  -3.017  -0.605  0.00  0.00    -0.244 OA
ATOM     10  O   UNL     1      -2.768  -3.192  -2.531  0.00  0.00    -0.244 OA
ENDBRANCH   7   8
ENDBRANCH   2   7
ENDBRANCH   1   2
BRANCH   1  11
ATOM     11  C   UNL     1      -1.934   0.033   1.009  0.00  0.00    +0.044 C 
BRANCH  11  15
ATOM     12  C   UNL     1      -4.528   2.806  -0.649  0.00  0.00    +0.139 A 
ATOM     13  C   UNL     1      -3.182   3.130  -0.542  0.00  0.00    +0.037 A 
ATOM     14  C   UNL     1      -2.277   2.189  -0.101  0.00  0.00    -0.001 A 
ATOM     15  C   UNL     1      -2.595   0.837  -0.060  0.00  0.00    -0.021 A 
ATOM     16  C   UNL     1      -3.887   0.513  -0.437  0.00  0.00    -0.001 A 
ATOM     17  C   UNL     1      -4.829   1.472  -0.775  0.00  0.00    +0.037 A 
BRANCH  12  18
ATOM     18  O   UNL     1      -5.501   3.770  -0.519  0.00  0.00    -0.475 OA
BRANCH  18  20
ATOM     19  C   UNL     1      -6.991   4.632   0.616  0.00  0.00    +0.051 C 
ATOM     20  C   UNL     1      -6.281   3.949   0.651  0.00  0.00    +0.206 C 
ENDBRANCH  18  20
ENDBRANCH  12  18
ENDBRANCH  11  15
ENDBRANCH   1  11
BRANCH   1  21
ATOM     21  C   UNL     1       0.251  -0.820   1.463  0.00  0.00    +0.089 C 
BRANCH  21  22
ATOM     22  N   UNL     1       1.453  -0.600   0.669  0.00  0.00    -0.261 NA
BRANCH  22  23
ATOM     23  C   UNL     1       1.330   0.546  -0.187  0.00  0.00    +0.188 C 
BRANCH  23  24
ATOM     24  C   UNL     1       1.341   0.050  -1.594  0.00  0.00    +0.381 C 
ATOM     25  O   UNL     1       2.123  -1.062  -1.859  0.00  0.00    -0.244 OA
ATOM     26  O   UNL     1       0.507   0.432  -2.446  0.00  0.00    -0.244 OA
ENDBRANCH  23  24
ENDBRANCH  22  23
BRANCH  22  27
ATOM     27  C   UNL     1       2.667  -0.664   1.416  0.00  0.00    +0.090 C 
BRANCH  27  28
ATOM     28  C   UNL     1       3.388   0.647   1.542  0.00  0.00    +0.091 C 
BRANCH  28  29
ATOM     29  N   UNL     1       3.851   1.181   0.289  0.00  0.00    -0.252 NA
BRANCH  29  30
ATOM     30  C   UNL     1       5.100   0.629  -0.158  0.00  0.00    +0.188 C 
BRANCH  30  31
ATOM     31  C   UNL     1       5.034  -0.845  -0.319  0.00  0.00    +0.381 C 
ATOM     32  O   UNL     1       5.154  -1.395  -1.597  0.00  0.00    -0.244 OA
ATOM     33  O   UNL     1       5.557  -1.529   0.611  0.00  0.00    -0.244 OA
ENDBRANCH  30  31
ENDBRANCH  29  30
BRANCH  29  34
ATOM     34  C   UNL     1       3.919   2.621   0.265  0.00  0.00    +0.188 C 
BRANCH  34  35
ATOM     35  C   UNL     1       5.250   3.132   0.706  0.00  0.00    +0.381 C 
ATOM     36  O   UNL     1       6.430   2.800   0.034  0.00  0.00    -0.244 OA
ATOM     37  O   UNL     1       5.243   4.279   1.248  0.00  0.00    -0.244 OA
ENDBRANCH  34  35
ENDBRANCH  29  34
ENDBRANCH  28  29
ENDBRANCH  27  28
ENDBRANCH  22  27
ENDBRANCH  21  22
ENDBRANCH   1  21
TORSDOF 20
