REMARK  Name = 
REMARK  10 active torsions:
REMARK  status: ('A' for Active; 'I' for Inactive)
REMARK    1  A    between atoms: C_2  and  O_3
REMARK    2  A    between atoms: O_3  and  C_4
REMARK    3  A    between atoms: C_10  and  C_11
REMARK    4  A    between atoms: C_11  and  O_13
REMARK    5  A    between atoms: O_13  and  C_14
REMARK    6  A    between atoms: C_14  and  C_15
REMARK    7  A    between atoms: N_23  and  C_24
REMARK    8  A    between atoms: C_24  and  C_25
REMARK    9  A    between atoms: C_28  and  C_29
REMARK   10  A    between atoms: C_34  and  C_35
REMARK                            x       y       z     vdW  Elec       q    Type
REMARK                         _______ _______ _______ _____ _____    ______ ____
ROOT
ATOM      1  C   UNL     1       0.602   2.925   0.507  0.00  0.00    +0.301 A 
ATOM      2  N   UNL     1       1.011   1.695   0.108  0.00  0.00    -0.277 N 
ATOM      3  C   UNL     1       2.315   1.788  -0.251  0.00  0.00    +0.088 A 
ATOM      4  C   UNL     1       2.561   3.140  -0.452  0.00  0.00    +0.102 A 
ATOM      5  C   UNL     1       3.843   3.606  -0.690  0.00  0.00    +0.021 A 
ATOM      6  C   UNL     1       4.829   2.673  -0.946  0.00  0.00    +0.002 A 
ATOM      7  C   UNL     1       4.667   1.429  -0.399  0.00  0.00    +0.008 A 
ATOM      8  C   UNL     1       3.389   0.906  -0.244  0.00  0.00    +0.093 A 
ATOM      9  N   UNL     1       1.416   3.772  -0.166  0.00  0.00    -0.194 NA
ENDROOT
BRANCH   8  10
ATOM     10  C   UNL     1       3.146  -0.520  -0.046  0.00  0.00    +0.343 C 
ATOM     11  O   UNL     1       3.058  -0.940   1.145  0.00  0.00    -0.245 OA
BRANCH  10  12
ATOM     12  O   UNL     1       3.731  -1.410  -0.952  0.00  0.00    -0.437 OA
BRANCH  12  13
ATOM     13  C   UNL     1       4.195  -2.697  -0.549  0.00  0.00    +0.275 C 
BRANCH  13  14
ATOM     14  C   UNL     1       5.648  -2.531  -0.232  0.00  0.00    +0.204 A 
ATOM     15  C   UNL     1       6.181  -2.412   1.044  0.00  0.00    +0.164 A 
ATOM     16  C   UNL     1       5.697  -3.200   2.220  0.00  0.00    +0.076 C 
ATOM     17  O   UNL     1       7.326  -1.804   0.868  0.00  0.00    -0.395 OA
ATOM     18  C   UNL     1       7.703  -1.885  -0.396  0.00  0.00    +0.521 A 
ATOM     19  O   UNL     1       8.881  -1.826  -0.862  0.00  0.00    -0.202 OA
ATOM     20  O   UNL     1       6.647  -2.315  -1.066  0.00  0.00    -0.391 OA
ENDBRANCH  13  14
ENDBRANCH  12  13
ENDBRANCH  10  12
ENDBRANCH   8  10
BRANCH   1  21
ATOM     21  O   UNL     1      -0.507   3.244   1.267  0.00  0.00    -0.448 OA
BRANCH  21  23
ATOM     22  C   UNL     1      -0.663   5.549   0.601  0.00  0.00    +0.051 C 
ATOM     23  C   UNL     1      -0.609   4.572   1.742  0.00  0.00    +0.209 C 
ENDBRANCH  21  23
ENDBRANCH   1  21
BRANCH   2  24
ATOM     24  C   UNL     1       0.373   0.490   0.595  0.00  0.00    +0.137 C 
BRANCH  24  25
ATOM     25  C   UNL     1      -1.030   0.361   0.091  0.00  0.00    +0.001 A 
ATOM     26  C   UNL     1      -2.035   0.436   1.047  0.00  0.00    -0.002 A 
ATOM     27  C   UNL     1      -3.235  -0.229   0.917  0.00  0.00    -0.000 A 
ATOM     28  C   UNL     1      -3.432  -1.101  -0.124  0.00  0.00    +0.000 A 
ATOM     29  C   UNL     1      -2.419  -1.289  -1.027  0.00  0.00    -0.000 A 
ATOM     30  C   UNL     1      -1.268  -0.521  -0.956  0.00  0.00    -0.002 A 
BRANCH  28  31
ATOM     31  C   UNL     1      -4.494  -2.114  -0.072  0.00  0.00    +0.003 A 
ATOM     32  C   UNL     1      -5.807  -1.755   0.072  0.00  0.00    +0.039 A 
ATOM     33  C   UNL     1      -6.782  -2.745   0.075  0.00  0.00    +0.003 A 
ATOM     34  C   UNL     1      -6.343  -4.037   0.331  0.00  0.00    +0.000 A 
ATOM     35  C   UNL     1      -5.028  -4.399   0.105  0.00  0.00    +0.000 A 
ATOM     36  C   UNL     1      -4.223  -3.420  -0.461  0.00  0.00    +0.000 A 
BRANCH  32  37
ATOM     37  C   UNL     1      -6.178  -0.349  -0.127  0.00  0.00    +0.207 A 
ATOM     38  N   UNL     1      -6.710   0.503   0.778  0.00  0.00    -0.151 NA
ATOM     39  C   UNL     1      -6.708   1.727   0.233  0.00  0.00    +0.463 A 
ATOM     40  O   UNL     1      -7.239   2.718   0.793  0.00  0.00    -0.219 OA
ATOM     41  O   UNL     1      -6.485   1.575  -1.041  0.00  0.00    -0.294 OA
ATOM     42  N   UNL     1      -6.025   0.388  -1.243  0.00  0.00    -0.052 NA
ENDBRANCH  32  37
ENDBRANCH  28  31
ENDBRANCH  24  25
ENDBRANCH   2  24
TORSDOF 10
