REMARK  Name = 
REMARK  2 active torsions:
REMARK  status: ('A' for Active; 'I' for Inactive)
REMARK    1  A    between atoms: C_2  and  C_4
REMARK    2  A    between atoms: C_4  and  N_5
REMARK                            x       y       z     vdW  Elec       q    Type
REMARK                         _______ _______ _______ _____ _____    ______ ____
ROOT
ATOM      1  N   UNL     1       1.358   0.071  -0.604  0.00  0.00    -0.309 N 
ATOM      2  C   UNL     1       0.054  -0.224  -0.373  0.00  0.00    +0.083 A 
ATOM      3  C   UNL     1      -1.068   0.528  -0.055  0.00  0.00    +0.035 A 
ATOM      4  C   UNL     1      -2.261  -0.153   0.155  0.00  0.00    +0.084 A 
ATOM      5  N   UNL     1      -2.243  -1.410   0.660  0.00  0.00    -0.226 NA
ATOM      6  C   UNL     1      -1.096  -2.106   0.644  0.00  0.00    +0.189 A 
ATOM      7  N   UNL     1      -0.873  -3.173   1.569  0.00  0.00    -0.106 NA
ATOM      8  C   UNL     1      -3.429   0.563   0.029  0.00  0.00    +0.019 A 
ATOM      9  C   UNL     1      -3.358   1.946  -0.036  0.00  0.00    +0.002 A 
ATOM     10  C   UNL     1      -2.187   2.582  -0.356  0.00  0.00    +0.000 A 
ATOM     11  C   UNL     1      -0.996   1.882  -0.246  0.00  0.00    +0.003 A 
ATOM     12  C   UNL     1      -0.052  -1.584  -0.110  0.00  0.00    +0.133 A 
ATOM     13  N   UNL     1       1.109  -2.103  -0.508  0.00  0.00    -0.221 NA
ATOM     14  C   UNL     1       1.914  -1.102  -0.940  0.00  0.00    +0.179 A 
ENDROOT
BRANCH   1  15
ATOM     15  C   UNL     1       1.922   1.373  -0.404  0.00  0.00    +0.108 C 
BRANCH  15  17
ATOM     16  C   UNL     1       4.318   0.782  -0.901  0.00  0.00    +0.002 C 
ATOM     17  C   UNL     1       3.340   1.375   0.064  0.00  0.00    +0.023 C 
ATOM     18  C   UNL     1       3.547   0.752   1.413  0.00  0.00    +0.002 C 
ENDBRANCH  15  17
ENDBRANCH   1  15
TORSDOF 2
