REMARK  Name = 
REMARK  6 active torsions:
REMARK  status: ('A' for Active; 'I' for Inactive)
REMARK    1  A    between atoms: C_2  and  C_3
REMARK    2  A    between atoms: C_3  and  N_4
REMARK    3  A    between atoms: N_7  and  C_8
REMARK    4  A    between atoms: C_8  and  C_9
REMARK    5  A    between atoms: C_9  and  C_10
REMARK    6  A    between atoms: C_10  and  N_11
REMARK                            x       y       z     vdW  Elec       q    Type
REMARK                         _______ _______ _______ _____ _____    ______ ____
ROOT
ATOM      1  N   UNL     1      -1.672  -0.969   0.120  0.00  0.00    -0.286 N 
ATOM      2  C   UNL     1      -2.306  -0.697   1.363  0.00  0.00    +0.058 A 
ATOM      3  C   UNL     1      -2.580   0.593   1.799  0.00  0.00    +0.043 A 
ATOM      4  C   UNL     1      -3.714   0.739   2.588  0.00  0.00    +0.009 A 
ATOM      5  C   UNL     1      -4.098  -0.286   3.442  0.00  0.00    +0.012 A 
ATOM      6  C   UNL     1      -3.701  -1.581   3.144  0.00  0.00    +0.059 A 
ATOM      7 CL   UNL     1      -4.669  -2.919   3.708  0.00  0.00    -0.082 Cl
ATOM      8  S   UNL     1      -2.300   1.892   0.589  0.00  0.00    -0.084 S 
ATOM      9  C   UNL     1      -2.350   1.088  -1.017  0.00  0.00    +0.043 A 
ATOM     10  C   UNL     1      -3.114   1.609  -2.051  0.00  0.00    +0.008 A 
ATOM     11  C   UNL     1      -3.021   0.977  -3.280  0.00  0.00    +0.001 A 
ATOM     12  C   UNL     1      -2.317  -0.217  -3.376  0.00  0.00    +0.001 A 
ATOM     13  C   UNL     1      -1.535  -0.683  -2.325  0.00  0.00    +0.015 A 
ATOM     14  C   UNL     1      -2.693  -1.733   2.202  0.00  0.00    +0.027 A 
ATOM     15  C   UNL     1      -1.907  -0.228  -1.065  0.00  0.00    +0.058 A 
ENDROOT
BRANCH   1  16
ATOM     16  C   UNL     1      -0.903  -2.204   0.021  0.00  0.00    +0.097 C 
BRANCH  16  17
ATOM     17  C   UNL     1       0.440  -1.897  -0.630  0.00  0.00    +0.039 C 
BRANCH  17  18
ATOM     18  C   UNL     1       1.088  -0.768   0.133  0.00  0.00    +0.074 C 
BRANCH  18  22
ATOM     19  N   UNL     1       4.778   0.079  -1.456  0.00  0.00    -0.268 NA
ATOM     20  C   UNL     1       4.365   0.903  -0.347  0.00  0.00    +0.090 C 
ATOM     21  C   UNL     1       3.048   0.494   0.246  0.00  0.00    +0.090 C 
ATOM     22  N   UNL     1       2.247  -0.319  -0.635  0.00  0.00    -0.270 NA
ATOM     23  C   UNL     1       2.927  -1.505  -1.091  0.00  0.00    +0.090 C 
ATOM     24  C   UNL     1       4.399  -1.305  -1.313  0.00  0.00    +0.090 C 
BRANCH  19  25
ATOM     25  C   UNL     1       6.240   0.109  -1.467  0.00  0.00    +0.108 C 
BRANCH  25  27
ATOM     26  O   UNL     1       6.683   0.250   0.890  0.00  0.00    -0.219 OA
ATOM     27  C   UNL     1       6.666  -0.612  -0.193  0.00  0.00    +0.199 C 
ENDBRANCH  25  27
ENDBRANCH  19  25
ENDBRANCH  18  22
ENDBRANCH  17  18
ENDBRANCH  16  17
ENDBRANCH   1  16
TORSDOF 6
