REMARK  Name = 
REMARK  2 active torsions:
REMARK  status: ('A' for Active; 'I' for Inactive)
REMARK    1  A    between atoms: N_6  and  C_7
REMARK    2  A    between atoms: C_7  and  C_8
REMARK                            x       y       z     vdW  Elec       q    Type
REMARK                         _______ _______ _______ _____ _____    ______ ____
ROOT
ATOM      1  C   UNL     1      -1.229  -0.411  -1.501  0.00  0.00    +0.085 C 
ATOM      2  C   UNL     1      -0.087  -1.122  -0.597  0.00  0.00    +0.176 C 
ATOM      3  O   UNL     1      -0.074  -2.366  -0.663  0.00  0.00    -0.291 OA
ATOM      4  C   UNL     1       0.869  -0.294   0.069  0.00  0.00    +0.048 A 
ATOM      5  C   UNL     1       2.081  -0.679   0.644  0.00  0.00    +0.020 A 
ATOM      6  C   UNL     1       2.918   0.431   0.611  0.00  0.00    +0.060 A 
ATOM      7  N   UNL     1       2.054   1.470   0.535  0.00  0.00    -0.329 N 
ATOM      8  C   UNL     1       2.437   2.860   0.623  0.00  0.00    +0.130 C 
ATOM      9  C   UNL     1       4.301   0.314   0.712  0.00  0.00    +0.017 A 
ATOM     10  C   UNL     1       4.824  -0.882   0.232  0.00  0.00    +0.001 A 
ATOM     11  C   UNL     1       4.120  -2.004   0.656  0.00  0.00    +0.000 A 
ATOM     12  C   UNL     1       2.739  -1.899   0.759  0.00  0.00    +0.002 A 
ATOM     13  C   UNL     1       0.904   1.087  -0.070  0.00  0.00    +0.040 A 
ATOM     14  C   UNL     1       0.186   1.697  -1.236  0.00  0.00    +0.044 C 
ATOM     15  C   UNL     1      -0.165   0.645  -2.200  0.00  0.00    +0.016 C 
ENDROOT
BRANCH   1  16
ATOM     16  C   UNL     1      -1.675   0.605  -0.269  0.00  0.00    +0.115 C 
BRANCH  16  19
ATOM     17  C   UNL     1      -3.272  -1.760   0.783  0.00  0.00    +0.072 C 
ATOM     18  C   UNL     1      -3.704  -0.517   0.538  0.00  0.00    +0.121 A 
ATOM     19  N   UNL     1      -3.122   0.404  -0.268  0.00  0.00    -0.313 N 
ATOM     20  C   UNL     1      -4.043   1.370  -0.501  0.00  0.00    +0.098 A 
ATOM     21  C   UNL     1      -5.077   1.180   0.407  0.00  0.00    +0.119 A 
ATOM     22  N   UNL     1      -4.988  -0.129   0.737  0.00  0.00    -0.229 NA
ENDBRANCH  16  19
ENDBRANCH   1  16
TORSDOF 2
