REMARK  Name = 
REMARK  6 active torsions:
REMARK  status: ('A' for Active; 'I' for Inactive)
REMARK    1  A    between atoms: C_2  and  O_3
REMARK    2  A    between atoms: O_3  and  C_4
REMARK    3  A    between atoms: C_4  and  C_6
REMARK    4  A    between atoms: C_12  and  C_13
REMARK    5  A    between atoms: C_13  and  O_15
REMARK    6  A    between atoms: C_17  and  C_18
REMARK                            x       y       z     vdW  Elec       q    Type
REMARK                         _______ _______ _______ _____ _____    ______ ____
ROOT
ATOM      1  C   UNL     1       1.130  -0.365   0.204  0.00  0.00    +0.073 C 
ATOM      2  C   UNL     1       0.002   0.295  -0.776  0.00  0.00    +0.082 C 
ATOM      3  C   UNL     1       0.074   1.766  -0.080  0.00  0.00    +0.073 C 
ATOM      4  C   UNL     1      -0.018   1.880   1.178  0.00  0.00    +0.051 C 
ATOM      5  C   UNL     1      -0.273   3.255   1.716  0.00  0.00    +0.049 C 
ATOM      6  N   UNL     1       0.391   0.841   2.013  0.00  0.00    -0.221 NA
ATOM      7  C   UNL     1       0.907  -0.345   1.475  0.00  0.00    +0.051 C 
ATOM      8  C   UNL     1       1.849  -1.139   2.329  0.00  0.00    +0.049 C 
ENDROOT
BRANCH   2   9
ATOM      9  C   UNL     1      -1.276  -0.258   0.087  0.00  0.00    -0.002 A 
ATOM     10  C   UNL     1      -1.779  -1.393  -0.551  0.00  0.00    +0.065 A 
ATOM     11 CL   UNL     1      -1.220  -1.973  -2.118  0.00  0.00    -0.082 Cl
ATOM     12  C   UNL     1      -3.066  -1.815  -0.228  0.00  0.00    +0.068 A 
ATOM     13 CL   UNL     1      -3.711  -3.309  -0.897  0.00  0.00    -0.081 Cl
ATOM     14  C   UNL     1      -3.814  -1.044   0.654  0.00  0.00    +0.012 A 
ATOM     15  C   UNL     1      -3.328   0.188   1.076  0.00  0.00    +0.001 A 
ATOM     16  C   UNL     1      -2.275   0.689   0.314  0.00  0.00    -0.003 A 
ENDBRANCH   2   9
BRANCH   1  17
ATOM     17  C   UNL     1       1.677  -1.622  -0.342  0.00  0.00    +0.339 C 
ATOM     18  O   UNL     1       1.436  -2.732   0.225  0.00  0.00    -0.245 OA
BRANCH  17  19
ATOM     19  O   UNL     1       2.918  -1.566  -0.984  0.00  0.00    -0.446 OA
BRANCH  19  21
ATOM     20  C   UNL     1       4.242  -3.112  -0.378  0.00  0.00    +0.051 C 
ATOM     21  C   UNL     1       3.774  -2.694  -1.085  0.00  0.00    +0.209 C 
ENDBRANCH  19  21
ENDBRANCH  17  19
ENDBRANCH   1  17
BRANCH   3  22
ATOM     22  C   UNL     1       0.247   2.820  -1.062  0.00  0.00    +0.339 C 
ATOM     23  O   UNL     1      -0.020   2.679  -2.277  0.00  0.00    -0.245 OA
BRANCH  22  24
ATOM     24  O   UNL     1       0.639   4.074  -0.647  0.00  0.00    -0.442 OA
ATOM     25  C   UNL     1       1.491   4.880  -1.460  0.00  0.00    +0.256 C 
ENDBRANCH  22  24
ENDBRANCH   3  22
TORSDOF 6
