REMARK  Name = 
REMARK  7 active torsions:
REMARK  status: ('A' for Active; 'I' for Inactive)
REMARK    1  A    between atoms: C_2  and  N_3
REMARK    2  A    between atoms: N_3  and  C_4
REMARK    3  A    between atoms: N_3  and  C_6
REMARK    4  A    between atoms: C_6  and  C_7
REMARK    5  A    between atoms: C_7  and  N_8
REMARK    6  A    between atoms: C_9  and  C_11
REMARK    7  A    between atoms: C_18  and  O_19
REMARK                            x       y       z     vdW  Elec       q    Type
REMARK                         _______ _______ _______ _____ _____    ______ ____
ROOT
ATOM      1  N   UNL     1       0.731  -0.585  -1.124  0.00  0.00    -0.200 NA
ATOM      2  C   UNL     1       0.084  -0.222   0.076  0.00  0.00    +0.268 C 
ATOM      3  O   UNL     1       0.712   0.552   0.855  0.00  0.00    -0.268 OA
ENDROOT
BRANCH   2   4
ATOM      4  C   UNL     1      -1.362  -0.343   0.241  0.00  0.00    +0.090 A 
ATOM      5  C   UNL     1      -2.206  -0.645  -0.818  0.00  0.00    +0.144 A 
ATOM      6  C   UNL     1      -3.578  -0.667  -0.602  0.00  0.00    +0.056 A 
ATOM      7  C   UNL     1      -4.138  -0.409   0.638  0.00  0.00    +0.103 A 
ATOM      8  N   UNL     1      -5.534  -0.248   0.838  0.00  0.00    -0.127 NA
ATOM      9  C   UNL     1      -3.301   0.137   1.597  0.00  0.00    +0.075 A 
ATOM     10 CL   UNL     1      -3.927   1.210   2.847  0.00  0.00    -0.081 Cl
ATOM     11  C   UNL     1      -1.935  -0.078   1.463  0.00  0.00    +0.020 A 
BRANCH   5  12
ATOM     12  O   UNL     1      -1.740  -0.439  -2.120  0.00  0.00    -0.471 OA
ATOM     13  C   UNL     1      -2.454   0.447  -2.974  0.00  0.00    +0.252 C 
ENDBRANCH   5  12
ENDBRANCH   2   4
BRANCH   1  14
ATOM     14  C   UNL     1       2.140  -0.271  -1.328  0.00  0.00    +0.133 C 
BRANCH  14  15
ATOM     15  C   UNL     1       2.638   0.716  -0.311  0.00  0.00    +0.096 C 
BRANCH  15  16
ATOM     16  N   UNL     1       3.904   0.355   0.270  0.00  0.00    -0.271 NA
BRANCH  16  18
ATOM     17  C   UNL     1       6.084   1.310   0.705  0.00  0.00    +0.019 C 
ATOM     18  C   UNL     1       4.602   1.556   0.654  0.00  0.00    +0.072 C 
ENDBRANCH  16  18
BRANCH  16  19
ATOM     19  C   UNL     1       4.722  -0.463  -0.588  0.00  0.00    +0.072 C 
ATOM     20  C   UNL     1       4.557  -1.914  -0.211  0.00  0.00    +0.019 C 
ENDBRANCH  16  19
ENDBRANCH  15  16
ENDBRANCH  14  15
ENDBRANCH   1  14
TORSDOF 7
