REMARK  Name = 
REMARK  1 active torsions:
REMARK  status: ('A' for Active; 'I' for Inactive)
REMARK    1  A    between atoms: C_2  and  C_3
REMARK                            x       y       z     vdW  Elec       q    Type
REMARK                         _______ _______ _______ _____ _____    ______ ____
ROOT
ATOM      1  C   UNL     1       0.557  -0.065  -0.344  0.00  0.00    +0.011 A 
ATOM      2  C   UNL     1      -0.121  -1.228  -0.012  0.00  0.00    -0.002 A 
ATOM      3  C   UNL     1      -1.504  -1.150   0.094  0.00  0.00    -0.000 A 
ATOM      4  C   UNL     1      -2.144   0.076   0.217  0.00  0.00    -0.000 A 
ATOM      5  C   UNL     1      -1.316   1.191   0.272  0.00  0.00    -0.000 A 
ATOM      6  C   UNL     1      -0.144   1.128  -0.474  0.00  0.00    -0.002 A 
ENDROOT
BRANCH   1   8
ATOM      7  O   UNL     1       2.639   0.109   0.737  0.00  0.00    -0.215 OA
ATOM      8  C   UNL     1       2.033  -0.062  -0.490  0.00  0.00    +0.209 C 
ENDBRANCH   1   8
TORSDOF 1
