REMARK  Name = 
REMARK  5 active torsions:
REMARK  status: ('A' for Active; 'I' for Inactive)
REMARK    1  A    between atoms: C_2  and  C_3
REMARK    2  A    between atoms: C_5  and  C_6
REMARK    3  A    between atoms: C_5  and  O_8
REMARK    4  A    between atoms: O_8  and  C_9
REMARK    5  A    between atoms: C_11  and  C_12
REMARK                            x       y       z     vdW  Elec       q    Type
REMARK                         _______ _______ _______ _____ _____    ______ ____
ROOT
ATOM      1  O   UNL     1      -0.769   0.239  -0.012  0.00  0.00    -0.303 OA
ENDROOT
BRANCH   1   2
ATOM      2  C   UNL     1       0.743   0.015   0.021  0.00  0.00    +0.271 C 
ATOM      3  C   UNL     1       0.900   1.353   1.142  0.00  0.00    +0.241 C 
ATOM      4  O   UNL     1       1.087   2.467   0.158  0.00  0.00    -0.215 OA
ATOM      5  C   UNL     1       2.579   1.085   1.403  0.00  0.00    +0.220 C 
ATOM      6  O   UNL     1       2.259   0.031   2.438  0.00  0.00    -0.217 OA
ATOM      7  C   UNL     1       2.759  -0.084   0.161  0.00  0.00    +0.214 C 
ATOM      8  O   UNL     1       4.248   0.104   0.141  0.00  0.00    -0.218 OA
ATOM      9  C   UNL     1       2.517   1.108  -1.071  0.00  0.00    +0.183 C 
ATOM     10  O   UNL     1       1.027   0.825  -1.259  0.00  0.00    -0.326 OA
BRANCH   9  11
ATOM     11  C   UNL     1       2.976   0.045  -2.249  0.00  0.00    +0.214 C 
ATOM     12  O   UNL     1       3.891   0.853  -2.934  0.00  0.00    -0.218 OA
ENDBRANCH   9  11
ENDBRANCH   1   2
BRANCH   1  18
ATOM     13  C   UNL     1      -3.352  -0.509   0.798  0.00  0.00    +0.183 C 
ATOM     14  C   UNL     1      -1.944  -1.096   1.603  0.00  0.00    +0.217 C 
ATOM     15  O   UNL     1      -2.755  -2.167   2.278  0.00  0.00    -0.218 OA
ATOM     16  C   UNL     1      -1.617  -2.099   0.243  0.00  0.00    +0.238 C 
ATOM     17  O   UNL     1      -0.138  -2.204   0.594  0.00  0.00    -0.215 OA
ATOM     18  C   UNL     1      -1.450  -0.689  -0.583  0.00  0.00    +0.252 C 
ATOM     19  O   UNL     1      -2.725  -0.450  -0.565  0.00  0.00    -0.327 OA
BRANCH  13  21
ATOM     20  O   UNL     1      -4.192   1.680   1.375  0.00  0.00    -0.218 OA
ATOM     21  C   UNL     1      -2.961   1.072   1.127  0.00  0.00    +0.214 C 
ENDBRANCH  13  21
BRANCH  18  22
ATOM     22  C   UNL     1      -1.163  -1.184  -1.963  0.00  0.00    +0.241 C 
ATOM     23  O   UNL     1      -1.920  -0.395  -2.846  0.00  0.00    -0.215 OA
ENDBRANCH  18  22
ENDBRANCH   1  18
TORSDOF 5
