REMARK  Name = 
REMARK  7 active torsions:
REMARK  status: ('A' for Active; 'I' for Inactive)
REMARK    1  A    between atoms: C_2  and  C_3
REMARK    2  A    between atoms: C_3  and  N_4
REMARK    3  A    between atoms: N_4  and  C_5
REMARK    4  A    between atoms: N_4  and  C_8
REMARK    5  A    between atoms: C_5  and  C_6
REMARK    6  A    between atoms: C_8  and  C_9
REMARK    7  A    between atoms: C_9  and  C_10
REMARK                            x       y       z     vdW  Elec       q    Type
REMARK                         _______ _______ _______ _____ _____    ______ ____
ROOT
ATOM      1  C   UNL     1      -0.758  -0.419  -0.632  0.00  0.00    -0.023 A 
ATOM      2  C   UNL     1      -1.891  -0.094   0.104  0.00  0.00    -0.002 A 
ATOM      3  C   UNL     1      -2.401   1.194   0.668  0.00  0.00    +0.114 C 
ATOM      4  C   UNL     1      -3.805   1.183   0.150  0.00  0.00    +0.250 C 
ATOM      5  N   UNL     1      -4.176  -0.199   0.109  0.00  0.00    -0.179 NA
ATOM      6  O   UNL     1      -4.254   2.138  -0.554  0.00  0.00    -0.273 OA
ATOM      7  C   UNL     1      -2.969  -0.967   0.196  0.00  0.00    +0.070 A 
ATOM      8  C   UNL     1      -2.658  -2.305   0.000  0.00  0.00    +0.016 A 
ATOM      9  C   UNL     1      -1.408  -2.713  -0.442  0.00  0.00    +0.001 A 
ATOM     10  C   UNL     1      -0.555  -1.748  -0.963  0.00  0.00    -0.004 A 
ENDROOT
BRANCH   1  11
ATOM     11  C   UNL     1       0.406   0.519  -0.662  0.00  0.00    +0.043 C 
BRANCH  11  12
ATOM     12  C   UNL     1       0.942   0.595   0.742  0.00  0.00    +0.077 C 
BRANCH  12  13
ATOM     13  N   UNL     1       2.359   0.386   0.833  0.00  0.00    -0.272 NA
BRANCH  13  14
ATOM     14  C   UNL     1       2.858  -0.657  -0.015  0.00  0.00    +0.072 C 
BRANCH  14  16
ATOM     15  C   UNL     1       4.511  -2.508   0.364  0.00  0.00    +0.001 C 
ATOM     16  C   UNL     1       4.256  -1.021   0.470  0.00  0.00    +0.017 C 
ENDBRANCH  14  16
ENDBRANCH  13  14
BRANCH  13  17
ATOM     17  C   UNL     1       3.141   1.587   0.826  0.00  0.00    +0.072 C 
BRANCH  17  18
ATOM     18  C   UNL     1       3.628   1.928  -0.577  0.00  0.00    +0.017 C 
ATOM     19  C   UNL     1       2.773   3.101  -1.042  0.00  0.00    +0.001 C 
ENDBRANCH  17  18
ENDBRANCH  13  17
ENDBRANCH  12  13
ENDBRANCH  11  12
ENDBRANCH   1  11
TORSDOF 7
