REMARK  Name = 
REMARK  6 active torsions:
REMARK  status: ('A' for Active; 'I' for Inactive)
REMARK    1  A    between atoms: C_2  and  O_3
REMARK    2  A    between atoms: O_3  and  C_4
REMARK    3  A    between atoms: N_6  and  C_7
REMARK    4  A    between atoms: C_10  and  N_11
REMARK    5  A    between atoms: N_11  and  C_12
REMARK    6  A    between atoms: C_12  and  C_13
REMARK                            x       y       z     vdW  Elec       q    Type
REMARK                         _______ _______ _______ _____ _____    ______ ____
ROOT
ATOM      1  C   UNL     1       2.220  -0.875  -1.007  0.00  0.00    +0.093 A 
ATOM      2  C   UNL     1       1.739  -1.766  -0.056  0.00  0.00    +0.106 A 
ATOM      3  N   UNL     1       2.603  -2.866   0.246  0.00  0.00    -0.127 NA
ATOM      4  C   UNL     1       0.590  -1.507   0.681  0.00  0.00    +0.035 A 
ATOM      5  C   UNL     1      -0.205  -0.414   0.356  0.00  0.00    +0.067 A 
ATOM      6  C   UNL     1       0.094   0.267  -0.818  0.00  0.00    +0.018 A 
ATOM      7  C   UNL     1       1.290   0.039  -1.487  0.00  0.00    +0.019 A 
ENDROOT
BRANCH   1   9
ATOM      8  C   UNL     1       4.221   0.274  -0.059  0.00  0.00    +0.425 C 
ATOM      9  N   UNL     1       3.611  -0.535  -1.073  0.00  0.00    -0.141 NA
ATOM     10  O   UNL     1       3.720   0.184   1.087  0.00  0.00    -0.224 OA
BRANCH   8  11
ATOM     11  O   UNL     1       5.069   1.323  -0.335  0.00  0.00    -0.433 OA
BRANCH  11  13
ATOM     12  C   UNL     1       6.381   3.283  -0.073  0.00  0.00    +0.051 C 
ATOM     13  C   UNL     1       5.371   2.360   0.591  0.00  0.00    +0.210 C 
ENDBRANCH  11  13
ENDBRANCH   8  11
ENDBRANCH   1   9
BRANCH   5  14
ATOM     14  N   UNL     1      -1.189   0.071   1.247  0.00  0.00    -0.233 NA
BRANCH  14  15
ATOM     15  C   UNL     1      -2.373  -0.655   1.624  0.00  0.00    +0.139 C 
BRANCH  15  16
ATOM     16  C   UNL     1      -3.390  -0.594   0.558  0.00  0.00    -0.001 A 
ATOM     17  C   UNL     1      -4.695  -0.916   0.901  0.00  0.00    -0.000 A 
ATOM     18  C   UNL     1      -5.733  -0.432   0.115  0.00  0.00    +0.029 A 
ATOM     19  C   UNL     1      -5.517   0.562  -0.833  0.00  0.00    +0.140 A 
ATOM     20  F   UNL     1      -6.403   1.593  -0.964  0.00  0.00    -0.204 F 
ATOM     21  C   UNL     1      -4.213   0.659  -1.301  0.00  0.00    +0.029 A 
ATOM     22  C   UNL     1      -3.192  -0.054  -0.685  0.00  0.00    -0.000 A 
ENDBRANCH  15  16
ENDBRANCH  14  15
ENDBRANCH   5  14
TORSDOF 6
