REMARK  Name = 
REMARK  4 active torsions:
REMARK  status: ('A' for Active; 'I' for Inactive)
REMARK    1  A    between atoms: C_2  and  C_3
REMARK    2  A    between atoms: C_12  and  C_13
REMARK    3  A    between atoms: C_12  and  C_15
REMARK    4  A    between atoms: C_15  and  C_16
REMARK                            x       y       z     vdW  Elec       q    Type
REMARK                         _______ _______ _______ _____ _____    ______ ____
ROOT
ATOM      1  C   UNL     1       2.997   0.949  -0.364  0.00  0.00    -0.005 A 
ATOM      2  C   UNL     1       1.785   0.312  -0.404  0.00  0.00    +0.077 A 
ATOM      3  C   UNL     1       1.778  -1.050  -0.129  0.00  0.00    +0.015 A 
ATOM      4  C   UNL     1       0.463  -1.414  -0.020  0.00  0.00    -0.002 A 
ATOM      5  C   UNL     1      -0.235  -2.680   0.253  0.00  0.00    +0.060 C 
ATOM      6  C   UNL     1      -1.600  -2.564   0.780  0.00  0.00    +0.147 C 
ATOM      7  O   UNL     1      -2.227  -1.392   0.824  0.00  0.00    -0.352 OA
ATOM      8  C   UNL     1      -1.743  -0.290   0.222  0.00  0.00    +0.138 C 
ATOM      9  C   UNL     1      -0.332  -0.297  -0.166  0.00  0.00    +0.080 A 
ATOM     10  C   UNL     1       2.943  -1.750   0.077  0.00  0.00    +0.001 A 
ATOM     11  C   UNL     1       4.162  -1.104   0.081  0.00  0.00    -0.000 A 
ATOM     12  N   UNL     1       0.489   0.684  -0.545  0.00  0.00    -0.248 NA
ATOM     13  C   UNL     1       4.183   0.241  -0.220  0.00  0.00    -0.003 A 
ENDROOT
BRANCH   1  15
ATOM     14  C   UNL     1       4.081   2.957   0.348  0.00  0.00    +0.005 C 
ATOM     15  C   UNL     1       3.037   2.432  -0.414  0.00  0.00    +0.028 C 
ENDBRANCH   1  15
BRANCH   8  16
ATOM     16  C   UNL     1      -1.977   0.881   1.173  0.00  0.00    +0.034 C 
ATOM     17  C   UNL     1      -3.004   0.505   2.232  0.00  0.00    +0.003 C 
ENDBRANCH   8  16
BRANCH   8  18
ATOM     18  C   UNL     1      -2.558   0.032  -1.025  0.00  0.00    +0.147 C 
BRANCH  18  19
ATOM     19  C   UNL     1      -3.757   0.862  -0.688  0.00  0.00    +0.368 C 
ATOM     20  O   UNL     1      -4.894   0.601  -1.460  0.00  0.00    -0.246 OA
ATOM     21  O   UNL     1      -3.592   2.084  -0.390  0.00  0.00    -0.246 OA
ENDBRANCH  18  19
ENDBRANCH   8  18
TORSDOF 4
