REMARK  Name = 
REMARK  5 active torsions:
REMARK  status: ('A' for Active; 'I' for Inactive)
REMARK    1  A    between atoms: C_2  and  C_3
REMARK    2  A    between atoms: C_4  and  C_5
REMARK    3  A    between atoms: C_14  and  C_15
REMARK    4  A    between atoms: C_16  and  C_17
REMARK    5  A    between atoms: C_19  and  C_20
REMARK                            x       y       z     vdW  Elec       q    Type
REMARK                         _______ _______ _______ _____ _____    ______ ____
ROOT
ATOM      1  C   UNL     1       1.064   0.553   2.022  0.00  0.00    +0.031 C 
ATOM      2  C   UNL     1       0.557  -0.306   0.918  0.00  0.00    -0.022 C 
ATOM      3  C   UNL     1       1.464  -0.988   0.233  0.00  0.00    -0.004 C 
ENDROOT
BRANCH   3   4
ATOM      4  C   UNL     1       2.750  -1.394   0.806  0.00  0.00    -0.001 C 
ATOM      5  C   UNL     1       3.767  -1.445  -0.056  0.00  0.00    -0.004 C 
BRANCH   5   6
ATOM      6  C   UNL     1       3.800  -0.357  -1.042  0.00  0.00    -0.015 C 
ATOM      7  C   UNL     1       4.074   0.851  -0.547  0.00  0.00    +0.082 C 
ATOM      8  C   UNL     1       2.728  -0.368  -2.087  0.00  0.00    +0.031 C 
BRANCH   7   9
ATOM      9  C   UNL     1       5.196   0.936   0.379  0.00  0.00    +0.388 C 
ATOM     10  O   UNL     1       5.266   0.234   1.568  0.00  0.00    -0.241 OA
ATOM     11  O   UNL     1       5.943   1.958   0.305  0.00  0.00    -0.241 OA
ENDBRANCH   7   9
ENDBRANCH   5   6
ENDBRANCH   3   4
BRANCH   2  12
ATOM     12  C   UNL     1      -0.857  -0.552   0.758  0.00  0.00    -0.005 C 
ATOM     13  C   UNL     1      -1.518  -0.455  -0.380  0.00  0.00    -0.005 C 
BRANCH  13  14
ATOM     14  C   UNL     1      -2.931  -0.067  -0.267  0.00  0.00    -0.031 C 
ATOM     15  C   UNL     1      -3.873  -0.957   0.481  0.00  0.00    +0.018 C 
ATOM     16  C   UNL     1      -4.279  -2.108  -0.424  0.00  0.00    +0.004 C 
ATOM     17  C   UNL     1      -3.262  -1.436   1.767  0.00  0.00    +0.004 C 
ATOM     18  C   UNL     1      -5.073  -0.094   0.850  0.00  0.00    +0.004 C 
ATOM     19  C   UNL     1      -4.610   1.263   1.315  0.00  0.00    +0.005 C 
ATOM     20  C   UNL     1      -4.191   2.038   0.084  0.00  0.00    +0.022 C 
ATOM     21  C   UNL     1      -3.300   1.135  -0.707  0.00  0.00    -0.048 C 
ATOM     22  C   UNL     1      -2.715   1.560  -2.016  0.00  0.00    +0.026 C 
ENDBRANCH  13  14
ENDBRANCH   2  12
TORSDOF 5
