REMARK  Name = 
REMARK  4 active torsions:
REMARK  status: ('A' for Active; 'I' for Inactive)
REMARK    1  A    between atoms: C_5  and  N_6
REMARK    2  A    between atoms: N_6  and  C_7
REMARK    3  A    between atoms: N_6  and  C_13
REMARK    4  A    between atoms: C_7  and  C_8
REMARK                            x       y       z     vdW  Elec       q    Type
REMARK                         _______ _______ _______ _____ _____    ______ ____
ROOT
ATOM      1  N   UNL     1      -0.053   0.023  -0.178  0.00  0.00    -0.276 N 
ENDROOT
BRANCH   1   6
ATOM      2  C   UNL     1       5.270  -1.316   0.188  0.00  0.00    +0.031 C 
ATOM      3  C   UNL     1       3.823  -1.286  -0.172  0.00  0.00    -0.022 A 
ATOM      4  C   UNL     1       2.884  -2.043   0.517  0.00  0.00    -0.003 A 
ATOM      5  C   UNL     1       1.575  -1.577   0.523  0.00  0.00    +0.015 A 
ATOM      6  C   UNL     1       1.076  -0.796  -0.511  0.00  0.00    +0.052 A 
ATOM      7  C   UNL     1       2.018  -0.365  -1.438  0.00  0.00    +0.015 A 
ATOM      8  C   UNL     1       3.361  -0.674  -1.328  0.00  0.00    -0.003 A 
ENDBRANCH   1   6
BRANCH   1   9
ATOM      9  C   UNL     1      -1.252  -0.687   0.154  0.00  0.00    +0.055 A 
ATOM     10  C   UNL     1      -1.893  -1.521  -0.745  0.00  0.00    +0.057 A 
ATOM     11  C   UNL     1      -3.034  -2.230  -0.389  0.00  0.00    +0.197 A 
ATOM     12  O   UNL     1      -3.763  -2.891  -1.381  0.00  0.00    -0.287 OA
ATOM     13  C   UNL     1      -3.739  -1.827   0.736  0.00  0.00    +0.042 A 
ATOM     14  C   UNL     1      -3.121  -1.017   1.657  0.00  0.00    +0.005 A 
ATOM     15  C   UNL     1      -1.811  -0.637   1.423  0.00  0.00    +0.015 A 
ENDBRANCH   1   9
BRANCH   1  16
ATOM     16  C   UNL     1       0.262   1.151   0.692  0.00  0.00    +0.217 C 
BRANCH  16  17
ATOM     17  C   UNL     1      -0.062   2.450   0.070  0.00  0.00    +0.353 C 
ATOM     18  N   UNL     1       0.102   3.668   0.809  0.00  0.00    -0.029 NA
ATOM     19  C   UNL     1      -0.525   4.739   0.074  0.00  0.00    +0.308 C 
ATOM     20  C   UNL     1      -0.963   4.026  -1.187  0.00  0.00    +0.318 C 
ATOM     21  N   UNL     1      -0.155   2.811  -1.155  0.00  0.00    -0.060 NA
ENDBRANCH  16  17
ENDBRANCH   1  16
TORSDOF 4
