REMARK  Name = 
REMARK  2 active torsions:
REMARK  status: ('A' for Active; 'I' for Inactive)
REMARK    1  A    between atoms: S_2  and  C_5
REMARK    2  A    between atoms: C_5  and  C_6
REMARK                            x       y       z     vdW  Elec       q    Type
REMARK                         _______ _______ _______ _____ _____    ______ ____
ROOT
ATOM      1  C   UNL     1      -0.275  -0.554   0.390  0.00  0.00    +0.126 A 
ATOM      2  C   UNL     1       0.934   0.134   0.331  0.00  0.00    +0.056 A 
ATOM      3  C   UNL     1       1.886  -0.781  -0.101  0.00  0.00    +0.177 A 
ATOM      4  C   UNL     1       3.112  -0.282  -0.474  0.00  0.00    +0.040 A 
ATOM      5  C   UNL     1       3.504   0.946   0.046  0.00  0.00    +0.003 A 
ATOM      6  C   UNL     1       2.550   1.908   0.312  0.00  0.00    +0.000 A 
ATOM      7  O   UNL     1       1.383  -1.955   0.201  0.00  0.00    -0.354 OA
ATOM      8  C   UNL     1       1.235   1.469   0.343  0.00  0.00    +0.004 A 
ATOM      9  N   UNL     1       0.118  -1.845   0.514  0.00  0.00    -0.080 NA
ENDROOT
BRANCH   1  10
ATOM     10  C   UNL     1      -1.406   0.007   1.193  0.00  0.00    +0.221 C 
BRANCH  10  12
ATOM     11  N   UNL     1      -2.805   1.350  -0.967  0.00  0.00    +0.035 NA
ATOM     12  S   UNL     1      -2.897   0.141   0.274  0.00  0.00    +0.080 S 
ATOM     13  O   UNL     1      -3.371  -1.146  -0.303  0.00  0.00    -0.154 OA
ATOM     14  O   UNL     1      -3.969   0.609   1.230  0.00  0.00    -0.154 OA
ENDBRANCH  10  12
ENDBRANCH   1  10
TORSDOF 2
