REMARK  Name = 
REMARK  3 active torsions:
REMARK  status: ('A' for Active; 'I' for Inactive)
REMARK    1  A    between atoms: C_4  and  N_5
REMARK    2  A    between atoms: C_7  and  C_8
REMARK    3  A    between atoms: C_17  and  N_18
REMARK                            x       y       z     vdW  Elec       q    Type
REMARK                         _______ _______ _______ _____ _____    ______ ____
ROOT
ATOM      1  N   UNL     1      -0.930   0.230   0.331  0.00  0.00    -0.287 N 
ATOM      2  C   UNL     1       0.077   0.676  -0.458  0.00  0.00    +0.080 A 
ATOM      3  C   UNL     1       0.590   1.948  -0.234  0.00  0.00    +0.058 A 
ATOM      4  C   UNL     1       1.660   2.372  -1.003  0.00  0.00    +0.036 A 
ATOM      5  C   UNL     1       2.575   1.406  -1.402  0.00  0.00    +0.154 A 
ATOM      6  C   UNL     1       2.306   0.057  -1.200  0.00  0.00    +0.088 A 
ATOM      7  F   UNL     1       3.825   1.742  -1.796  0.00  0.00    -0.203 F 
ATOM      8  C   UNL     1       0.004   2.753   0.734  0.00  0.00    +0.205 A 
ATOM      9  O   UNL     1       0.443   3.913   0.916  0.00  0.00    -0.286 OA
ATOM     10  C   UNL     1      -1.328   2.491   1.034  0.00  0.00    +0.136 A 
ATOM     11  C   UNL     1       0.987  -0.257  -0.940  0.00  0.00    +0.089 A 
ATOM     12 CL   UNL     1       0.466  -1.896  -1.190  0.00  0.00    -0.079 Cl
ATOM     13  C   UNL     1      -1.750   1.197   0.809  0.00  0.00    +0.091 A 
ENDROOT
BRANCH   1  21
ATOM     14  N   UNL     1      -2.048  -3.943   2.240  0.00  0.00    -0.105 NA
ATOM     15  C   UNL     1      -2.372  -2.901   1.340  0.00  0.00    +0.199 A 
ATOM     16  C   UNL     1      -3.074  -3.242   0.193  0.00  0.00    +0.177 A 
ATOM     17  F   UNL     1      -3.700  -4.440   0.115  0.00  0.00    -0.201 F 
ATOM     18  C   UNL     1      -3.457  -2.206  -0.639  0.00  0.00    +0.065 A 
ATOM     19  C   UNL     1      -2.660  -1.070  -0.602  0.00  0.00    +0.177 A 
ATOM     20  F   UNL     1      -2.935  -0.076  -1.491  0.00  0.00    -0.201 F 
ATOM     21  C   UNL     1      -1.471  -1.085   0.126  0.00  0.00    +0.177 A 
ATOM     22  N   UNL     1      -1.573  -1.810   1.273  0.00  0.00    -0.205 NA
ENDBRANCH   1  21
BRANCH   6  23
ATOM     23  N   UNL     1       3.339  -0.935  -1.240  0.00  0.00    -0.300 N 
ATOM     24  C   UNL     1       4.774  -0.786  -1.010  0.00  0.00    +0.126 C 
ATOM     25  C   UNL     1       4.556  -1.535   0.299  0.00  0.00    +0.191 C 
ATOM     26  O   UNL     1       5.593  -2.374   0.660  0.00  0.00    -0.219 OA
ATOM     27  C   UNL     1       3.441  -2.192  -0.501  0.00  0.00    +0.126 C 
ENDBRANCH   6  23
BRANCH  10  28
ATOM     28  C   UNL     1      -2.272   3.566   1.367  0.00  0.00    +0.392 C 
ATOM     29  O   UNL     1      -1.725   4.835   1.585  0.00  0.00    -0.240 OA
ATOM     30  O   UNL     1      -3.341   3.563   0.683  0.00  0.00    -0.240 OA
ENDBRANCH  10  28
TORSDOF 3
