REMARK  Name = 
REMARK  4 active torsions:
REMARK  status: ('A' for Active; 'I' for Inactive)
REMARK    1  A    between atoms: C_2  and  C_3
REMARK    2  A    between atoms: C_2  and  O_8
REMARK    3  A    between atoms: C_3  and  N_4
REMARK    4  A    between atoms: O_8  and  C_9
REMARK                            x       y       z     vdW  Elec       q    Type
REMARK                         _______ _______ _______ _____ _____    ______ ____
ROOT
ATOM      1  C   UNL     1      -0.179   2.357  -0.014  0.00  0.00    +0.054 C 
ATOM      2  C   UNL     1       0.082   0.916  -0.828  0.00  0.00    +0.225 C 
ENDROOT
BRANCH   2   3
ATOM      3  O   UNL     1       1.603   0.939  -0.443  0.00  0.00    -0.430 OA
BRANCH   3   4
ATOM      4  C   UNL     1       2.079  -0.333  -0.104  0.00  0.00    +0.441 C 
ATOM      5  O   UNL     1       1.504  -0.694   0.970  0.00  0.00    -0.223 OA
ATOM      6  N   UNL     1       3.419  -0.755  -0.260  0.00  0.00    -0.048 NA
ENDBRANCH   3   4
ENDBRANCH   2   3
BRANCH   2   7
ATOM      7  C   UNL     1      -0.367   0.040   0.529  0.00  0.00    +0.153 C 
BRANCH   7   8
ATOM      8  N   UNL     1      -1.675  -0.484   0.139  0.00  0.00    +0.313 N 
ATOM      9  C   UNL     1      -1.763  -0.658  -1.302  0.00  0.00    +0.171 C 
ATOM     10  C   UNL     1      -1.961  -1.749   0.797  0.00  0.00    +0.171 C 
ATOM     11  C   UNL     1      -2.741   0.422   0.516  0.00  0.00    +0.171 C 
ENDBRANCH   7   8
ENDBRANCH   2   7
TORSDOF 4
