REMARK  Name = 
REMARK  1 active torsions:
REMARK  status: ('A' for Active; 'I' for Inactive)
REMARK    1  A    between atoms: C_2  and  C_4
REMARK                            x       y       z     vdW  Elec       q    Type
REMARK                         _______ _______ _______ _____ _____    ______ ____
ROOT
ATOM      1  C   UNL     1       3.409   0.385   0.543  0.00  0.00    +0.177 C 
ATOM      2  C   UNL     1       2.281  -0.404   0.102  0.00  0.00    +0.035 C 
ATOM      3  C   UNL     1       1.292   0.863  -0.108  0.00  0.00    +0.006 C 
ATOM      4  C   UNL     1       0.202  -0.117  -0.950  0.00  0.00    +0.034 C 
ATOM      5  C   UNL     1      -0.722  -0.234   0.348  0.00  0.00    +0.168 C 
ATOM      6  C   UNL     1       0.248  -0.523   1.625  0.00  0.00    +0.182 C 
ATOM      7  O   UNL     1      -0.430  -1.821   2.029  0.00  0.00    -0.220 OA
ATOM      8  F   UNL     1      -0.896   1.109   0.781  0.00  0.00    -0.237 F 
ATOM      9  C   UNL     1      -1.988  -0.752   0.233  0.00  0.00    +0.064 C 
ATOM     10  C   UNL     1      -2.649   0.156  -0.781  0.00  0.00    -0.036 C 
ATOM     11  C   UNL     1      -3.978   0.075  -0.911  0.00  0.00    +0.034 C 
ATOM     12  C   UNL     1      -4.735  -0.152   0.329  0.00  0.00    +0.195 C 
ATOM     13  C   UNL     1      -3.962  -0.022   1.563  0.00  0.00    +0.038 C 
ATOM     14  O   UNL     1      -5.984  -0.144   0.304  0.00  0.00    -0.287 OA
ATOM     15  C   UNL     1      -1.884   0.294  -2.183  0.00  0.00    +0.019 C 
ATOM     16  C   UNL     1      -2.683   1.663  -2.587  0.00  0.00    +0.004 C 
ATOM     17  C   UNL     1      -2.491  -2.125   0.013  0.00  0.00    +0.011 C 
ATOM     18  C   UNL     1      -2.700  -0.335   1.496  0.00  0.00    -0.017 C 
ATOM     19  C   UNL     1      -0.621   1.136  -1.577  0.00  0.00    +0.007 C 
ATOM     20  C   UNL     1       2.207   1.372  -1.335  0.00  0.00    +0.003 C 
ATOM     21  C   UNL     1       2.549  -0.966  -1.271  0.00  0.00    +0.003 C 
ATOM     22  C   UNL     1       1.490  -1.322   0.879  0.00  0.00    +0.038 C 
ATOM     23  C   UNL     1       3.393   1.607  -0.389  0.00  0.00    +0.038 C 
ATOM     24  O   UNL     1       3.370   0.755   1.877  0.00  0.00    -0.218 OA
ENDROOT
BRANCH   1  26
ATOM     25  C   UNL     1       5.491   0.298   0.610  0.00  0.00    +0.075 C 
ATOM     26  C   UNL     1       4.773  -0.181   0.241  0.00  0.00    +0.178 C 
ATOM     27  O   UNL     1       5.019  -0.617  -0.881  0.00  0.00    -0.293 OA
ENDBRANCH   1  26
TORSDOF 1
