REMARK  Name = 
REMARK  6 active torsions:
REMARK  status: ('A' for Active; 'I' for Inactive)
REMARK    1  A    between atoms: C_2  and  O_3
REMARK    2  A    between atoms: O_3  and  C_4
REMARK    3  A    between atoms: C_7  and  C_8
REMARK    4  A    between atoms: C_8  and  C_9
REMARK    5  A    between atoms: C_11  and  C_12
REMARK    6  A    between atoms: C_14  and  C_15
REMARK                            x       y       z     vdW  Elec       q    Type
REMARK                         _______ _______ _______ _____ _____    ______ ____
ROOT
ATOM      1  C   UNL     1       0.053  -0.871  -1.006  0.00  0.00    -0.007 A 
ATOM      2  C   UNL     1       0.333  -1.563   0.171  0.00  0.00    +0.054 A 
ATOM      3 CL   UNL     1       1.576  -2.825   0.171  0.00  0.00    -0.083 Cl
ATOM      4  C   UNL     1      -0.698  -1.942   0.961  0.00  0.00    +0.011 A 
ATOM      5  C   UNL     1      -1.868  -1.376   0.657  0.00  0.00    -0.001 A 
ATOM      6  C   UNL     1      -2.087  -0.293  -0.263  0.00  0.00    +0.007 A 
ATOM      7  C   UNL     1      -1.304  -0.719  -1.314  0.00  0.00    -0.005 A 
ENDROOT
BRANCH   6   8
ATOM      8  C   UNL     1      -3.698  -0.447  -0.159  0.00  0.00    +0.170 C 
ATOM      9  C   UNL     1      -3.699  -0.300   1.594  0.00  0.00    +0.216 C 
ATOM     10  O   UNL     1      -5.179  -0.492   1.644  0.00  0.00    -0.217 OA
ATOM     11  C   UNL     1      -3.802   1.384   1.728  0.00  0.00    +0.218 C 
ATOM     12  O   UNL     1      -2.907   1.354   2.939  0.00  0.00    -0.217 OA
ATOM     13  C   UNL     1      -2.474   1.761   0.735  0.00  0.00    +0.214 C 
ATOM     14  O   UNL     1      -2.433   3.168   1.223  0.00  0.00    -0.218 OA
ATOM     15  C   UNL     1      -3.630   2.138  -0.471  0.00  0.00    +0.181 C 
ATOM     16  O   UNL     1      -4.306   0.849  -0.470  0.00  0.00    -0.346 OA
BRANCH  15  17
ATOM     17  C   UNL     1      -2.692   1.784  -1.781  0.00  0.00    +0.214 C 
ATOM     18  O   UNL     1      -3.600   1.697  -2.803  0.00  0.00    -0.218 OA
ENDBRANCH  15  17
ENDBRANCH   6   8
BRANCH   1  19
ATOM     19  C   UNL     1       1.210  -0.110  -1.386  0.00  0.00    +0.053 C 
BRANCH  19  23
ATOM     20  C   UNL     1       4.918  -0.154  -0.022  0.00  0.00    +0.139 A 
ATOM     21  C   UNL     1       4.584   0.931  -0.833  0.00  0.00    +0.037 A 
ATOM     22  C   UNL     1       3.219   1.053  -1.103  0.00  0.00    -0.001 A 
ATOM     23  C   UNL     1       2.290   0.165  -0.519  0.00  0.00    -0.018 A 
ATOM     24  C   UNL     1       2.694   0.001   0.784  0.00  0.00    -0.001 A 
ATOM     25  C   UNL     1       4.057  -0.207   1.078  0.00  0.00    +0.037 A 
BRANCH  20  26
ATOM     26  O   UNL     1       6.231  -0.532  -0.043  0.00  0.00    -0.475 OA
BRANCH  26  28
ATOM     27  C   UNL     1       6.407  -2.806   0.127  0.00  0.00    +0.051 C 
ATOM     28  C   UNL     1       6.804  -1.647  -0.634  0.00  0.00    +0.206 C 
ENDBRANCH  26  28
ENDBRANCH  20  26
ENDBRANCH  19  23
ENDBRANCH   1  19
TORSDOF 6
