REMARK  Name = 
REMARK  12 active torsions:
REMARK  status: ('A' for Active; 'I' for Inactive)
REMARK    1  A    between atoms: C_2  and  C_3
REMARK    2  A    between atoms: C_3  and  C_4
REMARK    3  A    between atoms: C_4  and  C_5
REMARK    4  A    between atoms: C_5  and  O_7
REMARK    5  A    between atoms: O_7  and  C_8
REMARK    6  A    between atoms: C_8  and  C_9
REMARK    7  A    between atoms: C_9  and  C_11
REMARK    8  A    between atoms: C_22  and  O_23
REMARK    9  A    between atoms: O_23  and  C_24
REMARK   10  A    between atoms: C_26  and  N_27
REMARK   11  A    between atoms: C_28  and  C_30
REMARK   12  A    between atoms: C_43  and  O_44
REMARK                            x       y       z     vdW  Elec       q    Type
REMARK                         _______ _______ _______ _____ _____    ______ ____
ROOT
ATOM      1  C   UNL     1      -0.592   2.225   1.666  0.00  0.00    +0.188 C 
ATOM      2  C   UNL     1       0.009   1.044   2.215  0.00  0.00    +0.072 C 
ATOM      3  C   UNL     1       0.667   0.067   1.051  0.00  0.00    +0.146 C 
ATOM      4  C   UNL     1      -0.681   0.068   0.113  0.00  0.00    +0.043 A 
ATOM      5  C   UNL     1      -1.831   0.520   0.690  0.00  0.00    +0.021 A 
ATOM      6  C   UNL     1      -3.023  -0.144   0.781  0.00  0.00    +0.195 A 
ATOM      7  C   UNL     1      -3.034  -1.476   0.483  0.00  0.00    +0.084 A 
ATOM      8  C   UNL     1      -4.062  -2.366   1.015  0.00  0.00    +0.199 C 
ATOM      9  O   UNL     1      -4.989  -1.913   1.712  0.00  0.00    -0.286 OA
ATOM     10  C   UNL     1      -4.205  -3.692   0.428  0.00  0.00    +0.045 A 
ATOM     11  C   UNL     1      -3.419  -4.042  -0.665  0.00  0.00    +0.076 A 
ATOM     12  C   UNL     1      -3.855  -4.973  -1.604  0.00  0.00    +0.142 A 
ATOM     13  C   UNL     1      -5.010  -5.674  -1.311  0.00  0.00    +0.037 A 
ATOM     14  C   UNL     1      -5.602  -5.588  -0.080  0.00  0.00    +0.003 A 
ATOM     15  C   UNL     1      -2.200  -3.262  -0.911  0.00  0.00    +0.202 C 
ATOM     16  O   UNL     1      -1.492  -3.569  -1.892  0.00  0.00    -0.286 OA
ATOM     17  C   UNL     1      -5.173  -4.595   0.792  0.00  0.00    +0.003 A 
ATOM     18  C   UNL     1      -2.007  -1.951  -0.294  0.00  0.00    +0.084 A 
ATOM     19  O   UNL     1      -4.220   0.450   1.194  0.00  0.00    -0.287 OA
ATOM     20  C   UNL     1      -0.859  -1.206  -0.432  0.00  0.00    +0.197 A 
ATOM     21  O   UNL     1       0.169  -1.821  -1.098  0.00  0.00    -0.287 OA
ATOM     22  C   UNL     1      -1.959   1.975   1.031  0.00  0.00    +0.067 C 
ATOM     23  O   UNL     1       0.017   3.043   0.764  0.00  0.00    -0.218 OA
ENDROOT
BRANCH   1  24
ATOM     24  C   UNL     1      -0.871   3.129   2.834  0.00  0.00    +0.222 C 
ATOM     25  O   UNL     1      -1.954   3.018   3.410  0.00  0.00    -0.290 OA
BRANCH  24  26
ATOM     26  C   UNL     1      -0.385   4.554   2.860  0.00  0.00    +0.275 C 
BRANCH  26  27
ATOM     27  O   UNL     1      -0.825   5.176   1.654  0.00  0.00    -0.440 OA
BRANCH  27  28
ATOM     28  C   UNL     1      -1.303   6.490   1.650  0.00  0.00    +0.317 C 
ATOM     29  O   UNL     1      -0.870   7.274   2.517  0.00  0.00    -0.250 OA
BRANCH  28  30
ATOM     30  C   UNL     1      -2.430   6.909   0.774  0.00  0.00    +0.110 C 
BRANCH  30  31
ATOM     31  C   UNL     1      -2.289   6.356  -0.635  0.00  0.00    +0.012 C 
BRANCH  31  33
ATOM     32  C   UNL     1      -1.920   7.512  -2.744  0.00  0.00    +0.000 C 
ATOM     33  C   UNL     1      -1.329   7.240  -1.417  0.00  0.00    +0.001 C 
ENDBRANCH  31  33
ENDBRANCH  30  31
ENDBRANCH  28  30
ENDBRANCH  27  28
ENDBRANCH  26  27
ENDBRANCH  24  26
ENDBRANCH   1  24
BRANCH  12  34
ATOM     34  O   UNL     1      -3.477  -4.770  -2.937  0.00  0.00    -0.471 OA
ATOM     35  C   UNL     1      -4.195  -3.743  -3.618  0.00  0.00    +0.252 C 
ENDBRANCH  12  34
BRANCH   3  36
ATOM     36  O   UNL     1       1.355   1.270   0.424  0.00  0.00    -0.328 OA
BRANCH  36  37
ATOM     37  C   UNL     1       2.268   0.624  -0.623  0.00  0.00    +0.237 C 
ATOM     38  O   UNL     1       3.311   1.751  -0.434  0.00  0.00    -0.330 OA
ATOM     39  C   UNL     1       4.488   1.001   0.138  0.00  0.00    +0.150 C 
ATOM     40  C   UNL     1       5.574   2.147  -0.317  0.00  0.00    +0.035 C 
ATOM     41  C   UNL     1       4.874   0.068  -1.261  0.00  0.00    +0.199 C 
ATOM     42  O   UNL     1       4.034   0.794  -2.266  0.00  0.00    -0.219 OA
ATOM     43  C   UNL     1       3.709  -1.149  -0.917  0.00  0.00    +0.133 C 
ATOM     44  C   UNL     1       3.055  -0.444   0.417  0.00  0.00    +0.086 C 
BRANCH  43  45
ATOM     45  N   UNL     1       4.806  -1.981  -0.161  0.00  0.00    -0.197 NA
ATOM     46  C   UNL     1       5.883  -2.356  -1.031  0.00  0.00    +0.337 C 
ATOM     47  O   UNL     1       5.960  -1.793  -2.166  0.00  0.00    -0.264 OA
BRANCH  46  48
ATOM     48  C   UNL     1       7.167  -2.946  -0.565  0.00  0.00    +0.471 C 
ATOM     49  F   UNL     1       6.968  -3.869   0.429  0.00  0.00    -0.162 F 
ATOM     50  F   UNL     1       7.915  -1.915  -0.000  0.00  0.00    -0.162 F 
ATOM     51  F   UNL     1       7.832  -3.465  -1.665  0.00  0.00    -0.162 F 
ENDBRANCH  46  48
ENDBRANCH  43  45
ENDBRANCH  36  37
ENDBRANCH   3  36
TORSDOF 12
