REMARK  Name = 
REMARK  5 active torsions:
REMARK  status: ('A' for Active; 'I' for Inactive)
REMARK    1  A    between atoms: C_2  and  C_3
REMARK    2  A    between atoms: C_4  and  C_5
REMARK    3  A    between atoms: C_14  and  C_15
REMARK    4  A    between atoms: C_16  and  C_17
REMARK    5  A    between atoms: C_19  and  C_20
REMARK                            x       y       z     vdW  Elec       q    Type
REMARK                         _______ _______ _______ _____ _____    ______ ____
ROOT
ATOM      1  C   UNL     1       0.781  -2.920   0.106  0.00  0.00    +0.031 C 
ATOM      2  C   UNL     1       0.264  -1.529  -0.082  0.00  0.00    -0.022 C 
ATOM      3  C   UNL     1       0.913  -0.577   0.591  0.00  0.00    -0.004 C 
ENDROOT
BRANCH   3   4
ATOM      4  C   UNL     1       2.373  -0.700   0.619  0.00  0.00    -0.001 C 
ATOM      5  C   UNL     1       3.171   0.016  -0.153  0.00  0.00    -0.004 C 
BRANCH   5   6
ATOM      6  C   UNL     1       4.342  -0.518  -0.818  0.00  0.00    -0.015 C 
ATOM      7  C   UNL     1       5.530  -0.208  -0.313  0.00  0.00    +0.082 C 
ATOM      8  C   UNL     1       4.284  -1.656  -1.786  0.00  0.00    +0.031 C 
BRANCH   7   9
ATOM      9  C   UNL     1       5.756   1.135   0.230  0.00  0.00    +0.388 C 
ATOM     10  O   UNL     1       5.010   2.215  -0.251  0.00  0.00    -0.241 OA
ATOM     11  O   UNL     1       6.943   1.411   0.580  0.00  0.00    -0.241 OA
ENDBRANCH   7   9
ENDBRANCH   5   6
ENDBRANCH   3   4
BRANCH   2  12
ATOM     12  C   UNL     1      -1.185  -1.381  -0.267  0.00  0.00    -0.005 C 
ATOM     13  C   UNL     1      -1.751  -0.218  -0.501  0.00  0.00    -0.005 C 
BRANCH  13  14
ATOM     14  C   UNL     1      -3.179  -0.015  -0.229  0.00  0.00    -0.031 C 
ATOM     15  C   UNL     1      -3.847   1.238  -0.704  0.00  0.00    +0.018 C 
ATOM     16  C   UNL     1      -2.817   2.189  -1.289  0.00  0.00    +0.004 C 
ATOM     17  C   UNL     1      -4.971   0.954  -1.662  0.00  0.00    +0.004 C 
ATOM     18  C   UNL     1      -4.404   1.909   0.536  0.00  0.00    +0.004 C 
ATOM     19  C   UNL     1      -5.393   1.047   1.268  0.00  0.00    +0.005 C 
ATOM     20  C   UNL     1      -5.188  -0.434   1.001  0.00  0.00    +0.022 C 
ATOM     21  C   UNL     1      -3.728  -0.678   0.788  0.00  0.00    -0.048 C 
ATOM     22  C   UNL     1      -2.903  -1.279   1.882  0.00  0.00    +0.026 C 
ENDBRANCH  13  14
ENDBRANCH   2  12
TORSDOF 5
