REMARK  Name = 
REMARK  12 active torsions:
REMARK  status: ('A' for Active; 'I' for Inactive)
REMARK    1  A    between atoms: N_2  and  C_3
REMARK    2  A    between atoms: C_6  and  C_7
REMARK    3  A    between atoms: C_8  and  C_9
REMARK    4  A    between atoms: C_12  and  O_13
REMARK    5  A    between atoms: O_13  and  C_14
REMARK    6  A    between atoms: C_14  and  C_15
REMARK    7  A    between atoms: C_15  and  O_16
REMARK    8  A    between atoms: O_16  and  C_17
REMARK    9  A    between atoms: C_17  and  C_18
REMARK   10  A    between atoms: C_18  and  O_19
REMARK   11  A    between atoms: O_19  and  C_20
REMARK   12  A    between atoms: C_20  and  C_21
REMARK                            x       y       z     vdW  Elec       q    Type
REMARK                         _______ _______ _______ _____ _____    ______ ____
ROOT
ATOM      1  C   UNL     1      -1.248  -0.221  -0.814  0.00  0.00    +0.019 A 
ATOM      2  C   UNL     1      -1.192   0.887   0.025  0.00  0.00    +0.102 A 
ATOM      3  N   UNL     1       0.029   1.302   0.373  0.00  0.00    -0.210 NA
ATOM      4  C   UNL     1       1.021   0.396   0.540  0.00  0.00    +0.225 A 
ATOM      5  C   UNL     1       0.721  -0.920   0.255  0.00  0.00    +0.058 A 
ATOM      6  C   UNL     1      -0.445  -1.283  -0.409  0.00  0.00    +0.006 A 
ENDROOT
BRANCH   1   8
ATOM      7  C   UNL     1      -3.037   0.226  -2.432  0.00  0.00    +0.000 C 
ATOM      8  C   UNL     1      -2.422  -0.566  -1.587  0.00  0.00    +0.002 C 
BRANCH   7  12
ATOM      9  C   UNL     1      -6.795   0.348  -0.826  0.00  0.00    +0.065 A 
ATOM     10  C   UNL     1      -6.214   1.556  -1.192  0.00  0.00    +0.016 A 
ATOM     11  C   UNL     1      -5.063   1.582  -1.972  0.00  0.00    +0.001 A 
ATOM     12  C   UNL     1      -4.495   0.409  -2.460  0.00  0.00    +0.000 A 
ATOM     13  C   UNL     1      -5.367  -0.674  -2.480  0.00  0.00    +0.001 A 
ATOM     14  C   UNL     1      -6.507  -0.707  -1.684  0.00  0.00    +0.016 A 
BRANCH   9  16
ATOM     15  C   UNL     1      -6.370  -0.477   1.514  0.00  0.00    +0.135 C 
ATOM     16  N   UNL     1      -7.256   0.104   0.509  0.00  0.00    -0.236 NA
ENDBRANCH   9  16
ENDBRANCH   7  12
ENDBRANCH   1   8
BRANCH   4  17
ATOM     17  O   UNL     1       2.341   0.852   0.603  0.00  0.00    -0.457 OA
BRANCH  17  18
ATOM     18  C   UNL     1       3.284  -0.014   1.211  0.00  0.00    +0.239 C 
BRANCH  18  19
ATOM     19  C   UNL     1       3.281   0.251   2.696  0.00  0.00    +0.189 C 
BRANCH  19  20
ATOM     20  O   UNL     1       4.379  -0.367   3.310  0.00  0.00    -0.347 OA
BRANCH  20  21
ATOM     21  C   UNL     1       5.009  -1.191   2.390  0.00  0.00    +0.174 C 
BRANCH  21  22
ATOM     22  C   UNL     1       6.083  -0.395   1.662  0.00  0.00    +0.174 C 
BRANCH  22  23
ATOM     23  O   UNL     1       6.340  -0.954   0.419  0.00  0.00    -0.348 OA
BRANCH  23  24
ATOM     24  C   UNL     1       6.868   0.016  -0.446  0.00  0.00    +0.180 C 
BRANCH  24  25
ATOM     25  C   UNL     1       8.377   0.134  -0.269  0.00  0.00    +0.225 C 
ATOM     26  F   UNL     1       8.678   0.325   1.065  0.00  0.00    -0.232 F 
ENDBRANCH  24  25
ENDBRANCH  23  24
ENDBRANCH  22  23
ENDBRANCH  21  22
ENDBRANCH  20  21
ENDBRANCH  19  20
ENDBRANCH  18  19
ENDBRANCH  17  18
ENDBRANCH   4  17
TORSDOF 12
