REMARK  Name = 
REMARK  3 active torsions:
REMARK  status: ('A' for Active; 'I' for Inactive)
REMARK    1  A    between atoms: O_2  and  C_3
REMARK    2  A    between atoms: N_12  and  C1*_13
REMARK    3  A    between atoms: C4*_15  and  C5*_16
REMARK                            x       y       z     vdW  Elec       q    Type
REMARK                         _______ _______ _______ _____ _____    ______ ____
ROOT
ATOM      1  C   UNL     1      -3.132   0.077  -0.122  0.00  0.00    +0.249 A 
ATOM      2  C   UNL     1      -1.825  -0.181  -0.442  0.00  0.00    +0.170 A 
ATOM      3  N   UNL     1      -1.330  -1.083  -1.296  0.00  0.00    -0.217 NA
ATOM      4  C   UNL     1      -0.044  -0.901  -1.285  0.00  0.00    +0.182 A 
ATOM      5  N   UNL     1       0.410  -0.235  -0.179  0.00  0.00    -0.269 N 
ATOM      6  C   UNL     1      -0.756   0.236   0.352  0.00  0.00    +0.172 A 
ATOM      7  N   UNL     1      -1.105   0.791   1.517  0.00  0.00    -0.192 NA
ATOM      8  C   UNL     1      -2.365   0.584   1.996  0.00  0.00    +0.261 A 
ATOM      9  N   UNL     1      -2.607   0.354   3.395  0.00  0.00    -0.086 NA
ATOM     10  N   UNL     1      -3.413   0.396   1.147  0.00  0.00    -0.175 NA
ENDROOT
BRANCH   5  11
ATOM     11  C1* UNL     1       1.400   0.983  -0.512  0.00  0.00    +0.241 C 
ATOM     12  C2* UNL     1       2.298   0.962   0.938  0.00  0.00    +0.234 C 
ATOM     13  O2* UNL     1       2.005  -0.403   1.463  0.00  0.00    -0.216 OA
ATOM     14  C3* UNL     1       3.811   0.716   0.239  0.00  0.00    +0.216 C 
ATOM     15  O3* UNL     1       3.577   1.828  -0.753  0.00  0.00    -0.218 OA
ATOM     16  C4* UNL     1       3.412  -0.461  -0.929  0.00  0.00    +0.183 C 
ATOM     17  O4* UNL     1       2.203   0.169  -1.401  0.00  0.00    -0.331 OA
BRANCH  16  18
ATOM     18  C5* UNL     1       2.702  -1.571   0.044  0.00  0.00    +0.214 C 
ATOM     19  O5* UNL     1       2.928  -2.810  -0.303  0.00  0.00    -0.218 OA
ENDBRANCH  16  18
ENDBRANCH   5  11
BRANCH   1  21
ATOM     20  C   UNL     1      -4.150   0.347  -1.714  0.00  0.00    +0.254 C 
ATOM     21  O   UNL     1      -4.021   0.204  -1.188  0.00  0.00    -0.455 OA
ENDBRANCH   1  21
TORSDOF 3
