REMARK  Name = 
REMARK  10 active torsions:
REMARK  status: ('A' for Active; 'I' for Inactive)
REMARK    1  A    between atoms: C_2  and  C_3
REMARK    2  A    between atoms: C_3  and  C_4
REMARK    3  A    between atoms: C_4  and  N_5
REMARK    4  A    between atoms: N_5  and  C_6
REMARK    5  A    between atoms: N_5  and  C_10
REMARK    6  A    between atoms: C_6  and  C_7
REMARK    7  A    between atoms: C_7  and  C_8
REMARK    8  A    between atoms: C_10  and  C_11
REMARK    9  A    between atoms: C_11  and  C_13
REMARK   10  A    between atoms: C_28  and  C_29
REMARK                            x       y       z     vdW  Elec       q    Type
REMARK                         _______ _______ _______ _____ _____    ______ ____
ROOT
ATOM      1  C   UNL     1      -0.905  -0.488   0.998  0.00  0.00    +0.010 A 
ATOM      2  C   UNL     1       0.145  -0.038   0.183  0.00  0.00    -0.002 A 
ATOM      3  C   UNL     1       0.210   0.419  -1.212  0.00  0.00    -0.000 A 
ATOM      4  C   UNL     1       1.515   0.785  -1.483  0.00  0.00    +0.001 A 
ATOM      5  C   UNL     1       2.314   0.354  -0.324  0.00  0.00    +0.000 C 
ATOM      6  C   UNL     1       3.567  -0.093  -0.427  0.00  0.00    +0.000 C 
ATOM      7  C   UNL     1       1.867   1.081  -2.794  0.00  0.00    +0.011 A 
ATOM      8  C   UNL     1       1.056   0.777  -3.877  0.00  0.00    +0.058 A 
ATOM      9 CL   UNL     1       1.777   0.350  -5.422  0.00  0.00    -0.082 Cl
ATOM     10  C   UNL     1      -0.268   0.505  -3.577  0.00  0.00    +0.011 A 
ATOM     11  C   UNL     1      -0.704   0.420  -2.261  0.00  0.00    +0.001 A 
ATOM     12  C   UNL     1       1.427  -0.315   0.642  0.00  0.00    +0.001 A 
ATOM     13  C   UNL     1       1.651  -1.294   1.607  0.00  0.00    +0.011 A 
ATOM     14  C   UNL     1       0.564  -2.062   2.024  0.00  0.00    +0.057 A 
ATOM     15 CL   UNL     1       0.916  -3.703   2.571  0.00  0.00    -0.082 Cl
ATOM     16  C   UNL     1      -0.739  -1.687   1.698  0.00  0.00    +0.010 A 
ENDROOT
BRANCH   6  17
ATOM     17  C   UNL     1       4.395  -0.302   0.776  0.00  0.00    +0.000 A 
ATOM     18  C   UNL     1       4.572   0.701   1.726  0.00  0.00    +0.001 A 
ATOM     19  C   UNL     1       5.832   1.191   2.054  0.00  0.00    +0.011 A 
ATOM     20  C   UNL     1       6.964   0.766   1.362  0.00  0.00    +0.058 A 
ATOM     21 CL   UNL     1       8.149   1.912   0.746  0.00  0.00    -0.082 Cl
ATOM     22  C   UNL     1       6.824  -0.521   0.861  0.00  0.00    +0.011 A 
ATOM     23  C   UNL     1       5.563  -1.034   0.567  0.00  0.00    +0.001 A 
ENDBRANCH   6  17
BRANCH   1  24
ATOM     24  C   UNL     1      -2.322  -0.442   0.198  0.00  0.00    +0.190 C 
ATOM     25  O   UNL     1      -2.374   1.080   0.249  0.00  0.00    -0.217 OA
BRANCH  24  26
ATOM     26  C   UNL     1      -3.209  -0.601   1.588  0.00  0.00    +0.110 C 
BRANCH  26  27
ATOM     27  N   UNL     1      -4.544  -0.150   1.181  0.00  0.00    -0.270 NA
BRANCH  27  28
ATOM     28  C   UNL     1      -4.716  -0.331  -0.245  0.00  0.00    +0.072 C 
BRANCH  28  29
ATOM     29  C   UNL     1      -5.244  -1.671  -0.629  0.00  0.00    +0.017 C 
BRANCH  29  31
ATOM     30  C   UNL     1      -6.293  -2.239   0.914  0.00  0.00    +0.000 C 
ATOM     31  C   UNL     1      -5.988  -2.354   0.483  0.00  0.00    +0.001 C 
ENDBRANCH  29  31
ENDBRANCH  28  29
ENDBRANCH  27  28
BRANCH  27  32
ATOM     32  C   UNL     1      -4.668   1.268   1.506  0.00  0.00    +0.072 C 
BRANCH  32  33
ATOM     33  C   UNL     1      -5.900   1.829   0.834  0.00  0.00    +0.017 C 
BRANCH  33  34
ATOM     34  C   UNL     1      -5.660   2.190  -0.615  0.00  0.00    +0.001 C 
ATOM     35  C   UNL     1      -5.773   3.695  -0.732  0.00  0.00    +0.000 C 
ENDBRANCH  33  34
ENDBRANCH  32  33
ENDBRANCH  27  32
ENDBRANCH  26  27
ENDBRANCH  24  26
ENDBRANCH   1  24
TORSDOF 10
