REMARK  Name = 
REMARK  0 active torsions:
REMARK  status: ('A' for Active; 'I' for Inactive)
REMARK                            x       y       z     vdW  Elec       q    Type
REMARK                         _______ _______ _______ _____ _____    ______ ____
ROOT
ATOM      1  C   UNL     1      -1.016   3.436   0.349  0.00  0.00    +0.090 C 
ATOM      2  N   UNL     1      -0.986   2.955   0.572  0.00  0.00    -0.271 NA
ATOM      3  C   UNL     1       0.312   2.362   0.568  0.00  0.00    +0.077 C 
ATOM      4  C   UNL     1      -0.049   0.774   0.595  0.00  0.00    +0.047 C 
ATOM      5  C   UNL     1      -1.024   1.015  -0.793  0.00  0.00    +0.047 C 
ATOM      6  C   UNL     1      -1.866  -0.319  -0.513  0.00  0.00    +0.014 A 
ATOM      7  C   UNL     1      -1.225  -1.551  -0.639  0.00  0.00    +0.141 A 
ATOM      8  O   UNL     1       0.108  -1.817  -0.990  0.00  0.00    -0.454 OA
ATOM      9  C   UNL     1       1.163  -0.892  -0.913  0.00  0.00    +0.141 A 
ATOM     10  C   UNL     1       2.378  -1.428  -1.320  0.00  0.00    +0.038 A 
ATOM     11  C   UNL     1       3.540  -0.977  -0.706  0.00  0.00    +0.015 A 
ATOM     12  C   UNL     1       3.502  -0.034   0.315  0.00  0.00    +0.058 A 
ATOM     13  C   UNL     1       2.349   0.732   0.414  0.00  0.00    +0.010 A 
ATOM     14 CL   UNL     1       4.704  -0.087   1.599  0.00  0.00    -0.082 Cl
ATOM     15  C   UNL     1      -1.930  -2.694  -0.274  0.00  0.00    +0.037 A 
ATOM     16  C   UNL     1      -2.965  -2.517   0.638  0.00  0.00    +0.003 A 
ATOM     17  C   UNL     1      -3.361  -1.240   1.012  0.00  0.00    -0.000 A 
ATOM     18  C   UNL     1      -2.894  -0.125   0.323  0.00  0.00    -0.001 A 
ATOM     19  C   UNL     1       1.217   0.363  -0.307  0.00  0.00    +0.015 A 
ATOM     20  C   UNL     1      -1.957   2.044   0.069  0.00  0.00    +0.077 C 
ENDROOT
TORSDOF 0
