REMARK  Name = 
REMARK  8 active torsions:
REMARK  status: ('A' for Active; 'I' for Inactive)
REMARK    1  A    between atoms: O_2  and  C_3
REMARK    2  A    between atoms: C_3  and  C_4
REMARK    3  A    between atoms: C_4  and  C_5
REMARK    4  A    between atoms: C_5  and  O_6
REMARK    5  A    between atoms: O_6  and  C_7
REMARK    6  A    between atoms: C_11  and  C_12
REMARK    7  A    between atoms: C_12  and  S_13
REMARK    8  A    between atoms: S_13  and  C_15
REMARK                            x       y       z     vdW  Elec       q    Type
REMARK                         _______ _______ _______ _____ _____    ______ ____
ROOT
ATOM      1  C   UNL     1       3.037  -1.489  -0.337  0.00  0.00    +0.137 A 
ATOM      2  C   UNL     1       1.670  -1.479  -0.503  0.00  0.00    +0.027 A 
ATOM      3  C   UNL     1       1.095  -0.587  -1.558  0.00  0.00    +0.035 C 
ATOM      4  C   UNL     1       0.806  -2.238   0.272  0.00  0.00    +0.072 A 
ATOM      5  N   UNL     1       1.361  -3.310   0.886  0.00  0.00    -0.247 NA
ATOM      6  C   UNL     1       2.688  -3.563   0.777  0.00  0.00    +0.102 A 
ATOM      7  C   UNL     1       3.566  -2.587   0.323  0.00  0.00    +0.057 A 
ENDROOT
BRANCH   4   8
ATOM      8  C   UNL     1      -0.670  -1.986   0.299  0.00  0.00    +0.145 C 
BRANCH   8   9
ATOM      9  S   UNL     1      -0.879  -0.310  -0.438  0.00  0.00    +0.107 S 
ATOM     10  O   UNL     1      -0.546   0.567   0.806  0.00  0.00    -0.248 OA
BRANCH   9  11
ATOM     11  C   UNL     1      -2.684  -0.187  -0.475  0.00  0.00    +0.221 A 
ATOM     12  N   UNL     1      -3.322   0.667  -1.311  0.00  0.00    -0.218 NA
ATOM     13  C   UNL     1      -4.545   0.968  -0.810  0.00  0.00    +0.101 A 
ATOM     14  C   UNL     1      -4.756   0.112   0.264  0.00  0.00    +0.101 A 
ATOM     15  C   UNL     1      -5.643   0.574   1.229  0.00  0.00    +0.021 A 
ATOM     16  C   UNL     1      -6.366   1.732   1.096  0.00  0.00    +0.002 A 
ATOM     17  C   UNL     1      -6.049   2.614   0.079  0.00  0.00    +0.002 A 
ATOM     18  C   UNL     1      -5.377   2.064  -1.005  0.00  0.00    +0.021 A 
ATOM     19  N   UNL     1      -3.547  -0.457   0.502  0.00  0.00    -0.218 NA
ENDBRANCH   9  11
ENDBRANCH   8   9
ENDBRANCH   4   8
BRANCH   1  20
ATOM     20  O   UNL     1       3.734  -0.282  -0.450  0.00  0.00    -0.476 OA
BRANCH  20  21
ATOM     21  C   UNL     1       3.938   0.504   0.722  0.00  0.00    +0.208 C 
BRANCH  21  22
ATOM     22  C   UNL     1       4.053   1.982   0.377  0.00  0.00    +0.079 C 
BRANCH  22  23
ATOM     23  C   UNL     1       5.316   2.245  -0.434  0.00  0.00    +0.146 C 
BRANCH  23  25
ATOM     24  C   UNL     1       6.714   2.091   0.664  0.00  0.00    +0.174 C 
ATOM     25  O   UNL     1       6.406   2.355   0.444  0.00  0.00    -0.351 OA
ENDBRANCH  23  25
ENDBRANCH  22  23
ENDBRANCH  21  22
ENDBRANCH  20  21
ENDBRANCH   1  20
TORSDOF 8
