REMARK  Name = 
REMARK  8 active torsions:
REMARK  status: ('A' for Active; 'I' for Inactive)
REMARK    1  A    between atoms: C_2  and  C_4
REMARK    2  A    between atoms: C_4  and  O_5
REMARK    3  A    between atoms: O_5  and  C_6
REMARK    4  A    between atoms: C_6  and  C_7
REMARK    5  A    between atoms: C_7  and  N_8
REMARK    6  A    between atoms: N_11  and  C_12
REMARK    7  A    between atoms: C_12  and  C_13
REMARK    8  A    between atoms: C_12  and  C_19
REMARK                            x       y       z     vdW  Elec       q    Type
REMARK                         _______ _______ _______ _____ _____    ______ ____
ROOT
ATOM      1  C   UNL     1      -1.160   0.070   0.421  0.00  0.00    +0.103 C 
ENDROOT
BRANCH   1   2
ATOM      2  C   UNL     1      -2.474  -0.662  -0.186  0.00  0.00    -0.004 A 
ATOM      3  C   UNL     1      -3.639  -0.414   0.534  0.00  0.00    -0.002 A 
ATOM      4  C   UNL     1      -4.793  -1.125   0.390  0.00  0.00    +0.011 A 
ATOM      5  C   UNL     1      -4.691  -2.355  -0.236  0.00  0.00    +0.058 A 
ATOM      6 CL   UNL     1      -6.036  -3.447   0.067  0.00  0.00    -0.082 Cl
ATOM      7  C   UNL     1      -3.458  -2.777  -0.684  0.00  0.00    +0.011 A 
ATOM      8  C   UNL     1      -2.312  -2.032  -0.429  0.00  0.00    -0.002 A 
ENDBRANCH   1   2
BRANCH   1   9
ATOM      9  C   UNL     1      -1.897   1.505   0.415  0.00  0.00    -0.004 A 
ATOM     10  C   UNL     1      -2.467   1.716   1.672  0.00  0.00    -0.003 A 
ATOM     11  C   UNL     1      -3.378   2.768   1.694  0.00  0.00    -0.000 A 
ATOM     12  C   UNL     1      -3.010   3.880   0.945  0.00  0.00    -0.000 A 
ATOM     13  C   UNL     1      -1.891   3.817   0.123  0.00  0.00    -0.000 A 
ATOM     14  C   UNL     1      -1.385   2.572  -0.171  0.00  0.00    -0.003 A 
ENDBRANCH   1   9
BRANCH   1  18
ATOM     15  N   UNL     1       2.131  -0.397   0.141  0.00  0.00    -0.268 NA
ATOM     16  C   UNL     1       1.071  -1.361   0.010  0.00  0.00    +0.090 C 
ATOM     17  C   UNL     1       0.123  -1.085  -1.125  0.00  0.00    +0.090 C 
ATOM     18  N   UNL     1      -0.511   0.235  -1.009  0.00  0.00    -0.264 NA
ATOM     19  C   UNL     1       0.624   1.100  -0.885  0.00  0.00    +0.090 C 
ATOM     20  C   UNL     1       1.467   0.893   0.322  0.00  0.00    +0.090 C 
BRANCH  15  21
ATOM     21  C   UNL     1       2.951  -0.275  -1.040  0.00  0.00    +0.105 C 
BRANCH  21  22
ATOM     22  C   UNL     1       4.143  -1.205  -0.851  0.00  0.00    +0.160 C 
BRANCH  22  23
ATOM     23  O   UNL     1       4.580  -0.996   0.467  0.00  0.00    -0.341 OA
BRANCH  23  24
ATOM     24  C   UNL     1       5.322   0.191   0.559  0.00  0.00    +0.257 C 
BRANCH  24  26
ATOM     25  O   UNL     1       7.205  -0.851   0.319  0.00  0.00    -0.243 OA
ATOM     26  C   UNL     1       6.640  -0.129  -0.073  0.00  0.00    +0.394 C 
ATOM     27  O   UNL     1       6.843   0.363  -1.369  0.00  0.00    -0.243 OA
ENDBRANCH  24  26
ENDBRANCH  23  24
ENDBRANCH  22  23
ENDBRANCH  21  22
ENDBRANCH  15  21
ENDBRANCH   1  18
TORSDOF 8
