REMARK  Name = 
REMARK  0 active torsions:
REMARK  status: ('A' for Active; 'I' for Inactive)
REMARK                            x       y       z     vdW  Elec       q    Type
REMARK                         _______ _______ _______ _____ _____    ______ ____
ROOT
ATOM      1  C   UNL     1      -0.467   3.720   0.448  0.00  0.00    +0.090 C 
ATOM      2  N   UNL     1      -0.436   2.884   1.353  0.00  0.00    -0.271 NA
ATOM      3  C   UNL     1       0.817   2.156   1.155  0.00  0.00    +0.077 C 
ATOM      4  C   UNL     1       0.234   1.357  -0.138  0.00  0.00    +0.047 C 
ATOM      5  C   UNL     1      -0.800   0.551   0.949  0.00  0.00    +0.047 C 
ATOM      6  C   UNL     1      -1.796   0.063  -0.205  0.00  0.00    +0.014 A 
ATOM      7  C   UNL     1      -1.383  -0.879  -1.147  0.00  0.00    +0.141 A 
ATOM      8  O   UNL     1      -0.102  -1.334  -1.497  0.00  0.00    -0.454 OA
ATOM      9  C   UNL     1       1.121  -0.747  -1.160  0.00  0.00    +0.141 A 
ATOM     10  C   UNL     1       2.224  -1.546  -1.424  0.00  0.00    +0.038 A 
ATOM     11  C   UNL     1       3.396  -1.259  -0.726  0.00  0.00    +0.015 A 
ATOM     12  C   UNL     1       3.360  -0.604   0.505  0.00  0.00    +0.058 A 
ATOM     13  C   UNL     1       2.373   0.378   0.596  0.00  0.00    +0.010 A 
ATOM     14 CL   UNL     1       4.106  -1.315   1.942  0.00  0.00    -0.082 Cl
ATOM     15  C   UNL     1      -2.355  -1.719  -1.675  0.00  0.00    +0.037 A 
ATOM     16  C   UNL     1      -3.484  -2.042  -0.932  0.00  0.00    +0.003 A 
ATOM     17  C   UNL     1      -3.620  -1.484   0.333  0.00  0.00    -0.000 A 
ATOM     18  C   UNL     1      -2.915  -0.305   0.537  0.00  0.00    -0.001 A 
ATOM     19  C   UNL     1       1.261   0.149  -0.105  0.00  0.00    +0.015 A 
ATOM     20  C   UNL     1      -1.535   1.976   1.192  0.00  0.00    +0.077 C 
ENDROOT
TORSDOF 0
