REMARK  Name = 
REMARK  5 active torsions:
REMARK  status: ('A' for Active; 'I' for Inactive)
REMARK    1  A    between atoms: C_2  and  C_3
REMARK    2  A    between atoms: C_3  and  C_4
REMARK    3  A    between atoms: C_7  and  C_8
REMARK    4  A    between atoms: C_20  and  C_21
REMARK    5  A    between atoms: N_24  and  C_25
REMARK                            x       y       z     vdW  Elec       q    Type
REMARK                         _______ _______ _______ _____ _____    ______ ____
ROOT
ATOM      1  C   UNL     1       0.103   0.170   0.881  0.00  0.00    +0.028 A 
ATOM      2  C   UNL     1      -1.082  -0.246   0.286  0.00  0.00    +0.062 A 
ATOM      3  C   UNL     1      -1.077  -1.494  -0.320  0.00  0.00    +0.055 A 
ATOM      4  C   UNL     1      -2.102  -1.718  -1.230  0.00  0.00    +0.199 A 
ATOM      5  C   UNL     1      -3.009  -0.734  -1.584  0.00  0.00    +0.066 A 
ATOM      6  C   UNL     1      -3.010   0.431  -0.825  0.00  0.00    +0.144 A 
ATOM      7  O   UNL     1      -1.997  -2.711  -2.010  0.00  0.00    -0.286 OA
ATOM      8  C   UNL     1       0.138  -2.127  -0.545  0.00  0.00    +0.011 A 
ATOM      9  C   UNL     1       1.333  -1.625  -0.046  0.00  0.00    +0.073 A 
ATOM     10  C   UNL     1       2.537  -2.028  -0.611  0.00  0.00    +0.202 A 
ATOM     11  O   UNL     1       2.585  -3.141  -1.203  0.00  0.00    -0.286 OA
ATOM     12  C   UNL     1       3.569  -1.131  -0.856  0.00  0.00    +0.086 A 
ATOM     13  C   UNL     1       3.436   0.145  -0.323  0.00  0.00    +0.228 A 
ATOM     14  O   UNL     1       2.416   0.404   0.472  0.00  0.00    -0.447 OA
ATOM     15  N   UNL     1      -2.179   0.547   0.238  0.00  0.00    -0.322 N 
ATOM     16  C   UNL     1       1.336  -0.354   0.513  0.00  0.00    +0.146 A 
ENDROOT
BRANCH   6  17
ATOM     17  C   UNL     1      -4.204   1.272  -0.978  0.00  0.00    +0.403 C 
ATOM     18  O   UNL     1      -5.389   0.718  -0.486  0.00  0.00    -0.239 OA
ATOM     19  O   UNL     1      -4.213   2.163  -1.878  0.00  0.00    -0.239 OA
ENDBRANCH   6  17
BRANCH  13  20
ATOM     20  C   UNL     1       4.553   1.091  -0.440  0.00  0.00    +0.422 C 
ATOM     21  O   UNL     1       5.831   0.642  -0.102  0.00  0.00    -0.237 OA
ATOM     22  O   UNL     1       4.338   2.331  -0.308  0.00  0.00    -0.237 OA
ENDBRANCH  13  20
BRANCH  15  23
ATOM     23  C   UNL     1      -2.100   1.877   0.835  0.00  0.00    +0.106 C 
ATOM     24  C   UNL     1      -3.384   2.046   1.639  0.00  0.00    +0.026 C 
ENDBRANCH  15  23
BRANCH   1  25
ATOM     25  C   UNL     1       0.088   1.338   1.780  0.00  0.00    +0.031 C 
BRANCH  25  27
ATOM     26  C   UNL     1       1.410   1.234   3.869  0.00  0.00    +0.000 C 
ATOM     27  C   UNL     1       0.075   0.900   3.230  0.00  0.00    +0.005 C 
ENDBRANCH  25  27
ENDBRANCH   1  25
TORSDOF 5
