REMARK  Name = 
REMARK  2 active torsions:
REMARK  status: ('A' for Active; 'I' for Inactive)
REMARK    1  A    between atoms: C_4  and  O_6
REMARK    2  A    between atoms: O_6  and  C_7
REMARK                            x       y       z     vdW  Elec       q    Type
REMARK                         _______ _______ _______ _____ _____    ______ ____
ROOT
ATOM      1  C   UNL     1      -0.605  -0.625  -0.532  0.00  0.00    +0.219 A 
ATOM      2  C   UNL     1      -1.031   0.681  -0.326  0.00  0.00    +0.328 A 
ATOM      3  N   UNL     1      -2.138   0.965   0.397  0.00  0.00    -0.151 N 
ATOM      4  C   UNL     1      -2.529   2.349   0.523  0.00  0.00    +0.409 C 
ATOM      5  C   UNL     1      -2.960   0.016   0.883  0.00  0.00    +0.290 A 
ATOM      6  C   UNL     1      -2.758  -1.270   0.396  0.00  0.00    +0.079 A 
ATOM      7  C   UNL     1      -1.567  -1.587  -0.247  0.00  0.00    +0.050 A 
ENDROOT
BRANCH   1   8
ATOM      8  O   UNL     1       0.719  -1.020  -0.303  0.00  0.00    -0.404 OA
BRANCH   8  11
ATOM      9  C   UNL     1       3.041  -0.845   1.344  0.00  0.00    +0.118 C 
ATOM     10  N   UNL     1       2.961  -0.061   0.114  0.00  0.00    -0.242 N 
ATOM     11  C   UNL     1       1.813  -0.283  -0.716  0.00  0.00    +0.410 C 
ATOM     12  O   UNL     1       1.662   0.353  -1.802  0.00  0.00    -0.226 OA
ATOM     13  C   UNL     1       3.392   1.326   0.270  0.00  0.00    +0.118 C 
ENDBRANCH   8  11
ENDBRANCH   1   8
TORSDOF 2
