REMARK  Name = 
REMARK  3 active torsions:
REMARK  status: ('A' for Active; 'I' for Inactive)
REMARK    1  A    between atoms: C_11  and  C_12
REMARK    2  A    between atoms: C_11  and  C_17
REMARK    3  A    between atoms: C_13  and  C_14
REMARK                            x       y       z     vdW  Elec       q    Type
REMARK                         _______ _______ _______ _____ _____    ______ ____
ROOT
ATOM      1  O   UNL     1      -0.394  -3.917  -0.826  0.00  0.00    -0.224 OA
ATOM      2  C   UNL     1      -0.235  -2.666  -0.876  0.00  0.00    +0.427 C 
ATOM      3  O   UNL     1       0.579  -1.998   0.020  0.00  0.00    -0.416 OA
ATOM      4  C   UNL     1       0.312  -0.694   0.492  0.00  0.00    +0.297 C 
ATOM      5  C   UNL     1      -0.940  -0.145  -0.066  0.00  0.00    +0.050 A 
ATOM      6  C   UNL     1      -1.313  -0.529  -1.336  0.00  0.00    +0.077 A 
ATOM      7  C   UNL     1      -2.196   0.248  -2.061  0.00  0.00    +0.017 A 
ATOM      8  C   UNL     1      -2.727   1.391  -1.499  0.00  0.00    +0.013 A 
ATOM      9  C   UNL     1      -2.661   1.536  -0.124  0.00  0.00    +0.058 A 
ATOM     10 CL   UNL     1      -3.442   2.890   0.643  0.00  0.00    -0.082 Cl
ATOM     11  C   UNL     1      -1.696   0.826   0.546  0.00  0.00    +0.013 A 
ATOM     12  N   UNL     1      -1.010  -1.864  -1.760  0.00  0.00    -0.143 NA
ENDROOT
BRANCH   4  13
ATOM     13  C   UNL     1       0.275  -0.791   2.009  0.00  0.00    +0.446 C 
ATOM     14  F   UNL     1      -0.237   0.333   2.599  0.00  0.00    -0.165 F 
ATOM     15  F   UNL     1       1.591  -0.903   2.423  0.00  0.00    -0.165 F 
ATOM     16  F   UNL     1      -0.365  -1.950   2.374  0.00  0.00    -0.165 F 
ENDBRANCH   4  13
BRANCH   4  17
ATOM     17  C   UNL     1       1.462   0.145   0.114  0.00  0.00    -0.040 C 
ATOM     18  C   UNL     1       2.341   0.862  -0.277  0.00  0.00    -0.088 C 
BRANCH  18  19
ATOM     19  C   UNL     1       3.075   1.769  -1.177  0.00  0.00    +0.064 C 
ATOM     20  C   UNL     1       4.362   2.260  -0.609  0.00  0.00    +0.014 C 
ATOM     21  C   UNL     1       3.220   3.197  -0.608  0.00  0.00    +0.014 C 
ENDBRANCH  18  19
ENDBRANCH   4  17
TORSDOF 3
