REMARK  Name = 
REMARK  4 active torsions:
REMARK  status: ('A' for Active; 'I' for Inactive)
REMARK    1  A    between atoms: C_2  and  O_3
REMARK    2  A    between atoms: O_3  and  C_4
REMARK    3  A    between atoms: C_4  and  C_5
REMARK    4  A    between atoms: C_4  and  C_9
REMARK                            x       y       z     vdW  Elec       q    Type
REMARK                         _______ _______ _______ _____ _____    ______ ____
ROOT
ATOM      1  C   UNL     1      -0.211  -0.033  -0.428  0.00  0.00    +0.308 C 
ENDROOT
BRANCH   1   2
ATOM      2  C   UNL     1      -1.455  -0.423   0.280  0.00  0.00    +0.431 C 
ATOM      3  F   UNL     1      -1.401  -0.226   1.657  0.00  0.00    -0.167 F 
ATOM      4  F   UNL     1      -2.572   0.216  -0.232  0.00  0.00    -0.167 F 
ATOM      5  F   UNL     1      -1.670  -1.780   0.054  0.00  0.00    -0.167 F 
ENDBRANCH   1   2
BRANCH   1   6
ATOM      6  C   UNL     1       0.442   1.222   0.006  0.00  0.00    +0.431 C 
ATOM      7  F   UNL     1       0.273   2.151  -1.018  0.00  0.00    -0.167 F 
ATOM      8  F   UNL     1      -0.128   1.792   1.141  0.00  0.00    -0.167 F 
ATOM      9  F   UNL     1       1.787   1.128   0.235  0.00  0.00    -0.167 F 
ENDBRANCH   1   6
BRANCH   1  10
ATOM     10  O   UNL     1       0.590  -1.038  -0.869  0.00  0.00    -0.309 OA
BRANCH  10  12
ATOM     11  F   UNL     1       2.743  -1.588  -0.804  0.00  0.00    -0.198 F 
ATOM     12  C   UNL     1       1.603  -1.422  -0.022  0.00  0.00    +0.341 C 
ENDBRANCH  10  12
ENDBRANCH   1  10
TORSDOF 4
