REMARK  Name = 
REMARK  13 active torsions:
REMARK  status: ('A' for Active; 'I' for Inactive)
REMARK    1  A    between atoms: C_2  and  N_5
REMARK    2  A    between atoms: C_6  and  C_8
REMARK    3  A    between atoms: N_17  and  C_18
REMARK    4  A    between atoms: C_18  and  C_19
REMARK    5  A    between atoms: C_19  and  C_21
REMARK    6  A    between atoms: C_21  and  C_22
REMARK    7  A    between atoms: C_21  and  N_29
REMARK    8  A    between atoms: C_22  and  C_23
REMARK    9  A    between atoms: C_30  and  C_32
REMARK   10  A    between atoms: C_32  and  C_33
REMARK   11  A    between atoms: C_32  and  N_37
REMARK   12  A    between atoms: C_33  and  C_34
REMARK   13  A    between atoms: C_38  and  C_40
REMARK                            x       y       z     vdW  Elec       q    Type
REMARK                         _______ _______ _______ _____ _____    ______ ____
ROOT
ATOM      1  C   UNL     1      -0.557  -1.219   0.445  0.00  0.00    +0.131 C 
ENDROOT
BRANCH   1   2
ATOM      2  N   UNL     1       0.877  -1.328  -0.193  0.00  0.00    -0.203 NA
ATOM      3  C   UNL     1       1.984  -0.661   0.333  0.00  0.00    +0.262 C 
ATOM      4  O   UNL     1       1.665   0.560   0.476  0.00  0.00    -0.271 OA
BRANCH   3   5
ATOM      5  C   UNL     1       2.737  -1.314   1.642  0.00  0.00    +0.182 C 
BRANCH   5   6
ATOM      6  N   UNL     1       4.018  -1.878   0.869  0.00  0.00    -0.192 NA
ATOM      7  C   UNL     1       4.492  -1.200  -0.214  0.00  0.00    +0.283 C 
ATOM      8  O   UNL     1       3.623  -0.950  -1.071  0.00  0.00    -0.267 OA
BRANCH   7   9
ATOM      9  C   UNL     1       5.877  -0.924  -0.618  0.00  0.00    +0.136 A 
ATOM     10  N   UNL     1       6.111   0.406  -0.779  0.00  0.00    -0.241 NA
ATOM     11  C   UNL     1       7.287   0.841  -1.293  0.00  0.00    +0.081 A 
ATOM     12  C   UNL     1       8.329  -0.062  -1.339  0.00  0.00    +0.018 A 
ATOM     13  C   UNL     1       9.342   0.128  -2.262  0.00  0.00    +0.001 A 
ATOM     14  C   UNL     1       9.097   0.958  -3.352  0.00  0.00    +0.000 A 
ATOM     15  C   UNL     1       8.203   1.990  -3.235  0.00  0.00    +0.002 A 
ATOM     16  C   UNL     1       8.200  -1.196  -0.564  0.00  0.00    +0.003 A 
ATOM     17  C   UNL     1       7.357   1.943  -2.134  0.00  0.00    +0.019 A 
ATOM     18  C   UNL     1       6.955  -1.635  -0.122  0.00  0.00    +0.024 A 
ENDBRANCH   7   9
ENDBRANCH   5   6
BRANCH   5  19
ATOM     19  C   UNL     1       3.518   0.112   2.054  0.00  0.00    +0.120 C 
BRANCH  19  20
ATOM     20  C   UNL     1       3.410   0.148   3.547  0.00  0.00    +0.263 C 
ATOM     21  O   UNL     1       4.515   0.329   4.147  0.00  0.00    -0.272 OA
ATOM     22  N   UNL     1       2.324   0.939   4.047  0.00  0.00    -0.088 NA
ENDBRANCH  19  20
ENDBRANCH   5  19
ENDBRANCH   3   5
ENDBRANCH   1   2
BRANCH   1  23
ATOM     23  C   UNL     1      -1.360  -0.932  -1.090  0.00  0.00    +0.188 C 
ATOM     24  O   UNL     1      -0.447   0.234  -1.474  0.00  0.00    -0.220 OA
BRANCH  23  25
ATOM     25  C   UNL     1      -2.492   0.081  -0.421  0.00  0.00    +0.107 C 
BRANCH  25  27
ATOM     26  C   UNL     1      -4.503   1.103  -0.661  0.00  0.00    +0.137 C 
ATOM     27  N   UNL     1      -3.544   0.038  -1.379  0.00  0.00    -0.264 NA
ATOM     28  C   UNL     1      -3.217   0.803  -2.498  0.00  0.00    +0.072 C 
ATOM     29  C   UNL     1      -4.348   0.634  -3.661  0.00  0.00    +0.016 C 
ATOM     30  C   UNL     1      -5.528   1.599  -2.843  0.00  0.00    +0.003 C 
ATOM     31  C   UNL     1      -6.816   1.028  -3.675  0.00  0.00    +0.000 C 
ATOM     32  C   UNL     1      -6.385   0.199  -4.804  0.00  0.00    +0.000 C 
ATOM     33  C   UNL     1      -6.001  -1.147  -4.188  0.00  0.00    +0.000 C 
ATOM     34  C   UNL     1      -4.920  -0.824  -3.174  0.00  0.00    +0.001 C 
ATOM     35  C   UNL     1      -5.796   0.587  -1.589  0.00  0.00    +0.025 C 
BRANCH  26  37
ATOM     36  N   UNL     1      -5.866  -0.770   0.548  0.00  0.00    -0.208 NA
ATOM     37  C   UNL     1      -4.781   0.072   0.577  0.00  0.00    +0.256 C 
ATOM     38  O   UNL     1      -4.519   0.637   1.686  0.00  0.00    -0.272 OA
BRANCH  36  40
ATOM     39  C   UNL     1      -6.101  -0.847   2.715  0.00  0.00    +0.022 C 
ATOM     40  C   UNL     1      -6.445  -1.300   1.781  0.00  0.00    +0.079 C 
ATOM     41  C   UNL     1      -6.195  -2.803   1.689  0.00  0.00    +0.022 C 
ATOM     42  C   UNL     1      -7.954  -1.154   1.575  0.00  0.00    +0.022 C 
ENDBRANCH  36  40
ENDBRANCH  26  37
ENDBRANCH  25  27
ENDBRANCH  23  25
ENDBRANCH   1  23
BRANCH   1  43
ATOM     43  C   UNL     1      -0.459   0.378   0.847  0.00  0.00    +0.051 C 
BRANCH  43  44
ATOM     44  C   UNL     1      -1.074   0.401   2.192  0.00  0.00    -0.020 A 
ATOM     45  C   UNL     1      -1.341  -0.714   2.947  0.00  0.00    -0.004 A 
ATOM     46  C   UNL     1      -2.320  -0.761   3.927  0.00  0.00    -0.000 A 
ATOM     47  C   UNL     1      -3.009   0.432   4.107  0.00  0.00    -0.000 A 
ATOM     48  C   UNL     1      -2.457   1.636   3.729  0.00  0.00    -0.000 A 
ATOM     49  C   UNL     1      -1.486   1.599   2.754  0.00  0.00    -0.004 A 
ENDBRANCH  43  44
ENDBRANCH   1  43
TORSDOF 13
