REMARK  Name = 
REMARK  14 active torsions:
REMARK  status: ('A' for Active; 'I' for Inactive)
REMARK    1  A    between atoms: O_2  and  C_3
REMARK    2  A    between atoms: C_6  and  C_7
REMARK    3  A    between atoms: C_7  and  C_8
REMARK    4  A    between atoms: C_8  and  N_9
REMARK    5  A    between atoms: N_9  and  C_11
REMARK    6  A    between atoms: C_11  and  C_12
REMARK    7  A    between atoms: C_12  and  C_13
REMARK    8  A    between atoms: C_13  and  C_14
REMARK    9  A    between atoms: C_14  and  C_15
REMARK   10  A    between atoms: C_14  and  C_17
REMARK   11  A    between atoms: C_14  and  C_27
REMARK   12  A    between atoms: C_20  and  O_21
REMARK   13  A    between atoms: C_23  and  O_24
REMARK   14  A    between atoms: C_31  and  O_32
REMARK                            x       y       z     vdW  Elec       q    Type
REMARK                         _______ _______ _______ _____ _____    ______ ____
ROOT
ATOM      1  C   UNL     1      -1.447  -1.675   0.392  0.00  0.00    +0.020 C 
ENDROOT
BRANCH   1   2
ATOM      2  C   UNL     1      -2.340  -0.753  -0.388  0.00  0.00    +0.098 C 
BRANCH   2   3
ATOM      3  C   UNL     1      -3.791  -0.996  -0.108  0.00  0.00    -0.006 A 
ATOM      4  C   UNL     1      -4.708  -0.326  -0.883  0.00  0.00    +0.037 A 
ATOM      5  C   UNL     1      -5.926   0.130  -0.392  0.00  0.00    +0.172 A 
ATOM      6  C   UNL     1      -6.149   0.103   0.979  0.00  0.00    +0.172 A 
ATOM      7  C   UNL     1      -5.354  -0.744   1.732  0.00  0.00    +0.040 A 
ATOM      8  C   UNL     1      -4.149  -1.206   1.218  0.00  0.00    +0.000 A 
BRANCH   6   9
ATOM      9  O   UNL     1      -7.291   0.662   1.523  0.00  0.00    -0.468 OA
ATOM     10  C   UNL     1      -7.590   2.015   1.237  0.00  0.00    +0.253 C 
ENDBRANCH   6   9
BRANCH   5  11
ATOM     11  O   UNL     1      -6.695   1.062  -1.096  0.00  0.00    -0.468 OA
ATOM     12  C   UNL     1      -5.971   2.154  -1.659  0.00  0.00    +0.253 C 
ENDBRANCH   5  11
ENDBRANCH   2   3
BRANCH   2  13
ATOM     13  C   UNL     1      -2.155  -0.933  -1.885  0.00  0.00    +0.017 C 
ATOM     14  C   UNL     1      -0.697  -0.738  -2.243  0.00  0.00    +0.001 C 
ATOM     15  C   UNL     1      -2.664  -2.302  -2.249  0.00  0.00    +0.001 C 
ENDBRANCH   2  13
BRANCH   2  16
ATOM     16  C   UNL     1      -2.003   0.621   0.025  0.00  0.00    +0.075 C 
ATOM     17  N   UNL     1      -1.928   1.765   0.242  0.00  0.00    -0.196 NA
ENDBRANCH   2  16
ENDBRANCH   1   2
BRANCH   1  18
ATOM     18  C   UNL     1      -0.538  -0.920   1.353  0.00  0.00    +0.019 C 
BRANCH  18  19
ATOM     19  C   UNL     1       0.864  -0.770   0.788  0.00  0.00    +0.072 C 
BRANCH  19  20
ATOM     20  N   UNL     1       1.407   0.497   1.206  0.00  0.00    -0.271 NA
ATOM     21  C   UNL     1       2.255   0.404   2.368  0.00  0.00    +0.090 C 
BRANCH  20  22
ATOM     22  C   UNL     1       1.996   1.254   0.131  0.00  0.00    +0.077 C 
BRANCH  22  23
ATOM     23  C   UNL     1       2.611   0.393  -0.940  0.00  0.00    +0.044 C 
BRANCH  23  27
ATOM     24  C   UNL     1       6.619  -0.788  -0.324  0.00  0.00    +0.172 A 
ATOM     25  C   UNL     1       6.278   0.555  -0.237  0.00  0.00    +0.172 A 
ATOM     26  C   UNL     1       4.942   0.933  -0.217  0.00  0.00    +0.036 A 
ATOM     27  C   UNL     1       3.960  -0.013  -0.460  0.00  0.00    -0.018 A 
ATOM     28  C   UNL     1       4.264  -1.312  -0.114  0.00  0.00    -0.001 A 
ATOM     29  C   UNL     1       5.600  -1.689  -0.073  0.00  0.00    +0.040 A 
BRANCH  24  31
ATOM     30  C   UNL     1       8.404  -0.562  -1.679  0.00  0.00    +0.253 C 
ATOM     31  O   UNL     1       7.837  -1.174  -0.891  0.00  0.00    -0.468 OA
ENDBRANCH  24  31
BRANCH  25  32
ATOM     32  O   UNL     1       7.299   1.483  -0.226  0.00  0.00    -0.468 OA
ATOM     33  C   UNL     1       7.058   2.870  -0.171  0.00  0.00    +0.253 C 
ENDBRANCH  25  32
ENDBRANCH  23  27
ENDBRANCH  22  23
ENDBRANCH  20  22
ENDBRANCH  19  20
ENDBRANCH  18  19
ENDBRANCH   1  18
TORSDOF 14
