REMARK  Name = 
REMARK  0 active torsions:
REMARK  status: ('A' for Active; 'I' for Inactive)
REMARK                            x       y       z     vdW  Elec       q    Type
REMARK                         _______ _______ _______ _____ _____    ______ ____
ROOT
ATOM      1  N   UNL     1      -1.852   1.627  -0.123  0.00  0.00    -0.105 NA
ATOM      2  C   UNL     1      -0.768   0.716  -0.206  0.00  0.00    +0.203 A 
ATOM      3  C   UNL     1      -1.075  -0.633  -0.069  0.00  0.00    +0.194 A 
ATOM      4  F   UNL     1      -2.078  -1.041   0.766  0.00  0.00    -0.199 F 
ATOM      5  C   UNL     1      -0.041  -1.487  -0.440  0.00  0.00    +0.136 A 
ATOM      6  N   UNL     1       1.233  -1.021  -0.438  0.00  0.00    -0.187 NA
ATOM      7  C   UNL     1       1.534   0.234  -0.023  0.00  0.00    +0.370 A 
ATOM      8  O   UNL     1       2.522   0.482   0.729  0.00  0.00    -0.243 OA
ATOM      9  N   UNL     1       0.525   1.124  -0.196  0.00  0.00    -0.170 NA
ENDROOT
TORSDOF 0
