REMARK  Name = 
REMARK  2 active torsions:
REMARK  status: ('A' for Active; 'I' for Inactive)
REMARK    1  A    between atoms: N_5  and  C_6
REMARK    2  A    between atoms: C_9  and  C_10
REMARK                            x       y       z     vdW  Elec       q    Type
REMARK                         _______ _______ _______ _____ _____    ______ ____
ROOT
ATOM      1  N   UNL     1      -4.567  -0.049  -0.318  0.00  0.00    -0.107 NA
ATOM      2  C   UNL     1      -3.453   0.039  -0.419  0.00  0.00    +0.176 A 
ATOM      3  N   UNL     1      -2.674  -1.069  -0.472  0.00  0.00    -0.174 NA
ATOM      4  C   UNL     1      -1.347  -0.993  -0.743  0.00  0.00    +0.353 A 
ATOM      5  O   UNL     1      -0.640  -2.049  -0.745  0.00  0.00    -0.244 OA
ATOM      6  N   UNL     1      -0.640   0.048  -0.230  0.00  0.00    -0.255 N 
ATOM      7  C   UNL     1      -1.356   1.203  -0.161  0.00  0.00    +0.085 A 
ATOM      8  C   UNL     1      -2.729   1.225  -0.396  0.00  0.00    +0.057 A 
ENDROOT
BRANCH   6   9
ATOM      9  C   UNL     1       0.668   0.385  -1.113  0.00  0.00    +0.220 C 
ATOM     10  O   UNL     1       1.546   0.485   0.159  0.00  0.00    -0.323 OA
ATOM     11  C   UNL     1       2.756   0.888  -0.602  0.00  0.00    +0.198 C 
ATOM     12  S   UNL     1       2.882  -0.843  -1.462  0.00  0.00    -0.105 S 
ATOM     13  C   UNL     1       1.125  -1.225  -1.308  0.00  0.00    +0.114 C 
BRANCH  11  14
ATOM     14  C   UNL     1       3.765   0.452   0.583  0.00  0.00    +0.223 C 
ATOM     15  O   UNL     1       4.665   1.504   0.602  0.00  0.00    -0.217 OA
ENDBRANCH  11  14
ENDBRANCH   6   9
TORSDOF 2
