REMARK  Name = 
REMARK  4 active torsions:
REMARK  status: ('A' for Active; 'I' for Inactive)
REMARK    1  A    between atoms: C_3  and  C_4
REMARK    2  A    between atoms: C_4  and  C_5
REMARK    3  A    between atoms: C_16  and  C_17
REMARK    4  A    between atoms: C_20  and  S_21
REMARK                            x       y       z     vdW  Elec       q    Type
REMARK                         _______ _______ _______ _____ _____    ______ ____
ROOT
ATOM      1  C   UNL     1      -2.332  -2.084   2.324  0.00  0.00    +0.031 C 
ATOM      2  C   UNL     1      -2.005  -1.227   1.392  0.00  0.00    -0.025 C 
ATOM      3  C   UNL     1      -0.693  -1.069   0.752  0.00  0.00    -0.004 C 
ATOM      4  C   UNL     1       0.395  -1.790   0.930  0.00  0.00    -0.000 C 
ATOM      5  C   UNL     1      -0.788  -0.043  -0.294  0.00  0.00    -0.000 A 
ATOM      6  C   UNL     1      -2.057   0.495  -0.120  0.00  0.00    -0.002 A 
ATOM      7  C   UNL     1      -2.357   1.656  -0.819  0.00  0.00    +0.029 A 
ATOM      8  C   UNL     1      -1.472   2.180  -1.748  0.00  0.00    +0.140 A 
ATOM      9  C   UNL     1      -0.398   1.391  -2.135  0.00  0.00    +0.030 A 
ATOM     10  F   UNL     1      -1.535   3.462  -2.169  0.00  0.00    -0.204 F 
ATOM     11  C   UNL     1       0.028   0.352  -1.343  0.00  0.00    +0.002 A 
ATOM     12  C   UNL     1      -2.756  -0.231   0.936  0.00  0.00    -0.015 C 
ENDROOT
BRANCH   4  13
ATOM     13  C   UNL     1       1.689  -1.175   0.624  0.00  0.00    +0.000 A 
ATOM     14  C   UNL     1       2.583  -1.773  -0.238  0.00  0.00    +0.001 A 
ATOM     15  C   UNL     1       3.773  -1.119  -0.469  0.00  0.00    +0.009 A 
ATOM     16  C   UNL     1       4.221  -0.138   0.393  0.00  0.00    +0.056 A 
ATOM     17  C   UNL     1       3.261   0.559   1.110  0.00  0.00    +0.009 A 
ATOM     18  C   UNL     1       2.011  -0.010   1.292  0.00  0.00    +0.001 A 
BRANCH  16  19
ATOM     19  S   UNL     1       5.688   0.825  -0.058  0.00  0.00    +0.066 S 
ATOM     20  O   UNL     1       6.645  -0.328  -0.479  0.00  0.00    -0.251 OA
ATOM     21  C   UNL     1       6.358   1.201   1.614  0.00  0.00    +0.111 C 
ENDBRANCH  16  19
ENDBRANCH   4  13
BRANCH  12  22
ATOM     22  C   UNL     1      -4.213  -0.142   1.164  0.00  0.00    +0.140 C 
BRANCH  22  23
ATOM     23  C   UNL     1      -4.973  -0.235  -0.104  0.00  0.00    +0.369 C 
ATOM     24  O   UNL     1      -5.310  -1.474  -0.644  0.00  0.00    -0.245 OA
ATOM     25  O   UNL     1      -5.763   0.715  -0.388  0.00  0.00    -0.245 OA
ENDBRANCH  22  23
ENDBRANCH  12  22
TORSDOF 4
