REMARK  Name = 
REMARK  6 active torsions:
REMARK  status: ('A' for Active; 'I' for Inactive)
REMARK    1  A    between atoms: C_5  and  C_6
REMARK    2  A    between atoms: C_6  and  C_14
REMARK    3  A    between atoms: C_7  and  C_8
REMARK    4  A    between atoms: C_8  and  N_9
REMARK    5  A    between atoms: C_18  and  C_19
REMARK    6  A    between atoms: C_20  and  C_21
REMARK                            x       y       z     vdW  Elec       q    Type
REMARK                         _______ _______ _______ _____ _____    ______ ____
ROOT
ATOM      1  C   UNL     1      -0.554   0.270  -0.158  0.00  0.00    +0.015 C 
ATOM      2  C   UNL     1      -0.770  -1.020  -0.031  0.00  0.00    -0.007 C 
ENDROOT
BRANCH   1   7
ATOM      3  C   UNL     1      -3.758   4.868   0.082  0.00  0.00    +0.031 C 
ATOM      4  C   UNL     1      -3.108   3.524   0.015  0.00  0.00    -0.022 A 
ATOM      5  C   UNL     1      -2.903   2.930  -1.223  0.00  0.00    -0.004 A 
ATOM      6  C   UNL     1      -2.024   1.856  -1.269  0.00  0.00    -0.000 A 
ATOM      7  C   UNL     1      -1.698   1.165  -0.109  0.00  0.00    +0.001 A 
ATOM      8  C   UNL     1      -2.180   1.582   1.122  0.00  0.00    -0.000 A 
ATOM      9  C   UNL     1      -2.947   2.723   1.133  0.00  0.00    -0.004 A 
ENDBRANCH   1   7
BRANCH   1  10
ATOM     10  C   UNL     1       0.800   0.794  -0.020  0.00  0.00    +0.081 A 
ATOM     11  N   UNL     1       1.802  -0.010  -0.452  0.00  0.00    -0.245 NA
ATOM     12  C   UNL     1       3.079   0.397  -0.432  0.00  0.00    +0.082 A 
ATOM     13  C   UNL     1       3.300   1.693   0.018  0.00  0.00    +0.019 A 
ATOM     14  C   UNL     1       2.287   2.607   0.200  0.00  0.00    +0.003 A 
ATOM     15  C   UNL     1       0.998   2.151   0.202  0.00  0.00    +0.019 A 
BRANCH  12  16
ATOM     16  C   UNL     1       4.088  -0.144  -1.353  0.00  0.00    +0.026 C 
ATOM     17  C   UNL     1       5.261  -0.434  -0.787  0.00  0.00    +0.088 C 
BRANCH  17  18
ATOM     18  C   UNL     1       5.171  -1.364   0.345  0.00  0.00    +0.388 C 
ATOM     19  O   UNL     1       4.715  -0.995   1.592  0.00  0.00    -0.241 OA
ATOM     20  O   UNL     1       5.725  -2.488   0.180  0.00  0.00    -0.241 OA
ENDBRANCH  17  18
ENDBRANCH  12  16
ENDBRANCH   1  10
BRANCH   2  21
ATOM     21  C   UNL     1      -2.050  -1.644  -0.457  0.00  0.00    +0.099 C 
BRANCH  21  22
ATOM     22  N   UNL     1      -2.588  -2.537   0.561  0.00  0.00    -0.269 NA
ATOM     23  C   UNL     1      -3.881  -2.974   0.063  0.00  0.00    +0.072 C 
ATOM     24  C   UNL     1      -4.160  -4.319   0.665  0.00  0.00    +0.019 C 
ATOM     25  C   UNL     1      -2.780  -4.867   0.930  0.00  0.00    +0.019 C 
ATOM     26  C   UNL     1      -1.825  -3.762   0.502  0.00  0.00    +0.072 C 
ENDBRANCH  21  22
ENDBRANCH   2  21
TORSDOF 6
