REMARK  Name = 
REMARK  2 active torsions:
REMARK  status: ('A' for Active; 'I' for Inactive)
REMARK    1  A    between atoms: N_4  and  C_5
REMARK    2  A    between atoms: C_5  and  C_7
REMARK                            x       y       z     vdW  Elec       q    Type
REMARK                         _______ _______ _______ _____ _____    ______ ____
ROOT
ATOM      1  C   UNL     1      -0.148  -0.106  -0.194  0.00  0.00    +0.189 A 
ATOM      2  C   UNL     1      -0.699   1.010  -0.806  0.00  0.00    +0.195 A 
ATOM      3  N   UNL     1       0.210   1.837  -1.541  0.00  0.00    -0.105 NA
ATOM      4  N   UNL     1      -2.018   1.310  -0.713  0.00  0.00    -0.206 NA
ATOM      5  C   UNL     1      -2.835   0.443  -0.070  0.00  0.00    +0.200 A 
ATOM      6  N   UNL     1      -3.984   0.862   0.656  0.00  0.00    -0.105 NA
ATOM      7  C   UNL     1      -2.342  -0.838   0.139  0.00  0.00    +0.173 A 
ATOM      8 CL   UNL     1      -3.524  -2.126   0.348  0.00  0.00    -0.058 Cl
ATOM      9  N   UNL     1      -1.010  -1.085   0.174  0.00  0.00    -0.222 NA
ENDROOT
BRANCH   1  10
ATOM     10  C   UNL     1       1.174  -0.018   0.439  0.00  0.00    +0.363 C 
ATOM     11  O   UNL     1       1.195   0.510   1.591  0.00  0.00    -0.247 OA
BRANCH  10  14
ATOM     12  N   UNL     1       3.684   0.881  -0.358  0.00  0.00    +0.134 NA
ATOM     13  C   UNL     1       3.458  -0.491  -0.019  0.00  0.00    +0.532 C 
ATOM     14  N   UNL     1       2.243  -0.893   0.114  0.00  0.00    +0.013 NA
ATOM     15  N   UNL     1       4.595  -1.296   0.241  0.00  0.00    +0.134 NA
ENDBRANCH  10  14
ENDBRANCH   1  10
TORSDOF 2
