REMARK  Name = 
REMARK  5 active torsions:
REMARK  status: ('A' for Active; 'I' for Inactive)
REMARK    1  A    between atoms: N_2  and  C_4
REMARK    2  A    between atoms: C_4  and  C_5
REMARK    3  A    between atoms: C_5  and  C_6
REMARK    4  A    between atoms: C_6  and  C_7
REMARK    5  A    between atoms: C_6  and  C_14
REMARK                            x       y       z     vdW  Elec       q    Type
REMARK                         _______ _______ _______ _____ _____    ______ ____
ROOT
ATOM      1  C   UNL     1       0.494  -0.242   0.366  0.00  0.00    +0.064 C 
ENDROOT
BRANCH   1   2
ATOM      2  C   UNL     1      -1.018  -0.651  -0.109  0.00  0.00    -0.017 A 
ATOM      3  C   UNL     1      -1.978   0.294   0.141  0.00  0.00    -0.003 A 
ATOM      4  C   UNL     1      -3.307   0.002   0.335  0.00  0.00    +0.011 A 
ATOM      5  C   UNL     1      -3.569  -1.268   0.836  0.00  0.00    +0.058 A 
ATOM      6 CL   UNL     1      -5.263  -1.663   1.079  0.00  0.00    -0.082 Cl
ATOM      7  C   UNL     1      -2.551  -2.186   1.004  0.00  0.00    +0.011 A 
ATOM      8  C   UNL     1      -1.302  -1.890   0.468  0.00  0.00    -0.003 A 
ENDBRANCH   1   2
BRANCH   1   9
ATOM      9  C   UNL     1       0.381   1.293  -0.198  0.00  0.00    +0.063 A 
ATOM     10  N   UNL     1      -0.114   2.022   0.839  0.00  0.00    -0.248 NA
ATOM     11  C   UNL     1      -0.105   3.370   0.820  0.00  0.00    +0.098 A 
ATOM     12  C   UNL     1       0.832   3.951  -0.023  0.00  0.00    +0.021 A 
ATOM     13  C   UNL     1       1.680   3.165  -0.789  0.00  0.00    +0.003 A 
ATOM     14  C   UNL     1       1.607   1.790  -0.634  0.00  0.00    +0.015 A 
ENDBRANCH   1   9
BRANCH   1  15
ATOM     15  C   UNL     1       1.135  -0.785  -1.075  0.00  0.00    +0.028 C 
BRANCH  15  16
ATOM     16  C   UNL     1       2.615  -0.730  -0.799  0.00  0.00    +0.073 C 
BRANCH  16  18
ATOM     17  C   UNL     1       2.833  -2.479  -0.476  0.00  0.00    +0.090 C 
ATOM     18  N   UNL     1       3.109  -2.075  -0.522  0.00  0.00    -0.270 NA
ATOM     19  C   UNL     1       4.519  -1.920  -0.185  0.00  0.00    +0.090 C 
ENDBRANCH  16  18
ENDBRANCH  15  16
ENDBRANCH   1  15
TORSDOF 5
