REMARK  Name = 
REMARK  7 active torsions:
REMARK  status: ('A' for Active; 'I' for Inactive)
REMARK    1  A    between atoms: C_5  and  C_6
REMARK    2  A    between atoms: N_8  and  C_9
REMARK    3  A    between atoms: C_12  and  C_13
REMARK    4  A    between atoms: C_13  and  N_14
REMARK    5  A    between atoms: C_21  and  C_22
REMARK    6  A    between atoms: C_28  and  C_29
REMARK    7  A    between atoms: C_30  and  C_31
REMARK                            x       y       z     vdW  Elec       q    Type
REMARK                         _______ _______ _______ _____ _____    ______ ____
ROOT
ATOM      1  C   UNL     1      -0.045  -0.586   0.213  0.00  0.00    +0.269 C 
ATOM      2  N   UNL     1       0.872  -1.144  -0.705  0.00  0.00    -0.175 NA
ATOM      3  O   UNL     1       0.285  -0.675   1.435  0.00  0.00    -0.268 OA
ENDROOT
BRANCH   1   8
ATOM      4  C   UNL     1      -4.063   3.405  -0.069  0.00  0.00    +0.032 C 
ATOM      5  C   UNL     1      -3.042   2.335   0.099  0.00  0.00    -0.014 A 
ATOM      6  C   UNL     1      -3.384   0.997   0.253  0.00  0.00    +0.038 A 
ATOM      7  C   UNL     1      -2.452   0.018  -0.070  0.00  0.00    +0.013 A 
ATOM      8  C   UNL     1      -1.123   0.332  -0.180  0.00  0.00    +0.056 A 
ATOM      9  C   UNL     1      -0.796   1.682  -0.125  0.00  0.00    +0.004 A 
ATOM     10  C   UNL     1      -1.704   2.670   0.143  0.00  0.00    -0.004 A 
BRANCH   6  11
ATOM     11  C   UNL     1      -4.782   0.678   0.432  0.00  0.00    -0.059 C 
ATOM     12  C   UNL     1      -5.980   0.503   0.333  0.00  0.00    -0.039 C 
BRANCH  12  13
ATOM     13  C   UNL     1      -7.308   0.292  -0.181  0.00  0.00    +0.145 A 
ATOM     14  N   UNL     1      -7.951  -0.887  -0.030  0.00  0.00    -0.203 N 
ATOM     15  C   UNL     1      -9.228  -0.678  -0.368  0.00  0.00    +0.165 A 
ATOM     16  C   UNL     1     -10.098  -1.750  -0.217  0.00  0.00    +0.040 A 
ATOM     17  C   UNL     1      -9.636  -2.882   0.436  0.00  0.00    +0.026 A 
ATOM     18  C   UNL     1      -8.277  -3.168   0.407  0.00  0.00    +0.121 A 
ATOM     19  N   UNL     1      -9.265   0.445  -1.125  0.00  0.00    -0.223 NA
ATOM     20  N   UNL     1      -7.470  -2.115   0.131  0.00  0.00    -0.162 NA
ATOM     21  C   UNL     1      -8.146   1.148  -0.843  0.00  0.00    +0.128 A 
ENDBRANCH  12  13
ENDBRANCH   6  11
ENDBRANCH   1   8
BRANCH   2  22
ATOM     22  C   UNL     1       2.289  -1.141  -0.509  0.00  0.00    +0.074 A 
ATOM     23  C   UNL     1       2.910  -0.399   0.480  0.00  0.00    +0.020 A 
ATOM     24  C   UNL     1       4.023   0.384   0.246  0.00  0.00    +0.070 A 
ATOM     25  C   UNL     1       4.739   0.148  -0.921  0.00  0.00    -0.002 A 
ATOM     26  C   UNL     1       4.281  -0.778  -1.851  0.00  0.00    -0.002 A 
ATOM     27  C   UNL     1       3.091  -1.452  -1.600  0.00  0.00    +0.016 A 
BRANCH  24  28
ATOM     28  C   UNL     1       4.398   1.537   1.121  0.00  0.00    +0.418 C 
ATOM     29  F   UNL     1       5.150   1.143   2.203  0.00  0.00    -0.166 F 
ATOM     30  F   UNL     1       4.981   2.558   0.411  0.00  0.00    -0.166 F 
ATOM     31  F   UNL     1       3.201   2.036   1.627  0.00  0.00    -0.166 F 
ENDBRANCH  24  28
BRANCH  25  32
ATOM     32  C   UNL     1       6.021   0.885  -1.100  0.00  0.00    +0.099 C 
BRANCH  32  33
ATOM     33  N   UNL     1       6.958   0.303  -0.145  0.00  0.00    -0.267 NA
ATOM     34  C   UNL     1       6.785  -1.148  -0.161  0.00  0.00    +0.090 C 
ATOM     35  C   UNL     1       7.950  -1.716   0.627  0.00  0.00    +0.090 C 
ATOM     36  N   UNL     1       9.117  -1.613  -0.216  0.00  0.00    -0.269 NA
ATOM     37  C   UNL     1      10.286  -1.615   0.653  0.00  0.00    +0.090 C 
ATOM     38  C   UNL     1       9.112  -0.446  -1.060  0.00  0.00    +0.090 C 
ATOM     39  C   UNL     1       8.300   0.693  -0.508  0.00  0.00    +0.090 C 
ENDBRANCH  32  33
ENDBRANCH  25  32
ENDBRANCH   2  22
TORSDOF 7
