REMARK  Name = 
REMARK  7 active torsions:
REMARK  status: ('A' for Active; 'I' for Inactive)
REMARK    1  A    between atoms: C_2  and  C_4
REMARK    2  A    between atoms: C_8  and  C_9
REMARK    3  A    between atoms: C_12  and  S_13
REMARK    4  A    between atoms: S_13  and  C_14
REMARK    5  A    between atoms: C_17  and  C_18
REMARK    6  A    between atoms: C_18  and  N_19
REMARK    7  A    between atoms: N_19  and  S_20
REMARK                            x       y       z     vdW  Elec       q    Type
REMARK                         _______ _______ _______ _____ _____    ______ ____
ROOT
ATOM      1  C   UNL     1      -4.593   0.011  -0.185  0.00  0.00    +0.126 C 
ATOM      2  C   UNL     1      -3.593  -1.097   0.567  0.00  0.00    +0.096 C 
ATOM      3  N   UNL     1      -2.548   0.040   0.506  0.00  0.00    -0.254 N 
ATOM      4  C   UNL     1      -1.432  -0.849   0.627  0.00  0.00    +0.136 C 
ATOM      5  C   UNL     1      -1.442  -1.767  -0.298  0.00  0.00    +0.024 C 
ATOM      6  C   UNL     1      -2.955  -1.895  -0.794  0.00  0.00    +0.049 C 
ATOM      7  C   UNL     1      -2.816  -0.632  -1.797  0.00  0.00    +0.007 C 
ATOM      8  C   UNL     1      -3.413   1.029   0.047  0.00  0.00    +0.233 C 
ATOM      9  O   UNL     1      -3.187   2.197  -0.197  0.00  0.00    -0.274 OA
ENDROOT
BRANCH   4  10
ATOM     10  C   UNL     1      -0.358  -0.621   1.575  0.00  0.00    +0.401 C 
ATOM     11  O   UNL     1       0.216  -1.739   2.197  0.00  0.00    -0.239 OA
ATOM     12  O   UNL     1      -0.161   0.450   2.213  0.00  0.00    -0.239 OA
ENDBRANCH   4  10
BRANCH   1  14
ATOM     13  C   UNL     1      -5.834   1.876   0.610  0.00  0.00    +0.036 C 
ATOM     14  C   UNL     1      -5.215   0.530   1.317  0.00  0.00    +0.162 C 
ATOM     15  O   UNL     1      -6.504  -0.230   1.158  0.00  0.00    -0.223 OA
ENDBRANCH   1  14
BRANCH   5  16
ATOM     16  S   UNL     1      -0.043  -2.076  -1.403  0.00  0.00    -0.116 S 
BRANCH  16  17
ATOM     17  C   UNL     1       1.401  -1.142  -0.588  0.00  0.00    +0.070 C 
ATOM     18  C   UNL     1       2.548  -1.133  -1.695  0.00  0.00    +0.031 C 
ATOM     19  C   UNL     1       3.280  -0.104  -0.633  0.00  0.00    +0.093 C 
ATOM     20  N   UNL     1       2.194   1.010  -0.825  0.00  0.00    -0.217 NA
ATOM     21  C   UNL     1       1.010   0.304  -1.130  0.00  0.00    +0.100 C 
BRANCH  19  22
ATOM     22  C   UNL     1       4.257   0.578  -1.752  0.00  0.00    +0.134 C 
BRANCH  22  23
ATOM     23  N   UNL     1       5.521   0.451  -1.126  0.00  0.00    -0.063 NA
BRANCH  23  24
ATOM     24  S   UNL     1       5.739   1.070   0.418  0.00  0.00    +0.146 S 
ATOM     25  O   UNL     1       5.017   0.368   1.521  0.00  0.00    -0.137 OA
ATOM     26  O   UNL     1       5.471   2.526   0.589  0.00  0.00    -0.137 OA
ATOM     27  N   UNL     1       7.437   0.844   0.752  0.00  0.00    +0.053 NA
ENDBRANCH  23  24
ENDBRANCH  22  23
ENDBRANCH  19  22
ENDBRANCH  16  17
ENDBRANCH   5  16
TORSDOF 7
