REMARK  Name = 
REMARK  9 active torsions:
REMARK  status: ('A' for Active; 'I' for Inactive)
REMARK    1  A    between atoms: C_4  and  O_5
REMARK    2  A    between atoms: O_5  and  C_6
REMARK    3  A    between atoms: C_11  and  O_12
REMARK    4  A    between atoms: O_12  and  C_13
REMARK    5  A    between atoms: C_21  and  C_22
REMARK    6  A    between atoms: C_25  and  C_26
REMARK    7  A    between atoms: C_32  and  N_33
REMARK    8  A    between atoms: N_33  and  C_34
REMARK    9  A    between atoms: C_36  and  C_37
REMARK                            x       y       z     vdW  Elec       q    Type
REMARK                         _______ _______ _______ _____ _____    ______ ____
ROOT
ATOM      1  O   UNL     1       0.253   1.119  -0.642  0.00  0.00    -0.326 OA
ENDROOT
BRANCH   1   9
ATOM      2  C   UNL     1       2.700  -1.573  -0.372  0.00  0.00    +0.034 C 
ATOM      3  C   UNL     1       2.130  -0.050  -0.387  0.00  0.00    +0.136 C 
ATOM      4  C   UNL     1       3.121   0.560   0.862  0.00  0.00    +0.133 C 
ATOM      5  C   UNL     1       2.201   1.962   0.510  0.00  0.00    +0.205 C 
ATOM      6  O   UNL     1       2.910   2.823   1.498  0.00  0.00    -0.219 OA
ATOM      7  C   UNL     1       1.026   1.627   1.669  0.00  0.00    +0.239 C 
ATOM      8  O   UNL     1       0.279   2.877   1.337  0.00  0.00    -0.215 OA
ATOM      9  C   UNL     1       0.077   0.531   0.754  0.00  0.00    +0.269 C 
ATOM     10  O   UNL     1       1.178  -0.508   0.683  0.00  0.00    -0.330 OA
BRANCH   4  11
ATOM     11  N   UNL     1       4.342   1.091   0.110  0.00  0.00    -0.209 NA
BRANCH  11  12
ATOM     12  C   UNL     1       4.976   0.003  -0.780  0.00  0.00    +0.127 C 
ATOM     13  C   UNL     1       5.136  -1.214   0.422  0.00  0.00    +0.205 C 
ATOM     14  O   UNL     1       5.665  -0.314   1.509  0.00  0.00    -0.218 OA
ATOM     15  C   UNL     1       6.694  -1.762   0.053  0.00  0.00    +0.218 C 
ATOM     16  O   UNL     1       6.215  -3.191  -0.042  0.00  0.00    -0.217 OA
ATOM     17  C   UNL     1       6.712  -1.647  -1.662  0.00  0.00    +0.205 C 
ATOM     18  O   UNL     1       5.242  -1.434  -1.911  0.00  0.00    -0.216 OA
ATOM     19  C   UNL     1       7.176  -0.088  -1.535  0.00  0.00    +0.018 C 
ATOM     20  C   UNL     1       6.480   0.552  -0.571  0.00  0.00    -0.010 C 
BRANCH  19  21
ATOM     21  C   UNL     1       8.661  -0.147  -1.304  0.00  0.00    +0.207 C 
ATOM     22  O   UNL     1       9.165  -1.381  -0.900  0.00  0.00    -0.215 OA
ENDBRANCH  19  21
ENDBRANCH  11  12
ENDBRANCH   4  11
ENDBRANCH   1   9
BRANCH   1  23
ATOM     23  C   UNL     1      -1.052   0.595  -1.270  0.00  0.00    +0.180 C 
ATOM     24  C   UNL     1      -1.898   1.219   0.075  0.00  0.00    +0.180 C 
ATOM     25  O   UNL     1      -3.225   0.663  -0.219  0.00  0.00    -0.326 OA
ATOM     26  C   UNL     1      -3.194  -0.336  -1.332  0.00  0.00    +0.270 C 
ATOM     27  C   UNL     1      -2.328  -1.589  -0.514  0.00  0.00    +0.240 C 
ATOM     28  O   UNL     1      -2.369  -1.017   0.871  0.00  0.00    -0.215 OA
ATOM     29  C   UNL     1      -0.773  -0.989  -0.735  0.00  0.00    +0.217 C 
ATOM     30  O   UNL     1      -0.819  -1.476  -2.172  0.00  0.00    -0.218 OA
BRANCH  24  31
ATOM     31  C   UNL     1      -2.233   2.620  -0.767  0.00  0.00    +0.214 C 
ATOM     32  O   UNL     1      -2.113   3.490   0.326  0.00  0.00    -0.218 OA
ENDBRANCH  24  31
BRANCH  26  33
ATOM     33  O   UNL     1      -4.533  -1.045  -1.013  0.00  0.00    -0.326 OA
BRANCH  33  34
ATOM     34  C   UNL     1      -5.470   0.140  -1.122  0.00  0.00    +0.180 C 
ATOM     35  C   UNL     1      -5.140   0.862   0.416  0.00  0.00    +0.180 C 
ATOM     36  O   UNL     1      -5.856  -0.093   1.306  0.00  0.00    -0.324 OA
ATOM     37  C   UNL     1      -5.390  -1.463   0.805  0.00  0.00    +0.302 C 
ATOM     38  O   UNL     1      -5.579  -2.147   2.154  0.00  0.00    -0.187 OA
ATOM     39  C   UNL     1      -6.994  -1.701   0.299  0.00  0.00    +0.243 C 
ATOM     40  O   UNL     1      -6.795  -2.781  -0.735  0.00  0.00    -0.215 OA
ATOM     41  C   UNL     1      -7.021  -0.500  -0.901  0.00  0.00    +0.217 C 
ATOM     42  O   UNL     1      -7.612   0.458   0.142  0.00  0.00    -0.218 OA
BRANCH  35  43
ATOM     43  C   UNL     1      -6.261   2.014   0.095  0.00  0.00    +0.214 C 
ATOM     44  O   UNL     1      -5.688   3.240   0.146  0.00  0.00    -0.218 OA
ENDBRANCH  35  43
ENDBRANCH  33  34
ENDBRANCH  26  33
ENDBRANCH   1  23
TORSDOF 9
