REMARK  Name = 
REMARK  6 active torsions:
REMARK  status: ('A' for Active; 'I' for Inactive)
REMARK    1  A    between atoms: C_2  and  C_3
REMARK    2  A    between atoms: C_2  and  C_19
REMARK    3  A    between atoms: C_3  and  N_4
REMARK    4  A    between atoms: N_4  and  C_5
REMARK    5  A    between atoms: C_5  and  C_6
REMARK    6  A    between atoms: C_6  and  C_8
REMARK                            x       y       z     vdW  Elec       q    Type
REMARK                         _______ _______ _______ _____ _____    ______ ____
ROOT
ATOM      1  N   UNL     1       0.126  -1.987  -0.338  0.00  0.00    -0.212 NA
ENDROOT
BRANCH   1   2
ATOM      2  C   UNL     1       0.485  -1.046   0.636  0.00  0.00    +0.125 C 
BRANCH   2   4
ATOM      3  O   UNL     1       0.536   1.202   0.904  0.00  0.00    -0.218 OA
ATOM      4  C   UNL     1       1.025   0.269  -0.177  0.00  0.00    +0.209 C 
BRANCH   4   5
ATOM      5  C   UNL     1       2.575   0.187   0.562  0.00  0.00    +0.198 C 
ATOM      6  O   UNL     1       3.172   1.076  -0.531  0.00  0.00    -0.477 OA
ATOM      7  C   UNL     1       4.548   1.035  -0.661  0.00  0.00    +0.135 A 
ATOM      8  C   UNL     1       5.189  -0.098  -0.181  0.00  0.00    +0.014 A 
ATOM      9  C   UNL     1       6.548  -0.050  -0.057  0.00  0.00    +0.028 A 
ATOM     10  C   UNL     1       7.205   1.173   0.016  0.00  0.00    +0.140 A 
ATOM     11  C   UNL     1       6.614   2.301  -0.513  0.00  0.00    +0.033 A 
ATOM     12  F   UNL     1       8.463   1.145   0.504  0.00  0.00    -0.204 F 
ATOM     13  C   UNL     1       4.423  -1.321   0.122  0.00  0.00    +0.033 C 
ATOM     14  C   UNL     1       5.245   2.232  -0.762  0.00  0.00    +0.039 A 
ATOM     15  C   UNL     1       2.959  -1.179  -0.246  0.00  0.00    +0.051 C 
ENDBRANCH   4   5
ENDBRANCH   2   4
ENDBRANCH   1   2
BRANCH   1  16
ATOM     16  C   UNL     1      -1.190  -2.068  -0.810  0.00  0.00    +0.125 C 
BRANCH  16  17
ATOM     17  C   UNL     1      -2.095  -2.859   0.297  0.00  0.00    +0.209 C 
ATOM     18  O   UNL     1      -3.309  -2.883  -0.603  0.00  0.00    -0.218 OA
BRANCH  17  19
ATOM     19  C   UNL     1      -2.503  -1.383   1.111  0.00  0.00    +0.198 C 
ATOM     20  O   UNL     1      -3.008  -0.676  -0.147  0.00  0.00    -0.477 OA
ATOM     21  C   UNL     1      -4.046   0.158  -0.128  0.00  0.00    +0.135 A 
ATOM     22  C   UNL     1      -5.227  -0.277   0.441  0.00  0.00    +0.014 A 
ATOM     23  C   UNL     1      -6.232   0.633   0.615  0.00  0.00    +0.028 A 
ATOM     24  C   UNL     1      -6.078   1.892   0.045  0.00  0.00    +0.140 A 
ATOM     25  C   UNL     1      -5.292   1.905  -1.104  0.00  0.00    +0.033 A 
ATOM     26  F   UNL     1      -7.095   2.773   0.067  0.00  0.00    -0.204 F 
ATOM     27  C   UNL     1      -5.059  -1.315   1.457  0.00  0.00    +0.033 C 
ATOM     28  C   UNL     1      -4.081   1.230  -1.007  0.00  0.00    +0.039 A 
ATOM     29  C   UNL     1      -3.896  -2.069   1.602  0.00  0.00    +0.051 C 
ENDBRANCH  17  19
ENDBRANCH  16  17
ENDBRANCH   1  16
TORSDOF 6
