REMARK  Name = 
REMARK  0 active torsions:
REMARK  status: ('A' for Active; 'I' for Inactive)
REMARK                            x       y       z     vdW  Elec       q    Type
REMARK                         _______ _______ _______ _____ _____    ______ ____
ROOT
ATOM      1  C   UNL     1      -0.428   2.829  -0.134  0.00  0.00    +0.137 C 
ATOM      2  N   UNL     1      -0.538   1.383  -0.280  0.00  0.00    -0.263 N 
ATOM      3  C   UNL     1      -1.737   0.777  -0.109  0.00  0.00    +0.335 A 
ATOM      4  O   UNL     1      -2.726   1.483   0.241  0.00  0.00    -0.246 OA
ATOM      5  N   UNL     1      -1.780  -0.558   0.124  0.00  0.00    -0.245 N 
ATOM      6  C   UNL     1      -2.833  -1.181   0.914  0.00  0.00    +0.138 C 
ATOM      7  C   UNL     1      -0.752  -1.267  -0.403  0.00  0.00    +0.285 A 
ATOM      8  O   UNL     1      -0.822  -2.520  -0.230  0.00  0.00    -0.265 OA
ATOM      9  C   UNL     1       0.522  -0.714  -0.375  0.00  0.00    +0.174 A 
ATOM     10  N   UNL     1       1.780  -1.197  -0.390  0.00  0.00    -0.213 NA
ATOM     11  C   UNL     1       2.590  -0.218   0.080  0.00  0.00    +0.200 A 
ATOM     12 BR   UNL     1       4.215  -0.410   1.072  0.00  0.00    -0.006 Br
ATOM     13  N   UNL     1       1.912   0.926  -0.171  0.00  0.00    -0.202 NA
ATOM     14  C   UNL     1       0.598   0.668  -0.339  0.00  0.00    +0.172 A 
ENDROOT
TORSDOF 0
