REMARK  Name = 
REMARK  10 active torsions:
REMARK  status: ('A' for Active; 'I' for Inactive)
REMARK    1  A    between atoms: C_2  and  C_3
REMARK    2  A    between atoms: C_3  and  C_4
REMARK    3  A    between atoms: C_4  and  O_5
REMARK    4  A    between atoms: O_5  and  C_6
REMARK    5  A    between atoms: C_8  and  C_9
REMARK    6  A    between atoms: N_11  and  C_12
REMARK    7  A    between atoms: C_12  and  C_13
REMARK    8  A    between atoms: C_13  and  N_14
REMARK    9  A    between atoms: N_14  and  C_15
REMARK   10  A    between atoms: N_14  and  C_17
REMARK                            x       y       z     vdW  Elec       q    Type
REMARK                         _______ _______ _______ _____ _____    ______ ____
ROOT
ATOM      1  C   UNL     1       2.437   0.555  -1.330  0.00  0.00    +0.225 A 
ATOM      2  N   UNL     1       2.639   1.110  -0.109  0.00  0.00    -0.212 NA
ATOM      3  C   UNL     1       1.773   0.983   0.906  0.00  0.00    +0.085 A 
ATOM      4  C   UNL     1       0.572   0.330   0.655  0.00  0.00    +0.022 A 
ATOM      5  C   UNL     1      -0.079  -0.391   1.630  0.00  0.00    +0.002 A 
ATOM      6  C   UNL     1       0.451  -0.414   2.914  0.00  0.00    +0.000 A 
ATOM      7  C   UNL     1       1.694   0.144   3.188  0.00  0.00    +0.002 A 
ATOM      8  C   UNL     1       0.180   0.184  -0.669  0.00  0.00    +0.061 A 
ATOM      9  C   UNL     1       2.144   1.054   2.240  0.00  0.00    +0.019 A 
ATOM     10  C   UNL     1       1.107   0.364  -1.686  0.00  0.00    +0.062 A 
ENDROOT
BRANCH   8  11
ATOM     11  C   UNL     1      -1.259   0.109  -0.933  0.00  0.00    +0.265 C 
ATOM     12  N   UNL     1      -1.972  -1.107  -0.869  0.00  0.00    -0.200 NA
ATOM     13  O   UNL     1      -1.920   1.138  -1.256  0.00  0.00    -0.268 OA
BRANCH  12  14
ATOM     14  C   UNL     1      -3.325  -1.177  -0.378  0.00  0.00    +0.133 C 
BRANCH  14  15
ATOM     15  C   UNL     1      -3.738   0.046   0.401  0.00  0.00    +0.096 C 
BRANCH  15  16
ATOM     16  N   UNL     1      -5.105  -0.147   0.838  0.00  0.00    -0.271 NA
BRANCH  16  17
ATOM     17  C   UNL     1      -6.028   0.285  -0.189  0.00  0.00    +0.072 C 
ATOM     18  C   UNL     1      -5.630  -0.224  -1.560  0.00  0.00    +0.019 C 
ENDBRANCH  16  17
BRANCH  16  19
ATOM     19  C   UNL     1      -5.366   0.558   2.063  0.00  0.00    +0.072 C 
ATOM     20  C   UNL     1      -4.857  -0.162   3.279  0.00  0.00    +0.019 C 
ENDBRANCH  16  19
ENDBRANCH  15  16
ENDBRANCH  14  15
ENDBRANCH  12  14
ENDBRANCH   8  11
BRANCH   1  21
ATOM     21  O   UNL     1       3.488   0.007  -2.071  0.00  0.00    -0.460 OA
BRANCH  21  22
ATOM     22  C   UNL     1       4.307  -1.022  -1.527  0.00  0.00    +0.207 C 
BRANCH  22  23
ATOM     23  C   UNL     1       5.561  -1.168  -2.343  0.00  0.00    +0.047 C 
BRANCH  23  25
ATOM     24  C   UNL     1       6.229   1.066  -1.405  0.00  0.00    +0.000 C 
ATOM     25  C   UNL     1       6.697  -0.316  -1.791  0.00  0.00    +0.004 C 
ENDBRANCH  23  25
ENDBRANCH  22  23
ENDBRANCH  21  22
ENDBRANCH   1  21
TORSDOF 10
