REMARK  Name = 
REMARK  6 active torsions:
REMARK  status: ('A' for Active; 'I' for Inactive)
REMARK    1  A    between atoms: C_6  and  C_7
REMARK    2  A    between atoms: C_7  and  O_8
REMARK    3  A    between atoms: O_8  and  C_9
REMARK    4  A    between atoms: C_9  and  C_10
REMARK    5  A    between atoms: C_9  and  C_16
REMARK    6  A    between atoms: C_10  and  N_11
REMARK                            x       y       z     vdW  Elec       q    Type
REMARK                         _______ _______ _______ _____ _____    ______ ____
ROOT
ATOM      1  C   UNL     1       0.086  -0.623  -1.112  0.00  0.00    +0.161 C 
ENDROOT
BRANCH   1   2
ATOM      2  C   UNL     1      -1.184   0.391  -0.853  0.00  0.00    +0.017 A 
ATOM      3  C   UNL     1      -1.010   1.401  -1.801  0.00  0.00    +0.057 A 
ATOM      4 CL   UNL     1      -0.531   1.041  -3.456  0.00  0.00    -0.082 Cl
ATOM      5  C   UNL     1      -1.548   2.659  -1.557  0.00  0.00    +0.023 A 
ATOM      6  C   UNL     1      -2.143   2.941  -0.349  0.00  0.00    +0.058 A 
ATOM      7 CL   UNL     1      -2.325   4.603   0.205  0.00  0.00    -0.082 Cl
ATOM      8  C   UNL     1      -2.276   1.896   0.536  0.00  0.00    +0.011 A 
ATOM      9  C   UNL     1      -1.409   0.822   0.401  0.00  0.00    -0.000 A 
ENDBRANCH   1   2
BRANCH   1  10
ATOM     10  O   UNL     1       0.450  -0.790   0.384  0.00  0.00    -0.345 OA
BRANCH  10  11
ATOM     11  C   UNL     1       1.722  -1.314   0.269  0.00  0.00    +0.170 C 
BRANCH  11  14
ATOM     12 CL   UNL     1       4.035  -0.322  -1.869  0.00  0.00    -0.075 Cl
ATOM     13  C   UNL     1       3.709   0.180  -0.229  0.00  0.00    +0.085 A 
ATOM     14  C   UNL     1       2.778  -0.332   0.669  0.00  0.00    +0.024 A 
ATOM     15  C   UNL     1       3.333  -0.368   1.943  0.00  0.00    +0.006 A 
ATOM     16  C   UNL     1       3.852   0.878   2.274  0.00  0.00    +0.036 A 
ATOM     17  S   UNL     1       4.504   1.339   0.755  0.00  0.00    -0.075 S 
ENDBRANCH  11  14
ENDBRANCH  10  11
ENDBRANCH   1  10
BRANCH   1  18
ATOM     18  C   UNL     1      -0.918  -1.967  -1.121  0.00  0.00    +0.142 C 
BRANCH  18  19
ATOM     19  N   UNL     1      -1.615  -1.906   0.160  0.00  0.00    -0.305 N 
ATOM     20  C   UNL     1      -2.954  -2.052   0.261  0.00  0.00    +0.179 A 
ATOM     21  N   UNL     1      -3.240  -2.511   1.479  0.00  0.00    -0.222 NA
ATOM     22  C   UNL     1      -2.183  -3.270   1.854  0.00  0.00    +0.119 A 
ATOM     23  C   UNL     1      -1.135  -2.695   1.155  0.00  0.00    +0.098 A 
ENDBRANCH  18  19
ENDBRANCH   1  18
TORSDOF 6
