REMARK  Name = 
REMARK  2 active torsions:
REMARK  status: ('A' for Active; 'I' for Inactive)
REMARK    1  A    between atoms: N9_10  and  C1*_11
REMARK    2  A    between atoms: C4*_13  and  C5*_14
REMARK                            x       y       z     vdW  Elec       q    Type
REMARK                         _______ _______ _______ _____ _____    ______ ____
ROOT
ATOM      1  N6    A A   1      -4.103   2.208   0.360  0.00  0.00    -0.105 NA
ATOM      2  C6    A A   1      -3.442   1.020   0.335  0.00  0.00    +0.192 A 
ATOM      3  C5    A A   1      -2.087   0.926   0.098  0.00  0.00    +0.152 A 
ATOM      4  N7    A A   1      -1.325   1.720  -0.645  0.00  0.00    -0.219 NA
ATOM      5  C8    A A   1      -0.095   1.164  -0.725  0.00  0.00    +0.182 A 
ATOM      6  N9    A A   1      -0.176  -0.055  -0.243  0.00  0.00    -0.269 N 
ATOM      7  C4    A A   1      -1.381  -0.252   0.261  0.00  0.00    +0.169 A 
ATOM      8  N3    A A   1      -2.102  -1.377   0.477  0.00  0.00    -0.205 NA
ATOM      9  C2    A A   1      -3.457  -1.356   0.439  0.00  0.00    +0.202 A 
ATOM     10  N1    A A   1      -4.093  -0.159   0.433  0.00  0.00    -0.204 NA
ENDROOT
BRANCH   6  11
ATOM     11  C1*   A A   1       1.034  -0.925   0.278  0.00  0.00    +0.241 C 
ATOM     12  C2*   A A   1       1.854  -0.632  -1.194  0.00  0.00    +0.234 C 
ATOM     13  O2*   A A   1       1.466  -1.947  -1.791  0.00  0.00    -0.216 OA
ATOM     14  C3*   A A   1       3.269  -1.226  -0.483  0.00  0.00    +0.216 C 
ATOM     15  O3*   A A   1       2.689  -2.420   0.223  0.00  0.00    -0.218 OA
ATOM     16  C4*   A A   1       3.169  -0.207   0.883  0.00  0.00    +0.183 C 
ATOM     17  O4*   A A   1       1.779   0.282   0.753  0.00  0.00    -0.331 OA
BRANCH  16  18
ATOM     18  C5*   A A   1       3.725   1.052  -0.044  0.00  0.00    +0.214 C 
ATOM     19  O5*   A A   1       3.274   2.186   0.662  0.00  0.00    -0.218 OA
ENDBRANCH  16  18
ENDBRANCH   6  11
TORSDOF 2
