REMARK  Name = 
REMARK  2 active torsions:
REMARK  status: ('A' for Active; 'I' for Inactive)
REMARK    1  A    between atoms: N_2  and  O_4
REMARK    2  A    between atoms: O_4  and  C_5
REMARK                            x       y       z     vdW  Elec       q    Type
REMARK                         _______ _______ _______ _____ _____    ______ ____
ROOT
ATOM      1  C   UNL     1       0.857   0.642   0.163  0.00  0.00    +0.307 C 
ATOM      2  C   UNL     1      -0.331   0.090  -0.941  0.00  0.00    +0.195 C 
ATOM      3  C   UNL     1      -1.507   1.155  -0.332  0.00  0.00    +0.179 C 
ATOM      4  C   UNL     1      -2.394  -0.062   0.475  0.00  0.00    +0.211 C 
ATOM      5  C   UNL     1      -2.077  -1.136  -0.722  0.00  0.00    +0.178 C 
ATOM      6  O   UNL     1      -3.674   0.423  -0.168  0.00  0.00    -0.218 OA
ATOM      7  O   UNL     1      -0.799   1.518   0.926  0.00  0.00    -0.347 OA
ATOM      8  O   UNL     1      -0.781  -1.107  -0.169  0.00  0.00    -0.347 OA
ATOM      9  C   UNL     1      -0.207   0.406   1.380  0.00  0.00    +0.196 C 
ENDROOT
BRANCH   1  10
ATOM     10  O   UNL     1       1.518  -0.724   0.360  0.00  0.00    -0.199 OA
BRANCH  10  12
ATOM     11  O   UNL     1       2.869  -0.749  -0.575  0.00  0.00    +0.093 OA
ATOM     12  N   UNL     1       2.822  -0.549  -0.100  0.00  0.00    +0.285 N 
ATOM     13  O   UNL     1       3.704   0.094   0.737  0.00  0.00    -0.534 OA
ENDBRANCH  10  12
ENDBRANCH   1  10
TORSDOF 2
