REMARK  Name = 
REMARK  1 active torsions:
REMARK  status: ('A' for Active; 'I' for Inactive)
REMARK    1  A    between atoms: N_14  and  C_15
REMARK                            x       y       z     vdW  Elec       q    Type
REMARK                         _______ _______ _______ _____ _____    ______ ____
ROOT
ATOM      1  O   UNL     1      -0.473  -1.812  -0.098  0.00  0.00    -0.270 OA
ATOM      2  C   UNL     1       0.046  -1.028  -0.359  0.00  0.00    +0.249 C 
ATOM      3  N   UNL     1      -0.648   0.217  -0.545  0.00  0.00    -0.276 N 
ATOM      4  C   UNL     1       0.010   1.442  -0.224  0.00  0.00    +0.098 C 
ATOM      5  C   UNL     1       1.480   1.561  -0.893  0.00  0.00    +0.042 C 
ATOM      6  C   UNL     1       1.987   2.448   0.392  0.00  0.00    +0.006 C 
ATOM      7  C   UNL     1       3.441   2.656   0.272  0.00  0.00    +0.005 C 
ATOM      8  C   UNL     1       4.221   1.526  -0.316  0.00  0.00    +0.026 C 
ATOM      9  C   UNL     1       3.483   0.255  -0.229  0.00  0.00    -0.026 A 
ATOM     10  C   UNL     1       4.173  -0.864   0.223  0.00  0.00    -0.005 A 
ATOM     11  C   UNL     1       3.502  -2.070   0.120  0.00  0.00    -0.000 A 
ATOM     12  C   UNL     1       2.179  -2.113  -0.238  0.00  0.00    +0.004 A 
ATOM     13  C   UNL     1       2.089   0.224  -0.245  0.00  0.00    -0.020 A 
ATOM     14  C   UNL     1       1.495  -0.959  -0.611  0.00  0.00    +0.049 A 
ENDROOT
BRANCH   3  15
ATOM     15  C   UNL     1      -1.920   0.389   0.386  0.00  0.00    +0.092 C 
ATOM     16  C   UNL     1      -2.915   0.773  -0.858  0.00  0.00    +0.022 C 
ATOM     17  C   UNL     1      -3.272  -0.432  -1.610  0.00  0.00    +0.019 C 
ATOM     18  C   UNL     1      -4.321  -1.196  -0.805  0.00  0.00    +0.072 C 
ATOM     19  N   UNL     1      -3.811  -1.150   0.567  0.00  0.00    -0.271 NA
ATOM     20  C   UNL     1      -4.246   0.147   1.078  0.00  0.00    +0.072 C 
ATOM     21  C   UNL     1      -4.141   1.181  -0.039  0.00  0.00    +0.019 C 
ATOM     22  C   UNL     1      -2.359  -1.193   0.403  0.00  0.00    +0.092 C 
ENDBRANCH   3  15
TORSDOF 1
