REMARK  Name = 
REMARK  6 active torsions:
REMARK  status: ('A' for Active; 'I' for Inactive)
REMARK    1  A    between atoms: C_2  and  C_3
REMARK    2  A    between atoms: C_6  and  O_7
REMARK    3  A    between atoms: O_7  and  C_8
REMARK    4  A    between atoms: C_8  and  C_10
REMARK    5  A    between atoms: C_10  and  S_11
REMARK    6  A    between atoms: S_11  and  C_12
REMARK                            x       y       z     vdW  Elec       q    Type
REMARK                         _______ _______ _______ _____ _____    ______ ____
ROOT
ATOM      1  C   UNL     1      -3.659   1.927   0.000  0.00  0.00    +0.050 C 
ATOM      2  C   UNL     1      -4.829   0.988   0.000  0.00  0.00    +0.156 C 
ATOM      3  O   UNL     1      -6.144   1.709   0.000  0.00  0.00    -0.223 OA
ATOM      4  C   UNL     1      -4.992  -0.504   0.000  0.00  0.00    +0.031 C 
ATOM      5  C   UNL     1      -6.432  -0.924   0.000  0.00  0.00    +0.003 C 
ATOM      6  C   UNL     1      -4.053  -1.673   0.000  0.00  0.00    +0.009 C 
ATOM      7  C   UNL     1      -2.562  -1.836   0.000  0.00  0.00    +0.061 C 
ATOM      8  C   UNL     1      -2.256  -3.305   0.000  0.00  0.00    +0.150 C 
ATOM      9  C   UNL     1      -3.558  -4.049   0.000  0.00  0.00    +0.065 C 
ATOM     10  O   UNL     1      -0.888  -3.921   0.000  0.00  0.00    -0.296 OA
ATOM     11  C   UNL     1      -1.392  -0.897   0.000  0.00  0.00    +0.043 C 
ATOM     12  C   UNL     1      -1.812   0.543   0.000  0.00  0.00    +0.004 C 
ATOM     13  C   UNL     1      -0.775   1.627   0.000  0.00  0.00    +0.000 C 
ATOM     14  C   UNL     1      -3.269   0.899   0.000  0.00  0.00    +0.000 C 
ATOM     15  C   UNL     1      -0.077  -1.618   0.000  0.00  0.00    +0.004 C 
ATOM     16  C   UNL     1      -1.229   0.594   0.000  0.00  0.00    +0.169 C 
ATOM     17  C   UNL     1      -4.306  -0.185   0.000  0.00  0.00    +0.001 C 
ATOM     18  C   UNL     1      -4.669  -3.041   0.000  0.00  0.00    +0.008 C 
ATOM     19  C   UNL     1      -2.168   1.764   0.000  0.00  0.00    +0.050 C 
ATOM     20  C   UNL     1      -4.869   2.813   0.000  0.00  0.00    +0.007 C 
ENDROOT
BRANCH   1  22
ATOM     21  C   UNL     1      -4.055   4.494   0.000  0.00  0.00    -0.005 C 
ATOM     22  C   UNL     1      -3.116   3.325   0.000  0.00  0.00    -0.024 C 
ENDBRANCH   1  22
BRANCH  16  23
ATOM     23  O   UNL     1       0.211   1.014   0.000  0.00  0.00    -0.452 OA
BRANCH  23  24
ATOM     24  C   UNL     1       1.294  -0.023   0.000  0.00  0.00    +0.328 C 
ATOM     25  O   UNL     1       0.938  -1.480   0.000  0.00  0.00    -0.249 OA
BRANCH  24  26
ATOM     26  C   UNL     1       2.735   0.397   0.000  0.00  0.00    +0.167 C 
BRANCH  26  27
ATOM     27  S   UNL     1       3.818  -0.640   0.000  0.00  0.00    -0.129 S 
BRANCH  27  28
ATOM     28  C   UNL     1       5.258  -0.220   0.000  0.00  0.00    +0.051 C 
ATOM     29  C   UNL     1       5.614   1.237   0.000  0.00  0.00    +0.027 C 
ATOM     30  C   UNL     1       7.102   1.493   0.000  0.00  0.00    +0.058 C 
ATOM     31  N   UNL     1       6.596   0.081   0.000  0.00  0.00    -0.274 NA
ATOM     32  C   UNL     1       7.782  -0.837   0.000  0.00  0.00    +0.058 C 
ATOM     33  C   UNL     1       9.022   0.007   0.000  0.00  0.00    +0.017 C 
ATOM     34  C   UNL     1       5.799   0.050   0.000  0.00  0.00    +0.090 C 
ATOM     35  C   UNL     1       8.602   1.448   0.000  0.00  0.00    +0.017 C 
ATOM     36  C   UNL     1       6.342  -1.257   0.000  0.00  0.00    +0.027 C 
ENDBRANCH  27  28
ENDBRANCH  26  27
ENDBRANCH  24  26
ENDBRANCH  23  24
ENDBRANCH  16  23
TORSDOF 6
