REMARK  Name = 
REMARK  5 active torsions:
REMARK  status: ('A' for Active; 'I' for Inactive)
REMARK    1  A    between atoms: C_3  and  C_4
REMARK    2  A    between atoms: CA_5  and  C_6
REMARK    3  A    between atoms: CA_12  and  N_13
REMARK    4  A    between atoms: C_14  and  CA_16
REMARK    5  A    between atoms: CA_16  and  C_18
REMARK                            x       y       z     vdW  Elec       q    Type
REMARK                         _______ _______ _______ _____ _____    ______ ____
ROOT
ATOM      1  C   UNL     1      -3.469  -0.331  -1.124  0.00  0.00    +0.009 C 
ATOM      2  C   UNL     1      -2.281  -0.566  -2.005  0.00  0.00    +0.087 C 
ATOM      3  S   UNL     1      -0.756  -0.501  -0.990  0.00  0.00    -0.114 S 
ATOM      4  C   UNL     1      -1.362   0.645   0.416  0.00  0.00    +0.157 C 
ATOM      5  N   UNL     1      -2.233  -0.479   0.970  0.00  0.00    -0.242 N 
ATOM      6  C   UNL     1      -1.115  -1.270   1.453  0.00  0.00    +0.253 C 
ATOM      7  O   UNL     1      -1.127  -2.075   2.435  0.00  0.00    -0.273 OA
ATOM      8  CA  UNL     1      -0.399   0.173   1.740  0.00  0.00    +0.200 C 
ATOM      9  CA  UNL     1      -3.414  -0.632   0.171  0.00  0.00    +0.132 C 
ENDROOT
BRANCH   1  12
ATOM     10  C   UNL     1      -6.166   1.895  -1.581  0.00  0.00    +0.031 C 
ATOM     11  C   UNL     1      -5.219   1.353  -1.401  0.00  0.00    -0.026 C 
ATOM     12  C   UNL     1      -4.756   0.132  -1.628  0.00  0.00    -0.007 C 
ENDBRANCH   1  12
BRANCH   8  13
ATOM     13  N   UNL     1       0.924  -0.155   0.886  0.00  0.00    -0.194 NA
ATOM     14  C   UNL     1       1.602   1.004   0.388  0.00  0.00    +0.264 C 
ATOM     15  O   UNL     1       0.822   1.972   0.127  0.00  0.00    -0.271 OA
BRANCH  14  16
ATOM     16  CA  UNL     1       2.856   1.496   1.349  0.00  0.00    +0.191 C 
ATOM     17  N   UNL     1       3.251   2.705   0.355  0.00  0.00    -0.118 NA
BRANCH  16  18
ATOM     18  C   UNL     1       3.919   0.452   0.650  0.00  0.00    +0.004 A 
ATOM     19  C   UNL     1       3.960   0.436  -0.694  0.00  0.00    +0.001 A 
ATOM     20  C   UNL     1       5.019  -0.256  -1.273  0.00  0.00    +0.042 A 
ATOM     21  C   UNL     1       6.162  -0.510  -0.524  0.00  0.00    +0.196 A 
ATOM     22  O   UNL     1       7.162  -1.360  -1.003  0.00  0.00    -0.287 OA
ATOM     23  C   UNL     1       6.189  -0.240   0.835  0.00  0.00    +0.042 A 
ATOM     24  C   UNL     1       5.101   0.443   1.357  0.00  0.00    +0.001 A 
ENDBRANCH  16  18
ENDBRANCH  14  16
ENDBRANCH   8  13
BRANCH   9  25
ATOM     25  C   UNL     1      -4.544  -1.280   0.838  0.00  0.00    +0.401 C 
ATOM     26  OXT UNL     1      -5.826  -0.731   0.849  0.00  0.00    -0.239 OA
ATOM     27  O   UNL     1      -4.303  -2.322   1.521  0.00  0.00    -0.239 OA
ENDBRANCH   9  25
TORSDOF 5
