REMARK  Name = 
REMARK  2 active torsions:
REMARK  status: ('A' for Active; 'I' for Inactive)
REMARK    1  A    between atoms: C_2  and  C_3
REMARK    2  A    between atoms: C_10  and  C_11
REMARK                            x       y       z     vdW  Elec       q    Type
REMARK                         _______ _______ _______ _____ _____    ______ ____
ROOT
ATOM      1  C   UNL     1      -1.528   0.905  -0.354  0.00  0.00    +0.065 A 
ATOM      2  C   UNL     1      -0.528  -0.059  -0.391  0.00  0.00    +0.049 A 
ATOM      3  C   UNL     1      -0.863  -1.403  -0.504  0.00  0.00    +0.174 A 
ATOM      4  N   UNL     1       0.211  -2.336  -0.441  0.00  0.00    -0.107 NA
ATOM      5  N   UNL     1      -2.124  -1.747  -0.803  0.00  0.00    -0.193 NA
ATOM      6  C   UNL     1      -3.093  -0.871  -0.489  0.00  0.00    +0.258 A 
ATOM      7  N   UNL     1      -4.436  -1.363  -0.512  0.00  0.00    -0.086 NA
ATOM      8  N   UNL     1      -2.803   0.441  -0.344  0.00  0.00    -0.215 NA
ENDROOT
BRANCH   2   9
ATOM      9  C   UNL     1       0.814   0.371   0.023  0.00  0.00    +0.004 A 
ATOM     10  C   UNL     1       1.516  -0.351   0.981  0.00  0.00    +0.001 A 
ATOM     11  C   UNL     1       2.890  -0.544   0.902  0.00  0.00    +0.011 A 
ATOM     12  C   UNL     1       3.581  -0.023  -0.181  0.00  0.00    +0.058 A 
ATOM     13 CL   UNL     1       4.930  -0.873  -0.928  0.00  0.00    -0.082 Cl
ATOM     14  C   UNL     1       2.961   1.055  -0.804  0.00  0.00    +0.011 A 
ATOM     15  C   UNL     1       1.577   1.191  -0.801  0.00  0.00    +0.001 A 
ENDBRANCH   2   9
BRANCH   1  17
ATOM     16  C   UNL     1      -1.919   3.356  -0.210  0.00  0.00    +0.007 C 
ATOM     17  C   UNL     1      -1.185   2.250  -0.910  0.00  0.00    +0.046 C 
ENDBRANCH   1  17
TORSDOF 2
