REMARK  Name = 
REMARK  1 active torsions:
REMARK  status: ('A' for Active; 'I' for Inactive)
REMARK    1  A    between atoms: O_2  and  C_3
REMARK                            x       y       z     vdW  Elec       q    Type
REMARK                         _______ _______ _______ _____ _____    ______ ____
ROOT
ATOM      1  C   UNL     1       2.846  -0.196  -0.084  0.00  0.00    +0.172 A 
ATOM      2  C   UNL     1       1.647   0.423   0.260  0.00  0.00    +0.169 A 
ATOM      3  O   UNL     1       1.353   1.411   1.123  0.00  0.00    -0.469 OA
ATOM      4  C   UNL     1      -0.177   1.624   1.147  0.00  0.00    +0.228 C 
ATOM      5  C   UNL     1      -0.546   0.186   0.475  0.00  0.00    +0.094 C 
ATOM      6  C   UNL     1      -1.752   0.281  -0.225  0.00  0.00    +0.148 C 
ATOM      7  C   UNL     1      -2.119  -1.138  -0.943  0.00  0.00    +0.090 C 
ATOM      8  N   UNL     1      -2.578  -1.810   0.404  0.00  0.00    -0.270 NA
ATOM      9  C   UNL     1      -1.902  -1.430   1.506  0.00  0.00    +0.073 C 
ATOM     10  C   UNL     1      -2.512  -3.200   0.013  0.00  0.00    +0.090 C 
ATOM     11  C   UNL     1      -0.673  -1.903  -0.905  0.00  0.00    +0.045 C 
ATOM     12  C   UNL     1       0.392  -0.968  -1.326  0.00  0.00    -0.021 A 
ATOM     13  C   UNL     1       1.611  -1.543  -1.687  0.00  0.00    -0.001 A 
ATOM     14  O   UNL     1      -2.833   0.663   0.533  0.00  0.00    -0.224 OA
ATOM     15  C   UNL     1      -1.828   1.159  -1.469  0.00  0.00    +0.040 C 
ATOM     16  C   UNL     1      -1.494   2.521  -0.951  0.00  0.00    +0.071 C 
ATOM     17  C   UNL     1      -0.556  -0.846   1.529  0.00  0.00    +0.028 C 
ATOM     18  C   UNL     1      -0.151   2.404  -0.282  0.00  0.00    +0.191 C 
ATOM     19  O   UNL     1       0.263   3.525   0.031  0.00  0.00    -0.292 OA
ATOM     20  C   UNL     1       0.559   0.138  -0.496  0.00  0.00    +0.017 A 
ATOM     21  C   UNL     1       2.818  -1.143  -1.108  0.00  0.00    +0.040 A 
ENDROOT
BRANCH   1  23
ATOM     22  C   UNL     1       3.795   0.045   1.548  0.00  0.00    +0.253 C 
ATOM     23  O   UNL     1       3.836  -0.203   0.909  0.00  0.00    -0.468 OA
ENDBRANCH   1  23
TORSDOF 1
