REMARK  Name = 
REMARK  6 active torsions:
REMARK  status: ('A' for Active; 'I' for Inactive)
REMARK    1  A    between atoms: C_2  and  C_3
REMARK    2  A    between atoms: C_11  and  O_12
REMARK    3  A    between atoms: C_31  and  C_32
REMARK    4  A    between atoms: C_34  and  C_35
REMARK    5  A    between atoms: C_40  and  O_41
REMARK    6  A    between atoms: C_54  and  O_55
REMARK                            x       y       z     vdW  Elec       q    Type
REMARK                         _______ _______ _______ _____ _____    ______ ____
ROOT
ATOM      1  C   UNL     1      -2.514   4.426  -0.668  0.00  0.00    +0.079 C 
ATOM      2  C   UNL     1      -0.922   4.254  -0.462  0.00  0.00    +0.157 C 
ATOM      3  O   UNL     1      -0.249   5.044  -1.110  0.00  0.00    -0.296 OA
ATOM      4  C   UNL     1      -0.518   2.823  -0.235  0.00  0.00    +0.098 C 
ATOM      5  C   UNL     1       0.188   2.969   1.245  0.00  0.00    +0.163 C 
ATOM      6  O   UNL     1       1.339   3.772   0.682  0.00  0.00    -0.223 OA
ATOM      7  C   UNL     1       0.972   1.459   1.267  0.00  0.00    +0.075 C 
ATOM      8  C   UNL     1       2.319   2.036   1.913  0.00  0.00    +0.007 C 
ATOM      9  C   UNL     1       1.380   1.406  -0.382  0.00  0.00    +0.189 C 
ATOM     10  O   UNL     1       1.871  -0.028  -0.398  0.00  0.00    -0.447 OA
ATOM     11  C   UNL     1       1.276  -0.962  -1.077  0.00  0.00    +0.335 C 
ATOM     12  O   UNL     1       1.161  -1.357  -2.232  0.00  0.00    -0.248 OA
ATOM     13  C   UNL     1       0.173  -1.437  -0.009  0.00  0.00    +0.175 C 
ATOM     14  N   UNL     1       0.506  -2.965  -0.254  0.00  0.00    -0.265 N 
ATOM     15  C   UNL     1       1.732  -3.391  -0.831  0.00  0.00    +0.094 C 
ATOM     16  C   UNL     1       2.807  -2.920   0.088  0.00  0.00    +0.022 C 
ATOM     17  C   UNL     1       2.351  -2.127   1.199  0.00  0.00    +0.004 C 
ATOM     18  C   UNL     1      -0.002  -3.727   0.859  0.00  0.00    +0.289 C 
ATOM     19  O   UNL     1       0.488  -4.813   1.292  0.00  0.00    -0.267 OA
ATOM     20  C   UNL     1      -1.276  -3.111   1.305  0.00  0.00    +0.279 C 
ATOM     21  O   UNL     1      -1.624  -3.450   2.484  0.00  0.00    -0.281 OA
ATOM     22  C   UNL     1      -2.126  -2.799   0.171  0.00  0.00    +0.279 C 
ATOM     23  C   UNL     1      -3.318  -3.806   0.668  0.00  0.00    +0.065 C 
ATOM     24  C   UNL     1      -3.791  -4.223  -0.836  0.00  0.00    +0.038 C 
ATOM     25  C   UNL     1      -4.774  -2.929  -0.895  0.00  0.00    +0.145 C 
ATOM     26  C   UNL     1      -3.483  -1.866  -1.272  0.00  0.00    +0.172 C 
ATOM     27  C   UNL     1      -4.434  -0.437  -1.344  0.00  0.00    +0.145 C 
ATOM     28  C   UNL     1      -4.528  -0.090   0.260  0.00  0.00    +0.032 C 
ATOM     29  C   UNL     1      -5.288   1.312  -0.153  0.00  0.00    +0.007 C 
ATOM     30  C   UNL     1      -5.826   1.591   1.357  0.00  0.00    +0.000 C 
ATOM     31  C   UNL     1      -3.907   2.141  -0.024  0.00  0.00    +0.022 C 
ATOM     32  C   UNL     1      -3.926   3.169   0.978  0.00  0.00    -0.048 C 
ATOM     33  C   UNL     1      -4.017   2.991   2.477  0.00  0.00    +0.026 C 
ATOM     34  C   UNL     1      -2.434  -5.171   0.801  0.00  0.00    +0.006 C 
ATOM     35  O   UNL     1      -1.714  -3.278  -1.075  0.00  0.00    -0.187 OA
ATOM     36  O   UNL     1      -2.953  -1.718   0.129  0.00  0.00    -0.324 OA
ATOM     37  C   UNL     1       1.097  -1.467   1.361  0.00  0.00    +0.031 C 
ATOM     38  C   UNL     1      -2.820   3.928   0.827  0.00  0.00    -0.028 C 
ENDROOT
BRANCH   9  39
ATOM     39  C   UNL     1       2.894   1.965  -0.248  0.00  0.00    -0.009 C 
ATOM     40  C   UNL     1       3.884   1.103  -0.286  0.00  0.00    -0.031 C 
ATOM     41  C   UNL     1       3.354   2.946  -1.296  0.00  0.00    +0.030 C 
BRANCH  40  42
ATOM     42  C   UNL     1       5.243   1.506   0.446  0.00  0.00    +0.024 C 
ATOM     43  C   UNL     1       5.879   0.049   0.069  0.00  0.00    +0.035 C 
ATOM     44  C   UNL     1       7.263   0.009   0.954  0.00  0.00    +0.131 C 
ATOM     45  C   UNL     1       7.638   1.646   0.724  0.00  0.00    +0.107 C 
ATOM     46 CL   UNL     1       9.474   1.411   0.635  0.00  0.00    -0.112 Cl
ATOM     47  C   UNL     1       7.364   1.782  -0.827  0.00  0.00    +0.019 C 
ATOM     48  C   UNL     1       5.896   2.204  -0.883  0.00  0.00    +0.006 C 
BRANCH  44  49
ATOM     49  O   UNL     1       8.059  -0.470  -0.250  0.00  0.00    -0.352 OA
ATOM     50  C   UNL     1       7.412  -1.638  -0.672  0.00  0.00    +0.174 C 
ENDBRANCH  44  49
ENDBRANCH  40  42
ENDBRANCH   9  39
BRANCH   1  52
ATOM     51  C   UNL     1      -2.184   6.016   0.633  0.00  0.00    +0.001 C 
ATOM     52  C   UNL     1      -2.498   5.995  -0.190  0.00  0.00    +0.012 C 
ENDBRANCH   1  52
BRANCH  27  53
ATOM     53  O   UNL     1      -5.795  -1.085  -1.409  0.00  0.00    -0.351 OA
ATOM     54  C   UNL     1      -6.426  -1.125  -0.221  0.00  0.00    +0.174 C 
ENDBRANCH  27  53
BRANCH  25  55
ATOM     55  O   UNL     1      -5.034  -3.160  -2.366  0.00  0.00    -0.351 OA
ATOM     56  C   UNL     1      -5.638  -4.406  -2.342  0.00  0.00    +0.174 C 
ENDBRANCH  25  55
TORSDOF 6
