REMARK  Name = 
REMARK  1 active torsions:
REMARK  status: ('A' for Active; 'I' for Inactive)
REMARK    1  A    between atoms: C_2  and  CA_4
REMARK                            x       y       z     vdW  Elec       q    Type
REMARK                         _______ _______ _______ _____ _____    ______ ____
ROOT
ATOM      1  CA  HYP A   1      -0.467   0.591   0.267  0.00  0.00    +0.178 C 
ATOM      2  N   HYP A   1       0.125  -0.666   1.037  0.00  0.00    -0.206 NA
ATOM      3  CD  HYP A   1       1.489  -0.299   1.180  0.00  0.00    +0.122 C 
ATOM      4  CG  HYP A   1       1.667   0.940   0.083  0.00  0.00    +0.171 C 
ATOM      5  OD  HYP A   1       2.884   0.260  -0.562  0.00  0.00    -0.222 OA
ATOM      6  CB  HYP A   1       0.585   0.233  -0.981  0.00  0.00    +0.063 C 
ENDROOT
BRANCH   1   8
ATOM      7  O   HYP A   1      -2.643   0.640  -0.399  0.00  0.00    -0.244 OA
ATOM      8  C   HYP A   1      -1.739  -0.193  -0.381  0.00  0.00    +0.380 C 
ATOM      9  OXT HYP A   1      -1.901  -1.506  -0.243  0.00  0.00    -0.244 OA
ENDBRANCH   1   8
TORSDOF 1
