REMARK  Name = 
REMARK  0 active torsions:
REMARK  status: ('A' for Active; 'I' for Inactive)
REMARK                            x       y       z     vdW  Elec       q    Type
REMARK                         _______ _______ _______ _____ _____    ______ ____
ROOT
ATOM      1  N   UNL     1      -1.393   2.901   0.952  0.00  0.00    +0.144 NA
ATOM      2  C   UNL     1      -0.538   2.358   0.001  0.00  0.00    +0.447 C 
ATOM      3  N   UNL     1      -0.274   0.976  -0.108  0.00  0.00    -0.169 N 
ATOM      4  C   UNL     1       0.761   0.910  -1.333  0.00  0.00    +0.204 C 
ATOM      5  C   UNL     1       1.664  -0.214  -0.558  0.00  0.00    +0.012 A 
ATOM      6  C   UNL     1       1.185  -1.485  -0.342  0.00  0.00    -0.019 A 
ATOM      7  C   UNL     1      -0.111  -2.146  -0.687  0.00  0.00    +0.055 C 
ATOM      8  C   UNL     1      -1.231  -1.330  -0.131  0.00  0.00    +0.011 A 
ATOM      9  C   UNL     1      -2.332  -2.079   0.258  0.00  0.00    -0.001 A 
ATOM     10  C   UNL     1      -3.579  -1.466   0.249  0.00  0.00    -0.000 A 
ATOM     11  C   UNL     1      -3.692  -0.102   0.426  0.00  0.00    +0.003 A 
ATOM     12  C   UNL     1      -2.523   0.648   0.431  0.00  0.00    +0.031 A 
ATOM     13  C   UNL     1       2.076  -2.335   0.307  0.00  0.00    -0.004 A 
ATOM     14  C   UNL     1       2.985  -1.744   1.180  0.00  0.00    -0.000 A 
ATOM     15  C   UNL     1       3.506  -0.515   0.780  0.00  0.00    -0.000 A 
ATOM     16  C   UNL     1       2.825   0.282  -0.142  0.00  0.00    -0.001 A 
ATOM     17  C   UNL     1       1.597   2.234  -0.731  0.00  0.00    +0.262 C 
ATOM     18  C   UNL     1      -1.361   0.051  -0.043  0.00  0.00    +0.109 A 
ATOM     19  N   UNL     1       0.434   3.055  -0.508  0.00  0.00    -0.092 NA
ENDROOT
TORSDOF 0
