REMARK  Name = 
REMARK  2 active torsions:
REMARK  status: ('A' for Active; 'I' for Inactive)
REMARK    1  A    between atoms: C_2  and  C_3
REMARK    2  A    between atoms: C_22  and  C_23
REMARK                            x       y       z     vdW  Elec       q    Type
REMARK                         _______ _______ _______ _____ _____    ______ ____
ROOT
ATOM      1  C   UNL     1       3.155   0.332  -0.009  0.00  0.00    +0.180 C 
ATOM      2  C   UNL     1       2.348  -0.858  -0.169  0.00  0.00    +0.037 C 
ATOM      3  C   UNL     1       1.639  -0.766  -1.615  0.00  0.00    +0.003 C 
ATOM      4  C   UNL     1       0.046  -1.027  -1.098  0.00  0.00    +0.001 C 
ATOM      5  C   UNL     1      -0.101   0.372  -0.198  0.00  0.00    +0.004 C 
ATOM      6  C   UNL     1       0.424  -0.314   1.163  0.00  0.00    +0.000 C 
ATOM      7  C   UNL     1      -1.686   0.138   0.321  0.00  0.00    +0.019 C 
ATOM      8  C   UNL     1      -2.316  -0.496  -1.002  0.00  0.00    -0.043 C 
ATOM      9  C   UNL     1      -3.632  -0.502  -0.744  0.00  0.00    +0.010 C 
ATOM     10  C   UNL     1      -4.183   0.358   0.324  0.00  0.00    +0.101 C 
ATOM     11  C   UNL     1      -3.591   1.736   0.275  0.00  0.00    +0.050 C 
ATOM     12  N   UNL     1      -5.294   0.112   0.906  0.00  0.00    -0.034 NA
ATOM     13  O   UNL     1      -5.993   1.165   1.468  0.00  0.00    -0.143 OA
ATOM     14  C   UNL     1      -1.887   0.029  -2.308  0.00  0.00    +0.022 C 
ATOM     15  C   UNL     1      -2.122   1.647  -0.130  0.00  0.00    +0.010 C 
ATOM     16  C   UNL     1      -0.476  -0.361  -2.468  0.00  0.00    +0.004 C 
ATOM     17  C   UNL     1       1.554   0.852  -1.711  0.00  0.00    +0.004 C 
ATOM     18  C   UNL     1       1.454  -1.321   0.866  0.00  0.00    +0.003 C 
ATOM     19  C   UNL     1       2.653   1.368  -0.927  0.00  0.00    +0.043 C 
ATOM     20  O   UNL     1       4.524   0.166  -0.284  0.00  0.00    -0.212 OA
ENDROOT
BRANCH   1  22
ATOM     21  C   UNL     1       3.069   1.093   2.528  0.00  0.00    -0.012 C 
ATOM     22  C   UNL     1       3.097   0.782   1.394  0.00  0.00    -0.049 C 
ENDBRANCH   1  22
BRANCH   2  23
ATOM     23  C   UNL     1       3.328  -2.000  -0.463  0.00  0.00    +0.003 C 
ATOM     24  C   UNL     1       3.989  -2.506   0.786  0.00  0.00    +0.000 C 
ENDBRANCH   2  23
TORSDOF 2
