REMARK  Name = 
REMARK  4 active torsions:
REMARK  status: ('A' for Active; 'I' for Inactive)
REMARK    1  A    between atoms: N_2  and  C_4
REMARK    2  A    between atoms: C_4  and  C_5
REMARK    3  A    between atoms: C_5  and  C_6
REMARK    4  A    between atoms: C_5  and  C_13
REMARK                            x       y       z     vdW  Elec       q    Type
REMARK                         _______ _______ _______ _____ _____    ______ ____
ROOT
ATOM      1  C   UNL     1      -0.576   0.329  -0.891  0.00  0.00    +0.066 C 
ENDROOT
BRANCH   1   2
ATOM      2  C   UNL     1      -1.041  -1.075  -0.165  0.00  0.00    +0.132 C 
ATOM      3  C   UNL     1      -2.278  -0.820   0.600  0.00  0.00    +0.031 C 
ATOM      4  C   UNL     1      -3.463  -1.663   0.195  0.00  0.00    +0.003 C 
ATOM      5  C   UNL     1      -2.990  -3.100   0.169  0.00  0.00    +0.000 C 
ATOM      6  C   UNL     1      -1.890  -3.245  -0.850  0.00  0.00    +0.003 C 
ATOM      7  C   UNL     1      -1.431  -1.895  -1.392  0.00  0.00    +0.031 C 
ATOM      8  O   UNL     1      -0.010  -1.667   0.436  0.00  0.00    -0.225 OA
ENDBRANCH   1   2
BRANCH   1   9
ATOM      9  C   UNL     1       0.955   0.288  -0.356  0.00  0.00    -0.019 A 
ATOM     10  C   UNL     1       1.785  -0.332  -1.290  0.00  0.00    -0.001 A 
ATOM     11  C   UNL     1       3.153  -0.301  -1.036  0.00  0.00    +0.042 A 
ATOM     12  C   UNL     1       3.640   0.428   0.030  0.00  0.00    +0.196 A 
ATOM     13  O   UNL     1       4.815   0.113   0.707  0.00  0.00    -0.287 OA
ATOM     14  C   UNL     1       2.805   1.438   0.481  0.00  0.00    +0.042 A 
ATOM     15  C   UNL     1       1.477   1.497   0.068  0.00  0.00    -0.001 A 
ENDBRANCH   1   9
BRANCH   1  16
ATOM     16  C   UNL     1      -1.091   1.264   0.377  0.00  0.00    +0.079 C 
BRANCH  16  18
ATOM     17  C   UNL     1      -1.254   2.640  -1.265  0.00  0.00    +0.090 C 
ATOM     18  N   UNL     1      -0.998   2.579  -0.252  0.00  0.00    -0.270 NA
ATOM     19  C   UNL     1      -1.608   3.521   0.680  0.00  0.00    +0.090 C 
ENDBRANCH  16  18
ENDBRANCH   1  16
TORSDOF 4
