REMARK  Name = 
REMARK  5 active torsions:
REMARK  status: ('A' for Active; 'I' for Inactive)
REMARK    1  A    between atoms: C_2  and  C_3
REMARK    2  A    between atoms: C_3  and  C_4
REMARK    3  A    between atoms: C_4  and  C_5
REMARK    4  A    between atoms: C_5  and  C_7
REMARK    5  A    between atoms: C_5  and  C_10
REMARK                            x       y       z     vdW  Elec       q    Type
REMARK                         _______ _______ _______ _____ _____    ______ ____
ROOT
ATOM      1  C   UNL     1      -0.738   0.092  -0.780  0.00  0.00    +0.231 C 
ATOM      2  N   UNL     1      -1.620   0.217  -1.910  0.00  0.00    -0.117 NA
ENDROOT
BRANCH   1   3
ATOM      3  C   UNL     1      -0.886  -1.254  -0.139  0.00  0.00    +0.345 C 
ATOM      4  F   UNL     1      -1.692  -1.268   0.964  0.00  0.00    -0.196 F 
ATOM      5  F   UNL     1      -1.346  -2.135  -1.112  0.00  0.00    -0.196 F 
ENDBRANCH   1   3
BRANCH   1   6
ATOM      6  C   UNL     1      -1.015   1.216   0.145  0.00  0.00    +0.385 C 
ATOM      7  O   UNL     1      -0.378   1.285   1.388  0.00  0.00    -0.244 OA
ATOM      8  O   UNL     1      -1.272   2.331  -0.401  0.00  0.00    -0.244 OA
ENDBRANCH   1   6
BRANCH   1   9
ATOM      9  C   UNL     1       0.690   0.226  -1.271  0.00  0.00    +0.036 C 
BRANCH   9  10
ATOM     10  C   UNL     1       1.582   0.241  -0.059  0.00  0.00    +0.023 C 
BRANCH  10  12
ATOM     11  N   UNL     1       3.989  -0.168  -0.286  0.00  0.00    -0.131 NA
ATOM     12  C   UNL     1       2.687  -0.784  -0.149  0.00  0.00    +0.109 C 
ENDBRANCH  10  12
ENDBRANCH   9  10
ENDBRANCH   1   9
TORSDOF 5
