REMARK  Name = 
REMARK  0 active torsions:
REMARK  status: ('A' for Active; 'I' for Inactive)
REMARK                            x       y       z     vdW  Elec       q    Type
REMARK                         _______ _______ _______ _____ _____    ______ ____
ROOT
ATOM      1  O   UNL     1      -0.566   1.156  -0.038  0.00  0.00    -0.197 OA
ATOM      2  C   UNL     1       0.001   0.038   0.118  0.00  0.00    +0.592 C 
ATOM      3  O   UNL     1       1.370  -0.107  -0.049  0.00  0.00    -0.197 OA
ATOM      4  O   UNL     1      -0.805  -1.088  -0.031  0.00  0.00    -0.197 OA
ENDROOT
TORSDOF 0
