REMARK  Name = 
REMARK  3 active torsions:
REMARK  status: ('A' for Active; 'I' for Inactive)
REMARK    1  A    between atoms: C_6  and  N_7
REMARK    2  A    between atoms: C_9  and  C_10
REMARK    3  A    between atoms: C_10  and  C_11
REMARK                            x       y       z     vdW  Elec       q    Type
REMARK                         _______ _______ _______ _____ _____    ______ ____
ROOT
ATOM      1  N   UNL     1       1.463  -0.282  -0.080  0.00  0.00    -0.219 N 
ATOM      2  C   UNL     1       1.499  -1.612  -0.149  0.00  0.00    +0.276 A 
ATOM      3  O   UNL     1       2.594  -2.247  -0.239  0.00  0.00    -0.266 OA
ATOM      4  C   UNL     1       0.299  -2.298  -0.078  0.00  0.00    +0.059 A 
ATOM      5  C   UNL     1      -0.874  -1.558   0.000  0.00  0.00    +0.020 A 
ATOM      6  C   UNL     1      -2.079  -2.233   0.106  0.00  0.00    +0.001 A 
ATOM      7  C   UNL     1      -2.072  -3.589  -0.192  0.00  0.00    +0.000 A 
ATOM      8  C   UNL     1      -0.931  -4.349   0.002  0.00  0.00    +0.000 A 
ATOM      9  C   UNL     1      -0.796  -0.249   0.443  0.00  0.00    +0.083 A 
ATOM     10  C   UNL     1       0.272  -3.682   0.012  0.00  0.00    +0.005 A 
ATOM     11  N   UNL     1       0.381   0.375   0.328  0.00  0.00    -0.171 NA
ENDROOT
BRANCH   1  16
ATOM     12  C   UNL     1       5.065   3.290  -0.023  0.00  0.00    +0.090 C 
ATOM     13  N   UNL     1       4.739   2.541  -0.264  0.00  0.00    -0.271 NA
ATOM     14  C   UNL     1       3.714   2.133  -1.169  0.00  0.00    +0.074 C 
ATOM     15  C   UNL     1       2.474   1.758  -0.447  0.00  0.00    +0.042 C 
ATOM     16  C   UNL     1       2.767   0.420   0.452  0.00  0.00    +0.110 C 
ATOM     17  C   UNL     1       3.692  -0.283  -0.706  0.00  0.00    +0.026 C 
ATOM     18  C   UNL     1       5.108   0.106  -0.396  0.00  0.00    +0.019 C 
ATOM     19  C   UNL     1       5.241   1.365   0.399  0.00  0.00    +0.072 C 
ENDBRANCH   1  16
BRANCH   9  20
ATOM     20  C   UNL     1      -1.882   0.398   1.220  0.00  0.00    +0.074 C 
BRANCH  20  21
ATOM     21  C   UNL     1      -3.108   0.404   0.364  0.00  0.00    -0.016 A 
ATOM     22  C   UNL     1      -4.363   0.543   0.940  0.00  0.00    -0.003 A 
ATOM     23  C   UNL     1      -5.321   1.338   0.322  0.00  0.00    +0.011 A 
ATOM     24  C   UNL     1      -5.079   1.969  -0.888  0.00  0.00    +0.058 A 
ATOM     25 CL   UNL     1      -5.759   3.545  -1.254  0.00  0.00    -0.082 Cl
ATOM     26  C   UNL     1      -4.034   1.433  -1.630  0.00  0.00    +0.011 A 
ATOM     27  C   UNL     1      -3.010   0.762  -0.972  0.00  0.00    -0.003 A 
ENDBRANCH  20  21
ENDBRANCH   9  20
TORSDOF 3
