REMARK  Name = 
REMARK  6 active torsions:
REMARK  status: ('A' for Active; 'I' for Inactive)
REMARK    1  A    between atoms: N_2  and  S_3
REMARK    2  A    between atoms: S_3  and  C_6
REMARK    3  A    between atoms: C_6  and  C_7
REMARK    4  A    between atoms: C_13  and  C_14
REMARK    5  A    between atoms: C_14  and  C_15
REMARK    6  A    between atoms: C_15  and  N_16
REMARK                            x       y       z     vdW  Elec       q    Type
REMARK                         _______ _______ _______ _____ _____    ______ ____
ROOT
ATOM      1  C   UNL     1       1.545  -0.256  -0.197  0.00  0.00    +0.003 A 
ATOM      2  C   UNL     1       0.161  -0.153  -0.123  0.00  0.00    -0.001 A 
ATOM      3  C   UNL     1      -0.639  -1.276  -0.094  0.00  0.00    +0.015 A 
ATOM      4  C   UNL     1      -0.078  -2.530  -0.277  0.00  0.00    +0.081 A 
ATOM      5  N   UNL     1      -1.114  -3.378  -0.283  0.00  0.00    -0.244 NA
ATOM      6  C   UNL     1      -2.237  -2.757   0.152  0.00  0.00    +0.095 A 
ATOM      7  C   UNL     1       1.272  -2.623  -0.555  0.00  0.00    +0.019 A 
ATOM      8  C   UNL     1      -2.014  -1.395   0.073  0.00  0.00    -0.000 A 
ATOM      9  C   UNL     1       2.089  -1.502  -0.487  0.00  0.00    -0.001 A 
ENDROOT
BRANCH   1  10
ATOM     10  C   UNL     1       2.252   0.931  -0.761  0.00  0.00    +0.197 C 
BRANCH  10  11
ATOM     11  S   UNL     1       3.683   1.365   0.180  0.00  0.00    +0.062 S 
ATOM     12  O   UNL     1       3.746   0.612   1.473  0.00  0.00    -0.156 OA
ATOM     13  O   UNL     1       4.906   1.094  -0.629  0.00  0.00    -0.156 OA
BRANCH  11  15
ATOM     14  C   UNL     1       2.884   3.718  -0.546  0.00  0.00    +0.136 C 
ATOM     15  N   UNL     1       3.616   3.051   0.519  0.00  0.00    -0.080 NA
ENDBRANCH  11  15
ENDBRANCH  10  11
ENDBRANCH   1  10
BRANCH   8  16
ATOM     16  C   UNL     1      -2.870  -0.288   0.601  0.00  0.00    +0.045 C 
BRANCH  16  17
ATOM     17  C   UNL     1      -3.905   0.054  -0.435  0.00  0.00    +0.077 C 
BRANCH  17  18
ATOM     18  N   UNL     1      -4.569   1.308  -0.188  0.00  0.00    -0.270 NA
ATOM     19  C   UNL     1      -4.693   1.628   1.210  0.00  0.00    +0.090 C 
ATOM     20  C   UNL     1      -4.037   2.398  -0.976  0.00  0.00    +0.090 C 
ENDBRANCH  17  18
ENDBRANCH  16  17
ENDBRANCH   8  16
TORSDOF 6
