REMARK  Name = 
REMARK  6 active torsions:
REMARK  status: ('A' for Active; 'I' for Inactive)
REMARK    1  A    between atoms: C_2  and  C_5
REMARK    2  A    between atoms: C_7  and  C_8
REMARK    3  A    between atoms: C_12  and  N_13
REMARK    4  A    between atoms: N_13  and  S_14
REMARK    5  A    between atoms: S_14  and  C_17
REMARK    6  A    between atoms: C_27  and  C_28
REMARK                            x       y       z     vdW  Elec       q    Type
REMARK                         _______ _______ _______ _____ _____    ______ ____
ROOT
ATOM      1  C   UNL     1      -1.204   0.196   0.401  0.00  0.00    +0.047 A 
ATOM      2  C   UNL     1       0.014  -0.111  -0.194  0.00  0.00    +0.158 A 
ATOM      3  F   UNL     1       0.037  -1.265  -0.917  0.00  0.00    -0.203 F 
ATOM      4  C   UNL     1       1.206   0.450   0.221  0.00  0.00    +0.118 A 
ATOM      5  C   UNL     1       1.138   1.667   0.882  0.00  0.00    +0.020 A 
ATOM      6  C   UNL     1      -0.056   1.969   1.514  0.00  0.00    +0.002 A 
ATOM      7  C   UNL     1      -1.196   1.195   1.343  0.00  0.00    +0.004 A 
ENDROOT
BRANCH   1  11
ATOM      8  C   UNL     1      -3.642  -2.224  -0.641  0.00  0.00    +0.087 A 
ATOM      9  S   UNL     1      -4.599  -0.850  -1.033  0.00  0.00    -0.069 S 
ATOM     10  C   UNL     1      -3.439   0.366  -0.663  0.00  0.00    +0.066 A 
ATOM     11  C   UNL     1      -2.445  -0.424  -0.090  0.00  0.00    +0.091 A 
ATOM     12  N   UNL     1      -2.437  -1.654  -0.609  0.00  0.00    -0.243 NA
BRANCH  10  13
ATOM     13  C   UNL     1      -3.710   1.789  -0.408  0.00  0.00    +0.093 A 
ATOM     14  N   UNL     1      -4.949   2.191  -0.029  0.00  0.00    -0.211 NA
ATOM     15  C   UNL     1      -5.075   3.342   0.646  0.00  0.00    +0.257 A 
ATOM     16  N   UNL     1      -6.342   3.628   1.206  0.00  0.00    -0.086 NA
ATOM     17  N   UNL     1      -4.095   4.247   0.494  0.00  0.00    -0.210 NA
ATOM     18  C   UNL     1      -3.153   4.069  -0.464  0.00  0.00    +0.103 A 
ATOM     19  C   UNL     1      -2.935   2.794  -0.973  0.00  0.00    +0.040 A 
ENDBRANCH  10  13
BRANCH   8  21
ATOM     20  C   UNL     1      -5.191  -3.688   0.484  0.00  0.00    +0.006 C 
ATOM     21  C   UNL     1      -4.038  -3.661  -0.510  0.00  0.00    +0.041 C 
ATOM     22  C   UNL     1      -4.510  -4.217  -1.824  0.00  0.00    +0.006 C 
ATOM     23  C   UNL     1      -2.874  -4.413   0.072  0.00  0.00    +0.006 C 
ENDBRANCH   8  21
ENDBRANCH   1  11
BRANCH   4  24
ATOM     24  N   UNL     1       2.452  -0.211   0.022  0.00  0.00    -0.094 NA
BRANCH  24  25
ATOM     25  S   UNL     1       3.867   0.476   0.710  0.00  0.00    +0.097 S 
ATOM     26  O   UNL     1       3.677   0.608   2.190  0.00  0.00    -0.148 OA
ATOM     27  O   UNL     1       4.062   1.863   0.157  0.00  0.00    -0.148 OA
BRANCH  25  28
ATOM     28  C   UNL     1       5.277  -0.484   0.393  0.00  0.00    +0.182 A 
ATOM     29  C   UNL     1       6.474   0.128   0.045  0.00  0.00    +0.161 A 
ATOM     30  F   UNL     1       6.557   1.486  -0.037  0.00  0.00    -0.203 F 
ATOM     31  C   UNL     1       7.486  -0.678  -0.448  0.00  0.00    +0.031 A 
ATOM     32  C   UNL     1       7.355  -2.051  -0.333  0.00  0.00    +0.005 A 
ATOM     33  C   UNL     1       6.433  -2.536   0.570  0.00  0.00    +0.031 A 
ATOM     34  C   UNL     1       5.378  -1.745   0.946  0.00  0.00    +0.161 A 
ATOM     35  F   UNL     1       4.475  -2.253   1.800  0.00  0.00    -0.203 F 
ENDBRANCH  25  28
ENDBRANCH  24  25
ENDBRANCH   4  24
TORSDOF 6
