REMARK  Name = 
REMARK  9 active torsions:
REMARK  status: ('A' for Active; 'I' for Inactive)
REMARK    1  A    between atoms: C_2  and  C_3
REMARK    2  A    between atoms: N_5  and  C_6
REMARK    3  A    between atoms: N_5  and  C_12
REMARK    4  A    between atoms: C_12  and  C_13
REMARK    5  A    between atoms: C_13  and  O_14
REMARK    6  A    between atoms: N_18  and  C_19
REMARK    7  A    between atoms: C_19  and  C_20
REMARK    8  A    between atoms: C_20  and  N_21
REMARK    9  A    between atoms: N_24  and  C_25
REMARK                            x       y       z     vdW  Elec       q    Type
REMARK                         _______ _______ _______ _____ _____    ______ ____
ROOT
ATOM      1  C   UNL     1      -1.665   0.439   0.157  0.00  0.00    +0.094 C 
ATOM      2  C   UNL     1      -0.724  -0.753   0.286  0.00  0.00    +0.038 C 
ATOM      3  C   UNL     1       0.138  -0.533   1.523  0.00  0.00    +0.074 C 
ATOM      4  N   UNL     1       1.152   0.456   1.167  0.00  0.00    -0.271 NA
ATOM      5  C   UNL     1       0.449   1.566   0.561  0.00  0.00    +0.074 C 
ATOM      6  C   UNL     1      -1.025   1.568   0.950  0.00  0.00    +0.038 C 
ENDROOT
BRANCH   1   8
ATOM      7  C   UNL     1      -3.253  -0.569   1.835  0.00  0.00    +0.229 C 
ATOM      8  N   UNL     1      -2.991   0.143   0.631  0.00  0.00    -0.259 N 
ATOM      9  O   UNL     1      -4.073  -0.052   2.648  0.00  0.00    -0.275 OA
BRANCH   8  10
ATOM     10  C   UNL     1      -4.133   0.428  -0.187  0.00  0.00    +0.054 A 
ATOM     11  C   UNL     1      -4.322   1.627  -0.820  0.00  0.00    +0.015 A 
ATOM     12  C   UNL     1      -4.965   1.638  -2.051  0.00  0.00    +0.001 A 
ATOM     13  C   UNL     1      -5.459   0.478  -2.630  0.00  0.00    +0.000 A 
ATOM     14  C   UNL     1      -5.489  -0.677  -1.858  0.00  0.00    +0.001 A 
ATOM     15  C   UNL     1      -4.946  -0.623  -0.580  0.00  0.00    +0.015 A 
ENDBRANCH   8  10
BRANCH   7  17
ATOM     16  C   UNL     1      -3.137  -2.910   0.992  0.00  0.00    +0.010 C 
ATOM     17  C   UNL     1      -2.806  -1.948   2.097  0.00  0.00    +0.086 C 
ENDBRANCH   7  17
ENDBRANCH   1   8
BRANCH   1  18
ATOM     18  C   UNL     1      -1.738   0.877  -1.295  0.00  0.00    +0.161 C 
BRANCH  18  19
ATOM     19  O   UNL     1      -0.686   0.385  -2.048  0.00  0.00    -0.349 OA
ATOM     20  C   UNL     1      -1.106  -0.788  -2.690  0.00  0.00    +0.174 C 
ENDBRANCH  18  19
ENDBRANCH   1  18
BRANCH   4  21
ATOM     21  C   UNL     1       2.071  -0.193   0.268  0.00  0.00    +0.099 C 
BRANCH  21  22
ATOM     22  C   UNL     1       2.822   0.768  -0.614  0.00  0.00    +0.151 C 
BRANCH  22  23
ATOM     23  N   UNL     1       4.165   0.225  -0.805  0.00  0.00    -0.180 N 
ATOM     24  C   UNL     1       4.918  -0.202   0.236  0.00  0.00    +0.366 A 
ATOM     25  O   UNL     1       4.660  -0.019   1.454  0.00  0.00    -0.243 OA
ATOM     26  N   UNL     1       6.119  -0.586  -0.257  0.00  0.00    -0.182 N 
ATOM     27  N   UNL     1       5.875  -0.833  -1.544  0.00  0.00    -0.042 NA
ATOM     28  N   UNL     1       4.662  -0.403  -1.858  0.00  0.00    -0.042 NA
BRANCH  26  29
ATOM     29  C   UNL     1       7.427  -0.416   0.364  0.00  0.00    +0.134 C 
ATOM     30  C   UNL     1       8.060   0.905  -0.056  0.00  0.00    +0.029 C 
ENDBRANCH  26  29
ENDBRANCH  22  23
ENDBRANCH  21  22
ENDBRANCH   4  21
TORSDOF 9
