REMARK  Name = 
REMARK  6 active torsions:
REMARK  status: ('A' for Active; 'I' for Inactive)
REMARK    1  A    between atoms: C_2  and  C_3
REMARK    2  A    between atoms: C_3  and  N_4
REMARK    3  A    between atoms: N_4  and  C_5
REMARK    4  A    between atoms: N_4  and  C_12
REMARK    5  A    between atoms: C_5  and  C_6
REMARK    6  A    between atoms: C_6  and  C_7
REMARK                            x       y       z     vdW  Elec       q    Type
REMARK                         _______ _______ _______ _____ _____    ______ ____
ROOT
ATOM      1  N   UNL     1       0.597  -1.690  -0.761  0.00  0.00    -0.273 NA
ENDROOT
BRANCH   1   2
ATOM      2  C   UNL     1      -0.525  -0.598  -0.801  0.00  0.00    +0.062 C 
ATOM      3  C   UNL     1      -1.092  -0.910   0.711  0.00  0.00    +0.042 C 
ATOM      4  C   UNL     1      -2.177   0.126   0.763  0.00  0.00    -0.022 A 
ATOM      5  C   UNL     1      -2.951   0.151  -0.393  0.00  0.00    +0.013 A 
ATOM      6  C   UNL     1      -3.978   1.069  -0.459  0.00  0.00    +0.191 A 
ATOM      7  C   UNL     1      -3.804   2.281   0.167  0.00  0.00    +0.042 A 
ATOM      8  C   UNL     1      -2.694   2.457   0.983  0.00  0.00    +0.003 A 
ATOM      9  O   UNL     1      -5.163   0.757  -1.134  0.00  0.00    -0.287 OA
ATOM     10  C   UNL     1      -2.958  -1.042  -1.266  0.00  0.00    +0.031 C 
ATOM     11  C   UNL     1      -1.861   1.382   1.270  0.00  0.00    -0.004 A 
ATOM     12  C   UNL     1      -1.599  -1.630  -1.496  0.00  0.00    +0.021 C 
ENDBRANCH   1   2
BRANCH   1  13
ATOM     13  C   UNL     1       0.496  -2.562   0.263  0.00  0.00    +0.072 C 
BRANCH  13  15
ATOM     14  C   UNL     1       1.198  -2.438   1.886  0.00  0.00    +0.001 C 
ATOM     15  C   UNL     1       1.169  -2.213   1.590  0.00  0.00    +0.017 C 
ENDBRANCH  13  15
ENDBRANCH   1  13
BRANCH   1  16
ATOM     16  C   UNL     1       1.812  -1.099  -1.158  0.00  0.00    +0.077 C 
BRANCH  16  17
ATOM     17  C   UNL     1       2.921  -1.110  -0.162  0.00  0.00    +0.050 C 
BRANCH  17  18
ATOM     18  C   UNL     1       3.559   0.217   0.032  0.00  0.00    +0.009 A 
ATOM     19  S   UNL     1       5.218   0.643  -0.076  0.00  0.00    -0.091 S 
ATOM     20  C   UNL     1       5.084   2.330   0.214  0.00  0.00    +0.035 A 
ATOM     21  C   UNL     1       3.764   2.399   0.648  0.00  0.00    +0.007 A 
ATOM     22  C   UNL     1       2.984   1.482  -0.022  0.00  0.00    +0.003 A 
ENDBRANCH  17  18
ENDBRANCH  16  17
ENDBRANCH   1  16
TORSDOF 6
