REMARK  Name = 
REMARK  8 active torsions:
REMARK  status: ('A' for Active; 'I' for Inactive)
REMARK    1  A    between atoms: C_2  and  O_3
REMARK    2  A    between atoms: O_3  and  C_4
REMARK    3  A    between atoms: C_6  and  C_7
REMARK    4  A    between atoms: C_7  and  C_8
REMARK    5  A    between atoms: C_7  and  N_13
REMARK    6  A    between atoms: C_8  and  S_9
REMARK    7  A    between atoms: C_20  and  N_21
REMARK    8  A    between atoms: C_30  and  O_31
REMARK                            x       y       z     vdW  Elec       q    Type
REMARK                         _______ _______ _______ _____ _____    ______ ____
ROOT
ATOM      1  C   UNL     1      -0.790   0.364  -1.329  0.00  0.00    +0.129 C 
ENDROOT
BRANCH   1   2
ATOM      2  N   UNL     1       0.445   1.161  -0.762  0.00  0.00    -0.219 N 
ATOM      3  C   UNL     1       1.699   0.664  -1.269  0.00  0.00    +0.257 C 
ATOM      4  O   UNL     1       1.920   0.032  -2.344  0.00  0.00    -0.269 OA
ATOM      5  C   UNL     1       2.675   0.609  -0.170  0.00  0.00    +0.074 A 
ATOM      6  C   UNL     1       2.176   1.534   0.741  0.00  0.00    +0.060 A 
ATOM      7  C   UNL     1       2.925   1.761   1.879  0.00  0.00    +0.005 A 
ATOM      8  C   UNL     1       4.093   1.036   2.075  0.00  0.00    +0.001 A 
ATOM      9  C   UNL     1       4.332  -0.146   1.385  0.00  0.00    +0.017 A 
ATOM     10  C   UNL     1       3.763  -0.209   0.118  0.00  0.00    +0.078 A 
ATOM     11  C   UNL     1       0.715   1.459   0.562  0.00  0.00    +0.255 C 
ATOM     12  O   UNL     1      -0.191   1.908   1.310  0.00  0.00    -0.269 OA
BRANCH  10  13
ATOM     13  N   UNL     1       4.329  -1.004  -0.919  0.00  0.00    -0.179 NA
ATOM     14  C   UNL     1       4.284  -2.433  -0.816  0.00  0.00    +0.246 C 
ATOM     15  O   UNL     1       3.115  -2.873  -0.597  0.00  0.00    -0.273 OA
ATOM     16  C   UNL     1       5.243  -3.307  -1.561  0.00  0.00    +0.097 C 
ENDBRANCH  10  13
ENDBRANCH   1   2
BRANCH   1  21
ATOM     17  C   UNL     1      -3.512  -0.934   0.967  0.00  0.00    +0.172 A 
ATOM     18  C   UNL     1      -2.776  -1.469   2.020  0.00  0.00    +0.172 A 
ATOM     19  C   UNL     1      -1.389  -1.520   1.911  0.00  0.00    +0.040 A 
ATOM     20  C   UNL     1      -0.779  -1.030   0.761  0.00  0.00    +0.001 A 
ATOM     21  C   UNL     1      -1.449   0.003   0.110  0.00  0.00    +0.001 A 
ATOM     22  C   UNL     1      -2.821  -0.117   0.107  0.00  0.00    +0.037 A 
BRANCH  18  23
ATOM     23  O   UNL     1      -3.451  -1.962   3.116  0.00  0.00    -0.468 OA
ATOM     24  C   UNL     1      -4.096  -3.205   3.007  0.00  0.00    +0.253 C 
ENDBRANCH  18  23
BRANCH  17  25
ATOM     25  O   UNL     1      -4.744  -1.511   0.640  0.00  0.00    -0.472 OA
BRANCH  25  27
ATOM     26  C   UNL     1      -5.117  -2.282  -1.621  0.00  0.00    +0.051 C 
ATOM     27  C   UNL     1      -4.687  -2.641  -0.228  0.00  0.00    +0.206 C 
ENDBRANCH  25  27
ENDBRANCH  17  25
ENDBRANCH   1  21
BRANCH   1  28
ATOM     28  C   UNL     1      -1.760   1.665  -1.513  0.00  0.00    +0.176 C 
BRANCH  28  29
ATOM     29  S   UNL     1      -1.084   3.129  -1.835  0.00  0.00    -0.006 S 
ATOM     30  O   UNL     1      -1.474   3.629  -3.217  0.00  0.00    -0.173 OA
ATOM     31  O   UNL     1       0.366   3.400  -1.766  0.00  0.00    -0.173 OA
ATOM     32  C   UNL     1      -1.958   4.288  -0.762  0.00  0.00    +0.176 C 
ENDBRANCH  28  29
ENDBRANCH   1  28
TORSDOF 8
