REMARK  Name = 
REMARK  3 active torsions:
REMARK  status: ('A' for Active; 'I' for Inactive)
REMARK    1  A    between atoms: C_2  and  O_4
REMARK    2  A    between atoms: O_4  and  C_5
REMARK    3  A    between atoms: C_5  and  C_6
REMARK                            x       y       z     vdW  Elec       q    Type
REMARK                         _______ _______ _______ _____ _____    ______ ____
ROOT
ATOM      1  C   UNL     1      -2.888   0.428   0.196  0.00  0.00    +0.186 C 
ATOM      2  C   UNL     1      -1.535   0.023  -0.194  0.00  0.00    +0.040 C 
ATOM      3  C   UNL     1      -0.584   1.198   0.401  0.00  0.00    +0.004 C 
ATOM      4  C   UNL     1       0.631   0.086   0.760  0.00  0.00    +0.001 C 
ATOM      5  C   UNL     1       1.333   0.524  -0.713  0.00  0.00    +0.003 C 
ATOM      6  C   UNL     1       0.395  -0.519  -1.535  0.00  0.00    +0.000 C 
ATOM      7  C   UNL     1       2.608  -0.454  -0.549  0.00  0.00    +0.016 C 
ATOM      8  C   UNL     1       3.337  -0.059   0.669  0.00  0.00    -0.042 C 
ATOM      9  C   UNL     1       4.505  -0.688   0.834  0.00  0.00    +0.029 C 
ATOM     10  C   UNL     1       5.353  -0.720  -0.368  0.00  0.00    +0.173 C 
ATOM     11  C   UNL     1       4.877   0.238  -1.417  0.00  0.00    +0.069 C 
ATOM     12  O   UNL     1       6.601  -0.858  -0.287  0.00  0.00    -0.291 OA
ATOM     13  C   UNL     1       2.522  -0.157   2.049  0.00  0.00    +0.018 C 
ATOM     14  C   UNL     1       3.562   0.826   2.841  0.00  0.00    +0.004 C 
ATOM     15  C   UNL     1       2.274  -1.858  -0.699  0.00  0.00    +0.004 C 
ATOM     16  C   UNL     1       3.435  -0.004  -1.720  0.00  0.00    +0.012 C 
ATOM     17  C   UNL     1       1.546   1.092   1.613  0.00  0.00    +0.004 C 
ATOM     18  C   UNL     1      -1.402   1.151   1.801  0.00  0.00    +0.004 C 
ATOM     19  C   UNL     1      -1.274  -1.272   0.472  0.00  0.00    +0.004 C 
ATOM     20  C   UNL     1      -1.024   0.049  -1.554  0.00  0.00    +0.004 C 
ATOM     21  C   UNL     1      -2.619   1.692   1.017  0.00  0.00    +0.047 C 
ENDROOT
BRANCH   1  22
ATOM     22  C   UNL     1      -3.492  -0.462   1.252  0.00  0.00    +0.187 C 
ATOM     23  O   UNL     1      -4.056  -0.016   2.252  0.00  0.00    -0.292 OA
ATOM     24  C   UNL     1      -3.835  -1.901   0.982  0.00  0.00    +0.076 C 
ENDBRANCH   1  22
BRANCH   1  25
ATOM     25  O   UNL     1      -3.709   0.616  -0.907  0.00  0.00    -0.449 OA
BRANCH  25  27
ATOM     26  C   UNL     1      -5.859  -0.346  -1.841  0.00  0.00    +0.121 C 
ATOM     27  C   UNL     1      -5.078   0.347  -0.816  0.00  0.00    +0.318 C 
ATOM     28  O   UNL     1      -5.625   1.043   0.096  0.00  0.00    -0.250 OA
ENDBRANCH  25  27
ENDBRANCH   1  25
TORSDOF 3
