REMARK  Name = 
REMARK  5 active torsions:
REMARK  status: ('A' for Active; 'I' for Inactive)
REMARK    1  A    between atoms: C_2  and  C_3
REMARK    2  A    between atoms: C_4  and  C_5
REMARK    3  A    between atoms: C_6  and  C_8
REMARK    4  A    between atoms: C_9  and  C_10
REMARK    5  A    between atoms: C_19  and  C_20
REMARK                            x       y       z     vdW  Elec       q    Type
REMARK                         _______ _______ _______ _____ _____    ______ ____
ROOT
ATOM      1  C   UNL     1       0.905  -0.303  -1.332  0.00  0.00    -0.004 C 
ATOM      2  C   UNL     1       0.089  -1.357  -1.260  0.00  0.00    -0.022 C 
ATOM      3  C   UNL     1      -0.252  -2.070  -2.532  0.00  0.00    +0.031 C 
ENDROOT
BRANCH   1   5
ATOM      4  C   UNL     1       2.711  -0.784   0.254  0.00  0.00    -0.004 C 
ATOM      5  C   UNL     1       1.696  -0.042  -0.120  0.00  0.00    -0.001 C 
BRANCH   4   7
ATOM      6  C   UNL     1       5.119  -1.356   0.662  0.00  0.00    +0.031 C 
ATOM      7  C   UNL     1       4.048  -0.317   0.537  0.00  0.00    -0.015 C 
ATOM      8  C   UNL     1       4.469   0.926   0.343  0.00  0.00    +0.082 C 
BRANCH   8   9
ATOM      9  C   UNL     1       5.699   1.235  -0.398  0.00  0.00    +0.388 C 
ATOM     10  O   UNL     1       6.917   0.646  -0.106  0.00  0.00    -0.241 OA
ATOM     11  O   UNL     1       5.595   1.814  -1.522  0.00  0.00    -0.241 OA
ENDBRANCH   8   9
ENDBRANCH   4   7
ENDBRANCH   1   5
BRANCH   2  12
ATOM     12  C   UNL     1      -0.871  -1.271  -0.148  0.00  0.00    -0.005 C 
ATOM     13  C   UNL     1      -1.459  -0.151   0.202  0.00  0.00    -0.005 C 
BRANCH  13  14
ATOM     14  C   UNL     1      -2.908  -0.009   0.386  0.00  0.00    -0.031 C 
ATOM     15  C   UNL     1      -3.408   1.398   0.454  0.00  0.00    +0.018 C 
ATOM     16  C   UNL     1      -2.959   2.100  -0.809  0.00  0.00    +0.004 C 
ATOM     17  C   UNL     1      -2.826   2.076   1.688  0.00  0.00    +0.004 C 
ATOM     18  C   UNL     1      -4.905   1.468   0.580  0.00  0.00    +0.004 C 
ATOM     19  C   UNL     1      -5.533   0.387  -0.279  0.00  0.00    +0.005 C 
ATOM     20  C   UNL     1      -5.206  -0.932   0.380  0.00  0.00    +0.022 C 
ATOM     21  C   UNL     1      -3.718  -1.055   0.365  0.00  0.00    -0.048 C 
ATOM     22  C   UNL     1      -3.204  -2.403  -0.035  0.00  0.00    +0.026 C 
ENDBRANCH  13  14
ENDBRANCH   2  12
TORSDOF 5
