REMARK  Name = 
REMARK  8 active torsions:
REMARK  status: ('A' for Active; 'I' for Inactive)
REMARK    1  A    between atoms: C_2  and  N_4
REMARK    2  A    between atoms: N_7  and  C_8
REMARK    3  A    between atoms: C_11  and  O_12
REMARK    4  A    between atoms: O_12  and  C_13
REMARK    5  A    between atoms: C_13  and  C_14
REMARK    6  A    between atoms: C_17  and  C_18
REMARK    7  A    between atoms: C_17  and  C_24
REMARK    8  A    between atoms: C_18  and  N_19
REMARK                            x       y       z     vdW  Elec       q    Type
REMARK                         _______ _______ _______ _____ _____    ______ ____
ROOT
ATOM      1  C   UNL     1      -0.997   0.811  -1.776  0.00  0.00    +0.191 C 
ATOM      2  O   UNL     1      -2.031   0.929  -0.638  0.00  0.00    -0.325 OA
ATOM      3  C   UNL     1      -2.879  -0.067  -0.865  0.00  0.00    +0.231 C 
ATOM      4  O   UNL     1      -2.750  -0.659  -2.087  0.00  0.00    -0.327 OA
ATOM      5  C   UNL     1      -2.167   0.289  -2.861  0.00  0.00    +0.178 C 
ENDROOT
BRANCH   3   6
ATOM      6  C   UNL     1      -4.262   0.511  -0.864  0.00  0.00    +0.041 A 
ATOM      7  C   UNL     1      -5.317  -0.346  -1.133  0.00  0.00    +0.059 A 
ATOM      8 CL   UNL     1      -4.993  -1.817  -2.001  0.00  0.00    -0.082 Cl
ATOM      9  C   UNL     1      -6.570   0.110  -0.819  0.00  0.00    +0.023 A 
ATOM     10  C   UNL     1      -6.783   1.380  -0.310  0.00  0.00    +0.058 A 
ATOM     11 CL   UNL     1      -8.150   1.700   0.751  0.00  0.00    -0.082 Cl
ATOM     12  C   UNL     1      -5.777   2.297  -0.521  0.00  0.00    +0.011 A 
ATOM     13  C   UNL     1      -4.489   1.868  -0.680  0.00  0.00    +0.002 A 
ENDBRANCH   3   6
BRANCH   3  14
ATOM     14  C   UNL     1      -2.898  -1.194   0.143  0.00  0.00    +0.190 C 
BRANCH  14  15
ATOM     15  N   UNL     1      -3.852  -0.990   1.201  0.00  0.00    -0.225 N 
ATOM     16  N   UNL     1      -4.259  -2.040   1.916  0.00  0.00    -0.145 NA
ATOM     17  C   UNL     1      -4.789  -1.609   3.054  0.00  0.00    +0.221 A 
ATOM     18  N   UNL     1      -4.675  -0.282   3.103  0.00  0.00    -0.201 NA
ATOM     19  C   UNL     1      -3.825   0.026   2.093  0.00  0.00    +0.197 A 
ENDBRANCH  14  15
ENDBRANCH   3  14
BRANCH   1  20
ATOM     20  C   UNL     1      -0.591  -0.759  -1.323  0.00  0.00    +0.237 C 
BRANCH  20  21
ATOM     21  O   UNL     1       0.037  -0.412  -0.100  0.00  0.00    -0.473 OA
BRANCH  21  25
ATOM     22  C   UNL     1       4.063  -0.352   0.512  0.00  0.00    +0.048 A 
ATOM     23  C   UNL     1       3.242   0.323   1.404  0.00  0.00    +0.018 A 
ATOM     24  C   UNL     1       1.870   0.155   1.261  0.00  0.00    +0.038 A 
ATOM     25  C   UNL     1       1.357  -0.585   0.201  0.00  0.00    +0.139 A 
ATOM     26  C   UNL     1       2.171  -1.460  -0.461  0.00  0.00    +0.038 A 
ATOM     27  C   UNL     1       3.524  -1.430  -0.177  0.00  0.00    +0.018 A 
BRANCH  22  31
ATOM     28  N   UNL     1       8.015   0.667  -0.435  0.00  0.00    -0.271 NA
ATOM     29  C   UNL     1       7.141   1.677   0.086  0.00  0.00    +0.094 C 
ATOM     30  C   UNL     1       5.678   1.408  -0.252  0.00  0.00    +0.108 C 
ATOM     31  N   UNL     1       5.396   0.068   0.237  0.00  0.00    -0.305 N 
ATOM     32  C   UNL     1       6.330  -0.980  -0.146  0.00  0.00    +0.108 C 
ATOM     33  C   UNL     1       7.274  -0.358  -1.168  0.00  0.00    +0.094 C 
BRANCH  28  35
ATOM     34  C   UNL     1       9.034  -1.466   0.163  0.00  0.00    +0.017 C 
ATOM     35  C   UNL     1       8.792  -0.017   0.563  0.00  0.00    +0.058 C 
ATOM     36  C   UNL     1       8.130  -0.026   1.928  0.00  0.00    +0.017 C 
ENDBRANCH  28  35
ENDBRANCH  22  31
ENDBRANCH  21  25
ENDBRANCH  20  21
ENDBRANCH   1  20
TORSDOF 8
