REMARK  Name = 
REMARK  3 active torsions:
REMARK  status: ('A' for Active; 'I' for Inactive)
REMARK    1  A    between atoms: C_2  and  O_3
REMARK    2  A    between atoms: C_2  and  C_16
REMARK    3  A    between atoms: O_3  and  C_4
REMARK                            x       y       z     vdW  Elec       q    Type
REMARK                         _______ _______ _______ _____ _____    ______ ____
ROOT
ATOM      1  O   UNL     1       0.237  -1.154   0.238  0.00  0.00    -0.449 OA
ENDROOT
BRANCH   1   2
ATOM      2  C   UNL     1      -0.848  -0.063   0.334  0.00  0.00    +0.172 C 
ATOM      3  C   UNL     1      -1.680  -0.914   1.444  0.00  0.00    +0.060 C 
ATOM      4  C   UNL     1      -3.133  -0.188   1.513  0.00  0.00    +0.062 C 
ATOM      5  N   UNL     1      -2.973   0.921   0.416  0.00  0.00    -0.269 NA
ATOM      6  C   UNL     1      -2.666   0.562  -1.066  0.00  0.00    +0.062 C 
ATOM      7  C   UNL     1      -3.985  -0.380  -1.565  0.00  0.00    +0.024 C 
ATOM      8  C   UNL     1      -3.949  -0.007  -0.018  0.00  0.00    +0.062 C 
ATOM      9  C   UNL     1      -5.413   0.584   0.265  0.00  0.00    +0.166 C 
ATOM     10  O   UNL     1      -6.141   0.730  -0.679  0.00  0.00    -0.295 OA
ATOM     11  C   UNL     1      -4.282   1.663   0.472  0.00  0.00    +0.137 C 
ATOM     12  C   UNL     1      -3.964  -1.429   0.713  0.00  0.00    +0.024 C 
ATOM     13  C   UNL     1      -1.760  -0.785  -0.825  0.00  0.00    +0.060 C 
ENDBRANCH   1   2
BRANCH   1  15
ATOM     14  O   UNL     1       1.302   0.049   1.198  0.00  0.00    -0.245 OA
ATOM     15  C   UNL     1       1.376  -0.650   0.876  0.00  0.00    +0.343 C 
BRANCH  15  16
ATOM     16  C   UNL     1       2.738  -0.926   0.408  0.00  0.00    +0.096 A 
ATOM     17  C   UNL     1       3.674   0.080   0.202  0.00  0.00    +0.025 A 
ATOM     18  C   UNL     1       4.807  -0.421  -0.404  0.00  0.00    +0.082 A 
ATOM     19  C   UNL     1       5.657   0.502  -0.952  0.00  0.00    +0.019 A 
ATOM     20  C   UNL     1       5.341   1.851  -1.047  0.00  0.00    +0.002 A 
ATOM     21  C   UNL     1       4.244   2.353  -0.393  0.00  0.00    +0.000 A 
ATOM     22  N   UNL     1       4.616  -1.750  -0.437  0.00  0.00    -0.244 NA
ATOM     23  C   UNL     1       3.431   1.444   0.238  0.00  0.00    +0.002 A 
ATOM     24  C   UNL     1       3.372  -2.069   0.000  0.00  0.00    +0.105 A 
ENDBRANCH  15  16
ENDBRANCH   1  15
TORSDOF 3
