REMARK  Name = 
REMARK  6 active torsions:
REMARK  status: ('A' for Active; 'I' for Inactive)
REMARK    1  A    between atoms: C_2  and  N_4
REMARK    2  A    between atoms: C_11  and  O_12
REMARK    3  A    between atoms: O_12  and  C_13
REMARK    4  A    between atoms: C_13  and  C_15
REMARK    5  A    between atoms: C_15  and  C_16
REMARK    6  A    between atoms: C_15  and  C_18
REMARK                            x       y       z     vdW  Elec       q    Type
REMARK                         _______ _______ _______ _____ _____    ______ ____
ROOT
ATOM      1  N   UNL     1       3.309   0.244  -0.093  0.00  0.00    +0.289 N 
ATOM      2  C   UNL     1       3.610  -1.252  -0.135  0.00  0.00    +0.062 C 
ATOM      3  C   UNL     1       2.092  -1.858  -0.334  0.00  0.00    +0.099 C 
ATOM      4  C   UNL     1       1.372  -0.735  -1.272  0.00  0.00    +0.180 C 
ATOM      5  C   UNL     1       0.945   0.284  -0.072  0.00  0.00    +0.099 C 
ATOM      6  C   UNL     1       3.530  -1.333   1.514  0.00  0.00    +0.061 C 
ATOM      7  C   UNL     1       2.105  -1.015   1.589  0.00  0.00    +0.061 C 
ATOM      8  C   UNL     1       2.199   0.495   0.946  0.00  0.00    +0.062 C 
ATOM      9  C   UNL     1       4.436   0.728   0.724  0.00  0.00    +0.170 C 
ENDROOT
BRANCH   1  11
ATOM     10  C   UNL     1       3.026   2.124  -0.735  0.00  0.00    +0.061 C 
ATOM     11  C   UNL     1       3.209   1.007  -1.164  0.00  0.00    +0.058 C 
ATOM     12  C   UNL     1       4.115   1.075  -2.272  0.00  0.00    +0.061 C 
ENDBRANCH   1  11
BRANCH   4  13
ATOM     13  O   UNL     1       0.038  -1.516  -1.161  0.00  0.00    -0.452 OA
BRANCH  13  14
ATOM     14  C   UNL     1      -1.073  -0.705  -0.873  0.00  0.00    +0.323 C 
ATOM     15  O   UNL     1      -0.912   0.368  -1.534  0.00  0.00    -0.250 OA
BRANCH  14  16
ATOM     16  C   UNL     1      -2.494  -1.431  -1.022  0.00  0.00    +0.154 C 
BRANCH  16  17
ATOM     17  C   UNL     1      -3.366  -0.101  -0.821  0.00  0.00    -0.009 A 
ATOM     18  C   UNL     1      -3.144   0.982  -1.584  0.00  0.00    -0.004 A 
ATOM     19  C   UNL     1      -3.577   2.229  -1.173  0.00  0.00    -0.000 A 
ATOM     20  C   UNL     1      -4.653   2.184  -0.292  0.00  0.00    -0.000 A 
ATOM     21  C   UNL     1      -5.232   0.960   0.036  0.00  0.00    -0.000 A 
ATOM     22  C   UNL     1      -4.664  -0.242  -0.395  0.00  0.00    -0.004 A 
ENDBRANCH  16  17
BRANCH  16  23
ATOM     23  C   UNL     1      -2.563  -1.823   0.577  0.00  0.00    +0.198 C 
ATOM     24  O   UNL     1      -2.305  -0.668   1.275  0.00  0.00    -0.219 OA
ENDBRANCH  16  23
ENDBRANCH  14  16
ENDBRANCH  13  14
ENDBRANCH   4  13
TORSDOF 6
