REMARK  Name = 
REMARK  1 active torsions:
REMARK  status: ('A' for Active; 'I' for Inactive)
REMARK    1  A    between atoms: C_10  and  C_11
REMARK                            x       y       z     vdW  Elec       q    Type
REMARK                         _______ _______ _______ _____ _____    ______ ____
ROOT
ATOM      1  C   UNL     1      -3.570   0.037   0.972  0.00  0.00    +0.120 C 
ATOM      2  N   UNL     1      -2.503   0.391   0.148  0.00  0.00    -0.253 N 
ATOM      3  C   UNL     1      -1.990   1.731   0.275  0.00  0.00    +0.284 C 
ATOM      4  O   UNL     1      -2.942   2.538   0.483  0.00  0.00    -0.270 OA
ATOM      5  C   UNL     1      -1.197   2.282  -1.088  0.00  0.00    +0.331 C 
ATOM      6  O   UNL     1      -0.934   3.674  -0.427  0.00  0.00    -0.186 OA
ATOM      7  N   UNL     1       0.221   1.708  -0.544  0.00  0.00    -0.233 NA
ATOM      8  C   UNL     1       0.501   0.450  -0.728  0.00  0.00    +0.080 C 
ATOM      9  C   UNL     1      -0.369  -0.735  -0.632  0.00  0.00    +0.032 A 
ATOM     10  C   UNL     1       0.343  -1.929  -0.553  0.00  0.00    +0.014 A 
ATOM     11  C   UNL     1      -0.337  -3.059  -0.116  0.00  0.00    +0.058 A 
ATOM     12 CL   UNL     1       0.413  -4.304   0.868  0.00  0.00    -0.082 Cl
ATOM     13  C   UNL     1      -1.706  -3.067  -0.373  0.00  0.00    +0.013 A 
ATOM     14  C   UNL     1      -2.462  -1.900  -0.335  0.00  0.00    +0.016 A 
ATOM     15  C   UNL     1      -1.741  -0.712  -0.374  0.00  0.00    +0.055 A 
ENDROOT
BRANCH   8  16
ATOM     16  C   UNL     1       1.868   0.188  -0.243  0.00  0.00    +0.017 A 
ATOM     17  C   UNL     1       1.997  -0.080   1.116  0.00  0.00    +0.001 A 
ATOM     18  C   UNL     1       3.118   0.410   1.780  0.00  0.00    +0.000 A 
ATOM     19  C   UNL     1       4.260   0.574   1.006  0.00  0.00    +0.000 A 
ATOM     20  C   UNL     1       4.135   0.974  -0.310  0.00  0.00    +0.000 A 
ATOM     21  C   UNL     1       2.896   0.828  -0.922  0.00  0.00    +0.001 A 
ENDBRANCH   8  16
TORSDOF 1
