REMARK  Name = 
REMARK  5 active torsions:
REMARK  status: ('A' for Active; 'I' for Inactive)
REMARK    1  A    between atoms: C_2  and  C_3
REMARK    2  A    between atoms: C_3  and  C_4
REMARK    3  A    between atoms: C_4  and  C_5
REMARK    4  A    between atoms: C_5  and  C_6
REMARK    5  A    between atoms: C_6  and  C_7
REMARK                            x       y       z     vdW  Elec       q    Type
REMARK                         _______ _______ _______ _____ _____    ______ ____
ROOT
ATOM      1  C   UNL     1       0.347  -1.556  -0.160  0.00  0.00    +0.012 C 
ENDROOT
BRANCH   1   2
ATOM      2  C   UNL     1      -1.047  -1.079   0.137  0.00  0.00    +0.002 C 
BRANCH   2   3
ATOM      3  C   UNL     1      -1.415   0.124  -0.718  0.00  0.00    +0.021 C 
BRANCH   3   5
ATOM      4  N   UNL     1      -3.652   0.331   0.066  0.00  0.00    -0.131 NA
ATOM      5  C   UNL     1      -2.360   1.013   0.083  0.00  0.00    +0.109 C 
ENDBRANCH   3   5
ENDBRANCH   2   3
ENDBRANCH   1   2
BRANCH   1   6
ATOM      6  C   UNL     1       1.285  -0.829   0.796  0.00  0.00    +0.114 C 
BRANCH   6   7
ATOM      7  C   UNL     1       2.052   0.244   0.092  0.00  0.00    +0.365 C 
ATOM      8  O   UNL     1       3.328   0.509   0.598  0.00  0.00    -0.246 OA
ATOM      9  O   UNL     1       1.462   1.244  -0.419  0.00  0.00    -0.246 OA
ENDBRANCH   6   7
ENDBRANCH   1   6
TORSDOF 5
