REMARK  Name = 
REMARK  0 active torsions:
REMARK  status: ('A' for Active; 'I' for Inactive)
REMARK                            x       y       z     vdW  Elec       q    Type
REMARK                         _______ _______ _______ _____ _____    ______ ____
ROOT
ATOM      1  C   UNL     1      -2.785  -1.145   0.122  0.00  0.00    +0.221 C 
ATOM      2  N   UNL     1      -1.803  -0.139  -0.185  0.00  0.00    -0.222 N 
ATOM      3  C   UNL     1      -0.531  -0.088   0.476  0.00  0.00    +0.474 C 
ATOM      4  N   UNL     1       0.576  -0.665  -0.200  0.00  0.00    +0.011 NA
ATOM      5  C   UNL     1       1.893  -0.135  -0.157  0.00  0.00    +0.544 C 
ATOM      6  N   UNL     1       3.048  -0.887  -0.505  0.00  0.00    +0.136 NA
ATOM      7  N   UNL     1       2.050   1.086   0.266  0.00  0.00    +0.136 NA
ATOM      8  N   UNL     1      -0.313   0.955   1.197  0.00  0.00    +0.129 NA
ATOM      9  C   UNL     1      -2.136   1.018  -1.014  0.00  0.00    +0.221 C 
ENDROOT
TORSDOF 0
