REMARK  Name = 
REMARK  7 active torsions:
REMARK  status: ('A' for Active; 'I' for Inactive)
REMARK    1  A    between atoms: C_2  and  C_5
REMARK    2  A    between atoms: C_35  and  C_36
REMARK    3  A    between atoms: N_38  and  C_39
REMARK    4  A    between atoms: C_39  and  C_40
REMARK    5  A    between atoms: N_42  and  S_43
REMARK    6  A    between atoms: S_43  and  C_46
REMARK    7  A    between atoms: C_51  and  C_52
REMARK                            x       y       z     vdW  Elec       q    Type
REMARK                         _______ _______ _______ _____ _____    ______ ____
ROOT
ATOM      1  C   UNL     1      -1.063  -2.833   0.341  0.00  0.00    +0.174 C 
ATOM      2  C   UNL     1       0.065  -1.980  -0.435  0.00  0.00    +0.246 C 
ATOM      3  O   UNL     1       0.757  -2.500  -1.286  0.00  0.00    -0.273 OA
ATOM      4  N   UNL     1      -0.133  -0.588  -0.218  0.00  0.00    -0.268 N 
ATOM      5  C   UNL     1      -1.444  -0.106  -0.660  0.00  0.00    +0.137 C 
ATOM      6  C   UNL     1      -1.571   1.266   0.242  0.00  0.00    +0.189 C 
ATOM      7  C   UNL     1       0.015   1.654   0.111  0.00  0.00    +0.075 C 
ATOM      8  O   UNL     1      -1.943   2.121  -0.986  0.00  0.00    -0.461 OA
ATOM      9  C   UNL     1      -2.829   3.128  -0.554  0.00  0.00    +0.244 A 
ATOM     10  C   UNL     1      -3.620   2.908   0.569  0.00  0.00    +0.176 A 
ATOM     11  N   UNL     1      -4.284   4.048   0.925  0.00  0.00    -0.238 NA
ATOM     12  C   UNL     1      -4.442   5.120   0.174  0.00  0.00    +0.099 A 
ATOM     13  C   UNL     1      -3.860   5.142  -1.056  0.00  0.00    +0.102 A 
ATOM     14  C   UNL     1      -4.474   5.897  -2.060  0.00  0.00    +0.021 A 
ATOM     15  C   UNL     1      -5.595   6.663  -1.755  0.00  0.00    +0.002 A 
ATOM     16  C   UNL     1      -5.686   7.058  -0.425  0.00  0.00    +0.002 A 
ATOM     17  C   UNL     1      -5.145   6.254   0.572  0.00  0.00    +0.021 A 
ATOM     18  C   UNL     1      -4.031   1.623   0.913  0.00  0.00    +0.321 C 
ATOM     19  F   UNL     1      -4.697   1.993   2.142  0.00  0.00    -0.193 F 
ATOM     20  F   UNL     1      -3.862   0.526   1.468  0.00  0.00    -0.193 F 
ATOM     21  C   UNL     1      -5.165   1.306  -0.049  0.00  0.00    +0.043 C 
ATOM     22  C   UNL     1      -5.129   0.540  -1.073  0.00  0.00    +0.007 C 
ATOM     23  C   UNL     1      -5.535  -0.848  -1.298  0.00  0.00    +0.168 C 
ATOM     24  O   UNL     1      -4.462  -1.722  -1.403  0.00  0.00    -0.348 OA
ATOM     25  C   UNL     1      -4.940  -3.067  -0.922  0.00  0.00    +0.156 C 
ATOM     26  C   UNL     1      -3.503  -3.327  -0.025  0.00  0.00    +0.197 C 
ATOM     27  C   UNL     1      -4.315  -4.310   0.997  0.00  0.00    +0.046 C 
ATOM     28  C   UNL     1      -5.453  -3.474   1.419  0.00  0.00    +0.006 C 
ATOM     29  O   UNL     1      -3.091  -4.504  -0.909  0.00  0.00    -0.435 OA
ATOM     30  C   UNL     1      -1.908  -5.088  -0.436  0.00  0.00    +0.421 C 
ATOM     31  O   UNL     1      -1.611  -6.303  -0.636  0.00  0.00    -0.225 OA
ATOM     32  C   UNL     1      -5.650  -2.424   0.405  0.00  0.00    +0.033 C 
ATOM     33  N   UNL     1      -2.897   4.254  -1.307  0.00  0.00    -0.209 NA
ATOM     34  C   UNL     1       0.453   0.599  -1.062  0.00  0.00    +0.157 C 
ATOM     35  N   UNL     1      -0.791  -4.193  -0.411  0.00  0.00    -0.161 NA
ENDROOT
BRANCH   1  37
ATOM     36  C   UNL     1       0.019  -2.352   2.310  0.00  0.00    +0.002 C 
ATOM     37  C   UNL     1      -0.038  -3.234   1.567  0.00  0.00    +0.027 C 
ATOM     38  C   UNL     1       1.231  -3.696   0.924  0.00  0.00    +0.002 C 
ATOM     39  C   UNL     1      -0.634  -4.459   2.223  0.00  0.00    +0.002 C 
ENDBRANCH   1  37
BRANCH  34  40
ATOM     40  C   UNL     1       1.952   0.427  -0.473  0.00  0.00    +0.260 C 
ATOM     41  N   UNL     1       2.774  -0.377  -1.346  0.00  0.00    -0.198 NA
ATOM     42  O   UNL     1       2.543   1.550  -0.325  0.00  0.00    -0.272 OA
BRANCH  41  43
ATOM     43  C   UNL     1       4.127  -0.685  -0.976  0.00  0.00    +0.155 C 
ATOM     44  C   UNL     1       4.338  -2.299  -0.727  0.00  0.00    +0.096 C 
ATOM     45  C   UNL     1       4.729  -1.627  -2.191  0.00  0.00    +0.037 C 
BRANCH  43  46
ATOM     46  C   UNL     1       5.106   0.252  -0.622  0.00  0.00    +0.280 C 
ATOM     47  N   UNL     1       5.611   0.464   0.701  0.00  0.00    -0.062 NA
ATOM     48  O   UNL     1       5.634   0.998  -1.513  0.00  0.00    -0.270 OA
BRANCH  47  49
ATOM     49  S   UNL     1       6.979   1.448   1.018  0.00  0.00    +0.072 S 
ATOM     50  O   UNL     1       6.834   2.733   0.242  0.00  0.00    -0.153 OA
ATOM     51  O   UNL     1       6.986   1.768   2.489  0.00  0.00    -0.153 OA
BRANCH  49  52
ATOM     52  C   UNL     1       8.473   0.665   0.496  0.00  0.00    +0.131 C 
ATOM     53  C   UNL     1       9.066   1.144  -0.858  0.00  0.00    +0.026 C 
ATOM     54  C   UNL     1       9.755   1.389   0.499  0.00  0.00    +0.026 C 
ATOM     55  C   UNL     1       8.459  -0.855   0.580  0.00  0.00    +0.026 C 
ENDBRANCH  49  52
ENDBRANCH  47  49
ENDBRANCH  43  46
BRANCH  44  56
ATOM     56  C   UNL     1       5.885  -2.215  -0.104  0.00  0.00    +0.321 C 
ATOM     57  F   UNL     1       5.581  -2.527   1.217  0.00  0.00    -0.198 F 
ATOM     58  F   UNL     1       6.427  -3.344  -0.665  0.00  0.00    -0.198 F 
ENDBRANCH  44  56
ENDBRANCH  41  43
ENDBRANCH  34  40
TORSDOF 7
