REMARK  Name = 
REMARK  4 active torsions:
REMARK  status: ('A' for Active; 'I' for Inactive)
REMARK    1  A    between atoms: C_2  and  C_3
REMARK    2  A    between atoms: C_2  and  C_8
REMARK    3  A    between atoms: C_3  and  C_4
REMARK    4  A    between atoms: C_4  and  C_5
REMARK                            x       y       z     vdW  Elec       q    Type
REMARK                         _______ _______ _______ _____ _____    ______ ____
ROOT
ATOM      1  C   UNL     1       2.704  -0.753  -0.609  0.00  0.00    +0.002 C 
ATOM      2  C   UNL     1       1.250  -0.643   0.044  0.00  0.00    +0.028 C 
ATOM      3  C   UNL     1       0.457  -0.267  -1.296  0.00  0.00    +0.002 C 
ATOM      4  C   UNL     1      -1.054  -0.587  -0.656  0.00  0.00    +0.000 C 
ATOM      5  C   UNL     1      -1.202   0.801   0.304  0.00  0.00    +0.003 C 
ATOM      6  C   UNL     1      -0.304   0.233   1.533  0.00  0.00    +0.033 C 
ATOM      7  C   UNL     1      -2.645   0.264   0.754  0.00  0.00    +0.000 C 
ATOM      8  C   UNL     1      -3.610   1.115  -0.245  0.00  0.00    +0.003 C 
ATOM      9  C   UNL     1      -4.841   0.054  -0.092  0.00  0.00    +0.033 C 
ATOM     10  C   UNL     1      -5.556   0.567   1.295  0.00  0.00    +0.152 C 
ATOM     11  C   UNL     1      -4.391  -0.101   2.250  0.00  0.00    +0.033 C 
ATOM     12  O   UNL     1      -6.406  -0.696   1.368  0.00  0.00    -0.223 OA
ATOM     13  C   UNL     1      -3.150   0.394  -1.626  0.00  0.00    +0.000 C 
ATOM     14  C   UNL     1      -2.869  -1.153   0.644  0.00  0.00    +0.000 C 
ATOM     15  C   UNL     1      -3.136   0.754   2.030  0.00  0.00    +0.003 C 
ATOM     16  C   UNL     1      -1.736   0.295  -1.818  0.00  0.00    +0.000 C 
ATOM     17  C   UNL     1       0.734  -1.793  -1.769  0.00  0.00    +0.000 C 
ATOM     18  C   UNL     1       0.865  -1.746   0.794  0.00  0.00    +0.003 C 
ATOM     19  C   UNL     1       1.113   0.764   0.824  0.00  0.00    +0.152 C 
ATOM     20  O   UNL     1       1.978   0.258   1.965  0.00  0.00    -0.223 OA
ATOM     21  C   UNL     1       2.199  -1.934  -1.601  0.00  0.00    +0.000 C 
ENDROOT
BRANCH   1  23
ATOM     22  C   UNL     1       3.392  -0.192  -2.860  0.00  0.00    +0.000 C 
ATOM     23  C   UNL     1       2.419   0.481  -1.754  0.00  0.00    +0.001 C 
BRANCH  23  24
ATOM     24  C   UNL     1       3.588   1.418  -1.143  0.00  0.00    +0.012 C 
BRANCH  24  25
ATOM     25  C   UNL     1       4.801   0.585  -0.960  0.00  0.00    +0.114 C 
BRANCH  25  26
ATOM     26  C   UNL     1       5.124   0.395   0.479  0.00  0.00    +0.365 C 
ATOM     27  O   UNL     1       4.310   0.853   1.491  0.00  0.00    -0.246 OA
ATOM     28  O   UNL     1       5.965  -0.537   0.654  0.00  0.00    -0.246 OA
ENDBRANCH  25  26
ENDBRANCH  24  25
ENDBRANCH  23  24
ENDBRANCH   1  23
TORSDOF 4
