REMARK  Name = 
REMARK  2 active torsions:
REMARK  status: ('A' for Active; 'I' for Inactive)
REMARK    1  A    between atoms: N_6  and  C_7
REMARK    2  A    between atoms: C_10  and  C_11
REMARK                            x       y       z     vdW  Elec       q    Type
REMARK                         _______ _______ _______ _____ _____    ______ ____
ROOT
ATOM      1  N   UNL     1      -4.330   0.001   0.107  0.00  0.00    -0.105 NA
ATOM      2  C   UNL     1      -3.182  -0.011   0.168  0.00  0.00    +0.203 A 
ATOM      3  C   UNL     1      -2.472   1.095  -0.292  0.00  0.00    +0.192 A 
ATOM      4  F   UNL     1      -3.105   2.298  -0.414  0.00  0.00    -0.200 F 
ATOM      5  C   UNL     1      -1.150   0.969  -0.705  0.00  0.00    +0.115 A 
ATOM      6  N   UNL     1      -0.493  -0.089  -0.169  0.00  0.00    -0.253 N 
ATOM      7  C   UNL     1      -1.108  -1.175   0.174  0.00  0.00    +0.353 A 
ATOM      8  O   UNL     1      -0.384  -2.064   0.709  0.00  0.00    -0.244 OA
ATOM      9  N   UNL     1      -2.433  -1.108   0.438  0.00  0.00    -0.172 NA
ENDROOT
BRANCH   6  10
ATOM     10  C   UNL     1       0.932  -0.152  -0.851  0.00  0.00    +0.220 C 
ATOM     11  O   UNL     1       1.577   0.531   0.354  0.00  0.00    -0.323 OA
ATOM     12  C   UNL     1       2.876   0.643  -0.339  0.00  0.00    +0.198 C 
ATOM     13  S   UNL     1       3.144  -1.257  -0.178  0.00  0.00    -0.105 S 
ATOM     14  C   UNL     1       1.357  -1.635  -0.243  0.00  0.00    +0.114 C 
BRANCH  12  15
ATOM     15  C   UNL     1       3.712   0.987   0.987  0.00  0.00    +0.223 C 
ATOM     16  O   UNL     1       5.060   0.965   0.593  0.00  0.00    -0.217 OA
ENDBRANCH  12  15
ENDBRANCH   6  10
TORSDOF 2
