REMARK  Name = 
REMARK  6 active torsions:
REMARK  status: ('A' for Active; 'I' for Inactive)
REMARK    1  A    between atoms: O_2  and  C_3
REMARK    2  A    between atoms: C_6  and  C_7
REMARK    3  A    between atoms: C_7  and  C_9
REMARK    4  A    between atoms: C_9  and  C_10
REMARK    5  A    between atoms: C_10  and  C_12
REMARK    6  A    between atoms: C_15  and  C_16
REMARK                            x       y       z     vdW  Elec       q    Type
REMARK                         _______ _______ _______ _____ _____    ______ ____
ROOT
ATOM      1  C   UNL     1      -0.344   1.211   0.382  0.00  0.00    +0.181 C 
ATOM      2  O   UNL     1       0.129   1.355   1.541  0.00  0.00    -0.291 OA
ENDROOT
BRANCH   1   3
ATOM      3  C   UNL     1      -1.747   0.919   0.188  0.00  0.00    +0.035 A 
ATOM      4  C   UNL     1      -2.186  -0.181  -0.523  0.00  0.00    +0.003 A 
ATOM      5  C   UNL     1      -3.530  -0.531  -0.536  0.00  0.00    -0.004 A 
ATOM      6  C   UNL     1      -4.486   0.254   0.097  0.00  0.00    -0.023 A 
ATOM      7  C   UNL     1      -4.076   1.532   0.446  0.00  0.00    -0.004 A 
ATOM      8  C   UNL     1      -2.724   1.791   0.635  0.00  0.00    +0.003 A 
BRANCH   6   9
ATOM      9  C   UNL     1      -5.693  -0.395   0.656  0.00  0.00    +0.019 C 
ATOM     10  C   UNL     1      -6.522  -1.080  -0.425  0.00  0.00    +0.004 C 
ATOM     11  C   UNL     1      -5.372  -1.350   1.775  0.00  0.00    +0.004 C 
ATOM     12  C   UNL     1      -6.586   0.694   1.235  0.00  0.00    +0.004 C 
ENDBRANCH   6   9
ENDBRANCH   1   3
BRANCH   1  13
ATOM     13  C   UNL     1       0.594   0.876  -0.708  0.00  0.00    +0.138 C 
BRANCH  13  14
ATOM     14  C   UNL     1       1.587  -0.154  -0.319  0.00  0.00    +0.181 C 
ATOM     15  O   UNL     1       1.605  -0.475   0.907  0.00  0.00    -0.291 OA
BRANCH  14  19
ATOM     16  C   UNL     1       5.658  -0.440  -0.843  0.00  0.00    +0.139 A 
ATOM     17  C   UNL     1       4.901  -1.542  -1.222  0.00  0.00    +0.037 A 
ATOM     18  C   UNL     1       3.513  -1.471  -1.210  0.00  0.00    +0.006 A 
ATOM     19  C   UNL     1       2.868  -0.262  -1.026  0.00  0.00    +0.035 A 
ATOM     20  C   UNL     1       3.670   0.867  -1.136  0.00  0.00    +0.006 A 
ATOM     21  C   UNL     1       5.055   0.794  -1.057  0.00  0.00    +0.037 A 
BRANCH  16  23
ATOM     22  C   UNL     1       6.850  -0.962   1.253  0.00  0.00    +0.252 C 
ATOM     23  O   UNL     1       6.836  -0.563  -0.110  0.00  0.00    -0.471 OA
ENDBRANCH  16  23
ENDBRANCH  14  19
ENDBRANCH  13  14
ENDBRANCH   1  13
TORSDOF 6
