REMARK  Name = 
REMARK  14 active torsions:
REMARK  status: ('A' for Active; 'I' for Inactive)
REMARK    1  A    between atoms: O_2  and  C_3
REMARK    2  A    between atoms: C_6  and  C_7
REMARK    3  A    between atoms: C_7  and  C_8
REMARK    4  A    between atoms: C_8  and  N_9
REMARK    5  A    between atoms: N_9  and  C_11
REMARK    6  A    between atoms: C_11  and  C_12
REMARK    7  A    between atoms: C_12  and  C_13
REMARK    8  A    between atoms: C_13  and  C_14
REMARK    9  A    between atoms: C_14  and  C_15
REMARK   10  A    between atoms: C_14  and  C_17
REMARK   11  A    between atoms: C_14  and  C_27
REMARK   12  A    between atoms: C_20  and  O_21
REMARK   13  A    between atoms: C_23  and  O_24
REMARK   14  A    between atoms: C_31  and  O_32
REMARK                            x       y       z     vdW  Elec       q    Type
REMARK                         _______ _______ _______ _____ _____    ______ ____
ROOT
ATOM      1  C   UNL     1       0.924   0.861  -0.026  0.00  0.00    +0.020 C 
ENDROOT
BRANCH   1   2
ATOM      2  C   UNL     1       1.828   0.426   1.105  0.00  0.00    +0.098 C 
BRANCH   2   3
ATOM      3  C   UNL     1       3.203   0.217   0.560  0.00  0.00    -0.006 A 
ATOM      4  C   UNL     1       3.947  -0.832   1.055  0.00  0.00    +0.037 A 
ATOM      5  C   UNL     1       5.262  -0.941   0.622  0.00  0.00    +0.172 A 
ATOM      6  C   UNL     1       5.916   0.143   0.047  0.00  0.00    +0.172 A 
ATOM      7  C   UNL     1       5.134   1.181  -0.444  0.00  0.00    +0.040 A 
ATOM      8  C   UNL     1       3.785   1.231  -0.164  0.00  0.00    +0.000 A 
BRANCH   6   9
ATOM      9  O   UNL     1       7.265   0.331   0.363  0.00  0.00    -0.468 OA
ATOM     10  C   UNL     1       8.305  -0.132  -0.461  0.00  0.00    +0.253 C 
ENDBRANCH   6   9
BRANCH   5  11
ATOM     11  O   UNL     1       5.964  -2.147   0.707  0.00  0.00    -0.468 OA
ATOM     12  C   UNL     1       6.242  -2.860  -0.473  0.00  0.00    +0.253 C 
ENDBRANCH   5  11
ENDBRANCH   2   3
BRANCH   2  13
ATOM     13  C   UNL     1       1.804   1.464   2.193  0.00  0.00    +0.017 C 
ATOM     14  C   UNL     1       2.696   2.641   1.918  0.00  0.00    +0.001 C 
ATOM     15  C   UNL     1       2.115   0.797   3.517  0.00  0.00    +0.001 C 
ENDBRANCH   2  13
BRANCH   2  16
ATOM     16  C   UNL     1       1.323  -0.845   1.654  0.00  0.00    +0.075 C 
ATOM     17  N   UNL     1       0.912  -1.778   2.222  0.00  0.00    -0.196 NA
ENDBRANCH   2  16
ENDBRANCH   1   2
BRANCH   1  18
ATOM     18  C   UNL     1       0.669  -0.373  -0.879  0.00  0.00    +0.019 C 
BRANCH  18  19
ATOM     19  C   UNL     1      -0.676  -0.947  -0.470  0.00  0.00    +0.072 C 
BRANCH  19  20
ATOM     20  N   UNL     1      -1.599  -0.744  -1.580  0.00  0.00    -0.271 NA
ATOM     21  C   UNL     1      -1.272  -1.562  -2.722  0.00  0.00    +0.090 C 
BRANCH  20  22
ATOM     22  C   UNL     1      -1.568   0.655  -1.927  0.00  0.00    +0.077 C 
BRANCH  22  23
ATOM     23  C   UNL     1      -2.917   1.088  -2.470  0.00  0.00    +0.044 C 
BRANCH  23  27
ATOM     24  C   UNL     1      -5.920   0.022   0.278  0.00  0.00    +0.172 A 
ATOM     25  C   UNL     1      -6.092  -0.263  -1.065  0.00  0.00    +0.172 A 
ATOM     26  C   UNL     1      -5.028  -0.096  -1.916  0.00  0.00    +0.036 A 
ATOM     27  C   UNL     1      -3.938   0.620  -1.484  0.00  0.00    -0.018 A 
ATOM     28  C   UNL     1      -3.785   0.964  -0.151  0.00  0.00    -0.001 A 
ATOM     29  C   UNL     1      -4.713   0.493   0.761  0.00  0.00    +0.040 A 
BRANCH  24  31
ATOM     30  C   UNL     1      -7.278  -0.095   1.772  0.00  0.00    +0.253 C 
ATOM     31  O   UNL     1      -7.003   0.029   1.160  0.00  0.00    -0.468 OA
ENDBRANCH  24  31
BRANCH  25  32
ATOM     32  O   UNL     1      -7.336  -0.729  -1.491  0.00  0.00    -0.468 OA
ATOM     33  C   UNL     1      -8.168   0.175  -2.213  0.00  0.00    +0.253 C 
ENDBRANCH  25  32
ENDBRANCH  23  27
ENDBRANCH  22  23
ENDBRANCH  20  22
ENDBRANCH  19  20
ENDBRANCH  18  19
ENDBRANCH   1  18
TORSDOF 14
