REMARK  Name = 
REMARK  5 active torsions:
REMARK  status: ('A' for Active; 'I' for Inactive)
REMARK    1  A    between atoms: C_2  and  N_3
REMARK    2  A    between atoms: C_5  and  O_7
REMARK    3  A    between atoms: O_7  and  C_8
REMARK    4  A    between atoms: C_12  and  C_13
REMARK    5  A    between atoms: C_13  and  N_15
REMARK                            x       y       z     vdW  Elec       q    Type
REMARK                         _______ _______ _______ _____ _____    ______ ____
ROOT
ATOM      1  C   UNL     1       0.291   0.268  -0.491  0.00  0.00    +0.150 A 
ATOM      2  C   UNL     1      -1.087   0.160  -0.661  0.00  0.00    +0.035 A 
ATOM      3  C   UNL     1      -1.865   0.102   0.497  0.00  0.00    -0.005 A 
ATOM      4  C   UNL     1      -1.290  -0.751   1.446  0.00  0.00    -0.003 A 
ATOM      5  C   UNL     1       0.004  -0.391   1.808  0.00  0.00    +0.003 A 
ATOM      6  C   UNL     1       0.711   0.313   0.838  0.00  0.00    +0.038 A 
ENDROOT
BRANCH   3   7
ATOM      7  C   UNL     1      -3.434  -0.184   0.254  0.00  0.00    +0.080 C 
ATOM      8  C   UNL     1      -3.571   0.943  -0.941  0.00  0.00    +0.022 C 
BRANCH   7   9
ATOM      9  N   UNL     1      -3.879   0.863   1.344  0.00  0.00    -0.268 NA
ATOM     10  C   UNL     1      -3.335   0.459   2.598  0.00  0.00    +0.090 C 
ATOM     11  C   UNL     1      -5.323   0.653   1.442  0.00  0.00    +0.090 C 
ENDBRANCH   7   9
ENDBRANCH   3   7
BRANCH   1  12
ATOM     12  O   UNL     1       1.187  -0.057  -1.526  0.00  0.00    -0.410 OA
BRANCH  12  14
ATOM     13  N   UNL     1       3.637  -0.464  -1.696  0.00  0.00    -0.244 N 
ATOM     14  C   UNL     1       2.498   0.363  -1.426  0.00  0.00    +0.409 C 
ATOM     15  O   UNL     1       2.626   1.602  -1.184  0.00  0.00    -0.226 OA
ATOM     16  C   UNL     1       3.467  -1.914  -1.648  0.00  0.00    +0.118 C 
BRANCH  13  18
ATOM     17  C   UNL     1       4.508   0.520   0.364  0.00  0.00    +0.023 C 
ATOM     18  C   UNL     1       4.853  -0.017  -1.018  0.00  0.00    +0.097 C 
ENDBRANCH  13  18
ENDBRANCH  12  14
ENDBRANCH   1  12
TORSDOF 5
