REMARK  Name = 
REMARK  2 active torsions:
REMARK  status: ('A' for Active; 'I' for Inactive)
REMARK    1  A    between atoms: C_2  and  C_10
REMARK    2  A    between atoms: C_3  and  C_4
REMARK                            x       y       z     vdW  Elec       q    Type
REMARK                         _______ _______ _______ _____ _____    ______ ____
ROOT
ATOM      1  C   UNL     1       1.303  -0.250   0.292  0.00  0.00    +0.116 C 
ATOM      2  N   UNL     1       0.861   0.934  -0.694  0.00  0.00    -0.203 NA
ATOM      3  C   UNL     1       0.663   2.041   0.205  0.00  0.00    +0.244 C 
ATOM      4  O   UNL     1       1.198   3.176   0.011  0.00  0.00    -0.273 OA
ATOM      5  C   UNL     1      -0.783   1.933   0.603  0.00  0.00    +0.120 C 
ATOM      6  C   UNL     1      -1.335   2.878  -0.683  0.00  0.00    +0.167 C 
ATOM      7  O   UNL     1      -0.951   4.177   0.069  0.00  0.00    -0.222 OA
ATOM      8  C   UNL     1      -2.925   2.873  -0.151  0.00  0.00    +0.080 C 
ATOM      9  C   UNL     1      -3.608   3.309  -1.410  0.00  0.00    +0.010 C 
ATOM     10  C   UNL     1      -3.062   3.814   0.959  0.00  0.00    +0.010 C 
ATOM     11  C   UNL     1      -3.194   1.434   0.189  0.00  0.00    +0.154 C 
ATOM     12  O   UNL     1      -3.308   1.274   1.400  0.00  0.00    -0.296 OA
ATOM     13  C   UNL     1      -4.364   0.772  -0.710  0.00  0.00    +0.088 C 
ATOM     14  C   UNL     1      -5.502   1.750  -0.047  0.00  0.00    +0.010 C 
ATOM     15  C   UNL     1      -4.698  -0.509   0.406  0.00  0.00    +0.159 C 
ATOM     16  O   UNL     1      -6.143  -0.594  -0.043  0.00  0.00    -0.223 OA
ATOM     17  C   UNL     1      -4.247  -1.757  -0.701  0.00  0.00    +0.031 C 
ATOM     18  C   UNL     1      -2.918  -1.003  -1.281  0.00  0.00    +0.003 C 
ATOM     19  C   UNL     1      -3.380  -2.513   0.463  0.00  0.00    +0.003 C 
ATOM     20  C   UNL     1      -2.441  -3.452  -0.191  0.00  0.00    +0.003 C 
ATOM     21  C   UNL     1      -1.093  -2.945  -0.511  0.00  0.00    +0.030 C 
ATOM     22  C   UNL     1      -0.062  -3.619   0.179  0.00  0.00    +0.118 C 
ATOM     23  C   UNL     1       1.277  -2.648   0.370  0.00  0.00    +0.142 C 
ATOM     24  C   UNL     1      -0.037  -4.791   1.052  0.00  0.00    +0.032 C 
ATOM     25  O   UNL     1       1.248  -3.820  -0.786  0.00  0.00    -0.356 OA
ATOM     26  C   UNL     1       0.712  -1.433  -0.733  0.00  0.00    +0.058 C 
ENDROOT
BRANCH   1  28
ATOM     27  C   UNL     1       2.938   0.175  -0.818  0.00  0.00    +0.028 C 
ATOM     28  C   UNL     1       2.764  -0.333  -0.460  0.00  0.00    -0.023 C 
ATOM     29  C   UNL     1       3.605  -1.177   0.131  0.00  0.00    +0.013 C 
BRANCH  29  30
ATOM     30  C   UNL     1       5.025  -0.783   0.098  0.00  0.00    +0.087 A 
ATOM     31  N   UNL     1       5.558   0.333  -0.463  0.00  0.00    -0.243 NA
ATOM     32  C   UNL     1       6.562   0.829   0.285  0.00  0.00    +0.089 A 
ATOM     33  C   UNL     1       6.987   2.257   0.437  0.00  0.00    +0.059 C 
ATOM     34  S   UNL     1       7.305  -0.629   0.797  0.00  0.00    -0.070 S 
ATOM     35  C   UNL     1       6.044  -1.703   0.337  0.00  0.00    +0.056 A 
ENDBRANCH  29  30
ENDBRANCH   1  28
TORSDOF 2
