REMARK  Name = 
REMARK  3 active torsions:
REMARK  status: ('A' for Active; 'I' for Inactive)
REMARK    1  A    between atoms: C_2  and  C_3
REMARK    2  A    between atoms: C_2  and  C_6
REMARK    3  A    between atoms: C_9  and  C_10
REMARK                            x       y       z     vdW  Elec       q    Type
REMARK                         _______ _______ _______ _____ _____    ______ ____
ROOT
ATOM      1  C   UNL     1       1.911  -0.653   0.252  0.00  0.00    -0.010 A 
ATOM      2  C   UNL     1       0.973  -1.612  -0.126  0.00  0.00    +0.026 A 
ATOM      3  C   UNL     1      -0.394  -1.384  -0.013  0.00  0.00    +0.140 A 
ATOM      4  F   UNL     1      -1.295  -2.403   0.061  0.00  0.00    -0.204 F 
ATOM      5  C   UNL     1      -0.872  -0.115   0.258  0.00  0.00    +0.027 A 
ATOM      6  C   UNL     1       0.040   0.841   0.686  0.00  0.00    +0.002 A 
ATOM      7  C   UNL     1       1.371   0.547   0.632  0.00  0.00    -0.004 A 
ENDROOT
BRANCH   5   8
ATOM      8  C   UNL     1      -2.255   0.280  -0.006  0.00  0.00    +0.002 A 
ATOM      9  C   UNL     1      -3.017  -0.277  -1.022  0.00  0.00    +0.000 A 
ATOM     10  C   UNL     1      -4.377  -0.009  -0.997  0.00  0.00    +0.000 A 
ATOM     11  C   UNL     1      -4.883   1.017  -0.223  0.00  0.00    +0.000 A 
ATOM     12  C   UNL     1      -4.043   1.828   0.523  0.00  0.00    +0.000 A 
ATOM     13  C   UNL     1      -2.730   1.429   0.602  0.00  0.00    +0.000 A 
ENDBRANCH   5   8
BRANCH   1  15
ATOM     14  C   UNL     1       3.923  -1.794  -0.263  0.00  0.00    +0.017 C 
ATOM     15  C   UNL     1       3.055  -0.528  -0.915  0.00  0.00    +0.126 C 
BRANCH  15  16
ATOM     16  C   UNL     1       3.918   0.569  -0.059  0.00  0.00    +0.368 C 
ATOM     17  O   UNL     1       5.245   0.525  -0.512  0.00  0.00    -0.245 OA
ATOM     18  O   UNL     1       3.430   1.738  -0.182  0.00  0.00    -0.245 OA
ENDBRANCH  15  16
ENDBRANCH   1  15
TORSDOF 3
