REMARK  Name = 
REMARK  18 active torsions:
REMARK  status: ('A' for Active; 'I' for Inactive)
REMARK    1  A    between atoms: C_2  and  C_3
REMARK    2  A    between atoms: C_3  and  C_4
REMARK    3  A    between atoms: C_4  and  C_5
REMARK    4  A    between atoms: C_5  and  C_6
REMARK    5  A    between atoms: C_6  and  C_7
REMARK    6  A    between atoms: C_7  and  C_8
REMARK    7  A    between atoms: C_8  and  C_9
REMARK    8  A    between atoms: C_9  and  C_10
REMARK    9  A    between atoms: C_10  and  N_11
REMARK   10  A    between atoms: N_11  and  C_14
REMARK   11  A    between atoms: C_14  and  C_15
REMARK   12  A    between atoms: C_15  and  C_16
REMARK   13  A    between atoms: C_16  and  C_17
REMARK   14  A    between atoms: C_17  and  C_18
REMARK   15  A    between atoms: C_18  and  C_19
REMARK   16  A    between atoms: C_19  and  C_20
REMARK   17  A    between atoms: C_20  and  C_21
REMARK   18  A    between atoms: C_21  and  C_22
REMARK                            x       y       z     vdW  Elec       q    Type
REMARK                         _______ _______ _______ _____ _____    ______ ____
ROOT
ATOM      1  N   UNL     1       0.411   1.900   0.119  0.00  0.00    +0.306 N 
ATOM      2  C   UNL     1      -0.061   1.440  -1.183  0.00  0.00    +0.171 C 
ATOM      3  C   UNL     1       1.272   3.034  -0.085  0.00  0.00    +0.171 C 
ENDROOT
BRANCH   1   4
ATOM      4  C   UNL     1      -0.703   2.176   1.014  0.00  0.00    +0.109 C 
BRANCH   4   5
ATOM      5  C   UNL     1      -1.650   0.993   0.828  0.00  0.00    +0.061 C 
BRANCH   5   6
ATOM      6  C   UNL     1      -2.928   1.551   0.270  0.00  0.00    +0.006 C 
BRANCH   6   7
ATOM      7  C   UNL     1      -3.361   0.881  -1.012  0.00  0.00    +0.000 C 
BRANCH   7   8
ATOM      8  C   UNL     1      -4.805   1.302  -1.261  0.00  0.00    +0.000 C 
BRANCH   8   9
ATOM      9  C   UNL     1      -5.419   1.927  -0.025  0.00  0.00    +0.000 C 
BRANCH   9  10
ATOM     10  C   UNL     1      -6.416   0.981   0.595  0.00  0.00    +0.000 C 
BRANCH  10  11
ATOM     11  C   UNL     1      -5.807  -0.406   0.517  0.00  0.00    +0.000 C 
BRANCH  11  13
ATOM     12  C   UNL     1      -6.442  -2.693  -0.194  0.00  0.00    +0.000 C 
ATOM     13  C   UNL     1      -6.957  -1.384   0.373  0.00  0.00    +0.000 C 
ENDBRANCH  11  13
ENDBRANCH  10  11
ENDBRANCH   9  10
ENDBRANCH   8   9
ENDBRANCH   7   8
ENDBRANCH   6   7
ENDBRANCH   5   6
ENDBRANCH   4   5
ENDBRANCH   1   4
BRANCH   1  14
ATOM     14  C   UNL     1       1.141   0.764   0.679  0.00  0.00    +0.109 C 
BRANCH  14  15
ATOM     15  C   UNL     1       2.252   0.475  -0.327  0.00  0.00    +0.061 C 
BRANCH  15  16
ATOM     16  C   UNL     1       1.905  -0.718  -1.194  0.00  0.00    +0.006 C 
BRANCH  16  17
ATOM     17  C   UNL     1       3.101  -1.660  -1.105  0.00  0.00    +0.000 C 
BRANCH  17  18
ATOM     18  C   UNL     1       3.369  -1.935   0.362  0.00  0.00    +0.000 C 
BRANCH  18  19
ATOM     19  C   UNL     1       4.233  -0.877   0.993  0.00  0.00    +0.000 C 
BRANCH  19  20
ATOM     20  C   UNL     1       5.641  -1.341   1.252  0.00  0.00    +0.000 C 
BRANCH  20  21
ATOM     21  C   UNL     1       6.489  -1.000   0.038  0.00  0.00    +0.000 C 
BRANCH  21  22
ATOM     22  C   UNL     1       7.034  -2.280  -0.541  0.00  0.00    +0.000 C 
ATOM     23  C   UNL     1       7.700  -3.133   0.508  0.00  0.00    +0.000 C 
ENDBRANCH  21  22
ENDBRANCH  20  21
ENDBRANCH  19  20
ENDBRANCH  18  19
ENDBRANCH  17  18
ENDBRANCH  16  17
ENDBRANCH  15  16
ENDBRANCH  14  15
ENDBRANCH   1  14
TORSDOF 18
