REMARK  Name = 
REMARK  6 active torsions:
REMARK  status: ('A' for Active; 'I' for Inactive)
REMARK    1  A    between atoms: C_24  and  O_25
REMARK    2  A    between atoms: C_24  and  C_33
REMARK    3  A    between atoms: O_25  and  C_26
REMARK    4  A    between atoms: C_26  and  C_28
REMARK    5  A    between atoms: C_33  and  S_35
REMARK    6  A    between atoms: S_35  and  C_36
REMARK                            x       y       z     vdW  Elec       q    Type
REMARK                         _______ _______ _______ _____ _____    ______ ____
ROOT
ATOM      1  C   UNL     1       1.811   1.810   1.924  0.00  0.00    +0.004 C 
ATOM      2  C   UNL     1       1.998   2.312   0.372  0.00  0.00    +0.045 C 
ATOM      3  C   UNL     1       2.064   0.810  -0.215  0.00  0.00    +0.196 C 
ATOM      4  C   UNL     1       0.766   0.328  -0.474  0.00  0.00    +0.044 C 
ATOM      5  C   UNL     1       0.009   1.109   0.727  0.00  0.00    +0.007 C 
ATOM      6  C   UNL     1      -1.417   0.829  -0.136  0.00  0.00    +0.036 C 
ATOM      7  C   UNL     1      -1.755  -0.436   0.786  0.00  0.00    +0.168 C 
ATOM      8  C   UNL     1      -0.909  -1.655   0.073  0.00  0.00    +0.182 C 
ATOM      9  O   UNL     1      -1.341  -1.246  -1.329  0.00  0.00    -0.220 OA
ATOM     10  F   UNL     1      -1.403  -0.315   2.037  0.00  0.00    -0.237 F 
ATOM     11  C   UNL     1      -3.188  -0.717   0.632  0.00  0.00    +0.066 C 
ATOM     12  C   UNL     1      -4.006   0.233  -0.100  0.00  0.00    -0.003 C 
ATOM     13  C   UNL     1      -5.254  -0.033  -0.389  0.00  0.00    +0.036 C 
ATOM     14  C   UNL     1      -5.875  -1.028   0.510  0.00  0.00    +0.195 C 
ATOM     15  C   UNL     1      -5.265  -1.069   1.850  0.00  0.00    +0.038 C 
ATOM     16  O   UNL     1      -7.039  -1.498   0.276  0.00  0.00    -0.287 OA
ATOM     17  C   UNL     1      -3.399   1.627  -0.635  0.00  0.00    +0.180 C 
ATOM     18  F   UNL     1      -4.466   2.473   0.008  0.00  0.00    -0.233 F 
ATOM     19  C   UNL     1      -3.447  -2.111   0.056  0.00  0.00    +0.011 C 
ATOM     20  C   UNL     1      -3.936  -0.775   1.937  0.00  0.00    -0.017 C 
ATOM     21  C   UNL     1      -2.402   1.817   0.686  0.00  0.00    +0.042 C 
ATOM     22  C   UNL     1       0.282   0.851  -1.796  0.00  0.00    +0.004 C 
ATOM     23  C   UNL     1       0.553  -0.958  -0.060  0.00  0.00    +0.039 C 
ATOM     24  C   UNL     1       0.400   2.523   0.071  0.00  0.00    +0.004 C 
ENDROOT
BRANCH   3  25
ATOM     25  C   UNL     1       3.026   1.069  -1.343  0.00  0.00    +0.237 C 
ATOM     26  O   UNL     1       4.117   1.474  -0.918  0.00  0.00    -0.281 OA
BRANCH  25  27
ATOM     27  S   UNL     1       2.534   2.104  -2.748  0.00  0.00    -0.036 S 
BRANCH  27  28
ATOM     28  C   UNL     1       2.959   3.845  -2.477  0.00  0.00    +0.258 C 
ATOM     29  F   UNL     1       2.481   4.582  -3.538  0.00  0.00    -0.221 F 
ENDBRANCH  27  28
ENDBRANCH  25  27
ENDBRANCH   3  25
BRANCH   3  30
ATOM     30  O   UNL     1       2.781  -0.020   0.657  0.00  0.00    -0.443 OA
BRANCH  30  31
ATOM     31  C   UNL     1       3.258  -1.146  -0.037  0.00  0.00    +0.376 C 
ATOM     32  O   UNL     1       3.244  -1.165  -1.313  0.00  0.00    -0.241 OA
BRANCH  31  33
ATOM     33  C   UNL     1       3.850  -2.279   0.615  0.00  0.00    +0.221 A 
ATOM     34  O   UNL     1       4.397  -2.380   1.779  0.00  0.00    -0.444 OA
ATOM     35  C   UNL     1       4.925  -3.556   1.942  0.00  0.00    +0.180 A 
ATOM     36  C   UNL     1       5.195  -4.116   0.694  0.00  0.00    +0.044 A 
ATOM     37  C   UNL     1       4.452  -3.294  -0.126  0.00  0.00    +0.047 A 
ENDBRANCH  31  33
ENDBRANCH  30  31
ENDBRANCH   3  30
TORSDOF 6
