REMARK  Name = 
REMARK  1 active torsions:
REMARK  status: ('A' for Active; 'I' for Inactive)
REMARK    1  A    between atoms: N_14  and  C_15
REMARK                            x       y       z     vdW  Elec       q    Type
REMARK                         _______ _______ _______ _____ _____    ______ ____
ROOT
ATOM      1  O   UNL     1       0.387  -1.304  -1.402  0.00  0.00    -0.270 OA
ATOM      2  C   UNL     1      -0.121  -0.506  -0.676  0.00  0.00    +0.249 C 
ATOM      3  N   UNL     1       0.723   0.286   0.178  0.00  0.00    -0.276 N 
ATOM      4  C   UNL     1       0.088   1.028   1.270  0.00  0.00    +0.098 C 
ATOM      5  C   UNL     1      -1.230   1.642   0.471  0.00  0.00    +0.042 C 
ATOM      6  C   UNL     1      -1.890   2.183   1.895  0.00  0.00    +0.006 C 
ATOM      7  C   UNL     1      -3.247   2.711   1.465  0.00  0.00    +0.005 C 
ATOM      8  C   UNL     1      -4.117   1.519   1.204  0.00  0.00    +0.026 C 
ATOM      9  C   UNL     1      -3.406   0.378   0.621  0.00  0.00    -0.026 A 
ATOM     10  C   UNL     1      -4.139  -0.777   0.386  0.00  0.00    -0.005 A 
ATOM     11  C   UNL     1      -3.571  -1.758  -0.413  0.00  0.00    -0.000 A 
ATOM     12  C   UNL     1      -2.398  -1.470  -1.099  0.00  0.00    +0.004 A 
ATOM     13  C   UNL     1      -2.027   0.223   0.589  0.00  0.00    -0.020 A 
ATOM     14  C   UNL     1      -1.579  -0.543  -0.486  0.00  0.00    +0.049 A 
ENDROOT
BRANCH   3  15
ATOM     15  C   UNL     1       1.815  -0.619   0.922  0.00  0.00    +0.092 C 
ATOM     16  C   UNL     1       2.510  -1.057  -0.530  0.00  0.00    +0.022 C 
ATOM     17  C   UNL     1       3.061   0.177  -1.135  0.00  0.00    +0.019 C 
ATOM     18  C   UNL     1       4.426   0.374  -0.476  0.00  0.00    +0.072 C 
ATOM     19  N   UNL     1       4.164   0.119   0.940  0.00  0.00    -0.271 NA
ATOM     20  C   UNL     1       4.130  -1.299   1.241  0.00  0.00    +0.072 C 
ATOM     21  C   UNL     1       3.588  -1.994   0.001  0.00  0.00    +0.019 C 
ATOM     22  C   UNL     1       2.832   0.686   1.151  0.00  0.00    +0.092 C 
ENDBRANCH   3  15
TORSDOF 1
