REMARK  Name = 
REMARK  12 active torsions:
REMARK  status: ('A' for Active; 'I' for Inactive)
REMARK    1  A    between atoms: C_2  and  C_3
REMARK    2  A    between atoms: C_3  and  C_4
REMARK    3  A    between atoms: C_4  and  C_5
REMARK    4  A    between atoms: C_5  and  O_7
REMARK    5  A    between atoms: O_7  and  C_8
REMARK    6  A    between atoms: C_8  and  C_9
REMARK    7  A    between atoms: C_9  and  C_11
REMARK    8  A    between atoms: C_22  and  O_23
REMARK    9  A    between atoms: O_23  and  C_24
REMARK   10  A    between atoms: C_26  and  N_27
REMARK   11  A    between atoms: C_28  and  C_30
REMARK   12  A    between atoms: C_43  and  O_44
REMARK                            x       y       z     vdW  Elec       q    Type
REMARK                         _______ _______ _______ _____ _____    ______ ____
ROOT
ATOM      1  C   UNL     1      -1.032  -1.902  -0.010  0.00  0.00    +0.188 C 
ATOM      2  C   UNL     1       0.241  -1.851  -0.670  0.00  0.00    +0.072 C 
ATOM      3  C   UNL     1       0.344  -0.566  -1.711  0.00  0.00    +0.146 C 
ATOM      4  C   UNL     1      -0.613   0.395  -0.794  0.00  0.00    +0.043 A 
ATOM      5  C   UNL     1      -1.966   0.050  -0.896  0.00  0.00    +0.021 A 
ATOM      6  C   UNL     1      -2.783   0.770  -0.027  0.00  0.00    +0.195 A 
ATOM      7  C   UNL     1      -2.440   2.095   0.216  0.00  0.00    +0.084 A 
ATOM      8  C   UNL     1      -3.554   2.977   0.590  0.00  0.00    +0.199 C 
ATOM      9  O   UNL     1      -4.578   2.500   1.161  0.00  0.00    -0.286 OA
ATOM     10  C   UNL     1      -3.404   4.427   0.410  0.00  0.00    +0.045 A 
ATOM     11  C   UNL     1      -2.196   4.941   0.025  0.00  0.00    +0.076 A 
ATOM     12  C   UNL     1      -1.865   6.267   0.286  0.00  0.00    +0.142 A 
ATOM     13  C   UNL     1      -2.909   7.078   0.664  0.00  0.00    +0.037 A 
ATOM     14  C   UNL     1      -4.206   6.613   0.723  0.00  0.00    +0.003 A 
ATOM     15  C   UNL     1      -1.147   4.048  -0.460  0.00  0.00    +0.202 C 
ATOM     16  O   UNL     1      -0.073   4.551  -0.842  0.00  0.00    -0.286 OA
ATOM     17  C   UNL     1      -4.450   5.266   0.704  0.00  0.00    +0.003 A 
ATOM     18  C   UNL     1      -1.274   2.590  -0.357  0.00  0.00    +0.084 A 
ATOM     19  O   UNL     1      -3.766   0.152   0.754  0.00  0.00    -0.287 OA
ATOM     20  C   UNL     1      -0.377   1.750  -1.010  0.00  0.00    +0.197 A 
ATOM     21  O   UNL     1       0.853   2.248  -1.388  0.00  0.00    -0.287 OA
ATOM     22  C   UNL     1      -2.186  -1.436  -0.834  0.00  0.00    +0.067 C 
ATOM     23  O   UNL     1      -1.030  -1.134   1.165  0.00  0.00    -0.218 OA
ENDROOT
BRANCH   1  24
ATOM     24  C   UNL     1      -1.168  -3.307   0.479  0.00  0.00    +0.222 C 
ATOM     25  O   UNL     1      -0.272  -4.101   0.583  0.00  0.00    -0.290 OA
BRANCH  24  26
ATOM     26  C   UNL     1      -2.480  -3.635   1.125  0.00  0.00    +0.275 C 
BRANCH  26  27
ATOM     27  O   UNL     1      -3.357  -3.647   0.004  0.00  0.00    -0.440 OA
BRANCH  27  28
ATOM     28  C   UNL     1      -4.711  -3.699   0.169  0.00  0.00    +0.317 C 
ATOM     29  O   UNL     1      -5.206  -3.043   1.105  0.00  0.00    -0.250 OA
BRANCH  28  30
ATOM     30  C   UNL     1      -5.508  -4.301  -0.942  0.00  0.00    +0.110 C 
BRANCH  30  31
ATOM     31  C   UNL     1      -5.145  -5.768  -0.952  0.00  0.00    +0.012 C 
BRANCH  31  33
ATOM     32  C   UNL     1      -6.940  -6.919  -0.335  0.00  0.00    +0.000 C 
ATOM     33  C   UNL     1      -5.890  -6.423   0.194  0.00  0.00    +0.001 C 
ENDBRANCH  31  33
ENDBRANCH  30  31
ENDBRANCH  28  30
ENDBRANCH  27  28
ENDBRANCH  26  27
ENDBRANCH  24  26
ENDBRANCH   1  24
BRANCH  12  34
ATOM     34  O   UNL     1      -0.544   6.629   0.543  0.00  0.00    -0.471 OA
ATOM     35  C   UNL     1       0.093   7.742  -0.030  0.00  0.00    +0.252 C 
ENDBRANCH  12  34
BRANCH   3  36
ATOM     36  O   UNL     1       1.619  -0.048  -1.021  0.00  0.00    -0.328 OA
BRANCH  36  37
ATOM     37  C   UNL     1       2.425  -1.371  -1.026  0.00  0.00    +0.237 C 
ATOM     38  O   UNL     1       2.383  -1.460   0.522  0.00  0.00    -0.330 OA
ATOM     39  C   UNL     1       3.086  -2.806   0.546  0.00  0.00    +0.150 C 
ATOM     40  C   UNL     1       2.898  -2.974   2.177  0.00  0.00    +0.035 C 
ATOM     41  C   UNL     1       4.693  -2.199   0.771  0.00  0.00    +0.199 C 
ATOM     42  O   UNL     1       4.338  -0.809   1.211  0.00  0.00    -0.219 OA
ATOM     43  C   UNL     1       4.864  -1.861  -0.913  0.00  0.00    +0.133 C 
ATOM     44  C   UNL     1       3.887  -0.545  -0.975  0.00  0.00    +0.086 C 
BRANCH  43  45
ATOM     45  N   UNL     1       6.139  -0.986  -0.646  0.00  0.00    -0.197 NA
ATOM     46  C   UNL     1       7.204  -1.593   0.046  0.00  0.00    +0.337 C 
ATOM     47  O   UNL     1       7.409  -2.823  -0.086  0.00  0.00    -0.264 OA
BRANCH  46  48
ATOM     48  C   UNL     1       8.383  -0.714   0.343  0.00  0.00    +0.471 C 
ATOM     49  F   UNL     1       7.916   0.556   0.666  0.00  0.00    -0.162 F 
ATOM     50  F   UNL     1       9.139  -1.195   1.376  0.00  0.00    -0.162 F 
ATOM     51  F   UNL     1       9.157  -0.529  -0.798  0.00  0.00    -0.162 F 
ENDBRANCH  46  48
ENDBRANCH  43  45
ENDBRANCH  36  37
ENDBRANCH   3  36
TORSDOF 12
