REMARK  Name = 
REMARK  3 active torsions:
REMARK  status: ('A' for Active; 'I' for Inactive)
REMARK    1  A    between atoms: N_10  and  N_11
REMARK    2  A    between atoms: C_12  and  C_14
REMARK    3  A    between atoms: C_19  and  S_20
REMARK                            x       y       z     vdW  Elec       q    Type
REMARK                         _______ _______ _______ _____ _____    ______ ____
ROOT
ATOM      1  N   UNL     1      -0.898  -1.181  -0.565  0.00  0.00    -0.106 NA
ATOM      2  C   UNL     1      -0.090  -1.162   0.613  0.00  0.00    +0.283 C 
ATOM      3  O   UNL     1      -0.627  -1.232   1.737  0.00  0.00    -0.267 OA
ENDROOT
BRANCH   1   6
ATOM      4  C   UNL     1      -4.220  -2.005  -1.033  0.00  0.00    +0.024 C 
ATOM      5  C   UNL     1      -3.202  -1.989   0.265  0.00  0.00    +0.099 C 
ATOM      6  N   UNL     1      -2.256  -0.920  -0.400  0.00  0.00    -0.219 N 
ATOM      7  C   UNL     1      -3.039   0.208  -0.644  0.00  0.00    +0.063 A 
ATOM      8  C   UNL     1      -4.277   0.124  -0.067  0.00  0.00    -0.006 A 
ATOM      9  C   UNL     1      -5.184   1.106  -0.333  0.00  0.00    -0.003 A 
ATOM     10  C   UNL     1      -4.846   2.153  -1.168  0.00  0.00    -0.000 A 
ATOM     11  C   UNL     1      -3.501   2.494  -1.261  0.00  0.00    +0.001 A 
ATOM     12  C   UNL     1      -2.618   1.426  -1.171  0.00  0.00    +0.016 A 
ATOM     13  C   UNL     1      -4.088  -0.841   1.044  0.00  0.00    +0.049 C 
ENDBRANCH   1   6
BRANCH   2  14
ATOM     14  C   UNL     1       1.345  -1.023   0.488  0.00  0.00    +0.058 A 
ATOM     15  C   UNL     1       1.950   0.209   0.300  0.00  0.00    +0.025 A 
ATOM     16  C   UNL     1       3.241   0.262  -0.166  0.00  0.00    +0.136 A 
ATOM     17  C   UNL     1       3.975  -0.908  -0.162  0.00  0.00    +0.076 A 
ATOM     18 CL   UNL     1       5.602  -0.908  -0.827  0.00  0.00    -0.081 Cl
ATOM     19  C   UNL     1       3.448  -2.064   0.375  0.00  0.00    +0.013 A 
ATOM     20  C   UNL     1       2.116  -2.154   0.671  0.00  0.00    +0.006 A 
BRANCH  16  21
ATOM     21  S   UNL     1       4.084   1.772  -0.447  0.00  0.00    +0.094 S 
ATOM     22  O   UNL     1       3.187   2.894   0.026  0.00  0.00    -0.150 OA
ATOM     23  O   UNL     1       4.358   1.921  -1.919  0.00  0.00    -0.150 OA
ATOM     24  N   UNL     1       5.539   1.817   0.471  0.00  0.00    +0.039 NA
ENDBRANCH  16  21
ENDBRANCH   2  14
TORSDOF 3
