REMARK  Name = 
REMARK  4 active torsions:
REMARK  status: ('A' for Active; 'I' for Inactive)
REMARK    1  A    between atoms: C_2  and  C_4
REMARK    2  A    between atoms: C_7  and  N_8
REMARK    3  A    between atoms: C_10  and  C_11
REMARK    4  A    between atoms: C_19  and  C_20
REMARK                            x       y       z     vdW  Elec       q    Type
REMARK                         _______ _______ _______ _____ _____    ______ ____
ROOT
ATOM      1  N   UNL     1      -0.110  -0.475  -0.149  0.00  0.00    -0.211 N 
ATOM      2  C   UNL     1      -0.318   0.857  -0.291  0.00  0.00    +0.168 A 
ATOM      3  N   UNL     1      -1.655   0.961  -0.482  0.00  0.00    -0.206 NA
ATOM      4  C   UNL     1      -2.224  -0.249  -0.314  0.00  0.00    +0.187 A 
ATOM      5  N   UNL     1      -1.259  -1.032   0.227  0.00  0.00    -0.144 NA
ENDROOT
BRANCH   2   6
ATOM      6  C   UNL     1       0.620   1.925   0.078  0.00  0.00    +0.075 A 
ATOM      7  C   UNL     1       0.272   2.756   1.135  0.00  0.00    +0.199 A 
ATOM      8  O   UNL     1      -0.908   2.513   1.846  0.00  0.00    -0.286 OA
ATOM      9  C   UNL     1       0.723   4.069   1.140  0.00  0.00    +0.042 A 
ATOM     10  C   UNL     1       1.486   4.590   0.104  0.00  0.00    +0.003 A 
ATOM     11  C   UNL     1       2.070   3.670  -0.746  0.00  0.00    +0.000 A 
ATOM     12  C   UNL     1       1.388   2.474  -0.931  0.00  0.00    +0.006 A 
ENDBRANCH   2   6
BRANCH   4  13
ATOM     13  C   UNL     1      -3.643  -0.571  -0.110  0.00  0.00    +0.076 A 
ATOM     14  C   UNL     1      -4.017  -1.845  -0.521  0.00  0.00    +0.199 A 
ATOM     15  O   UNL     1      -3.121  -2.696  -1.172  0.00  0.00    -0.286 OA
ATOM     16  C   UNL     1      -5.295  -2.280  -0.250  0.00  0.00    +0.042 A 
ATOM     17  C   UNL     1      -5.983  -1.667   0.781  0.00  0.00    +0.003 A 
ATOM     18  C   UNL     1      -5.369  -0.699   1.561  0.00  0.00    +0.000 A 
ATOM     19  C   UNL     1      -4.193  -0.133   1.089  0.00  0.00    +0.006 A 
ENDBRANCH   4  13
BRANCH   1  23
ATOM     20  C   UNL     1       3.889  -1.577  -0.215  0.00  0.00    +0.080 A 
ATOM     21  C   UNL     1       3.032  -2.133   0.727  0.00  0.00    +0.008 A 
ATOM     22  C   UNL     1       1.653  -1.988   0.642  0.00  0.00    +0.019 A 
ATOM     23  C   UNL     1       1.152  -1.105  -0.307  0.00  0.00    +0.085 A 
ATOM     24  C   UNL     1       1.891  -1.028  -1.482  0.00  0.00    +0.019 A 
ATOM     25  C   UNL     1       3.274  -1.098  -1.366  0.00  0.00    +0.008 A 
BRANCH  20  27
ATOM     26  O   UNL     1       5.248  -0.048   0.860  0.00  0.00    -0.241 OA
ATOM     27  C   UNL     1       5.228  -1.121   0.182  0.00  0.00    +0.388 C 
ATOM     28  O   UNL     1       6.169  -2.070   0.594  0.00  0.00    -0.241 OA
ENDBRANCH  20  27
ENDBRANCH   1  23
TORSDOF 4
