REMARK  Name = 
REMARK  1 active torsions:
REMARK  status: ('A' for Active; 'I' for Inactive)
REMARK    1  A    between atoms: N_11  and  C_12
REMARK                            x       y       z     vdW  Elec       q    Type
REMARK                         _______ _______ _______ _____ _____    ______ ____
ROOT
ATOM      1  O   UNL     1       0.684  -1.750  -0.204  0.00  0.00    -0.269 OA
ATOM      2  C   UNL     1       0.850  -0.965  -0.296  0.00  0.00    +0.255 C 
ATOM      3  N   UNL     1       0.012   0.077   0.199  0.00  0.00    -0.216 N 
ATOM      4  C   UNL     1       0.723   1.324   0.231  0.00  0.00    +0.255 C 
ATOM      5  O   UNL     1       0.308   2.499   0.145  0.00  0.00    -0.269 OA
ATOM      6  C   UNL     1       2.132   0.977  -0.008  0.00  0.00    +0.058 A 
ATOM      7  C   UNL     1       3.276   1.713   0.288  0.00  0.00    +0.005 A 
ATOM      8  C   UNL     1       4.508   1.112   0.246  0.00  0.00    +0.000 A 
ATOM      9  C   UNL     1       4.599  -0.186  -0.181  0.00  0.00    +0.000 A 
ATOM     10  C   UNL     1       3.444  -0.935  -0.343  0.00  0.00    +0.005 A 
ATOM     11  C   UNL     1       2.185  -0.360  -0.346  0.00  0.00    +0.058 A 
ENDROOT
BRANCH   3  12
ATOM     12  C   UNL     1      -1.487   0.240  -0.256  0.00  0.00    +0.162 C 
ATOM     13  C   UNL     1      -1.859  -1.338  -0.289  0.00  0.00    +0.266 C 
ATOM     14  O   UNL     1      -1.460  -1.934  -1.343  0.00  0.00    -0.271 OA
ATOM     15  N   UNL     1      -3.301  -1.378  -0.215  0.00  0.00    -0.143 NA
ATOM     16  C   UNL     1      -4.072  -0.292   0.274  0.00  0.00    +0.248 C 
ATOM     17  O   UNL     1      -5.101   0.167  -0.313  0.00  0.00    -0.273 OA
ATOM     18  C   UNL     1      -3.458   0.640   1.268  0.00  0.00    +0.089 C 
ATOM     19  C   UNL     1      -1.982   0.388   1.314  0.00  0.00    +0.039 C 
ENDBRANCH   3  12
TORSDOF 1
