REMARK  Name = 
REMARK  11 active torsions:
REMARK  status: ('A' for Active; 'I' for Inactive)
REMARK    1  A    between atoms: N_4  and  C_5
REMARK    2  A    between atoms: N_4  and  C_10
REMARK    3  A    between atoms: C_5  and  C_6
REMARK    4  A    between atoms: C_6  and  C_8
REMARK    5  A    between atoms: C_13  and  C_14
REMARK    6  A    between atoms: N_16  and  C_17
REMARK    7  A    between atoms: C_17  and  C_18
REMARK    8  A    between atoms: C_22  and  C_23
REMARK    9  A    between atoms: N_25  and  C_26
REMARK   10  A    between atoms: C_26  and  C_27
REMARK   11  A    between atoms: C_27  and  C_29
REMARK                            x       y       z     vdW  Elec       q    Type
REMARK                         _______ _______ _______ _____ _____    ______ ____
ROOT
ATOM      1  C   UNL     1      -1.183  -0.836  -0.043  0.00  0.00    +0.065 A 
ATOM      2  C   UNL     1       0.124  -1.214  -0.322  0.00  0.00    +0.049 A 
ATOM      3  I   UNL     1       0.553  -3.071  -1.167  0.00  0.00    -0.041 I 
ATOM      4  C   UNL     1       1.179  -0.310  -0.266  0.00  0.00    +0.067 A 
ATOM      5  C   UNL     1       0.943   1.019  -0.049  0.00  0.00    +0.040 A 
ATOM      6  I   UNL     1       2.540   2.389  -0.241  0.00  0.00    -0.042 I 
ATOM      7  C   UNL     1      -0.362   1.440   0.177  0.00  0.00    +0.067 A 
ATOM      8  C   UNL     1      -1.402   0.532   0.009  0.00  0.00    +0.049 A 
ATOM      9  I   UNL     1      -3.272   1.324  -0.520  0.00  0.00    -0.041 I 
ENDROOT
BRANCH   1  12
ATOM     10  C   UNL     1      -2.053  -3.245  -0.202  0.00  0.00    +0.095 C 
ATOM     11  C   UNL     1      -1.954  -3.066  -0.486  0.00  0.00    +0.230 C 
ATOM     12  N   UNL     1      -2.265  -1.788  -0.016  0.00  0.00    -0.255 N 
ATOM     13  O   UNL     1      -2.555  -4.029  -0.906  0.00  0.00    -0.275 OA
BRANCH  12  14
ATOM     14  C   UNL     1      -3.058  -1.927   1.222  0.00  0.00    +0.134 C 
BRANCH  14  15
ATOM     15  C   UNL     1      -4.575  -1.420   0.816  0.00  0.00    +0.205 C 
ATOM     16  O   UNL     1      -4.981  -1.358   2.283  0.00  0.00    -0.218 OA
BRANCH  15  17
ATOM     17  C   UNL     1      -5.153  -2.960   0.657  0.00  0.00    +0.217 C 
ATOM     18  O   UNL     1      -5.912  -2.770  -0.513  0.00  0.00    -0.218 OA
ENDBRANCH  15  17
ENDBRANCH  14  15
ENDBRANCH  12  14
ENDBRANCH   1  12
BRANCH   4  19
ATOM     19  C   UNL     1       2.568  -0.786  -0.176  0.00  0.00    +0.266 C 
ATOM     20  N   UNL     1       3.505  -0.631  -1.222  0.00  0.00    -0.199 NA
ATOM     21  O   UNL     1       2.757  -1.709   0.673  0.00  0.00    -0.268 OA
BRANCH  20  22
ATOM     22  C   UNL     1       4.689  -1.471  -1.346  0.00  0.00    +0.151 C 
BRANCH  22  23
ATOM     23  C   UNL     1       5.645  -0.958  -0.097  0.00  0.00    +0.206 C 
ATOM     24  O   UNL     1       6.757  -1.921  -0.492  0.00  0.00    -0.218 OA
BRANCH  23  25
ATOM     25  C   UNL     1       6.294   0.248  -1.024  0.00  0.00    +0.217 C 
ATOM     26  O   UNL     1       7.145   0.934  -0.178  0.00  0.00    -0.218 OA
ENDBRANCH  23  25
ENDBRANCH  22  23
ENDBRANCH  20  22
ENDBRANCH   4  19
BRANCH   7  27
ATOM     27  C   UNL     1      -0.623   2.884   0.100  0.00  0.00    +0.266 C 
ATOM     28  N   UNL     1      -0.084   3.788   1.073  0.00  0.00    -0.199 NA
ATOM     29  O   UNL     1      -1.704   3.276  -0.436  0.00  0.00    -0.268 OA
BRANCH  28  30
ATOM     30  C   UNL     1      -0.228   5.209   0.871  0.00  0.00    +0.151 C 
BRANCH  30  31
ATOM     31  C   UNL     1      -1.614   5.518   0.326  0.00  0.00    +0.205 C 
ATOM     32  O   UNL     1      -1.719   6.908   0.284  0.00  0.00    -0.218 OA
ENDBRANCH  30  31
ENDBRANCH  28  30
ENDBRANCH   7  27
TORSDOF 11
