REMARK  Name = 
REMARK  0 active torsions:
REMARK  status: ('A' for Active; 'I' for Inactive)
REMARK                            x       y       z     vdW  Elec       q    Type
REMARK                         _______ _______ _______ _____ _____    ______ ____
ROOT
ATOM      1  O   UNL     1      -0.292   1.259  -0.049  0.00  0.00    -0.197 OA
ATOM      2  C   UNL     1       0.004   0.045   0.129  0.00  0.00    +0.592 C 
ATOM      3  O   UNL     1      -1.021  -0.877  -0.047  0.00  0.00    -0.197 OA
ATOM      4  O   UNL     1       1.309  -0.426  -0.033  0.00  0.00    -0.197 OA
ENDROOT
TORSDOF 0
