REMARK  Name = 
REMARK  3 active torsions:
REMARK  status: ('A' for Active; 'I' for Inactive)
REMARK    1  A    between atoms: C_2  and  C_3
REMARK    2  A    between atoms: C_9  and  C_11
REMARK    3  A    between atoms: C_11  and  C_13
REMARK                            x       y       z     vdW  Elec       q    Type
REMARK                         _______ _______ _______ _____ _____    ______ ____
ROOT
ATOM      1  C   UNL     1      -0.171  -1.140   0.671  0.00  0.00    +0.168 C 
ATOM      2  N   UNL     1       0.306  -0.088   1.746  0.00  0.00    -0.123 NA
ENDROOT
BRANCH   1   3
ATOM      3  C   UNL     1      -1.155  -0.030  -0.021  0.00  0.00    +0.027 C 
ATOM      4  C   UNL     1      -2.277  -0.905  -0.504  0.00  0.00    +0.002 C 
ATOM      5  C   UNL     1      -3.402   0.065  -1.360  0.00  0.00    +0.002 C 
ATOM      6  C   UNL     1      -4.223   0.816  -0.171  0.00  0.00    +0.030 C 
ATOM      7  C   UNL     1      -3.304   0.249   0.853  0.00  0.00    +0.127 C 
ATOM      8  C   UNL     1      -3.207  -0.666  -0.138  0.00  0.00    +0.030 C 
ATOM      9  C   UNL     1      -2.572  -0.099  -1.638  0.00  0.00    +0.002 C 
ATOM     10  O   UNL     1      -4.162   0.476   1.825  0.00  0.00    -0.226 OA
ATOM     11  C   UNL     1      -2.592   1.441  -1.314  0.00  0.00    +0.000 C 
ATOM     12  C   UNL     1      -1.950   0.708   0.983  0.00  0.00    +0.032 C 
ATOM     13  C   UNL     1      -0.981   0.005  -1.343  0.00  0.00    +0.002 C 
ENDBRANCH   1   3
BRANCH   1  16
ATOM     14  C   UNL     1       2.744  -0.060   1.172  0.00  0.00    +0.167 C 
ATOM     15  N   UNL     1       2.009   0.105  -0.172  0.00  0.00    -0.269 N 
ATOM     16  C   UNL     1       1.016  -0.831  -0.364  0.00  0.00    +0.244 C 
ATOM     17  O   UNL     1       1.033  -1.828  -1.146  0.00  0.00    -0.273 OA
ATOM     18  C   UNL     1       2.941   0.043  -1.396  0.00  0.00    +0.076 C 
ATOM     19  C   UNL     1       3.992  -1.187  -0.874  0.00  0.00    +0.023 C 
ATOM     20  C   UNL     1       4.518   0.461  -0.854  0.00  0.00    +0.022 C 
ATOM     21  C   UNL     1       3.863  -1.118   0.708  0.00  0.00    +0.037 C 
BRANCH  14  23
ATOM     22  N   UNL     1       4.029   2.259   1.572  0.00  0.00    -0.194 NA
ATOM     23  C   UNL     1       3.544   1.321   1.031  0.00  0.00    +0.093 C 
ENDBRANCH  14  23
ENDBRANCH   1  16
TORSDOF 3
