REMARK  Name = 
REMARK  10 active torsions:
REMARK  status: ('A' for Active; 'I' for Inactive)
REMARK    1  A    between atoms: C_2  and  C_3
REMARK    2  A    between atoms: C_19  and  C_20
REMARK    3  A    between atoms: C_19  and  C_24
REMARK    4  A    between atoms: C_20  and  O_22
REMARK    5  A    between atoms: C_29  and  O_30
REMARK    6  A    between atoms: C_42  and  C_43
REMARK    7  A    between atoms: C_46  and  O_47
REMARK    8  A    between atoms: O_47  and  C_48
REMARK    9  A    between atoms: C_51  and  C_53
REMARK   10  A    between atoms: C_53  and  O_55
REMARK                            x       y       z     vdW  Elec       q    Type
REMARK                         _______ _______ _______ _____ _____    ______ ____
ROOT
ATOM      1  C   UNL     1      -1.230  -0.594  -0.218  0.00  0.00    +0.026 A 
ATOM      2  C   UNL     1      -1.159  -1.986  -0.303  0.00  0.00    +0.137 A 
ATOM      3  C   UNL     1       0.022  -2.383  -0.927  0.00  0.00    +0.051 A 
ATOM      4  C   UNL     1       1.205  -1.636  -0.771  0.00  0.00    +0.047 A 
ATOM      5  N   UNL     1       2.506  -1.824  -1.236  0.00  0.00    -0.304 N 
ATOM      6  C   UNL     1       3.519  -1.118  -0.262  0.00  0.00    +0.120 C 
ATOM      7  C   UNL     1       3.608   0.187  -1.212  0.00  0.00    +0.268 C 
ATOM      8  O   UNL     1       2.473   0.574  -1.750  0.00  0.00    -0.209 OA
ATOM      9  C   UNL     1       4.298   1.396  -0.373  0.00  0.00    +0.213 C 
ATOM     10  C   UNL     1       4.411   0.677   1.069  0.00  0.00    +0.072 C 
ATOM     11  C   UNL     1       2.892   0.586   1.622  0.00  0.00    +0.070 C 
ATOM     12  N   UNL     1       3.337  -0.231   2.898  0.00  0.00    -0.269 NA
ATOM     13  C   UNL     1       4.542   0.319   3.403  0.00  0.00    +0.099 C 
ATOM     14  C   UNL     1       5.644  -0.376   2.638  0.00  0.00    -0.013 C 
ATOM     15  C   UNL     1       3.457  -1.556   2.511  0.00  0.00    +0.073 C 
ATOM     16  C   UNL     1       2.202  -1.760   1.775  0.00  0.00    +0.024 C 
ATOM     17  C   UNL     1       5.350  -0.227   1.330  0.00  0.00    -0.025 C 
ATOM     18  C   UNL     1       2.363  -0.666   0.769  0.00  0.00    +0.055 C 
ATOM     19  C   UNL     1       3.000  -3.115  -1.715  0.00  0.00    +0.112 C 
ATOM     20  C   UNL     1       1.194  -0.476   0.021  0.00  0.00    -0.007 A 
ATOM     21  C   UNL     1      -0.051   0.146  -0.055  0.00  0.00    -0.003 A 
ENDROOT
BRANCH   1  28
ATOM     22  C   UNL     1      -4.823   3.416  -0.162  0.00  0.00    -0.033 C 
ATOM     23  C   UNL     1      -6.071   2.886  -0.796  0.00  0.00    +0.095 C 
ATOM     24  N   UNL     1      -5.902   1.499  -0.924  0.00  0.00    -0.265 NA
ATOM     25  C   UNL     1      -5.882   0.743   0.329  0.00  0.00    +0.101 C 
ATOM     26  C   UNL     1      -5.010  -0.473   0.199  0.00  0.00    +0.010 A 
ATOM     27  C   UNL     1      -3.702  -0.815  -0.148  0.00  0.00    +0.070 A 
ATOM     28  C   UNL     1      -2.569   0.102  -0.179  0.00  0.00    +0.146 C 
ATOM     29  C   UNL     1      -2.463   0.923  -1.327  0.00  0.00    +0.026 C 
ATOM     30  C   UNL     1      -3.571   2.046  -1.672  0.00  0.00    +0.039 C 
ATOM     31  N   UNL     1      -3.887  -1.828  -1.035  0.00  0.00    -0.249 NA
ATOM     32  C   UNL     1      -5.079  -2.434  -0.802  0.00  0.00    +0.081 A 
ATOM     33  C   UNL     1      -5.472  -3.750  -0.965  0.00  0.00    +0.019 A 
ATOM     34  C   UNL     1      -6.360  -4.305  -0.054  0.00  0.00    +0.002 A 
ATOM     35  C   UNL     1      -6.936  -3.527   0.949  0.00  0.00    +0.000 A 
ATOM     36  C   UNL     1      -6.734  -2.148   0.962  0.00  0.00    +0.001 A 
ATOM     37  C   UNL     1      -5.747  -1.644   0.121  0.00  0.00    +0.016 A 
ATOM     38  C   UNL     1      -4.841   1.021  -1.714  0.00  0.00    +0.077 C 
ATOM     39  C   UNL     1      -3.826   2.520  -0.155  0.00  0.00    -0.032 C 
BRANCH  22  41
ATOM     40  C   UNL     1      -5.195   5.564   0.606  0.00  0.00    +0.005 C 
ATOM     41  C   UNL     1      -4.974   4.455   0.872  0.00  0.00    +0.023 C 
ENDBRANCH  22  41
BRANCH  28  42
ATOM     42  C   UNL     1      -2.460   0.747   1.178  0.00  0.00    +0.325 C 
ATOM     43  O   UNL     1      -3.050   0.203   2.163  0.00  0.00    -0.249 OA
BRANCH  42  44
ATOM     44  O   UNL     1      -1.408   1.618   1.494  0.00  0.00    -0.444 OA
ATOM     45  C   UNL     1      -1.131   2.084   2.788  0.00  0.00    +0.256 C 
ENDBRANCH  42  44
ENDBRANCH  28  42
ENDBRANCH   1  28
BRANCH   2  46
ATOM     46  O   UNL     1      -1.859  -2.630   0.670  0.00  0.00    -0.472 OA
ATOM     47  C   UNL     1      -1.406  -3.482   1.674  0.00  0.00    +0.252 C 
ENDBRANCH   2  46
BRANCH   7  48
ATOM     48  C   UNL     1       4.515  -0.222  -2.292  0.00  0.00    +0.350 C 
ATOM     49  O   UNL     1       4.816   0.720  -3.091  0.00  0.00    -0.247 OA
BRANCH  48  50
ATOM     50  O   UNL     1       5.543  -1.139  -2.046  0.00  0.00    -0.443 OA
ATOM     51  C   UNL     1       6.721  -1.185  -2.846  0.00  0.00    +0.256 C 
ENDBRANCH  48  50
ENDBRANCH   7  48
BRANCH  10  52
ATOM     52  C   UNL     1       4.745   1.973   1.842  0.00  0.00    +0.009 C 
ATOM     53  C   UNL     1       3.625   2.989   1.649  0.00  0.00    +0.001 C 
ENDBRANCH  10  52
BRANCH   9  54
ATOM     54  O   UNL     1       5.762   1.009  -0.715  0.00  0.00    -0.449 OA
BRANCH  54  55
ATOM     55  C   UNL     1       6.628   2.058  -0.395  0.00  0.00    +0.318 C 
ATOM     56  O   UNL     1       6.355   3.254  -0.726  0.00  0.00    -0.250 OA
ATOM     57  C   UNL     1       8.065   1.818  -0.039  0.00  0.00    +0.121 C 
ENDBRANCH  54  55
ENDBRANCH   9  54
TORSDOF 10
