REMARK  Name = 
REMARK  3 active torsions:
REMARK  status: ('A' for Active; 'I' for Inactive)
REMARK    1  A    between atoms: C_2  and  C_4
REMARK    2  A    between atoms: C_4  and  C_6
REMARK    3  A    between atoms: C_6  and  C_8
REMARK                            x       y       z     vdW  Elec       q    Type
REMARK                         _______ _______ _______ _____ _____    ______ ____
ROOT
ATOM      1  C   UNL     1      -0.499   0.343  -0.689  0.00  0.00    +0.182 C 
ATOM      2  S   UNL     1      -1.271   2.038  -0.326  0.00  0.00    -0.070 S 
ENDROOT
BRANCH   1   4
ATOM      3  O   UNL     1      -2.163  -1.319  -0.791  0.00  0.00    -0.245 OA
ATOM      4  C   UNL     1      -1.618  -0.502  -0.022  0.00  0.00    +0.377 C 
ATOM      5  O   UNL     1      -2.111  -0.143   1.208  0.00  0.00    -0.245 OA
ENDBRANCH   1   4
BRANCH   1   6
ATOM      6  C   UNL     1       0.478   0.342   0.620  0.00  0.00    +0.182 C 
ATOM      7  S   UNL     1       1.483   1.854   0.054  0.00  0.00    -0.070 S 
BRANCH   6   8
ATOM      8  C   UNL     1       1.507  -0.704   0.125  0.00  0.00    +0.377 C 
ATOM      9  O   UNL     1       2.738  -0.651   0.785  0.00  0.00    -0.245 OA
ATOM     10  O   UNL     1       1.455  -1.258  -0.964  0.00  0.00    -0.245 OA
ENDBRANCH   6   8
ENDBRANCH   1   6
TORSDOF 3
