REMARK  Name = 
REMARK  0 active torsions:
REMARK  status: ('A' for Active; 'I' for Inactive)
REMARK                            x       y       z     vdW  Elec       q    Type
REMARK                         _______ _______ _______ _____ _____    ______ ____
ROOT
ATOM      1  N   UNL     1      -0.079   1.324  -0.035  0.00  0.00    +0.139 NA
ATOM      2  C   UNL     1      -0.009   0.037   0.102  0.00  0.00    +0.574 C 
ATOM      3  N   UNL     1       1.260  -0.607  -0.054  0.00  0.00    +0.139 NA
ATOM      4  N   UNL     1      -1.172  -0.755  -0.013  0.00  0.00    +0.139 NA
ENDROOT
TORSDOF 0
