REMARK  Name = 
REMARK  3 active torsions:
REMARK  status: ('A' for Active; 'I' for Inactive)
REMARK    1  A    between atoms: N_5  and  C_6
REMARK    2  A    between atoms: C_6  and  C_7
REMARK    3  A    between atoms: C_6  and  C_13
REMARK                            x       y       z     vdW  Elec       q    Type
REMARK                         _______ _______ _______ _____ _____    ______ ____
ROOT
ATOM      1  C   UNL     1      -0.164  -0.029  -0.654  0.00  0.00    +0.103 C 
ENDROOT
BRANCH   1   6
ATOM      2  C   UNL     1       5.257   0.505   0.198  0.00  0.00    +0.090 C 
ATOM      3  N   UNL     1       3.855   0.493  -0.131  0.00  0.00    -0.269 NA
ATOM      4  C   UNL     1       3.045   0.694   1.069  0.00  0.00    +0.090 C 
ATOM      5  C   UNL     1       1.647   1.002   0.557  0.00  0.00    +0.090 C 
ATOM      6  N   UNL     1       1.149  -0.188  -0.089  0.00  0.00    -0.264 NA
ATOM      7  C   UNL     1       2.035  -0.709  -1.098  0.00  0.00    +0.090 C 
ATOM      8  C   UNL     1       3.465  -0.807  -0.653  0.00  0.00    +0.090 C 
ENDBRANCH   1   6
BRANCH   1   9
ATOM      9  C   UNL     1      -0.854   1.192  -0.143  0.00  0.00    -0.004 A 
ATOM     10  C   UNL     1      -1.093   2.220  -1.045  0.00  0.00    -0.003 A 
ATOM     11  C   UNL     1      -1.740   3.367  -0.606  0.00  0.00    -0.000 A 
ATOM     12  C   UNL     1      -2.325   3.420   0.653  0.00  0.00    -0.000 A 
ATOM     13  C   UNL     1      -2.434   2.199   1.301  0.00  0.00    -0.000 A 
ATOM     14  C   UNL     1      -1.802   1.059   0.863  0.00  0.00    -0.003 A 
ENDBRANCH   1   9
BRANCH   1  15
ATOM     15  C   UNL     1      -0.980  -1.253  -0.393  0.00  0.00    -0.004 A 
ATOM     16  C   UNL     1      -2.053  -1.553  -1.224  0.00  0.00    -0.003 A 
ATOM     17  C   UNL     1      -2.723  -2.742  -0.977  0.00  0.00    -0.000 A 
ATOM     18  C   UNL     1      -2.495  -3.424   0.207  0.00  0.00    -0.000 A 
ATOM     19  C   UNL     1      -1.347  -3.172   0.934  0.00  0.00    -0.000 A 
ATOM     20  C   UNL     1      -0.441  -2.276   0.379  0.00  0.00    -0.003 A 
ENDBRANCH   1  15
TORSDOF 3
