REMARK  Name = 
REMARK  6 active torsions:
REMARK  status: ('A' for Active; 'I' for Inactive)
REMARK    1  A    between atoms: C_7  and  C_8
REMARK    2  A    between atoms: C_20  and  N_21
REMARK    3  A    between atoms: C_23  and  C_25
REMARK    4  A    between atoms: C_25  and  C_28
REMARK    5  A    between atoms: C_30  and  C_31
REMARK    6  A    between atoms: C_36  and  C_37
REMARK                            x       y       z     vdW  Elec       q    Type
REMARK                         _______ _______ _______ _____ _____    ______ ____
ROOT
ATOM      1  N   UNL     1       0.497  -0.530  -0.599  0.00  0.00    -0.255 N 
ATOM      2  C   UNL     1      -0.758   0.154  -0.721  0.00  0.00    +0.232 C 
ATOM      3  O   UNL     1      -0.856   1.206  -0.019  0.00  0.00    -0.274 OA
ATOM      4  C   UNL     1       0.645  -1.310   0.629  0.00  0.00    +0.120 C 
ENDROOT
BRANCH   1   6
ATOM      5  C   UNL     1       2.709  -0.369  -1.537  0.00  0.00    +0.018 A 
ATOM      6  C   UNL     1       1.642   0.257  -0.951  0.00  0.00    +0.073 A 
ATOM      7  C   UNL     1       1.875   1.466  -0.310  0.00  0.00    +0.115 A 
ATOM      8  N   UNL     1       3.136   1.894  -0.061  0.00  0.00    -0.228 NA
ATOM      9  C   UNL     1       4.200   1.109  -0.361  0.00  0.00    +0.132 A 
ATOM     10  N   UNL     1       5.358   1.063   0.480  0.00  0.00    -0.290 N 
ATOM     11  C   UNL     1       5.473   0.041   1.514  0.00  0.00    +0.109 C 
ATOM     12  C   UNL     1       5.121   0.735   2.824  0.00  0.00    +0.094 C 
ATOM     13  N   UNL     1       6.045   1.829   3.068  0.00  0.00    -0.269 NA
ATOM     14  C   UNL     1       5.614   2.502   4.292  0.00  0.00    +0.090 C 
ATOM     15  C   UNL     1       5.931   2.828   2.007  0.00  0.00    +0.094 C 
ATOM     16  C   UNL     1       6.207   2.234   0.644  0.00  0.00    +0.109 C 
ATOM     17  C   UNL     1       3.979   0.151  -1.341  0.00  0.00    +0.036 A 
BRANCH   5  20
ATOM     18  C   UNL     1       4.511  -0.569  -3.674  0.00  0.00    +0.031 C 
ATOM     19  C   UNL     1       3.376  -1.533  -3.542  0.00  0.00    -0.022 A 
ATOM     20  C   UNL     1       2.462  -1.448  -2.497  0.00  0.00    -0.003 A 
ATOM     21  C   UNL     1       1.899  -2.659  -2.114  0.00  0.00    -0.000 A 
ATOM     22  C   UNL     1       1.524  -3.503  -3.152  0.00  0.00    -0.000 A 
ATOM     23  C   UNL     1       2.441  -3.608  -4.191  0.00  0.00    -0.000 A 
ATOM     24  C   UNL     1       3.375  -2.616  -4.405  0.00  0.00    -0.004 A 
ENDBRANCH   5  20
ENDBRANCH   1   6
BRANCH   2  25
ATOM     25  C   UNL     1      -2.032  -0.584  -0.952  0.00  0.00    +0.088 C 
ATOM     26  C   UNL     1      -1.765  -2.059  -0.841  0.00  0.00    +0.014 C 
ATOM     27  C   UNL     1      -2.622  -0.269  -2.313  0.00  0.00    +0.014 C 
BRANCH  25  28
ATOM     28  C   UNL     1      -3.068  -0.221   0.061  0.00  0.00    -0.015 A 
ATOM     29  C   UNL     1      -3.513   1.087   0.217  0.00  0.00    +0.000 A 
ATOM     30  C   UNL     1      -4.537   1.417   1.089  0.00  0.00    +0.071 A 
ATOM     31  C   UNL     1      -5.104   0.356   1.783  0.00  0.00    +0.008 A 
ATOM     32  C   UNL     1      -5.026  -0.944   1.301  0.00  0.00    +0.071 A 
ATOM     33  C   UNL     1      -3.981  -1.202   0.424  0.00  0.00    +0.000 A 
BRANCH  32  34
ATOM     34  C   UNL     1      -5.688  -2.048   2.032  0.00  0.00    +0.419 C 
ATOM     35  F   UNL     1      -5.888  -1.669   3.352  0.00  0.00    -0.166 F 
ATOM     36  F   UNL     1      -4.940  -3.199   2.015  0.00  0.00    -0.166 F 
ATOM     37  F   UNL     1      -6.901  -2.307   1.438  0.00  0.00    -0.166 F 
ENDBRANCH  32  34
BRANCH  30  38
ATOM     38  C   UNL     1      -5.165   2.768   1.075  0.00  0.00    +0.419 C 
ATOM     39  F   UNL     1      -6.287   2.724   1.897  0.00  0.00    -0.166 F 
ATOM     40  F   UNL     1      -5.559   3.099  -0.197  0.00  0.00    -0.166 F 
ATOM     41  F   UNL     1      -4.330   3.726   1.638  0.00  0.00    -0.166 F 
ENDBRANCH  30  38
ENDBRANCH  25  28
ENDBRANCH   2  25
TORSDOF 6
