REMARK  Name = 
REMARK  23 active torsions:
REMARK  status: ('A' for Active; 'I' for Inactive)
REMARK    1  A    between atoms: C_2  and  C_4
REMARK    2  A    between atoms: C_4  and  N_5
REMARK    3  A    between atoms: N_5  and  C_6
REMARK    4  A    between atoms: N_5  and  C_48
REMARK    5  A    between atoms: C_6  and  C_7
REMARK    6  A    between atoms: C_7  and  N_8
REMARK    7  A    between atoms: N_8  and  C_9
REMARK    8  A    between atoms: N_8  and  C_13
REMARK    9  A    between atoms: C_9  and  C_10
REMARK   10  A    between atoms: C_13  and  C_14
REMARK   11  A    between atoms: C_14  and  C_15
REMARK   12  A    between atoms: C_14  and  N_39
REMARK   13  A    between atoms: C_15  and  O_16
REMARK   14  A    between atoms: O_16  and  P_17
REMARK   15  A    between atoms: P_17  and  O_20
REMARK   16  A    between atoms: O_20  and  C_21
REMARK   17  A    between atoms: C_24  and  C_25
REMARK   18  A    between atoms: C_24  and  C_31
REMARK   19  A    between atoms: N_39  and  C_40
REMARK   20  A    between atoms: N_39  and  C_44
REMARK   21  A    between atoms: C_40  and  C_41
REMARK   22  A    between atoms: C_44  and  C_45
REMARK   23  A    between atoms: C_48  and  C_49
REMARK                            x       y       z     vdW  Elec       q    Type
REMARK                         _______ _______ _______ _____ _____    ______ ____
ROOT
ATOM      1  C   UNL     1       1.997  -0.070  -0.660  0.00  0.00    +0.105 C 
ENDROOT
BRANCH   1   2
ATOM      2  N   UNL     1       1.215  -1.139  -1.557  0.00  0.00    -0.251 NA
BRANCH   2   3
ATOM      3  C   UNL     1       2.208  -2.120  -1.900  0.00  0.00    +0.188 C 
BRANCH   3   4
ATOM      4  C   UNL     1       2.986  -1.790  -3.106  0.00  0.00    +0.381 C 
ATOM      5  O   UNL     1       4.077  -0.953  -2.993  0.00  0.00    -0.244 OA
ATOM      6  O   UNL     1       2.995  -2.612  -4.056  0.00  0.00    -0.244 OA
ENDBRANCH   3   4
ENDBRANCH   2   3
BRANCH   2   7
ATOM      7  C   UNL     1       0.732  -0.394  -2.689  0.00  0.00    +0.188 C 
BRANCH   7   8
ATOM      8  C   UNL     1       1.470   0.860  -2.938  0.00  0.00    +0.381 C 
ATOM      9  O   UNL     1       1.728   1.171  -4.277  0.00  0.00    -0.244 OA
ATOM     10  O   UNL     1       1.339   1.877  -2.190  0.00  0.00    -0.244 OA
ENDBRANCH   7   8
ENDBRANCH   2   7
ENDBRANCH   1   2
BRANCH   1  11
ATOM     11  C   UNL     1       2.615  -1.259   0.337  0.00  0.00    +0.091 C 
BRANCH  11  12
ATOM     12  N   UNL     1       3.709  -0.576   1.027  0.00  0.00    -0.261 NA
BRANCH  12  13
ATOM     13  C   UNL     1       4.855  -1.484   1.002  0.00  0.00    +0.090 C 
BRANCH  13  14
ATOM     14  C   UNL     1       5.863  -1.164   2.066  0.00  0.00    +0.091 C 
BRANCH  14  15
ATOM     15  N   UNL     1       7.070  -0.564   1.577  0.00  0.00    -0.252 NA
BRANCH  15  16
ATOM     16  C   UNL     1       7.208  -0.570   0.150  0.00  0.00    +0.188 C 
BRANCH  16  17
ATOM     17  C   UNL     1       7.956   0.590  -0.383  0.00  0.00    +0.381 C 
ATOM     18  O   UNL     1       9.316   0.792  -0.167  0.00  0.00    -0.244 OA
ATOM     19  O   UNL     1       7.387   1.476  -1.089  0.00  0.00    -0.244 OA
ENDBRANCH  16  17
ENDBRANCH  15  16
BRANCH  15  20
ATOM     20  C   UNL     1       7.378   0.707   2.183  0.00  0.00    +0.188 C 
BRANCH  20  22
ATOM     21  O   UNL     1       6.250   0.122   4.231  0.00  0.00    -0.244 OA
ATOM     22  C   UNL     1       6.539   0.983   3.381  0.00  0.00    +0.381 C 
ATOM     23  O   UNL     1       5.869   2.208   3.429  0.00  0.00    -0.244 OA
ENDBRANCH  20  22
ENDBRANCH  15  20
ENDBRANCH  14  15
ENDBRANCH  13  14
ENDBRANCH  12  13
BRANCH  12  24
ATOM     24  C   UNL     1       4.124   0.608   0.320  0.00  0.00    +0.188 C 
BRANCH  24  25
ATOM     25  C   UNL     1       3.630   1.860   0.923  0.00  0.00    +0.381 C 
ATOM     26  O   UNL     1       3.881   3.023   0.186  0.00  0.00    -0.244 OA
ATOM     27  O   UNL     1       3.423   2.005   2.163  0.00  0.00    -0.244 OA
ENDBRANCH  24  25
ENDBRANCH  12  24
ENDBRANCH  11  12
ENDBRANCH   1  11
BRANCH   1  28
ATOM     28  C   UNL     1       0.680   0.167   0.336  0.00  0.00    +0.166 C 
BRANCH  28  29
ATOM     29  O   UNL     1       0.197  -1.086   0.614  0.00  0.00    -0.313 OA
BRANCH  29  30
ATOM     30  P   UNL     1      -1.471  -1.142   0.740  0.00  0.00    +0.214 P 
ATOM     31  O   UNL     1      -1.886  -2.638   1.422  0.00  0.00    -0.437 OA
ATOM     32  O   UNL     1      -1.894  -0.039   1.679  0.00  0.00    -0.517 OA
BRANCH  30  33
ATOM     33  O   UNL     1      -2.267  -0.897  -0.714  0.00  0.00    -0.317 OA
BRANCH  33  34
ATOM     34  C   UNL     1      -3.320  -1.766  -0.926  0.00  0.00    +0.122 C 
ATOM     35  C   UNL     1      -4.151  -2.007   0.315  0.00  0.00    +0.031 C 
ATOM     36  C   UNL     1      -4.818  -0.746   0.812  0.00  0.00    +0.011 C 
ATOM     37  C   UNL     1      -5.562  -0.012  -0.268  0.00  0.00    +0.038 C 
ATOM     38  C   UNL     1      -4.721   0.162  -1.523  0.00  0.00    +0.011 C 
ATOM     39  C   UNL     1      -4.259  -1.194  -1.983  0.00  0.00    +0.031 C 
BRANCH  37  40
ATOM     40  C   UNL     1      -5.837   1.365   0.245  0.00  0.00    -0.019 A 
ATOM     41  C   UNL     1      -4.736   2.135   0.545  0.00  0.00    -0.004 A 
ATOM     42  C   UNL     1      -4.793   3.221   1.400  0.00  0.00    -0.000 A 
ATOM     43  C   UNL     1      -5.897   3.332   2.226  0.00  0.00    -0.000 A 
ATOM     44  C   UNL     1      -7.022   2.613   1.922  0.00  0.00    -0.000 A 
ATOM     45  C   UNL     1      -6.951   1.532   1.053  0.00  0.00    -0.004 A 
ENDBRANCH  37  40
BRANCH  37  46
ATOM     46  C   UNL     1      -6.877  -0.620  -0.567  0.00  0.00    -0.019 A 
ATOM     47  C   UNL     1      -7.952   0.108  -1.056  0.00  0.00    -0.004 A 
ATOM     48  C   UNL     1      -9.259  -0.313  -0.844  0.00  0.00    -0.000 A 
ATOM     49  C   UNL     1      -9.460  -1.440  -0.065  0.00  0.00    -0.000 A 
ATOM     50  C   UNL     1      -8.437  -2.376  -0.079  0.00  0.00    -0.000 A 
ATOM     51  C   UNL     1      -7.128  -1.950  -0.254  0.00  0.00    -0.004 A 
ENDBRANCH  37  46
ENDBRANCH  33  34
ENDBRANCH  30  33
ENDBRANCH  29  30
ENDBRANCH  28  29
ENDBRANCH   1  28
TORSDOF 23
