REMARK  Name = 
REMARK  4 active torsions:
REMARK  status: ('A' for Active; 'I' for Inactive)
REMARK    1  A    between atoms: C_2  and  C_3
REMARK    2  A    between atoms: C_3  and  C_4
REMARK    3  A    between atoms: C_26  and  C_27
REMARK    4  A    between atoms: C_27  and  C_29
REMARK                            x       y       z     vdW  Elec       q    Type
REMARK                         _______ _______ _______ _____ _____    ______ ____
ROOT
ATOM      1  C   UNL     1      -2.880   1.137   1.030  0.00  0.00    +0.235 C 
ATOM      2  O   UNL     1      -3.242   0.256  -0.148  0.00  0.00    -0.326 OA
ATOM      3  C   UNL     1      -2.329  -0.616  -0.346  0.00  0.00    +0.173 C 
ATOM      4  C   UNL     1      -2.458  -1.179   1.189  0.00  0.00    +0.149 C 
ATOM      5  C   UNL     1      -0.903  -1.762   1.214  0.00  0.00    +0.033 C 
ATOM      6  C   UNL     1      -0.263  -0.338   0.795  0.00  0.00    +0.005 C 
ATOM      7  C   UNL     1       1.203  -0.900   0.185  0.00  0.00    +0.004 C 
ATOM      8  C   UNL     1       1.617   0.709   0.013  0.00  0.00    +0.038 C 
ATOM      9  C   UNL     1       1.027   0.964  -1.571  0.00  0.00    +0.153 C 
ATOM     10  C   UNL     1      -0.563   0.758  -1.263  0.00  0.00    +0.036 C 
ATOM     11  O   UNL     1       1.229  -0.432  -2.102  0.00  0.00    -0.223 OA
ATOM     12  C   UNL     1       3.148   0.456  -0.395  0.00  0.00    +0.036 C 
ATOM     13  C   UNL     1       3.756   0.233   0.962  0.00  0.00    -0.038 C 
ATOM     14  C   UNL     1       5.005   0.588   1.213  0.00  0.00    +0.034 C 
ATOM     15  C   UNL     1       5.624   1.645   0.430  0.00  0.00    +0.195 C 
ATOM     16  C   UNL     1       4.842   2.215  -0.660  0.00  0.00    +0.038 C 
ATOM     17  O   UNL     1       6.511   2.351   1.003  0.00  0.00    -0.287 OA
ATOM     18  C   UNL     1       3.311  -1.065   1.567  0.00  0.00    +0.022 C 
ATOM     19  C   UNL     1       3.398  -0.768  -1.126  0.00  0.00    +0.009 C 
ATOM     20  C   UNL     1       3.654   1.712  -0.949  0.00  0.00    -0.020 C 
ATOM     21  C   UNL     1       1.823  -0.978   1.663  0.00  0.00    +0.004 C 
ATOM     22  C   UNL     1      -0.954  -0.453  -0.659  0.00  0.00    +0.034 C 
ATOM     23  C   UNL     1      -0.546  -1.778  -1.258  0.00  0.00    +0.003 C 
ATOM     24  O   UNL     1      -2.082   0.121   1.821  0.00  0.00    -0.330 OA
ENDROOT
BRANCH   3  25
ATOM     25  C   UNL     1      -3.022  -1.810  -0.974  0.00  0.00    +0.210 C 
ATOM     26  O   UNL     1      -2.644  -2.957  -0.706  0.00  0.00    -0.291 OA
BRANCH  25  27
ATOM     27  C   UNL     1      -4.519  -1.872  -1.099  0.00  0.00    +0.248 C 
ATOM     28  O   UNL     1      -5.104  -0.686  -1.429  0.00  0.00    -0.212 OA
ENDBRANCH  25  27
ENDBRANCH   3  25
BRANCH   1  29
ATOM     29  C   UNL     1      -4.285   0.713   1.835  0.00  0.00    +0.061 C 
BRANCH  29  31
ATOM     30  C   UNL     1      -5.152   1.958   0.513  0.00  0.00    +0.000 C 
ATOM     31  C   UNL     1      -5.204   1.776   1.244  0.00  0.00    +0.005 C 
ENDBRANCH  29  31
ENDBRANCH   1  29
TORSDOF 4
