REMARK  Name = 
REMARK  6 active torsions:
REMARK  status: ('A' for Active; 'I' for Inactive)
REMARK    1  A    between atoms: C_3  and  C_5
REMARK    2  A    between atoms: C_7  and  O_8
REMARK    3  A    between atoms: O_8  and  C_9
REMARK    4  A    between atoms: C_12  and  N_13
REMARK    5  A    between atoms: N_16  and  C_17
REMARK    6  A    between atoms: C_22  and  C_23
REMARK                            x       y       z     vdW  Elec       q    Type
REMARK                         _______ _______ _______ _____ _____    ______ ____
ROOT
ATOM      1  C   UNL     1       2.494  -0.070  -0.487  0.00  0.00    +0.145 A 
ATOM      2  C   UNL     1       2.562  -1.026   0.519  0.00  0.00    +0.039 A 
ATOM      3  C   UNL     1       1.416  -1.557   1.098  0.00  0.00    +0.020 A 
ATOM      4  C   UNL     1       0.199  -1.175   0.609  0.00  0.00    +0.075 A 
ATOM      5  C   UNL     1       0.147   0.049  -0.048  0.00  0.00    +0.020 A 
ATOM      6  C   UNL     1       1.298   0.632  -0.560  0.00  0.00    +0.039 A 
ENDROOT
BRANCH   4   7
ATOM      7  N   UNL     1      -0.963  -2.012   0.629  0.00  0.00    -0.161 NA
ATOM      8  C   UNL     1      -2.197  -1.498   0.179  0.00  0.00    +0.348 C 
ATOM      9  N   UNL     1      -3.468  -1.944   0.640  0.00  0.00    -0.161 NA
ATOM     10  O   UNL     1      -2.226  -0.571  -0.686  0.00  0.00    -0.248 OA
BRANCH   9  11
ATOM     11  C   UNL     1      -4.587  -1.062   0.790  0.00  0.00    +0.075 A 
ATOM     12  C   UNL     1      -5.557  -0.917  -0.177  0.00  0.00    +0.021 A 
ATOM     13  C   UNL     1      -6.391   0.194  -0.171  0.00  0.00    +0.083 A 
ATOM     14  C   UNL     1      -6.175   1.246   0.711  0.00  0.00    +0.062 A 
ATOM     15 CL   UNL     1      -7.121   2.708   0.695  0.00  0.00    -0.082 Cl
ATOM     16  C   UNL     1      -5.049   1.210   1.490  0.00  0.00    +0.013 A 
ATOM     17  C   UNL     1      -4.459  -0.026   1.708  0.00  0.00    +0.018 A 
BRANCH  13  18
ATOM     18  C   UNL     1      -7.722   0.189  -0.851  0.00  0.00    +0.419 C 
ATOM     19  F   UNL     1      -7.763  -0.672  -1.916  0.00  0.00    -0.166 F 
ATOM     20  F   UNL     1      -7.961   1.498  -1.260  0.00  0.00    -0.166 F 
ATOM     21  F   UNL     1      -8.648  -0.138   0.133  0.00  0.00    -0.166 F 
ENDBRANCH  13  18
ENDBRANCH   9  11
ENDBRANCH   4   7
BRANCH   1  22
ATOM     22  O   UNL     1       3.449  -0.011  -1.507  0.00  0.00    -0.453 OA
BRANCH  22  27
ATOM     23  C   UNL     1       6.574   0.390   0.275  0.00  0.00    +0.139 A 
ATOM     24  N   UNL     1       6.386   1.660   0.710  0.00  0.00    -0.239 NA
ATOM     25  C   UNL     1       5.699   2.494  -0.108  0.00  0.00    +0.102 A 
ATOM     26  C   UNL     1       4.813   1.924  -0.996  0.00  0.00    +0.058 A 
ATOM     27  C   UNL     1       4.678   0.551  -1.147  0.00  0.00    +0.149 A 
ATOM     28  C   UNL     1       5.711  -0.215  -0.628  0.00  0.00    +0.061 A 
BRANCH  23  31
ATOM     29  C   UNL     1      10.264  -0.344   0.328  0.00  0.00    +0.139 C 
ATOM     30  N   UNL     1       8.919  -0.264  -0.184  0.00  0.00    -0.198 NA
ATOM     31  C   UNL     1       7.794  -0.328   0.666  0.00  0.00    +0.283 C 
ATOM     32  O   UNL     1       7.882  -0.916   1.768  0.00  0.00    -0.267 OA
ENDBRANCH  23  31
ENDBRANCH  22  27
ENDBRANCH   1  22
TORSDOF 6
