REMARK  Name = 
REMARK  1 active torsions:
REMARK  status: ('A' for Active; 'I' for Inactive)
REMARK    1  A    between atoms: C_2  and  C_4
REMARK                            x       y       z     vdW  Elec       q    Type
REMARK                         _______ _______ _______ _____ _____    ______ ____
ROOT
ATOM      1  C   UNL     1       0.271  -0.154  -0.425  0.00  0.00    +0.119 A 
ATOM      2  C   UNL     1      -0.408   1.038  -0.202  0.00  0.00    +0.202 A 
ATOM      3  O   UNL     1       0.347   2.200  -0.262  0.00  0.00    -0.286 OA
ATOM      4  C   UNL     1      -1.710   1.032   0.291  0.00  0.00    +0.042 A 
ATOM      5  C   UNL     1      -2.268  -0.171   0.711  0.00  0.00    +0.003 A 
ATOM      6  C   UNL     1      -1.837  -1.272  -0.024  0.00  0.00    +0.000 A 
ATOM      7  C   UNL     1      -0.567  -1.250  -0.597  0.00  0.00    +0.010 A 
ENDROOT
BRANCH   1   9
ATOM      8  O   UNL     1       2.236   0.446   0.776  0.00  0.00    -0.240 OA
ATOM      9  C   UNL     1       1.701  -0.288  -0.112  0.00  0.00    +0.391 C 
ATOM     10  O   UNL     1       2.235  -1.581  -0.156  0.00  0.00    -0.240 OA
ENDBRANCH   1   9
TORSDOF 1
