REMARK  Name = 
REMARK  2 active torsions:
REMARK  status: ('A' for Active; 'I' for Inactive)
REMARK    1  A    between atoms: C5*_2  and  C4*_3
REMARK    2  A    between atoms: C1*_5  and  N_6
REMARK                            x       y       z     vdW  Elec       q    Type
REMARK                         _______ _______ _______ _____ _____    ______ ____
ROOT
ATOM      1  N   UNL     1      -0.016  -0.149  -0.239  0.00  0.00    -0.272 N 
ATOM      2  C   UNL     1      -1.260  -0.333   0.284  0.00  0.00    +0.164 A 
ATOM      3  N   UNL     1      -1.602  -1.324   1.236  0.00  0.00    -0.208 NA
ATOM      4  C   UNL     1      -2.741  -1.943   1.395  0.00  0.00    +0.183 C 
ATOM      5  N   UNL     1      -3.925  -1.436   0.744  0.00  0.00    -0.215 NA
ATOM      6  C   UNL     1      -4.224  -0.012   0.880  0.00  0.00    +0.153 C 
ATOM      7  C   UNL     1      -3.584   0.666  -0.505  0.00  0.00    +0.216 C 
ATOM      8  O   UNL     1      -3.893   2.072   0.044  0.00  0.00    -0.215 OA
ATOM      9  C   UNL     1      -2.055   0.756   0.082  0.00  0.00    +0.127 A 
ATOM     10  N   UNL     1      -1.383   1.449  -0.885  0.00  0.00    -0.224 NA
ATOM     11  C   UNL     1      -0.194   0.826  -1.105  0.00  0.00    +0.181 A 
ENDROOT
BRANCH   1  16
ATOM     12  C4* UNL     1       3.296   0.229   0.741  0.00  0.00    +0.180 C 
ATOM     13  C3* UNL     1       3.256  -0.950  -0.535  0.00  0.00    +0.186 C 
ATOM     14  O3* UNL     1       4.108  -1.941   0.253  0.00  0.00    -0.220 OA
ATOM     15  C2* UNL     1       1.852  -1.562   0.043  0.00  0.00    +0.089 C 
ATOM     16  C1* UNL     1       1.220  -0.212   0.794  0.00  0.00    +0.210 C 
ATOM     17  O4* UNL     1       2.094   0.793   0.007  0.00  0.00    -0.332 OA
BRANCH  12  19
ATOM     18  O5* UNL     1       4.704   1.864   0.403  0.00  0.00    -0.218 OA
ATOM     19  C5* UNL     1       4.348   1.207  -0.084  0.00  0.00    +0.214 C 
ENDBRANCH  12  19
ENDBRANCH   1  16
TORSDOF 2
