REMARK  Name = 
REMARK  1 active torsions:
REMARK  status: ('A' for Active; 'I' for Inactive)
REMARK    1  A    between atoms: C_5  and  C_6
REMARK                            x       y       z     vdW  Elec       q    Type
REMARK                         _______ _______ _______ _____ _____    ______ ____
ROOT
ATOM      1  C   UNL     1       0.484  -0.739  -1.081  0.00  0.00    -0.001 C 
ATOM      2  C   UNL     1      -0.458  -0.011  -0.477  0.00  0.00    +0.012 C 
ATOM      3  C   UNL     1      -1.148  -0.895   0.686  0.00  0.00    +0.026 C 
ATOM      4  C   UNL     1      -2.688  -0.526   0.233  0.00  0.00    +0.010 C 
ATOM      5  C   UNL     1      -2.509   0.911  -0.099  0.00  0.00    +0.055 C 
ATOM      6  C   UNL     1      -1.778   1.437   1.073  0.00  0.00    +0.008 C 
ATOM      7  C   UNL     1      -3.742   1.560  -0.514  0.00  0.00    +0.008 C 
ATOM      8  C   UNL     1      -2.921  -1.416  -0.952  0.00  0.00    +0.001 C 
ATOM      9  C   UNL     1      -3.554  -0.808   1.408  0.00  0.00    +0.001 C 
ATOM     10  C   UNL     1      -1.104   0.332   1.785  0.00  0.00    +0.005 C 
ATOM     11  C   UNL     1      -1.487   0.691  -1.164  0.00  0.00    +0.168 C 
ATOM     12  O   UNL     1      -1.626   1.015  -2.369  0.00  0.00    -0.292 OA
ENDROOT
BRANCH   1  17
ATOM     13  C   UNL     1       4.772   1.587   0.330  0.00  0.00    +0.031 C 
ATOM     14  C   UNL     1       4.091   0.289   0.376  0.00  0.00    -0.022 A 
ATOM     15  C   UNL     1       4.040  -0.560  -0.726  0.00  0.00    -0.004 A 
ATOM     16  C   UNL     1       2.859  -1.222  -1.050  0.00  0.00    -0.000 A 
ATOM     17  C   UNL     1       1.693  -1.050  -0.307  0.00  0.00    -0.000 A 
ATOM     18  C   UNL     1       1.926  -0.574   0.967  0.00  0.00    -0.000 A 
ATOM     19  C   UNL     1       3.147  -0.023   1.349  0.00  0.00    -0.004 A 
ENDBRANCH   1  17
TORSDOF 1
