REMARK  Name = 
REMARK  9 active torsions:
REMARK  status: ('A' for Active; 'I' for Inactive)
REMARK    1  A    between atoms: C_12  and  C_13
REMARK    2  A    between atoms: C_13  and  N_14
REMARK    3  A    between atoms: N_14  and  C_15
REMARK    4  A    between atoms: C_18  and  C_19
REMARK    5  A    between atoms: N_21  and  CA_22
REMARK    6  A    between atoms: CA_22  and  CB_23
REMARK    7  A    between atoms: CA_22  and  C_28
REMARK    8  A    between atoms: CB_23  and  CG_24
REMARK    9  A    between atoms: CG_24  and  CD_25
REMARK                            x       y       z     vdW  Elec       q    Type
REMARK                         _______ _______ _______ _____ _____    ______ ____
ROOT
ATOM      1  C   UNK A   0      -0.493  -1.942  -0.889  0.00  0.00    +0.065 A 
ATOM      2  C   UNK A   0       0.070  -2.154   0.358  0.00  0.00    +0.016 A 
ATOM      3  C   UNK A   0       1.357  -1.687   0.611  0.00  0.00    +0.006 A 
ATOM      4  C   UNK A   0       2.155  -1.212  -0.399  0.00  0.00    +0.055 A 
ATOM      5  C   UNK A   0       1.778  -1.559  -1.686  0.00  0.00    +0.006 A 
ATOM      6  C   UNK A   0       0.441  -1.861  -1.919  0.00  0.00    +0.016 A 
ENDROOT
BRANCH   4   7
ATOM      7  C   UNK A   0       3.262  -0.300  -0.233  0.00  0.00    +0.265 C 
ATOM      8  N   GLU A   1       3.320   0.539   0.878  0.00  0.00    -0.192 NA
ATOM      9  O   UNK A   0       4.278  -0.394  -0.972  0.00  0.00    -0.268 OA
BRANCH   8  10
ATOM     10  CA  GLU A   1       4.610   1.450   1.048  0.00  0.00    +0.199 C 
BRANCH  10  11
ATOM     11  C   GLU A   1       4.597   1.916  -0.517  0.00  0.00    +0.384 C 
ATOM     12  OXT GLU A   1       3.718   3.003  -0.601  0.00  0.00    -0.244 OA
ATOM     13  O   GLU A   1       5.761   2.159  -0.959  0.00  0.00    -0.244 OA
ENDBRANCH  10  11
BRANCH  10  14
ATOM     14  CB  GLU A   1       5.646   0.187   0.743  0.00  0.00    +0.045 C 
BRANCH  14  15
ATOM     15  CG  GLU A   1       6.968   0.624   1.328  0.00  0.00    +0.116 C 
BRANCH  15  16
ATOM     16  CD  GLU A   1       8.041   0.280   0.366  0.00  0.00    +0.365 C 
ATOM     17  OE2 GLU A   1       7.916  -0.838  -0.451  0.00  0.00    -0.246 OA
ATOM     18  OE1 GLU A   1       9.159   0.847   0.436  0.00  0.00    -0.246 OA
ENDBRANCH  15  16
ENDBRANCH  14  15
ENDBRANCH  10  14
ENDBRANCH   8  10
ENDBRANCH   4   7
BRANCH   1  19
ATOM     19  N   UNK A   0      -1.764  -1.471  -1.164  0.00  0.00    -0.236 NA
BRANCH  19  20
ATOM     20  C   UNK A   0      -3.014  -1.611  -0.562  0.00  0.00    +0.134 C 
BRANCH  20  28
ATOM     21  N   UNK A   0      -6.383   3.773  -0.575  0.00  0.00    -0.086 NA
ATOM     22  C   UNK A   0      -5.958   2.457  -0.413  0.00  0.00    +0.260 A 
ATOM     23  N   UNK A   0      -6.687   1.504   0.201  0.00  0.00    -0.171 NA
ATOM     24  C   UNK A   0      -6.168   0.405   0.755  0.00  0.00    +0.298 A 
ATOM     25  O   UNK A   0      -6.944  -0.502   1.164  0.00  0.00    -0.264 OA
ATOM     26  C   UNK A   0      -4.816   0.132   0.584  0.00  0.00    +0.146 A 
ATOM     27  N   UNK A   0      -4.310  -0.953   1.275  0.00  0.00    -0.243 N 
ATOM     28  C   UNK A   0      -2.802  -1.394   1.068  0.00  0.00    +0.124 C 
ATOM     29  C   UNK A   0      -2.216   0.149   0.942  0.00  0.00    +0.136 C 
ATOM     30  N   UNK A   0      -2.727   0.744  -0.233  0.00  0.00    -0.217 NA
ATOM     31  C   UNK A   0      -5.141  -2.124   1.325  0.00  0.00    +0.307 C 
ATOM     32  O   UNK A   0      -4.814  -3.229   0.851  0.00  0.00    -0.265 OA
ATOM     33  C   UNK A   0      -4.141   0.966  -0.280  0.00  0.00    +0.169 A 
ATOM     34  N   UNK A   0      -4.697   2.097  -0.760  0.00  0.00    -0.193 NA
ENDBRANCH  20  28
ENDBRANCH  19  20
ENDBRANCH   1  19
TORSDOF 9
