REMARK  Name = 
REMARK  11 active torsions:
REMARK  status: ('A' for Active; 'I' for Inactive)
REMARK    1  A    between atoms: C_2  and  C_4
REMARK    2  A    between atoms: C_4  and  N_5
REMARK    3  A    between atoms: N_5  and  C_6
REMARK    4  A    between atoms: N_5  and  C_17
REMARK    5  A    between atoms: C_6  and  C_7
REMARK    6  A    between atoms: C_7  and  N_8
REMARK    7  A    between atoms: N_8  and  C_9
REMARK    8  A    between atoms: N_8  and  C_13
REMARK    9  A    between atoms: C_9  and  C_10
REMARK   10  A    between atoms: C_13  and  C_14
REMARK   11  A    between atoms: C_17  and  C_18
REMARK                            x       y       z     vdW  Elec       q    Type
REMARK                         _______ _______ _______ _____ _____    ______ ____
ROOT
ATOM      1  C   UNL     1      -0.808  -0.289   0.855  0.00  0.00    +0.091 C 
ENDROOT
BRANCH   1   2
ATOM      2  N   UNL     1      -1.966   0.111   0.095  0.00  0.00    -0.252 NA
BRANCH   2   3
ATOM      3  C   UNL     1      -1.615   1.174  -0.842  0.00  0.00    +0.188 C 
BRANCH   3   4
ATOM      4  C   UNL     1      -2.885   1.918  -1.102  0.00  0.00    +0.381 C 
ATOM      5  O   UNL     1      -2.788   2.963  -2.024  0.00  0.00    -0.244 OA
ATOM      6  O   UNL     1      -3.672   2.107  -0.143  0.00  0.00    -0.244 OA
ENDBRANCH   3   4
ENDBRANCH   2   3
BRANCH   2   7
ATOM      7  C   UNL     1      -2.569  -0.964  -0.642  0.00  0.00    +0.188 C 
BRANCH   7   9
ATOM      8  O   UNL     1      -2.655  -3.234  -0.086  0.00  0.00    -0.244 OA
ATOM      9  C   UNL     1      -2.963  -2.064   0.293  0.00  0.00    +0.381 C 
ATOM     10  O   UNL     1      -3.143  -1.824   1.655  0.00  0.00    -0.244 OA
ENDBRANCH   7   9
ENDBRANCH   2   7
ENDBRANCH   1   2
BRANCH   1  11
ATOM     11  C   UNL     1       0.371  -0.427  -0.070  0.00  0.00    +0.091 C 
BRANCH  11  12
ATOM     12  N   UNL     1       1.639  -0.480   0.632  0.00  0.00    -0.252 NA
BRANCH  12  13
ATOM     13  C   UNL     1       2.310  -1.694   0.169  0.00  0.00    +0.188 C 
BRANCH  13  14
ATOM     14  C   UNL     1       3.237  -1.417  -0.953  0.00  0.00    +0.381 C 
ATOM     15  O   UNL     1       3.025  -1.945  -2.217  0.00  0.00    -0.244 OA
ATOM     16  O   UNL     1       4.309  -0.758  -0.797  0.00  0.00    -0.244 OA
ENDBRANCH  13  14
ENDBRANCH  12  13
BRANCH  12  17
ATOM     17  C   UNL     1       2.486   0.641   0.322  0.00  0.00    +0.188 C 
BRANCH  17  18
ATOM     18  C   UNL     1       2.399   1.737   1.314  0.00  0.00    +0.381 C 
ATOM     19  O   UNL     1       2.651   1.542   2.668  0.00  0.00    -0.244 OA
ATOM     20  O   UNL     1       2.638   2.903   0.875  0.00  0.00    -0.244 OA
ENDBRANCH  17  18
ENDBRANCH  12  17
ENDBRANCH  11  12
ENDBRANCH   1  11
TORSDOF 11
