REMARK  Name = 
REMARK  0 active torsions:
REMARK  status: ('A' for Active; 'I' for Inactive)
REMARK                            x       y       z     vdW  Elec       q    Type
REMARK                         _______ _______ _______ _____ _____    ______ ____
ROOT
ATOM      1  O   UNL     1      -0.156   1.513  -0.263  0.00  0.00    -0.144 OA
ATOM      2  S   UNL     1       0.016   0.040  -0.014  0.00  0.00    +0.126 S 
ATOM      3  S   UNL     1      -0.472  -0.334   1.569  0.00  0.00    +0.110 S 
ATOM      4  O   UNL     1      -1.004  -0.775  -1.068  0.00  0.00    -0.046 OA
ATOM      5  O   UNL     1       1.616  -0.443  -0.225  0.00  0.00    -0.046 OA
ENDROOT
TORSDOF 0
