REMARK  Name = 
REMARK  5 active torsions:
REMARK  status: ('A' for Active; 'I' for Inactive)
REMARK    1  A    between atoms: C_6  and  O_7
REMARK    2  A    between atoms: O_7  and  C_8
REMARK    3  A    between atoms: C_8  and  C_10
REMARK    4  A    between atoms: C_10  and  C_12
REMARK    5  A    between atoms: C_10  and  C_17
REMARK                            x       y       z     vdW  Elec       q    Type
REMARK                         _______ _______ _______ _____ _____    ______ ____
ROOT
ATOM      1  C   UNL     1      -0.506  -1.346  -0.347  0.00  0.00    +0.354 C 
ATOM      2  O   UNL     1      -0.273  -1.911   0.760  0.00  0.00    -0.247 OA
ENDROOT
BRANCH   1   3
ATOM      3  C   UNL     1      -1.736  -0.656  -0.718  0.00  0.00    +0.263 C 
ATOM      4  O   UNL     1      -1.877  -0.818  -2.111  0.00  0.00    -0.204 OA
BRANCH   3   5
ATOM      5  C   UNL     1      -1.833   0.755  -0.323  0.00  0.00    +0.049 A 
ATOM      6  S   UNL     1      -0.823   2.134  -0.472  0.00  0.00    -0.088 S 
ATOM      7  C   UNL     1      -2.022   3.351  -0.266  0.00  0.00    +0.035 A 
ATOM      8  C   UNL     1      -3.079   2.579   0.200  0.00  0.00    +0.007 A 
ATOM      9  C   UNL     1      -3.078   1.369  -0.478  0.00  0.00    +0.006 A 
ENDBRANCH   3   5
BRANCH   3  10
ATOM     10  C   UNL     1      -2.843  -1.397  -0.031  0.00  0.00    +0.049 A 
ATOM     11  S   UNL     1      -3.603  -2.848  -0.514  0.00  0.00    -0.088 S 
ATOM     12  C   UNL     1      -5.035  -2.701   0.424  0.00  0.00    +0.035 A 
ATOM     13  C   UNL     1      -4.758  -1.633   1.229  0.00  0.00    +0.007 A 
ATOM     14  C   UNL     1      -3.619  -0.981   0.984  0.00  0.00    +0.006 A 
ENDBRANCH   3  10
ENDBRANCH   1   3
BRANCH   1  15
ATOM     15  O   UNL     1       0.563  -1.149  -1.169  0.00  0.00    -0.450 OA
BRANCH  15  23
ATOM     16  C   UNL     1       4.603   1.361   0.833  0.00  0.00    +0.170 C 
ATOM     17  N   UNL     1       4.418   0.643   0.524  0.00  0.00    +0.302 N 
ATOM     18  C   UNL     1       3.282   1.175  -0.458  0.00  0.00    +0.093 C 
ATOM     19  C   UNL     1       2.707   2.138   0.877  0.00  0.00    +0.197 C 
ATOM     20  C   UNL     1       2.742   1.001   2.101  0.00  0.00    +0.197 C 
ATOM     21  O   UNL     1       1.356   1.237   1.227  0.00  0.00    -0.342 OA
ATOM     22  C   UNL     1       2.331  -0.023  -0.414  0.00  0.00    +0.101 C 
ATOM     23  C   UNL     1       1.955  -1.196  -0.865  0.00  0.00    +0.181 C 
ATOM     24  C   UNL     1       2.467  -0.479   0.047  0.00  0.00    +0.101 C 
ATOM     25  C   UNL     1       3.405  -0.359   1.241  0.00  0.00    +0.093 C 
ATOM     26  C   UNL     1       5.257  -0.244  -0.267  0.00  0.00    +0.170 C 
ENDBRANCH  15  23
ENDBRANCH   1  15
TORSDOF 5
