REMARK  Name = 
REMARK  4 active torsions:
REMARK  status: ('A' for Active; 'I' for Inactive)
REMARK    1  A    between atoms: C_2  and  C_3
REMARK    2  A    between atoms: C_2  and  C_16
REMARK    3  A    between atoms: C_6  and  C_7
REMARK    4  A    between atoms: C_12  and  N_13
REMARK                            x       y       z     vdW  Elec       q    Type
REMARK                         _______ _______ _______ _____ _____    ______ ____
ROOT
ATOM      1  C   UNL     1      -0.262   0.328   0.549  0.00  0.00    +0.105 A 
ATOM      2  C   UNL     1      -0.867  -0.473  -0.407  0.00  0.00    +0.293 A 
ATOM      3  C   UNL     1      -2.249  -0.469  -0.456  0.00  0.00    +0.079 A 
ATOM      4  C   UNL     1      -3.018   0.408   0.296  0.00  0.00    +0.078 A 
ATOM      5  C   UNL     1      -2.414   1.010   1.381  0.00  0.00    +0.004 A 
ATOM      6  C   UNL     1      -1.032   1.040   1.431  0.00  0.00    +0.009 A 
ENDROOT
BRANCH   4   7
ATOM      7  C   UNL     1      -4.481   0.381   0.092  0.00  0.00    +0.419 C 
ATOM      8  F   UNL     1      -4.868  -0.712  -0.672  0.00  0.00    -0.166 F 
ATOM      9  F   UNL     1      -5.149   0.304   1.308  0.00  0.00    -0.166 F 
ATOM     10  F   UNL     1      -4.815   1.551  -0.565  0.00  0.00    -0.166 F 
ENDBRANCH   4   7
BRANCH   2  11
ATOM     11  N   UNL     1      -0.137  -1.652  -0.768  0.00  0.00    +0.081 N 
ATOM     12  O   UNL     1      -0.007  -1.878  -2.128  0.00  0.00    -0.576 OA
ATOM     13  O   UNL     1      -0.425  -2.660  -0.073  0.00  0.00    +0.041 OA
ENDBRANCH   2  11
BRANCH   1  15
ATOM     14  O   UNL     1       1.576   1.764   0.851  0.00  0.00    -0.290 OA
ATOM     15  C   UNL     1       1.123   0.696   0.334  0.00  0.00    +0.193 C 
BRANCH  15  16
ATOM     16  C   UNL     1       2.084  -0.068  -0.483  0.00  0.00    +0.176 C 
ATOM     17  C   UNL     1       2.833  -1.087   0.328  0.00  0.00    +0.165 C 
ATOM     18  O   UNL     1       3.418  -1.936  -0.343  0.00  0.00    -0.295 OA
ATOM     19  C   UNL     1       3.651  -0.506   1.445  0.00  0.00    +0.066 C 
ATOM     20  C   UNL     1       4.784   0.238   0.751  0.00  0.00    +0.016 C 
ATOM     21  C   UNL     1       4.291   1.288  -0.198  0.00  0.00    +0.066 C 
ATOM     22  C   UNL     1       3.146   0.840  -1.032  0.00  0.00    +0.165 C 
ATOM     23  O   UNL     1       2.819   1.592  -1.948  0.00  0.00    -0.295 OA
ENDBRANCH  15  16
ENDBRANCH   1  15
TORSDOF 4
