REMARK  Name = 
REMARK  1 active torsions:
REMARK  status: ('A' for Active; 'I' for Inactive)
REMARK    1  A    between atoms: C_5  and  S_6
REMARK                            x       y       z     vdW  Elec       q    Type
REMARK                         _______ _______ _______ _____ _____    ______ ____
ROOT
ATOM      1  N   UNL     1       3.264   0.040   1.283  0.00  0.00    -0.128 NA
ATOM      2  C   UNL     1       2.360  -0.002   0.172  0.00  0.00    +0.089 A 
ATOM      3  C   UNL     1       1.723  -1.177  -0.213  0.00  0.00    +0.019 A 
ATOM      4  C   UNL     1       0.377  -1.146  -0.563  0.00  0.00    +0.021 A 
ATOM      5  C   UNL     1      -0.366   0.028  -0.518  0.00  0.00    +0.125 A 
ATOM      6  C   UNL     1       0.396   1.190  -0.554  0.00  0.00    +0.021 A 
ATOM      7  C   UNL     1       1.770   1.150  -0.337  0.00  0.00    +0.019 A 
ENDROOT
BRANCH   5   8
ATOM      8  S   UNL     1      -2.021   0.051   0.066  0.00  0.00    +0.093 S 
ATOM      9  O   UNL     1      -2.818   0.898  -0.866  0.00  0.00    -0.150 OA
ATOM     10  O   UNL     1      -2.073   0.539   1.486  0.00  0.00    -0.150 OA
ATOM     11  N   UNL     1      -2.611  -1.571   0.044  0.00  0.00    +0.039 NA
ENDBRANCH   5   8
TORSDOF 1
