REMARK  Name = 
REMARK  5 active torsions:
REMARK  status: ('A' for Active; 'I' for Inactive)
REMARK    1  A    between atoms: C_2  and  C_3
REMARK    2  A    between atoms: C_3  and  C_4
REMARK    3  A    between atoms: C_4  and  C_5
REMARK    4  A    between atoms: C_5  and  C_7
REMARK    5  A    between atoms: C_8  and  C_9
REMARK                            x       y       z     vdW  Elec       q    Type
REMARK                         _______ _______ _______ _____ _____    ______ ____
ROOT
ATOM      1  C   UNL     1      -0.380   0.529   0.362  0.00  0.00    +0.155 C 
ATOM      2  C   UNL     1      -0.595  -0.816   0.819  0.00  0.00    +0.241 C 
ATOM      3  O   UNL     1      -0.217  -1.153   1.981  0.00  0.00    -0.274 OA
ATOM      4  N   UNL     1      -1.670  -1.594   0.279  0.00  0.00    -0.210 N 
ATOM      5  C   UNL     1      -1.691  -3.036   0.465  0.00  0.00    +0.124 C 
ATOM      6  C   UNL     1      -2.736  -1.030  -0.471  0.00  0.00    +0.336 C 
ATOM      7  O   UNL     1      -3.615  -1.755  -1.029  0.00  0.00    -0.250 OA
ATOM      8  N   UNL     1      -2.604   0.362  -0.791  0.00  0.00    -0.127 NA
ATOM      9  C   UNL     1      -1.589   1.185  -0.204  0.00  0.00    +0.258 C 
ATOM     10  O   UNL     1      -1.979   2.262   0.344  0.00  0.00    -0.272 OA
ENDROOT
BRANCH   1  11
ATOM     11  C   UNL     1       0.716   0.509  -0.888  0.00  0.00    +0.081 C 
ATOM     12  C   UNL     1       0.417  -1.078  -1.313  0.00  0.00    +0.015 C 
BRANCH  11  13
ATOM     13  C   UNL     1       1.917   0.071   0.096  0.00  0.00    -0.091 C 
ATOM     14  C   UNL     1       3.133   0.115   0.203  0.00  0.00    -0.091 C 
BRANCH  14  15
ATOM     15  C   UNL     1       4.540  -0.300   0.363  0.00  0.00    +0.076 C 
ATOM     16  C   UNL     1       4.754  -1.735  -0.103  0.00  0.00    +0.015 C 
ENDBRANCH  14  15
ENDBRANCH  11  13
ENDBRANCH   1  11
BRANCH   1  17
ATOM     17  C   UNL     1       0.263   1.381   1.419  0.00  0.00    +0.044 C 
BRANCH  17  19
ATOM     18  C   UNL     1       0.923   3.283   0.002  0.00  0.00    -0.005 C 
ATOM     19  C   UNL     1       0.410   2.799   1.040  0.00  0.00    -0.025 C 
ENDBRANCH  17  19
ENDBRANCH   1  17
TORSDOF 5
