REMARK  Name = 
REMARK  6 active torsions:
REMARK  status: ('A' for Active; 'I' for Inactive)
REMARK    1  A    between atoms: C_2  and  N_5
REMARK    2  A    between atoms: N_5  and  C_6
REMARK    3  A    between atoms: C_6  and  C_7
REMARK    4  A    between atoms: C_7  and  C_9
REMARK    5  A    between atoms: C_9  and  O_10
REMARK    6  A    between atoms: O_10  and  C_11
REMARK                            x       y       z     vdW  Elec       q    Type
REMARK                         _______ _______ _______ _____ _____    ______ ____
ROOT
ATOM      1  C   UNL     1      -0.994   1.553   0.053  0.00  0.00    +0.266 A 
ATOM      2  C   UNL     1      -2.336   1.205  -0.043  0.00  0.00    +0.195 A 
ATOM      3  N   UNL     1      -2.881  -0.084   0.272  0.00  0.00    -0.284 N 
ATOM      4  C   UNL     1      -2.541  -1.213  -0.591  0.00  0.00    +0.124 C 
ATOM      5  C   UNL     1      -3.047  -2.507  -0.040  0.00  0.00    +0.164 C 
ATOM      6  O   UNL     1      -4.344  -2.466   0.425  0.00  0.00    -0.350 OA
ATOM      7  C   UNL     1      -4.928  -1.261   0.077  0.00  0.00    +0.164 C 
ATOM      8  C   UNL     1      -4.205  -0.189   0.885  0.00  0.00    +0.124 C 
ATOM      9  N   UNL     1      -3.105   2.324  -0.062  0.00  0.00    -0.172 NA
ATOM     10  S   UNL     1      -2.124   3.400  -0.925  0.00  0.00    +0.121 S 
ATOM     11  N   UNL     1      -0.689   2.499  -0.869  0.00  0.00    -0.153 NA
ENDROOT
BRANCH   1  12
ATOM     12  O   UNL     1      -0.054   0.960   0.906  0.00  0.00    -0.455 OA
BRANCH  12  13
ATOM     13  C   UNL     1       1.318   0.921   0.518  0.00  0.00    +0.241 C 
BRANCH  13  14
ATOM     14  C   UNL     1       1.236  -0.357  -0.524  0.00  0.00    +0.213 C 
ATOM     15  O   UNL     1       2.153   0.322  -1.528  0.00  0.00    -0.218 OA
BRANCH  14  16
ATOM     16  C   UNL     1       2.486  -1.129   0.223  0.00  0.00    +0.125 C 
BRANCH  16  17
ATOM     17  N   UNL     1       3.539  -0.174   0.371  0.00  0.00    -0.218 NA
BRANCH  17  19
ATOM     18  C   UNL     1       5.506  -0.688   1.268  0.00  0.00    +0.017 C 
ATOM     19  C   UNL     1       4.836  -0.796   0.155  0.00  0.00    +0.060 C 
ATOM     20  C   UNL     1       5.567  -0.094  -0.981  0.00  0.00    +0.017 C 
ATOM     21  C   UNL     1       4.607  -2.226  -0.276  0.00  0.00    +0.017 C 
ENDBRANCH  17  19
ENDBRANCH  16  17
ENDBRANCH  14  16
ENDBRANCH  13  14
ENDBRANCH  12  13
ENDBRANCH   1  12
TORSDOF 6
