REMARK  Name = 
REMARK  12 active torsions:
REMARK  status: ('A' for Active; 'I' for Inactive)
REMARK    1  A    between atoms: C_2  and  C_3
REMARK    2  A    between atoms: C_3  and  C_4
REMARK    3  A    between atoms: C_4  and  C_5
REMARK    4  A    between atoms: C_5  and  C_6
REMARK    5  A    between atoms: C_6  and  C_7
REMARK    6  A    between atoms: C_7  and  C_8
REMARK    7  A    between atoms: C_8  and  C_9
REMARK    8  A    between atoms: C_12  and  C_13
REMARK    9  A    between atoms: C_13  and  C_14
REMARK   10  A    between atoms: C_14  and  C_15
REMARK   11  A    between atoms: C_15  and  C_17
REMARK   12  A    between atoms: C_15  and  C_19
REMARK                            x       y       z     vdW  Elec       q    Type
REMARK                         _______ _______ _______ _____ _____    ______ ____
ROOT
ATOM      1  C   UNL     1       0.953   1.488  -0.192  0.00  0.00    -0.022 A 
ATOM      2  C   UNL     1       0.396   2.236   0.838  0.00  0.00    -0.005 A 
ATOM      3  C   UNL     1      -0.899   2.010   1.280  0.00  0.00    -0.005 A 
ATOM      4  C   UNL     1      -1.684   1.069   0.628  0.00  0.00    -0.022 A 
ATOM      5  C   UNL     1      -1.254   0.695  -0.639  0.00  0.00    -0.005 A 
ATOM      6  C   UNL     1       0.088   0.752  -0.994  0.00  0.00    -0.005 A 
ENDROOT
BRANCH   4   7
ATOM      7  C   UNL     1      -2.711   0.257   1.353  0.00  0.00    +0.028 C 
BRANCH   7   8
ATOM      8  C   UNL     1      -4.006   0.211   0.590  0.00  0.00    +0.028 C 
BRANCH   8   9
ATOM      9  C   UNL     1      -4.368  -1.161   0.102  0.00  0.00    +0.138 C 
ATOM     10  N   UNL     1      -4.160  -2.196   1.089  0.00  0.00    -0.129 NA
BRANCH   9  11
ATOM     11  C   UNL     1      -5.857  -1.137  -0.222  0.00  0.00    +0.202 C 
ATOM     12  O   UNL     1      -6.418  -2.400  -0.199  0.00  0.00    -0.219 OA
ENDBRANCH   9  11
BRANCH   9  13
ATOM     13  C   UNL     1      -3.666  -1.517  -1.203  0.00  0.00    +0.202 C 
ATOM     14  O   UNL     1      -2.865  -2.657  -1.031  0.00  0.00    -0.219 OA
ENDBRANCH   9  13
ENDBRANCH   8   9
ENDBRANCH   7   8
ENDBRANCH   4   7
BRANCH   1  15
ATOM     15  C   UNL     1       2.291   1.764  -0.752  0.00  0.00    +0.026 C 
BRANCH  15  16
ATOM     16  C   UNL     1       3.271   2.164   0.323  0.00  0.00    +0.005 C 
BRANCH  16  17
ATOM     17  C   UNL     1       3.580   0.954   1.178  0.00  0.00    +0.000 C 
BRANCH  17  18
ATOM     18  C   UNL     1       3.137  -0.317   0.476  0.00  0.00    +0.000 C 
BRANCH  18  19
ATOM     19  C   UNL     1       4.326  -0.854  -0.301  0.00  0.00    +0.000 C 
BRANCH  19  20
ATOM     20  C   UNL     1       5.505  -1.081   0.622  0.00  0.00    +0.000 C 
BRANCH  20  22
ATOM     21  C   UNL     1       7.885  -0.385   0.598  0.00  0.00    +0.000 C 
ATOM     22  C   UNL     1       6.454   0.104   0.599  0.00  0.00    +0.000 C 
ENDBRANCH  20  22
ENDBRANCH  19  20
ENDBRANCH  18  19
ENDBRANCH  17  18
ENDBRANCH  16  17
ENDBRANCH  15  16
ENDBRANCH   1  15
TORSDOF 12
