REMARK  Name = 
REMARK  1 active torsions:
REMARK  status: ('A' for Active; 'I' for Inactive)
REMARK    1  A    between atoms: C_3  and  C_5
REMARK                            x       y       z     vdW  Elec       q    Type
REMARK                         _______ _______ _______ _____ _____    ______ ____
ROOT
ATOM      1  C   UNL     1      -0.134  -0.356   0.243  0.00  0.00    +0.060 A 
ATOM      2  C   UNL     1      -0.996  -1.171  -0.473  0.00  0.00    +0.025 A 
ATOM      3  C   UNL     1      -2.335  -0.801  -0.512  0.00  0.00    +0.099 A 
ATOM      4  N   UNL     1      -2.574   0.533  -0.485  0.00  0.00    -0.242 NA
ATOM      5  C   UNL     1      -1.843   1.332   0.330  0.00  0.00    +0.099 A 
ATOM      6  C   UNL     1      -0.689   0.755   0.850  0.00  0.00    +0.025 A 
ENDROOT
BRANCH   1   9
ATOM      7  N   UNL     1       3.228   0.811  -0.639  0.00  0.00    +0.007 NA
ATOM      8  N   UNL     1       2.125  -0.037  -0.864  0.00  0.00    -0.089 NA
ATOM      9  C   UNL     1       1.324  -0.539   0.212  0.00  0.00    +0.282 C 
ATOM     10  O   UNL     1       1.893  -0.528   1.339  0.00  0.00    -0.267 OA
ENDBRANCH   1   9
TORSDOF 1
