REMARK  Name = 
REMARK  8 active torsions:
REMARK  status: ('A' for Active; 'I' for Inactive)
REMARK    1  A    between atoms: C_2  and  C_3
REMARK    2  A    between atoms: CA_4  and  C_5
REMARK    3  A    between atoms: CA_11  and  N_12
REMARK    4  A    between atoms: C_13  and  C_15
REMARK    5  A    between atoms: C_15  and  C_22
REMARK    6  A    between atoms: N_16  and  O_17
REMARK    7  A    between atoms: O_17  and  C_18
REMARK    8  A    between atoms: C_18  and  C_19
REMARK                            x       y       z     vdW  Elec       q    Type
REMARK                         _______ _______ _______ _____ _____    ______ ____
ROOT
ATOM      1  N   UNL     1       0.449   0.993   0.006  0.00  0.00    -0.190 NA
ATOM      2  C   UNL     1       1.148  -0.150   0.515  0.00  0.00    +0.288 C 
ATOM      3  O   UNL     1       0.469  -1.222   0.604  0.00  0.00    -0.267 OA
ENDROOT
BRANCH   1  11
ATOM      4  C   UNL     1      -4.136  -0.349   0.765  0.00  0.00    +0.009 C 
ATOM      5  C   UNL     1      -3.383   0.241   1.921  0.00  0.00    +0.087 C 
ATOM      6  S   UNL     1      -1.702   0.739   1.403  0.00  0.00    -0.114 S 
ATOM      7  C   UNL     1      -1.545  -0.361  -0.161  0.00  0.00    +0.157 C 
ATOM      8  N   UNL     1      -2.564   0.532  -0.862  0.00  0.00    -0.242 N 
ATOM      9  C   UNL     1      -1.679   1.687  -0.879  0.00  0.00    +0.253 C 
ATOM     10  O   UNL     1      -1.789   2.652  -1.695  0.00  0.00    -0.273 OA
ATOM     11  CA  UNL     1      -0.544   0.561  -1.167  0.00  0.00    +0.201 C 
ATOM     12  CA  UNL     1      -3.895   0.221  -0.418  0.00  0.00    +0.132 C 
BRANCH  12  13
ATOM     13  C   UNL     1      -4.878   0.334  -1.478  0.00  0.00    +0.401 C 
ATOM     14  OXT UNL     1      -5.229  -0.796  -2.228  0.00  0.00    -0.239 OA
ATOM     15  O   UNL     1      -5.579   1.349  -1.702  0.00  0.00    -0.239 OA
ENDBRANCH  12  13
BRANCH   4  17
ATOM     16  C   UNL     1      -6.154  -0.400   0.962  0.00  0.00    -0.000 C 
ATOM     17  C   UNL     1      -5.527  -0.717   1.070  0.00  0.00    -0.002 C 
ENDBRANCH   4  17
ENDBRANCH   1  11
BRANCH   2  18
ATOM     18  C   UNL     1       2.588  -0.389   0.333  0.00  0.00    +0.192 C 
ATOM     19  N   UNL     1       3.422   0.583   0.118  0.00  0.00    -0.076 NA
BRANCH  18  20
ATOM     20  C   UNL     1       3.116  -1.755   0.123  0.00  0.00    +0.115 A 
ATOM     21  N   UNL     1       2.550  -2.708  -0.659  0.00  0.00    -0.220 NA
ATOM     22  C   UNL     1       2.573  -3.920  -0.061  0.00  0.00    +0.201 A 
ATOM     23  N   UNL     1       1.648  -5.006  -0.208  0.00  0.00    -0.100 NA
ATOM     24  S   UNL     1       4.126  -3.861   0.665  0.00  0.00    -0.048 S 
ATOM     25  C   UNL     1       4.386  -2.167   0.520  0.00  0.00    +0.059 A 
ENDBRANCH  18  20
BRANCH  19  26
ATOM     26  O   UNL     1       2.908   1.796  -0.305  0.00  0.00    -0.365 OA
BRANCH  26  27
ATOM     27  C   UNL     1       3.606   3.015  -0.170  0.00  0.00    +0.351 C 
BRANCH  27  28
ATOM     28  C   UNL     1       4.785   3.044  -1.091  0.00  0.00    +0.411 C 
ATOM     29  O   UNL     1       5.683   4.098  -0.915  0.00  0.00    -0.241 OA
ATOM     30  O   UNL     1       5.149   1.955  -1.594  0.00  0.00    -0.241 OA
ENDBRANCH  27  28
ENDBRANCH  26  27
ENDBRANCH  19  26
ENDBRANCH   2  18
TORSDOF 8
