REMARK  Name = 
REMARK  6 active torsions:
REMARK  status: ('A' for Active; 'I' for Inactive)
REMARK    1  A    between atoms: C_2  and  C_4
REMARK    2  A    between atoms: C_8  and  C_9
REMARK    3  A    between atoms: C_12  and  S_13
REMARK    4  A    between atoms: S_13  and  C_14
REMARK    5  A    between atoms: C_14  and  C_15
REMARK    6  A    between atoms: C_15  and  N_16
REMARK                            x       y       z     vdW  Elec       q    Type
REMARK                         _______ _______ _______ _____ _____    ______ ____
ROOT
ATOM      1  C   UNL     1      -2.880   1.020   0.094  0.00  0.00    +0.126 C 
ATOM      2  C   UNL     1      -2.329  -0.508  -0.351  0.00  0.00    +0.096 C 
ATOM      3  N   UNL     1      -1.139  -0.214   0.605  0.00  0.00    -0.254 N 
ATOM      4  C   UNL     1      -0.192  -1.118  -0.013  0.00  0.00    +0.136 C 
ATOM      5  C   UNL     1      -0.268  -1.029  -1.348  0.00  0.00    +0.025 C 
ATOM      6  C   UNL     1      -1.382  -0.037  -1.602  0.00  0.00    +0.055 C 
ATOM      7  C   UNL     1      -1.465   1.181   0.746  0.00  0.00    +0.233 C 
ATOM      8  O   UNL     1      -0.884   2.190   1.151  0.00  0.00    -0.274 OA
ENDROOT
BRANCH   1  10
ATOM      9  C   UNL     1      -2.974   1.452   2.551  0.00  0.00    +0.036 C 
ATOM     10  C   UNL     1      -3.619   0.375   1.499  0.00  0.00    +0.162 C 
ATOM     11  O   UNL     1      -4.830   1.255   1.302  0.00  0.00    -0.223 OA
ENDBRANCH   1  10
BRANCH   4  12
ATOM     12  C   UNL     1       0.718  -1.869   0.818  0.00  0.00    +0.401 C 
ATOM     13  O   UNL     1       0.375  -3.037   1.514  0.00  0.00    -0.239 OA
ATOM     14  O   UNL     1       1.919  -1.536   1.053  0.00  0.00    -0.239 OA
ENDBRANCH   4  12
BRANCH   5  15
ATOM     15  S   UNL     1       1.013  -1.480  -2.475  0.00  0.00    -0.115 S 
BRANCH  15  16
ATOM     16  C   UNL     1       2.619  -0.862  -2.228  0.00  0.00    +0.085 C 
BRANCH  16  17
ATOM     17  C   UNL     1       2.827   0.529  -1.718  0.00  0.00    +0.126 C 
BRANCH  17  18
ATOM     18  N   UNL     1       3.372   0.379  -0.382  0.00  0.00    -0.216 NA
ATOM     19  C   UNL     1       4.554   1.023   0.053  0.00  0.00    +0.204 C 
ATOM     20  N   UNL     1       4.566   2.286  -0.261  0.00  0.00    -0.127 NA
ENDBRANCH  17  18
ENDBRANCH  16  17
ENDBRANCH  15  16
ENDBRANCH   5  15
TORSDOF 6
