REMARK  Name = 
REMARK  10 active torsions:
REMARK  status: ('A' for Active; 'I' for Inactive)
REMARK    1  A    between atoms: C_2  and  C_3
REMARK    2  A    between atoms: C_13  and  C_14
REMARK    3  A    between atoms: C_14  and  C_15
REMARK    4  A    between atoms: C_15  and  O_17
REMARK    5  A    between atoms: C_24  and  C_26
REMARK    6  A    between atoms: C_40  and  O_41
REMARK    7  A    between atoms: C_49  and  C_51
REMARK    8  A    between atoms: C_51  and  O_53
REMARK    9  A    between atoms: C_55  and  O_56
REMARK   10  A    between atoms: O_56  and  C_57
REMARK                            x       y       z     vdW  Elec       q    Type
REMARK                         _______ _______ _______ _____ _____    ______ ____
ROOT
ATOM      1  C   UNL     1      -4.455  -0.987   1.726  0.00  0.00    +0.072 C 
ATOM      2  C   UNL     1      -3.006  -1.435   1.154  0.00  0.00    +0.070 C 
ATOM      3  N   UNL     1      -2.384  -1.656   2.574  0.00  0.00    -0.269 NA
ATOM      4  C   UNL     1      -1.257  -0.840   2.627  0.00  0.00    +0.073 C 
ATOM      5  C   UNL     1      -1.935   0.481   2.264  0.00  0.00    +0.024 C 
ATOM      6  C   UNL     1      -3.274  -1.762   3.599  0.00  0.00    +0.099 C 
ATOM      7  C   UNL     1      -3.946  -0.438   3.850  0.00  0.00    -0.013 C 
ATOM      8  C   UNL     1      -2.402   0.062   0.942  0.00  0.00    +0.055 C 
ATOM      9  C   UNL     1      -3.663   0.966   0.472  0.00  0.00    +0.127 C 
ATOM     10  C   UNL     1      -4.345  -0.107  -0.527  0.00  0.00    +0.268 C 
ATOM     11  O   UNL     1      -5.139   0.718  -1.342  0.00  0.00    -0.209 OA
ATOM     12  N   UNL     1      -2.940   1.688  -0.725  0.00  0.00    -0.250 N 
ATOM     13  C   UNL     1      -3.491   3.001  -0.909  0.00  0.00    +0.307 C 
ATOM     14  O   UNL     1      -3.344   3.559  -2.018  0.00  0.00    -0.265 OA
ATOM     15  C   UNL     1      -1.587   1.400  -0.645  0.00  0.00    +0.053 A 
ATOM     16  C   UNL     1      -0.701   1.854  -1.624  0.00  0.00    +0.051 A 
ATOM     17  C   UNL     1       0.529   1.227  -1.758  0.00  0.00    +0.137 A 
ATOM     18  C   UNL     1       0.897   0.361  -0.751  0.00  0.00    +0.026 A 
ATOM     19  C   UNL     1      -0.112  -0.267  -0.067  0.00  0.00    -0.003 A 
ATOM     20  C   UNL     1      -1.449   0.119  -0.110  0.00  0.00    -0.006 A 
ATOM     21  C   UNL     1      -5.422  -0.875   0.434  0.00  0.00    +0.213 C 
ATOM     22  C   UNL     1      -4.519  -0.042   2.698  0.00  0.00    -0.025 C 
ENDROOT
BRANCH  18  23
ATOM     23  C   UNL     1       2.359   0.159  -0.483  0.00  0.00    +0.146 C 
ATOM     24  C   UNL     1       2.914  -0.706  -1.529  0.00  0.00    +0.068 A 
ATOM     25  C   UNL     1       4.301  -0.838  -1.545  0.00  0.00    -0.005 A 
ATOM     26  C   UNL     1       4.641  -1.109  -2.868  0.00  0.00    +0.015 A 
ATOM     27  C   UNL     1       3.454  -1.145  -3.589  0.00  0.00    +0.081 A 
ATOM     28  C   UNL     1       3.404  -1.625  -4.894  0.00  0.00    +0.019 A 
ATOM     29  C   UNL     1       4.578  -1.942  -5.536  0.00  0.00    +0.002 A 
ATOM     30  C   UNL     1       5.745  -1.948  -4.811  0.00  0.00    +0.000 A 
ATOM     31  C   UNL     1       5.799  -1.460  -3.520  0.00  0.00    +0.001 A 
ATOM     32  C   UNL     1       4.843  -1.497  -0.345  0.00  0.00    +0.045 C 
ATOM     33  C   UNL     1       5.941  -0.697   0.348  0.00  0.00    +0.077 C 
ATOM     34  N   UNL     1       5.851  -0.854   1.806  0.00  0.00    -0.270 NA
ATOM     35  C   UNL     1       5.992   0.432   2.490  0.00  0.00    +0.103 C 
ATOM     36  C   UNL     1       4.866   0.677   3.483  0.00  0.00    +0.141 C 
ATOM     37  C   UNL     1       3.499   0.803   2.811  0.00  0.00    +0.033 C 
ATOM     38  C   UNL     1       3.931   0.275   1.333  0.00  0.00    +0.020 C 
ATOM     39  O   UNL     1       5.144   1.912   4.073  0.00  0.00    -0.224 OA
ATOM     40  C   UNL     1       4.422  -1.153   1.968  0.00  0.00    +0.072 C 
ATOM     41  N   UNL     1       2.419  -0.996  -2.760  0.00  0.00    -0.249 NA
ATOM     42  C   UNL     1       2.479  -0.334   0.914  0.00  0.00    +0.022 C 
BRANCH  36  43
ATOM     43  C   UNL     1       4.834  -0.367   4.572  0.00  0.00    +0.032 C 
ATOM     44  C   UNL     1       3.866   0.133   5.628  0.00  0.00    +0.003 C 
ENDBRANCH  36  43
BRANCH  23  45
ATOM     45  C   UNL     1       2.933   1.545  -0.519  0.00  0.00    +0.325 C 
ATOM     46  O   UNL     1       2.343   2.391   0.213  0.00  0.00    -0.249 OA
BRANCH  45  47
ATOM     47  O   UNL     1       4.034   1.904  -1.251  0.00  0.00    -0.444 OA
ATOM     48  C   UNL     1       4.835   2.955  -0.718  0.00  0.00    +0.256 C 
ENDBRANCH  45  47
ENDBRANCH  23  45
ENDBRANCH  18  23
BRANCH  17  49
ATOM     49  O   UNL     1       1.484   1.851  -2.566  0.00  0.00    -0.472 OA
ATOM     50  C   UNL     1       1.160   2.437  -3.797  0.00  0.00    +0.252 C 
ENDBRANCH  17  49
BRANCH  10  51
ATOM     51  C   UNL     1      -3.604  -0.953  -1.312  0.00  0.00    +0.350 C 
ATOM     52  O   UNL     1      -4.115  -2.116  -1.481  0.00  0.00    -0.247 OA
BRANCH  51  53
ATOM     53  O   UNL     1      -3.180  -0.529  -2.584  0.00  0.00    -0.443 OA
ATOM     54  C   UNL     1      -2.560  -1.421  -3.507  0.00  0.00    +0.256 C 
ENDBRANCH  51  53
ENDBRANCH  10  51
BRANCH   1  56
ATOM     55  C   UNL     1      -6.075  -2.480   1.980  0.00  0.00    +0.001 C 
ATOM     56  C   UNL     1      -4.955  -2.326   2.271  0.00  0.00    +0.009 C 
ENDBRANCH   1  56
BRANCH  21  57
ATOM     57  O   UNL     1      -6.043   0.461   0.903  0.00  0.00    -0.449 OA
BRANCH  57  58
ATOM     58  C   UNL     1      -7.408   0.387   0.997  0.00  0.00    +0.318 C 
ATOM     59  O   UNL     1      -8.013  -0.053  -0.017  0.00  0.00    -0.250 OA
ATOM     60  C   UNL     1      -8.174   1.201   1.978  0.00  0.00    +0.121 C 
ENDBRANCH  57  58
ENDBRANCH  21  57
TORSDOF 10
