REMARK  Name = 
REMARK  4 active torsions:
REMARK  status: ('A' for Active; 'I' for Inactive)
REMARK    1  A    between atoms: C_2  and  O_4
REMARK    2  A    between atoms: O_4  and  C_5
REMARK    3  A    between atoms: C_10  and  C_11
REMARK    4  A    between atoms: C_17  and  N_18
REMARK                            x       y       z     vdW  Elec       q    Type
REMARK                         _______ _______ _______ _____ _____    ______ ____
ROOT
ATOM      1  C   UNL     1      -0.643  -0.969  -1.009  0.00  0.00    +0.274 C 
ATOM      2  N   UNL     1       0.482  -1.718  -0.587  0.00  0.00    -0.150 NA
ATOM      3  C   UNL     1       1.760  -1.096  -0.428  0.00  0.00    +0.192 A 
ATOM      4  S   UNL     1       2.197   0.543  -0.157  0.00  0.00    +0.024 S 
ATOM      5  C   UNL     1       3.868   0.306   0.170  0.00  0.00    +0.342 A 
ATOM      6  C   UNL     1       3.972  -1.040  -0.163  0.00  0.00    +0.183 A 
ATOM      7  N   UNL     1       2.854  -1.707   0.091  0.00  0.00    -0.214 NA
ATOM      8  O   UNL     1      -0.433   0.003  -1.793  0.00  0.00    -0.268 OA
ENDROOT
BRANCH   1  10
ATOM      9  C   UNL     1      -2.550  -0.068   0.317  0.00  0.00    +0.153 A 
ATOM     10  C   UNL     1      -1.970  -1.112  -0.394  0.00  0.00    +0.090 A 
ATOM     11  C   UNL     1      -2.408  -2.383  -0.042  0.00  0.00    +0.008 A 
ATOM     12  C   UNL     1      -3.229  -2.565   1.065  0.00  0.00    +0.000 A 
ATOM     13  C   UNL     1      -3.402  -1.553   1.994  0.00  0.00    +0.003 A 
ATOM     14  C   UNL     1      -3.116  -0.260   1.571  0.00  0.00    +0.038 A 
BRANCH   9  15
ATOM     15  O   UNL     1      -2.312   1.212  -0.192  0.00  0.00    -0.424 OA
BRANCH  15  17
ATOM     16  C   UNL     1      -2.973   3.576  -0.292  0.00  0.00    +0.122 C 
ATOM     17  C   UNL     1      -3.348   2.139  -0.134  0.00  0.00    +0.322 C 
ATOM     18  O   UNL     1      -4.376   1.851   0.534  0.00  0.00    -0.250 OA
ENDBRANCH  15  17
ENDBRANCH   9  15
ENDBRANCH   1  10
BRANCH   5  19
ATOM     19  N   UNL     1       4.900   1.302   0.142  0.00  0.00    +0.089 N 
ATOM     20  O   UNL     1       5.845   1.268   1.123  0.00  0.00    -0.576 OA
ATOM     21  O   UNL     1       4.883   2.271  -0.630  0.00  0.00    +0.042 OA
ENDBRANCH   5  19
TORSDOF 4
