REMARK  Name = 
REMARK  4 active torsions:
REMARK  status: ('A' for Active; 'I' for Inactive)
REMARK    1  A    between atoms: C_2  and  N_3
REMARK    2  A    between atoms: N_3  and  C_7
REMARK    3  A    between atoms: C_11  and  C_12
REMARK    4  A    between atoms: C_17  and  C_18
REMARK                            x       y       z     vdW  Elec       q    Type
REMARK                         _______ _______ _______ _____ _____    ______ ____
ROOT
ATOM      1  C   UNL     1      -2.524   0.401   0.436  0.00  0.00    +0.054 A 
ATOM      2  C   UNL     1      -1.198   0.401   0.019  0.00  0.00    +0.016 A 
ATOM      3  C   UNL     1      -0.203   1.057   0.735  0.00  0.00    +0.019 A 
ATOM      4  C   UNL     1      -0.653   2.015   1.636  0.00  0.00    +0.002 A 
ATOM      5  C   UNL     1      -1.958   1.994   2.111  0.00  0.00    +0.001 A 
ATOM      6  C   UNL     1      -2.907   1.157   1.536  0.00  0.00    +0.015 A 
ENDROOT
BRANCH   3   7
ATOM      7  C   UNL     1       1.097   0.394   0.891  0.00  0.00    +0.086 A 
ATOM      8  N   UNL     1       2.117   0.600   0.034  0.00  0.00    -0.211 N 
ATOM      9  C   UNL     1       3.082  -0.336  -0.067  0.00  0.00    +0.175 A 
ATOM     10  C   UNL     1       4.085   0.198  -0.866  0.00  0.00    +0.125 A 
ATOM     11  C   UNL     1       3.550   1.369  -1.381  0.00  0.00    +0.134 A 
ATOM     12  N   UNL     1       2.950  -1.530   0.555  0.00  0.00    -0.224 NA
ATOM     13  C   UNL     1       2.237  -1.572   1.707  0.00  0.00    +0.102 A 
ATOM     14  N   UNL     1       2.243   1.396  -1.026  0.00  0.00    -0.161 NA
ATOM     15  C   UNL     1       1.292  -0.574   1.867  0.00  0.00    +0.040 A 
BRANCH  10  16
ATOM     16  C   UNL     1       5.483  -0.158  -0.827  0.00  0.00    +0.105 C 
ATOM     17  N   UNL     1       6.569  -0.514  -0.592  0.00  0.00    -0.191 NA
ENDBRANCH  10  16
ENDBRANCH   3   7
BRANCH   1  18
ATOM     18  N   UNL     1      -3.514  -0.346  -0.268  0.00  0.00    -0.259 N 
ATOM     19  C   UNL     1      -3.843  -1.659   0.140  0.00  0.00    +0.230 C 
ATOM     20  O   UNL     1      -3.310  -2.167   1.151  0.00  0.00    -0.275 OA
ATOM     21  C   UNL     1      -4.948  -2.406  -0.500  0.00  0.00    +0.095 C 
BRANCH  18  23
ATOM     22  C   UNL     1      -5.580   0.067  -1.473  0.00  0.00    +0.024 C 
ATOM     23  C   UNL     1      -4.065   0.214  -1.483  0.00  0.00    +0.098 C 
ENDBRANCH  18  23
ENDBRANCH   1  18
TORSDOF 4
