REMARK  Name = 
REMARK  2 active torsions:
REMARK  status: ('A' for Active; 'I' for Inactive)
REMARK    1  A    between atoms: C_2  and  C_3
REMARK    2  A    between atoms: C_22  and  C_23
REMARK                            x       y       z     vdW  Elec       q    Type
REMARK                         _______ _______ _______ _____ _____    ______ ____
ROOT
ATOM      1  C   UNL     1       3.307   0.284   1.186  0.00  0.00    +0.180 C 
ATOM      2  C   UNL     1       1.956   0.321   0.447  0.00  0.00    +0.037 C 
ATOM      3  C   UNL     1       1.640  -1.196   0.872  0.00  0.00    +0.003 C 
ATOM      4  C   UNL     1       0.324  -1.578  -0.126  0.00  0.00    +0.001 C 
ATOM      5  C   UNL     1      -0.670  -1.127   1.172  0.00  0.00    +0.004 C 
ATOM      6  C   UNL     1      -0.492   0.461   1.108  0.00  0.00    +0.000 C 
ATOM      7  C   UNL     1      -2.046  -1.341   0.198  0.00  0.00    +0.019 C 
ATOM      8  C   UNL     1      -2.133   0.130  -0.424  0.00  0.00    -0.043 C 
ATOM      9  C   UNL     1      -3.349   0.429  -0.900  0.00  0.00    +0.010 C 
ATOM     10  C   UNL     1      -4.307   0.623   0.203  0.00  0.00    +0.101 C 
ATOM     11  C   UNL     1      -3.700   0.157   1.475  0.00  0.00    +0.050 C 
ATOM     12  N   UNL     1      -5.541   0.881   0.021  0.00  0.00    -0.034 NA
ATOM     13  O   UNL     1      -6.561   0.406   0.783  0.00  0.00    -0.143 OA
ATOM     14  C   UNL     1      -1.105   0.050  -1.516  0.00  0.00    +0.022 C 
ATOM     15  C   UNL     1      -3.034  -1.110   1.461  0.00  0.00    +0.010 C 
ATOM     16  C   UNL     1       0.182  -0.279  -1.032  0.00  0.00    +0.004 C 
ATOM     17  C   UNL     1       2.829  -1.743  -0.089  0.00  0.00    +0.004 C 
ATOM     18  C   UNL     1       0.871   0.938   1.224  0.00  0.00    +0.003 C 
ATOM     19  C   UNL     1       3.877  -1.075   0.810  0.00  0.00    +0.043 C 
ATOM     20  O   UNL     1       2.985   0.429   2.509  0.00  0.00    -0.212 OA
ENDROOT
BRANCH   1  22
ATOM     21  C   UNL     1       5.065   2.071   0.353  0.00  0.00    -0.012 C 
ATOM     22  C   UNL     1       4.204   1.322   0.698  0.00  0.00    -0.049 C 
ENDBRANCH   1  22
BRANCH   2  23
ATOM     23  C   UNL     1       2.326   0.680  -0.820  0.00  0.00    +0.003 C 
ATOM     24  C   UNL     1       3.371   0.268  -1.688  0.00  0.00    +0.000 C 
ENDBRANCH   2  23
TORSDOF 2
