REMARK  Name = 
REMARK  20 active torsions:
REMARK  status: ('A' for Active; 'I' for Inactive)
REMARK    1  A    between atoms: C_2  and  C_4
REMARK    2  A    between atoms: C_4  and  N_5
REMARK    3  A    between atoms: N_5  and  C_6
REMARK    4  A    between atoms: N_5  and  C_17
REMARK    5  A    between atoms: C_6  and  C_7
REMARK    6  A    between atoms: C_7  and  N_8
REMARK    7  A    between atoms: N_8  and  C_9
REMARK    8  A    between atoms: N_8  and  C_13
REMARK    9  A    between atoms: C_9  and  C_10
REMARK   10  A    between atoms: C_13  and  C_14
REMARK   11  A    between atoms: C_17  and  C_18
REMARK   12  A    between atoms: C_18  and  N_19
REMARK   13  A    between atoms: N_19  and  C_20
REMARK   14  A    between atoms: N_19  and  C_24
REMARK   15  A    between atoms: C_20  and  C_21
REMARK   16  A    between atoms: C_24  and  C_25
REMARK   17  A    between atoms: C_24  and  C_34
REMARK   18  A    between atoms: C_25  and  O_26
REMARK   19  A    between atoms: O_26  and  C_27
REMARK   20  A    between atoms: C_27  and  C_28
REMARK                            x       y       z     vdW  Elec       q    Type
REMARK                         _______ _______ _______ _____ _____    ______ ____
ROOT
ATOM      1  C   UNL     1       0.274  -1.585  -1.127  0.00  0.00    +0.091 C 
ENDROOT
BRANCH   1   2
ATOM      2  N   UNL     1       1.125  -1.448   0.000  0.00  0.00    -0.252 NA
BRANCH   2   3
ATOM      3  C   UNL     1       2.351  -0.708  -0.671  0.00  0.00    +0.192 C 
BRANCH   3   4
ATOM      4  C   UNL     1       1.950   0.719  -0.041  0.00  0.00    +0.381 C 
ATOM      5  O   UNL     1       2.126   1.769  -0.907  0.00  0.00    -0.244 OA
ATOM      6  O   UNL     1       1.673   0.784   1.146  0.00  0.00    -0.244 OA
ENDBRANCH   3   4
BRANCH   3   7
ATOM      7  C   UNL     1       3.366  -1.078   0.571  0.00  0.00    +0.170 C 
BRANCH   7   8
ATOM      8  O   UNL     1       4.567  -0.590   0.035  0.00  0.00    -0.347 OA
BRANCH   8   9
ATOM      9  C   UNL     1       4.852   0.591   0.697  0.00  0.00    +0.169 C 
BRANCH   9  10
ATOM     10  C   UNL     1       5.823   1.447  -0.013  0.00  0.00    +0.007 A 
ATOM     11  C   UNL     1       5.592   2.816   0.022  0.00  0.00    -0.002 A 
ATOM     12  C   UNL     1       6.530   3.680  -0.491  0.00  0.00    -0.000 A 
ATOM     13  C   UNL     1       7.731   3.244  -0.997  0.00  0.00    -0.000 A 
ATOM     14  C   UNL     1       7.987   1.894  -1.007  0.00  0.00    -0.000 A 
ATOM     15  C   UNL     1       7.061   1.031  -0.440  0.00  0.00    -0.002 A 
ENDBRANCH   9  10
ENDBRANCH   8   9
ENDBRANCH   7   8
ENDBRANCH   3   7
ENDBRANCH   2   3
BRANCH   2  16
ATOM     16  C   UNL     1       1.697  -2.788   0.175  0.00  0.00    +0.188 C 
BRANCH  16  17
ATOM     17  C   UNL     1       1.655  -3.240   1.572  0.00  0.00    +0.381 C 
ATOM     18  O   UNL     1       1.459  -2.377   2.651  0.00  0.00    -0.244 OA
ATOM     19  O   UNL     1       1.701  -4.462   1.843  0.00  0.00    -0.244 OA
ENDBRANCH  16  17
ENDBRANCH   2  16
ENDBRANCH   1   2
BRANCH   1  20
ATOM     20  C   UNL     1      -1.008  -1.018  -1.242  0.00  0.00    +0.090 C 
BRANCH  20  21
ATOM     21  N   UNL     1      -2.015  -0.989  -0.304  0.00  0.00    -0.261 NA
BRANCH  21  22
ATOM     22  C   UNL     1      -2.177  -2.038   0.627  0.00  0.00    +0.188 C 
BRANCH  22  24
ATOM     23  O   UNL     1      -3.470  -3.837   0.898  0.00  0.00    -0.244 OA
ATOM     24  C   UNL     1      -3.152  -3.085   0.187  0.00  0.00    +0.381 C 
ATOM     25  O   UNL     1      -3.583  -3.176  -1.142  0.00  0.00    -0.244 OA
ENDBRANCH  22  24
ENDBRANCH  21  22
BRANCH  21  26
ATOM     26  C   UNL     1      -2.189   0.336   0.229  0.00  0.00    +0.090 C 
BRANCH  26  27
ATOM     27  C   UNL     1      -3.543   0.505   0.860  0.00  0.00    +0.091 C 
BRANCH  27  28
ATOM     28  N   UNL     1      -4.375   1.237  -0.051  0.00  0.00    -0.252 NA
BRANCH  28  29
ATOM     29  C   UNL     1      -4.134   2.648  -0.077  0.00  0.00    +0.188 C 
BRANCH  29  30
ATOM     30  C   UNL     1      -5.223   3.464   0.487  0.00  0.00    +0.381 C 
ATOM     31  O   UNL     1      -6.299   3.824  -0.314  0.00  0.00    -0.244 OA
ATOM     32  O   UNL     1      -5.271   3.593   1.737  0.00  0.00    -0.244 OA
ENDBRANCH  29  30
ENDBRANCH  28  29
BRANCH  28  33
ATOM     33  C   UNL     1      -5.751   0.867   0.133  0.00  0.00    +0.188 C 
BRANCH  33  34
ATOM     34  C   UNL     1      -5.991  -0.317  -0.751  0.00  0.00    +0.381 C 
ATOM     35  O   UNL     1      -5.391  -0.245  -2.012  0.00  0.00    -0.244 OA
ATOM     36  O   UNL     1      -5.948  -1.463  -0.210  0.00  0.00    -0.244 OA
ENDBRANCH  33  34
ENDBRANCH  28  33
ENDBRANCH  27  28
ENDBRANCH  26  27
ENDBRANCH  21  26
ENDBRANCH  20  21
ENDBRANCH   1  20
TORSDOF 20
