REMARK  Name = 
REMARK  9 active torsions:
REMARK  status: ('A' for Active; 'I' for Inactive)
REMARK    1  A    between atoms: N_2  and  C_3
REMARK    2  A    between atoms: N_2  and  C_16
REMARK    3  A    between atoms: C_3  and  C_4
REMARK    4  A    between atoms: C_19  and  C_20
REMARK    5  A    between atoms: N_22  and  CA_23
REMARK    6  A    between atoms: CA_23  and  CB_24
REMARK    7  A    between atoms: CA_23  and  C_29
REMARK    8  A    between atoms: CB_24  and  CG_25
REMARK    9  A    between atoms: CG_25  and  CD_26
REMARK                            x       y       z     vdW  Elec       q    Type
REMARK                         _______ _______ _______ _____ _____    ______ ____
ROOT
ATOM      1  C   UNK A   0      -0.453  -0.186  -0.085  0.00  0.00    +0.048 A 
ATOM      2  C   UNK A   0      -0.173   0.894  -0.851  0.00  0.00    +0.015 A 
ATOM      3  C   UNK A   0       1.132   1.055  -1.319  0.00  0.00    +0.006 A 
ATOM      4  C   UNK A   0       2.138   0.325  -0.772  0.00  0.00    +0.055 A 
ATOM      5  C   UNK A   0       1.823  -0.511   0.293  0.00  0.00    +0.006 A 
ATOM      6  C   UNK A   0       0.549  -1.069   0.303  0.00  0.00    +0.015 A 
ENDROOT
BRANCH   4   7
ATOM      7  C   UNK A   0       3.570   0.502  -1.066  0.00  0.00    +0.265 C 
ATOM      8  N   GLU A   1       4.333  -0.636  -1.018  0.00  0.00    -0.192 NA
ATOM      9  O   UNK A   0       4.140   1.621  -1.000  0.00  0.00    -0.268 OA
BRANCH   8  10
ATOM     10  CA  GLU A   1       5.881  -0.599  -0.763  0.00  0.00    +0.199 C 
BRANCH  10  11
ATOM     11  C   GLU A   1       5.763  -1.724   0.394  0.00  0.00    +0.384 C 
ATOM     12  OXT GLU A   1       5.425  -2.931  -0.236  0.00  0.00    -0.244 OA
ATOM     13  O   GLU A   1       5.098  -1.471   1.390  0.00  0.00    -0.244 OA
ENDBRANCH  10  11
BRANCH  10  14
ATOM     14  CB  GLU A   1       5.832   0.671   0.290  0.00  0.00    +0.045 C 
BRANCH  14  15
ATOM     15  CG  GLU A   1       6.929   0.322   1.270  0.00  0.00    +0.116 C 
BRANCH  15  16
ATOM     16  CD  GLU A   1       8.218   0.287   0.542  0.00  0.00    +0.365 C 
ATOM     17  OE2 GLU A   1       9.028   1.403   0.516  0.00  0.00    -0.246 OA
ATOM     18  OE1 GLU A   1       8.708  -0.844   0.264  0.00  0.00    -0.246 OA
ENDBRANCH  15  16
ENDBRANCH  14  15
ENDBRANCH  10  14
ENDBRANCH   8  10
ENDBRANCH   4   7
BRANCH   1  20
ATOM     19  C   UNK A   0      -1.952  -1.279   0.253  0.00  0.00    +0.113 C 
ATOM     20  N   UNK A   0      -1.745  -0.593   0.385  0.00  0.00    -0.301 N 
BRANCH  20  21
ATOM     21  C   UNK A   0      -2.240  -0.185   1.707  0.00  0.00    +0.139 C 
BRANCH  21  22
ATOM     22  C   UNK A   0      -3.731  -0.239   1.532  0.00  0.00    +0.098 A 
ATOM     23  N   UNK A   0      -4.196   0.772   0.754  0.00  0.00    -0.240 NA
ATOM     24  C   UNK A   0      -5.374   0.662   0.096  0.00  0.00    +0.151 A 
ATOM     25  C   UNK A   0      -6.038  -0.559   0.097  0.00  0.00    +0.186 A 
ATOM     26  N   UNK A   0      -7.383  -0.461  -0.043  0.00  0.00    -0.190 NA
ATOM     27  C   UNK A   0      -7.952   0.695  -0.465  0.00  0.00    +0.259 A 
ATOM     28  N   UNK A   0      -7.218   1.780  -0.767  0.00  0.00    -0.191 NA
ATOM     29  N   UNK A   0      -9.346   0.775  -0.662  0.00  0.00    -0.086 NA
ATOM     30  N   UNK A   0      -5.465  -1.657   0.649  0.00  0.00    -0.222 NA
ATOM     31  C   UNK A   0      -5.906   1.758  -0.528  0.00  0.00    +0.193 A 
ATOM     32  N   UNK A   0      -5.090   2.913  -0.636  0.00  0.00    -0.105 NA
ATOM     33  C   UNK A   0      -4.304  -1.490   1.334  0.00  0.00    +0.117 A 
ENDBRANCH  21  22
ENDBRANCH  20  21
ENDBRANCH   1  20
TORSDOF 9
