REMARK  Name = 
REMARK  8 active torsions:
REMARK  status: ('A' for Active; 'I' for Inactive)
REMARK    1  A    between atoms: C_2  and  C_3
REMARK    2  A    between atoms: C_2  and  N_11
REMARK    3  A    between atoms: C_3  and  C_4
REMARK    4  A    between atoms: C_4  and  C_5
REMARK    5  A    between atoms: N_11  and  C_12
REMARK    6  A    between atoms: C_12  and  C_13
REMARK    7  A    between atoms: C_13  and  C_15
REMARK    8  A    between atoms: C_20  and  C_21
REMARK                            x       y       z     vdW  Elec       q    Type
REMARK                         _______ _______ _______ _____ _____    ______ ____
ROOT
ATOM      1  C   UNL     1       0.240  -0.419   0.644  0.00  0.00    +0.126 C 
ENDROOT
BRANCH   1   2
ATOM      2  C   UNL     1      -0.986  -1.078  -0.266  0.00  0.00    +0.192 C 
ATOM      3  O   UNL     1      -0.775  -0.058  -1.388  0.00  0.00    -0.217 OA
BRANCH   2   4
ATOM      4  C   UNL     1      -2.104  -0.125   0.445  0.00  0.00    +0.009 A 
ATOM      5  C   UNL     1      -3.213   0.009  -0.383  0.00  0.00    +0.006 A 
ATOM      6  C   UNL     1      -4.428   0.314   0.176  0.00  0.00    +0.095 A 
ATOM      7  C   UNL     1      -4.581   0.162   1.542  0.00  0.00    +0.200 A 
ATOM      8  O   UNL     1      -5.723   0.641   2.188  0.00  0.00    -0.286 OA
ATOM      9  C   UNL     1      -3.527  -0.176   2.378  0.00  0.00    +0.042 A 
ATOM     10  C   UNL     1      -2.339  -0.494   1.757  0.00  0.00    +0.001 A 
BRANCH   6  11
ATOM     11  C   UNL     1      -5.666   0.241  -0.606  0.00  0.00    +0.287 C 
ATOM     12  O   UNL     1      -5.655  -0.234  -1.782  0.00  0.00    -0.267 OA
ATOM     13  N   UNL     1      -6.875   0.750  -0.030  0.00  0.00    -0.084 NA
ENDBRANCH   6  11
ENDBRANCH   2   4
ENDBRANCH   1   2
BRANCH   1  14
ATOM     14  N   UNL     1       1.363  -0.359  -0.289  0.00  0.00    -0.216 NA
BRANCH  14  16
ATOM     15  C   UNL     1       2.694   1.327   0.601  0.00  0.00    +0.019 C 
ATOM     16  C   UNL     1       1.472   1.204  -0.499  0.00  0.00    +0.073 C 
BRANCH  16  17
ATOM     17  C   UNL     1       2.514   1.089  -1.769  0.00  0.00    +0.022 C 
BRANCH  17  18
ATOM     18  C   UNL     1       3.309  -0.140  -1.643  0.00  0.00    +0.028 C 
BRANCH  18  19
ATOM     19  C   UNL     1       4.521  -0.059  -0.826  0.00  0.00    -0.022 A 
ATOM     20  C   UNL     1       5.536   0.790  -1.235  0.00  0.00    -0.004 A 
ATOM     21  C   UNL     1       6.700   0.912  -0.487  0.00  0.00    -0.000 A 
ATOM     22  C   UNL     1       6.798   0.064   0.608  0.00  0.00    -0.000 A 
ATOM     23  C   UNL     1       5.896  -0.937   0.862  0.00  0.00    -0.000 A 
ATOM     24  C   UNL     1       4.828  -1.133  -0.000  0.00  0.00    -0.004 A 
ENDBRANCH  18  19
ENDBRANCH  17  18
ENDBRANCH  16  17
ENDBRANCH  14  16
ENDBRANCH   1  14
TORSDOF 8
