REMARK  Name = 
REMARK  10 active torsions:
REMARK  status: ('A' for Active; 'I' for Inactive)
REMARK    1  A    between atoms: C_2  and  C_3
REMARK    2  A    between atoms: C_3  and  N_4
REMARK    3  A    between atoms: N_4  and  C_5
REMARK    4  A    between atoms: C_5  and  C_6
REMARK    5  A    between atoms: C_6  and  N_7
REMARK    6  A    between atoms: N_7  and  C_8
REMARK    7  A    between atoms: C_8  and  C_9
REMARK    8  A    between atoms: C_9  and  N_10
REMARK    9  A    between atoms: N_10  and  C_11
REMARK   10  A    between atoms: C_11  and  C_12
REMARK                            x       y       z     vdW  Elec       q    Type
REMARK                         _______ _______ _______ _____ _____    ______ ____
ROOT
ATOM      1  N   UNL     1      -0.304  -1.186   0.680  0.00  0.00    -0.215 NA
ENDROOT
BRANCH   1   2
ATOM      2  C   UNL     1      -1.345  -0.237   1.046  0.00  0.00    +0.108 C 
BRANCH   2   3
ATOM      3  C   UNL     1      -2.218   0.131  -0.124  0.00  0.00    +0.108 C 
BRANCH   3   4
ATOM      4  N   UNL     1      -2.841  -1.042  -0.682  0.00  0.00    -0.215 NA
BRANCH   4   5
ATOM      5  C   UNL     1      -4.281  -0.995  -0.658  0.00  0.00    +0.109 C 
BRANCH   5   7
ATOM      6  N   UNL     1      -4.378   1.433  -1.030  0.00  0.00    -0.130 NA
ATOM      7  C   UNL     1      -4.829   0.333  -0.216  0.00  0.00    +0.128 C 
ENDBRANCH   5   7
ENDBRANCH   4   5
ENDBRANCH   3   4
ENDBRANCH   2   3
ENDBRANCH   1   2
BRANCH   1   8
ATOM      8  C   UNL     1       0.578  -0.675  -0.340  0.00  0.00    +0.108 C 
BRANCH   8   9
ATOM      9  C   UNL     1       1.810  -0.015   0.215  0.00  0.00    +0.108 C 
BRANCH   9  10
ATOM     10  N   UNL     1       2.968  -0.300  -0.593  0.00  0.00    -0.215 NA
BRANCH  10  11
ATOM     11  C   UNL     1       4.208  -0.034   0.094  0.00  0.00    +0.109 C 
BRANCH  11  12
ATOM     12  C   UNL     1       4.749   1.355  -0.214  0.00  0.00    +0.128 C 
ATOM     13  N   UNL     1       5.882   1.232  -1.119  0.00  0.00    -0.130 NA
ENDBRANCH  11  12
ENDBRANCH  10  11
ENDBRANCH   9  10
ENDBRANCH   8   9
ENDBRANCH   1   8
TORSDOF 10
