REMARK  Name = 
REMARK  1 active torsions:
REMARK  status: ('A' for Active; 'I' for Inactive)
REMARK    1  A    between atoms: C_2  and  C_4
REMARK                            x       y       z     vdW  Elec       q    Type
REMARK                         _______ _______ _______ _____ _____    ______ ____
ROOT
ATOM      1  C   UNL     1      -0.223  -0.321  -0.067  0.00  0.00    +0.119 A 
ATOM      2  C   UNL     1       0.327   0.942   0.056  0.00  0.00    +0.202 A 
ATOM      3  O   UNL     1      -0.492   2.043   0.217  0.00  0.00    -0.286 OA
ATOM      4  C   UNL     1       1.630   0.995   0.540  0.00  0.00    +0.042 A 
ATOM      5  C   UNL     1       2.474   0.023   0.017  0.00  0.00    +0.003 A 
ATOM      6  C   UNL     1       1.928  -1.253  -0.067  0.00  0.00    +0.000 A 
ATOM      7  C   UNL     1       0.619  -1.309  -0.531  0.00  0.00    +0.010 A 
ENDROOT
BRANCH   1   9
ATOM      8  O   UNL     1      -2.200  -1.108   0.833  0.00  0.00    -0.240 OA
ATOM      9  C   UNL     1      -1.673  -0.427  -0.086  0.00  0.00    +0.391 C 
ATOM     10  O   UNL     1      -2.390   0.414  -0.912  0.00  0.00    -0.240 OA
ENDBRANCH   1   9
TORSDOF 1
