REMARK  Name = 
REMARK  2 active torsions:
REMARK  status: ('A' for Active; 'I' for Inactive)
REMARK    1  A    between atoms: C_2  and  P_4
REMARK    2  A    between atoms: C_2  and  P_8
REMARK                            x       y       z     vdW  Elec       q    Type
REMARK                         _______ _______ _______ _____ _____    ______ ____
ROOT
ATOM      1  C   UNL     1      -0.098   1.130   1.805  0.00  0.00    +0.048 C 
ATOM      2  C   UNL     1       0.006  -0.034   0.863  0.00  0.00    +0.216 C 
ATOM      3  O   UNL     1       0.130  -1.199   1.595  0.00  0.00    -0.211 OA
ENDROOT
BRANCH   2   4
ATOM      4  P   UNL     1      -1.408  -0.102  -0.292  0.00  0.00    +0.151 P 
ATOM      5  O   UNL     1      -2.801  -0.595   0.530  0.00  0.00    -0.355 OA
ATOM      6  O   UNL     1      -1.569   1.491  -0.870  0.00  0.00    -0.355 OA
ATOM      7  O   UNL     1      -1.056  -1.056  -1.412  0.00  0.00    -0.457 OA
ENDBRANCH   2   4
BRANCH   2   8
ATOM      8  P   UNL     1       1.447   0.098  -0.247  0.00  0.00    +0.151 P 
ATOM      9  O   UNL     1       1.203   1.378  -1.332  0.00  0.00    -0.355 OA
ATOM     10  O   UNL     1       1.417  -1.343  -1.157  0.00  0.00    -0.355 OA
ATOM     11  O   UNL     1       2.729   0.233   0.516  0.00  0.00    -0.457 OA
ENDBRANCH   2   8
TORSDOF 2
