REMARK  Name = 
REMARK  15 active torsions:
REMARK  status: ('A' for Active; 'I' for Inactive)
REMARK    1  A    between atoms: C_2  and  C_3
REMARK    2  A    between atoms: C_3  and  O_5
REMARK    3  A    between atoms: O_5  and  C_6
REMARK    4  A    between atoms: C_6  and  O_7
REMARK    5  A    between atoms: C_6  and  C_37
REMARK    6  A    between atoms: O_7  and  P_8
REMARK    7  A    between atoms: P_8  and  C_10
REMARK    8  A    between atoms: P_8  and  C_20
REMARK    9  A    between atoms: C_10  and  C_11
REMARK   10  A    between atoms: C_11  and  C_12
REMARK   11  A    between atoms: C_12  and  C_13
REMARK   12  A    between atoms: C_13  and  C_14
REMARK   13  A    between atoms: C_20  and  C_21
REMARK   14  A    between atoms: C_25  and  C_26
REMARK   15  A    between atoms: C_33  and  C_34
REMARK                            x       y       z     vdW  Elec       q    Type
REMARK                         _______ _______ _______ _____ _____    ______ ____
ROOT
ATOM      1  P   UNL     1      -1.335   0.679  -0.660  0.00  0.00    +0.234 P 
ATOM      2  O   UNL     1      -1.165   1.544   0.497  0.00  0.00    -0.289 OA
ENDROOT
BRANCH   1   3
ATOM      3  C   UNL     1       0.369   0.277  -1.189  0.00  0.00    +0.172 C 
BRANCH   3   4
ATOM      4  C   UNL     1       1.004  -0.812  -0.445  0.00  0.00    +0.236 C 
ATOM      5  N   UNL     1       2.444  -0.774  -0.363  0.00  0.00    -0.271 N 
ATOM      6  C   UNL     1       2.908   0.479   0.515  0.00  0.00    +0.179 C 
ATOM      7  C   UNL     1       4.300  -0.269   1.067  0.00  0.00    +0.033 C 
ATOM      8  C   UNL     1       4.743  -0.760  -0.447  0.00  0.00    +0.022 C 
ATOM      9  C   UNL     1       3.415  -1.738  -0.418  0.00  0.00    +0.094 C 
ATOM     10  O   UNL     1       0.521  -1.954  -0.724  0.00  0.00    -0.274 OA
BRANCH   8  11
ATOM     11  C   UNL     1       5.742  -1.960   0.088  0.00  0.00    +0.002 C 
ATOM     12  C   UNL     1       7.128  -1.397   0.034  0.00  0.00    +0.000 C 
ATOM     13  C   UNL     1       7.322  -0.648   1.347  0.00  0.00    +0.000 C 
ATOM     14  C   UNL     1       7.331  -1.625   2.476  0.00  0.00    +0.000 C 
ATOM     15  C   UNL     1       6.374  -2.773   2.306  0.00  0.00    +0.000 C 
ATOM     16  C   UNL     1       5.260  -2.474   1.356  0.00  0.00    +0.000 C 
ENDBRANCH   8  11
BRANCH   6  17
ATOM     17  C   UNL     1       3.711   1.220  -0.717  0.00  0.00    +0.382 C 
ATOM     18  O   UNL     1       4.047   2.503  -0.267  0.00  0.00    -0.244 OA
ATOM     19  O   UNL     1       3.170   1.150  -1.817  0.00  0.00    -0.244 OA
ENDBRANCH   6  17
ENDBRANCH   3   4
ENDBRANCH   1   3
BRANCH   1  20
ATOM     20  O   UNL     1      -2.154   0.910  -1.958  0.00  0.00    -0.276 OA
BRANCH  20  21
ATOM     21  C   UNL     1      -2.627   2.345  -2.322  0.00  0.00    +0.295 C 
BRANCH  21  22
ATOM     22  C   UNL     1      -1.153   2.705  -3.100  0.00  0.00    +0.071 C 
ATOM     23  C   UNL     1      -1.045   4.210  -2.843  0.00  0.00    +0.006 C 
ATOM     24  C   UNL     1      -1.543   2.612  -4.569  0.00  0.00    +0.006 C 
ENDBRANCH  21  22
BRANCH  21  25
ATOM     25  O   UNL     1      -2.106   2.995  -0.968  0.00  0.00    -0.424 OA
BRANCH  25  26
ATOM     26  C   UNL     1      -3.085   3.777  -0.397  0.00  0.00    +0.319 C 
ATOM     27  O   UNL     1      -4.174   3.204  -0.151  0.00  0.00    -0.250 OA
BRANCH  26  29
ATOM     28  C   UNL     1      -4.219   5.746  -0.887  0.00  0.00    +0.012 C 
ATOM     29  C   UNL     1      -3.030   5.254  -0.226  0.00  0.00    +0.110 C 
ENDBRANCH  26  29
ENDBRANCH  25  26
ENDBRANCH  21  25
ENDBRANCH  20  21
ENDBRANCH   1  20
BRANCH   1  30
ATOM     30  C   UNL     1      -1.967  -0.886   0.081  0.00  0.00    +0.088 C 
BRANCH  30  31
ATOM     31  C   UNL     1      -2.416  -0.703   1.505  0.00  0.00    +0.011 C 
BRANCH  31  32
ATOM     32  C   UNL     1      -3.706   0.025   1.673  0.00  0.00    +0.005 C 
BRANCH  32  33
ATOM     33  C   UNL     1      -4.914  -0.856   1.786  0.00  0.00    +0.026 C 
BRANCH  33  34
ATOM     34  C   UNL     1      -4.668  -2.271   1.456  0.00  0.00    -0.022 A 
ATOM     35  C   UNL     1      -5.734  -2.956   0.877  0.00  0.00    -0.004 A 
ATOM     36  C   UNL     1      -5.910  -4.307   0.989  0.00  0.00    -0.000 A 
ATOM     37  C   UNL     1      -5.043  -5.031   1.792  0.00  0.00    -0.000 A 
ATOM     38  C   UNL     1      -4.011  -4.378   2.449  0.00  0.00    -0.000 A 
ATOM     39  C   UNL     1      -3.787  -3.065   2.174  0.00  0.00    -0.004 A 
ENDBRANCH  33  34
ENDBRANCH  32  33
ENDBRANCH  31  32
ENDBRANCH  30  31
ENDBRANCH   1  30
TORSDOF 15
