REMARK  Name = 
REMARK  4 active torsions:
REMARK  status: ('A' for Active; 'I' for Inactive)
REMARK    1  A    between atoms: C_2  and  C_4
REMARK    2  A    between atoms: C_4  and  C_5
REMARK    3  A    between atoms: C_8  and  C_9
REMARK    4  A    between atoms: C_9  and  C_11
REMARK                            x       y       z     vdW  Elec       q    Type
REMARK                         _______ _______ _______ _____ _____    ______ ____
ROOT
ATOM      1  C   UNL     1      -1.500  -0.917  -0.013  0.00  0.00    -0.022 A 
ATOM      2  C   UNL     1      -0.549  -1.379  -0.904  0.00  0.00    -0.005 A 
ATOM      3  C   UNL     1       0.798  -1.290  -0.573  0.00  0.00    -0.004 A 
ATOM      4  C   UNL     1       1.130  -0.774   0.609  0.00  0.00    -0.012 A 
ATOM      5  C   UNL     1       0.208  -0.336   1.533  0.00  0.00    -0.004 A 
ATOM      6  C   UNL     1      -1.118  -0.669   1.278  0.00  0.00    -0.005 A 
ENDROOT
BRANCH   4   7
ATOM      7  C   UNL     1       2.629  -0.165   0.838  0.00  0.00    +0.126 C 
ATOM      8  C   UNL     1       3.349  -1.127  -0.326  0.00  0.00    +0.017 C 
BRANCH   7   9
ATOM      9  C   UNL     1       2.385   1.072  -0.203  0.00  0.00    +0.368 C 
ATOM     10  O   UNL     1       3.210   2.123   0.135  0.00  0.00    -0.245 OA
ATOM     11  O   UNL     1       1.965   0.788  -1.318  0.00  0.00    -0.245 OA
ENDBRANCH   7   9
ENDBRANCH   4   7
BRANCH   1  12
ATOM     12  C   UNL     1      -2.911  -0.732  -0.410  0.00  0.00    +0.026 C 
BRANCH  12  14
ATOM     13  C   UNL     1      -3.081   1.141   1.146  0.00  0.00    +0.000 C 
ATOM     14  C   UNL     1      -3.420   0.649  -0.100  0.00  0.00    +0.004 C 
ATOM     15  C   UNL     1      -3.094   1.618  -1.223  0.00  0.00    +0.000 C 
ENDBRANCH  12  14
ENDBRANCH   1  12
TORSDOF 4
