REMARK  Name = 
REMARK  4 active torsions:
REMARK  status: ('A' for Active; 'I' for Inactive)
REMARK    1  A    between atoms: O_2  and  C_3
REMARK    2  A    between atoms: C_5  and  C_6
REMARK    3  A    between atoms: C_25  and  O_26
REMARK    4  A    between atoms: C_28  and  O_29
REMARK                            x       y       z     vdW  Elec       q    Type
REMARK                         _______ _______ _______ _____ _____    ______ ____
ROOT
ATOM      1  C   UNL     1      -0.151  -0.437  -1.171  0.00  0.00    +0.055 C 
ATOM      2  C   UNL     1      -0.234  -2.180  -1.138  0.00  0.00    +0.113 C 
ATOM      3  C   UNL     1      -1.625  -2.384  -2.122  0.00  0.00    +0.090 C 
ATOM      4  C   UNL     1      -1.657  -0.840  -2.239  0.00  0.00    +0.212 C 
ATOM      5  O   UNL     1      -1.500  -1.366  -1.057  0.00  0.00    -0.448 OA
ATOM      6  C   UNL     1      -3.008  -2.111  -1.083  0.00  0.00    +0.178 C 
ATOM      7  O   UNL     1      -2.571  -3.166  -0.079  0.00  0.00    -0.218 OA
ATOM      8  C   UNL     1      -2.680  -0.696  -0.352  0.00  0.00    +0.007 A 
ATOM      9  C   UNL     1      -3.760   0.170  -0.406  0.00  0.00    +0.038 A 
ATOM     10  C   UNL     1      -3.622   1.274   0.365  0.00  0.00    +0.176 A 
ATOM     11  O   UNL     1      -4.480   2.263   0.760  0.00  0.00    -0.435 OA
ATOM     12  C   UNL     1      -3.912   2.958   1.870  0.00  0.00    +0.429 C 
ATOM     13  O   UNL     1      -2.535   2.668   1.805  0.00  0.00    -0.435 OA
ATOM     14  C   UNL     1      -2.438   1.532   1.045  0.00  0.00    +0.176 A 
ATOM     15  C   UNL     1      -1.295   1.035   0.514  0.00  0.00    +0.036 A 
ATOM     16  C   UNL     1      -1.070  -1.907   0.053  0.00  0.00    +0.317 C 
ATOM     17  O   UNL     1      -0.612  -1.815   1.158  0.00  0.00    -0.250 OA
ATOM     18  C   UNL     1      -1.425  -0.061  -0.219  0.00  0.00    -0.016 A 
ENDROOT
BRANCH   1  23
ATOM     19  C   UNL     1       2.541   1.486   0.192  0.00  0.00    +0.175 A 
ATOM     20  C   UNL     1       3.507   0.554   0.543  0.00  0.00    +0.206 A 
ATOM     21  C   UNL     1       3.217  -0.802   0.466  0.00  0.00    +0.175 A 
ATOM     22  C   UNL     1       2.051  -1.206  -0.160  0.00  0.00    +0.036 A 
ATOM     23  C   UNL     1       0.952  -0.366  -0.025  0.00  0.00    -0.012 A 
ATOM     24  C   UNL     1       1.283   0.992   0.022  0.00  0.00    +0.036 A 
BRANCH  19  26
ATOM     25  C   UNL     1       3.001   2.804  -1.632  0.00  0.00    +0.253 C 
ATOM     26  O   UNL     1       2.946   2.731  -0.312  0.00  0.00    -0.468 OA
ENDBRANCH  19  26
BRANCH  20  27
ATOM     27  O   UNL     1       4.722   1.053   0.949  0.00  0.00    -0.465 OA
ATOM     28  C   UNL     1       4.967   1.272   2.329  0.00  0.00    +0.253 C 
ENDBRANCH  20  27
BRANCH  21  29
ATOM     29  O   UNL     1       4.322  -1.647   0.558  0.00  0.00    -0.468 OA
ATOM     30  C   UNL     1       5.069  -1.808  -0.634  0.00  0.00    +0.253 C 
ENDBRANCH  21  29
ENDBRANCH   1  23
TORSDOF 4
