REMARK  Name = 
REMARK  5 active torsions:
REMARK  status: ('A' for Active; 'I' for Inactive)
REMARK    1  A    between atoms: C_2  and  O_4
REMARK    2  A    between atoms: C_2  and  C_20
REMARK    3  A    between atoms: O_4  and  C_5
REMARK    4  A    between atoms: C_8  and  C_9
REMARK    5  A    between atoms: C_9  and  C_11
REMARK                            x       y       z     vdW  Elec       q    Type
REMARK                         _______ _______ _______ _____ _____    ______ ____
ROOT
ATOM      1  C   UNL     1       1.790   0.435   0.247  0.00  0.00    +0.139 A 
ATOM      2  C   UNL     1       0.975   1.560   0.197  0.00  0.00    +0.037 A 
ATOM      3  C   UNL     1      -0.193   1.528  -0.514  0.00  0.00    +0.006 A 
ATOM      4  C   UNL     1      -0.579   0.400  -1.188  0.00  0.00    +0.039 A 
ATOM      5  C   UNL     1       0.011  -0.791  -0.806  0.00  0.00    +0.006 A 
ATOM      6  C   UNL     1       1.231  -0.752  -0.140  0.00  0.00    +0.037 A 
ENDROOT
BRANCH   4   7
ATOM      7  C   UNL     1      -1.773   0.417  -2.005  0.00  0.00    +0.196 C 
ATOM      8  O   UNL     1      -1.726   0.556  -3.246  0.00  0.00    -0.287 OA
BRANCH   7   9
ATOM      9  C   UNL     1      -3.048  -0.021  -1.424  0.00  0.00    +0.039 A 
ATOM     10  C   UNL     1      -4.082   0.883  -1.253  0.00  0.00    +0.004 A 
ATOM     11  C   UNL     1      -5.001   0.730  -0.223  0.00  0.00    +0.011 A 
ATOM     12  C   UNL     1      -4.808  -0.272   0.717  0.00  0.00    +0.058 A 
ATOM     13 CL   UNL     1      -5.413  -0.080   2.336  0.00  0.00    -0.082 Cl
ATOM     14  C   UNL     1      -4.071  -1.363   0.296  0.00  0.00    +0.011 A 
ATOM     15  C   UNL     1      -3.066  -1.146  -0.639  0.00  0.00    +0.004 A 
ENDBRANCH   7   9
ENDBRANCH   4   7
BRANCH   1  16
ATOM     16  O   UNL     1       2.965   0.583   0.939  0.00  0.00    -0.472 OA
BRANCH  16  18
ATOM     17  C   UNL     1       2.999  -1.729   1.700  0.00  0.00    +0.055 C 
ATOM     18  C   UNL     1       3.752  -0.450   1.463  0.00  0.00    +0.225 C 
ATOM     19  C   UNL     1       4.358   0.074   2.760  0.00  0.00    +0.055 C 
BRANCH  18  20
ATOM     20  C   UNL     1       4.898  -0.638   0.519  0.00  0.00    +0.400 C 
ATOM     21  O   UNL     1       5.030  -1.794  -0.223  0.00  0.00    -0.242 OA
ATOM     22  O   UNL     1       5.751   0.296   0.487  0.00  0.00    -0.242 OA
ENDBRANCH  18  20
ENDBRANCH  16  18
ENDBRANCH   1  16
TORSDOF 5
