REMARK  Name = 
REMARK  13 active torsions:
REMARK  status: ('A' for Active; 'I' for Inactive)
REMARK    1  A    between atoms: C_2  and  O_3
REMARK    2  A    between atoms: O_3  and  C_4
REMARK    3  A    between atoms: C_10  and  C_11
REMARK    4  A    between atoms: C_11  and  O_13
REMARK    5  A    between atoms: O_13  and  C_14
REMARK    6  A    between atoms: C_14  and  O_16
REMARK    7  A    between atoms: O_16  and  C_17
REMARK    8  A    between atoms: C_17  and  O_19
REMARK    9  A    between atoms: O_19  and  C_20
REMARK   10  A    between atoms: N_27  and  C_28
REMARK   11  A    between atoms: C_28  and  C_29
REMARK   12  A    between atoms: C_32  and  C_33
REMARK   13  A    between atoms: C_38  and  C_39
REMARK                            x       y       z     vdW  Elec       q    Type
REMARK                         _______ _______ _______ _____ _____    ______ ____
ROOT
ATOM      1  C   UNL     1      -0.685  -2.150  -0.491  0.00  0.00    +0.301 A 
ATOM      2  N   UNL     1      -0.046  -1.115   0.108  0.00  0.00    -0.277 N 
ATOM      3  C   UNL     1       0.345  -0.239  -0.855  0.00  0.00    +0.088 A 
ATOM      4  C   UNL     1       0.196  -0.931  -2.052  0.00  0.00    +0.102 A 
ATOM      5  C   UNL     1       0.524  -0.215  -3.192  0.00  0.00    +0.021 A 
ATOM      6  C   UNL     1       1.315   0.923  -3.095  0.00  0.00    +0.002 A 
ATOM      7  C   UNL     1       1.753   1.350  -1.846  0.00  0.00    +0.008 A 
ATOM      8  C   UNL     1       1.329   0.731  -0.676  0.00  0.00    +0.093 A 
ATOM      9  N   UNL     1      -0.514  -2.066  -1.833  0.00  0.00    -0.194 NA
ENDROOT
BRANCH   8  10
ATOM     10  C   UNL     1       2.169   0.693   0.532  0.00  0.00    +0.345 C 
ATOM     11  O   UNL     1       1.926   1.325   1.576  0.00  0.00    -0.245 OA
BRANCH  10  12
ATOM     12  O   UNL     1       3.435   0.094   0.538  0.00  0.00    -0.410 OA
BRANCH  12  13
ATOM     13  C   UNL     1       3.469  -1.027   1.660  0.00  0.00    +0.348 C 
ATOM     14  C   UNL     1       3.971  -2.203   0.548  0.00  0.00    +0.100 C 
BRANCH  13  15
ATOM     15  O   UNL     1       4.958  -0.733   2.102  0.00  0.00    -0.382 OA
BRANCH  15  16
ATOM     16  C   UNL     1       5.789  -0.316   1.086  0.00  0.00    +0.514 C 
ATOM     17  O   UNL     1       5.356   0.804   0.660  0.00  0.00    -0.203 OA
BRANCH  16  18
ATOM     18  O   UNL     1       7.158  -0.283   1.379  0.00  0.00    -0.422 OA
BRANCH  18  19
ATOM     19  C   UNL     1       8.056   0.587   0.751  0.00  0.00    +0.172 C 
ATOM     20  C   UNL     1       8.857  -0.078  -0.353  0.00  0.00    +0.044 C 
ATOM     21  C   UNL     1       9.896   0.932  -0.826  0.00  0.00    +0.004 C 
ATOM     22  C   UNL     1       9.731   2.266  -0.107  0.00  0.00    +0.000 C 
ATOM     23  C   UNL     1       8.327   2.785  -0.334  0.00  0.00    +0.004 C 
ATOM     24  C   UNL     1       7.322   1.765   0.195  0.00  0.00    +0.044 C 
ENDBRANCH  18  19
ENDBRANCH  16  18
ENDBRANCH  15  16
ENDBRANCH  13  15
ENDBRANCH  12  13
ENDBRANCH  10  12
ENDBRANCH   8  10
BRANCH   1  25
ATOM     25  O   UNL     1      -1.053  -3.269   0.264  0.00  0.00    -0.448 OA
BRANCH  25  27
ATOM     26  C   UNL     1      -0.118  -4.915   1.502  0.00  0.00    +0.051 C 
ATOM     27  C   UNL     1      -0.188  -4.358   0.460  0.00  0.00    +0.209 C 
ENDBRANCH  25  27
ENDBRANCH   1  25
BRANCH   2  28
ATOM     28  C   UNL     1      -0.449  -0.594   1.416  0.00  0.00    +0.137 C 
BRANCH  28  29
ATOM     29  C   UNL     1      -1.795   0.051   1.280  0.00  0.00    +0.001 A 
ATOM     30  C   UNL     1      -2.720   0.020   2.318  0.00  0.00    -0.002 A 
ATOM     31  C   UNL     1      -4.086  -0.079   2.080  0.00  0.00    -0.000 A 
ATOM     32  C   UNL     1      -4.562  -0.053   0.778  0.00  0.00    -0.001 A 
ATOM     33  C   UNL     1      -3.676   0.034  -0.266  0.00  0.00    -0.000 A 
ATOM     34  C   UNL     1      -2.352   0.304   0.031  0.00  0.00    -0.002 A 
BRANCH  32  35
ATOM     35  C   UNL     1      -5.921  -0.481   0.424  0.00  0.00    -0.006 A 
ATOM     36  C   UNL     1      -6.667   0.462  -0.273  0.00  0.00    -0.015 A 
ATOM     37  C   UNL     1      -7.702   0.058  -1.109  0.00  0.00    -0.007 A 
ATOM     38  C   UNL     1      -7.713  -1.236  -1.614  0.00  0.00    -0.001 A 
ATOM     39  C   UNL     1      -7.101  -2.192  -0.813  0.00  0.00    -0.000 A 
ATOM     40  C   UNL     1      -6.070  -1.797   0.002  0.00  0.00    -0.001 A 
BRANCH  36  41
ATOM     41  C   UNL     1      -6.562   1.893   0.025  0.00  0.00    +0.044 A 
ATOM     42  N   UNL     1      -7.593   2.772   0.061  0.00  0.00    -0.289 NA
ATOM     43  N   UNL     1      -7.080   3.962   0.362  0.00  0.00    -0.218 NA
ATOM     44  N   UNL     1      -5.772   3.846   0.585  0.00  0.00    -0.218 NA
ATOM     45  N   UNL     1      -5.457   2.674   0.069  0.00  0.00    -0.289 NA
ENDBRANCH  36  41
ENDBRANCH  32  35
ENDBRANCH  28  29
ENDBRANCH   2  28
TORSDOF 13
