REMARK  Name = 
REMARK  9 active torsions:
REMARK  status: ('A' for Active; 'I' for Inactive)
REMARK    1  A    between atoms: O_2  and  C_3
REMARK    2  A    between atoms: C_8  and  O_9
REMARK    3  A    between atoms: O_9  and  C_10
REMARK    4  A    between atoms: C_10  and  C_11
REMARK    5  A    between atoms: C_11  and  C_13
REMARK    6  A    between atoms: C_13  and  N_14
REMARK    7  A    between atoms: N_17  and  C_18
REMARK    8  A    between atoms: C_18  and  C_19
REMARK    9  A    between atoms: N_21  and  C_22
REMARK                            x       y       z     vdW  Elec       q    Type
REMARK                         _______ _______ _______ _____ _____    ______ ____
ROOT
ATOM      1  N   UNL     1      -0.543  -1.113  -0.946  0.00  0.00    -0.268 NA
ATOM      2  C   UNL     1      -0.330  -0.307   0.238  0.00  0.00    +0.090 C 
ATOM      3  C   UNL     1       0.256  -1.299   1.247  0.00  0.00    +0.090 C 
ATOM      4  N   UNL     1       1.664  -1.327   0.848  0.00  0.00    -0.263 NA
ATOM      5  C   UNL     1       1.833  -1.697  -0.523  0.00  0.00    +0.090 C 
ATOM      6  C   UNL     1       0.625  -1.831  -1.350  0.00  0.00    +0.090 C 
ENDROOT
BRANCH   4   7
ATOM      7  C   UNL     1       2.017   0.074   1.093  0.00  0.00    +0.161 C 
BRANCH   7   8
ATOM      8  C   UNL     1       3.126   0.459   0.209  0.00  0.00    +0.262 C 
ATOM      9  N   UNL     1       4.404   0.388   0.815  0.00  0.00    -0.179 NA
ATOM     10  O   UNL     1       2.911   0.764  -0.979  0.00  0.00    -0.271 OA
BRANCH   9  11
ATOM     11  C   UNL     1       5.507   0.921   0.122  0.00  0.00    +0.065 A 
ATOM     12  C   UNL     1       6.561   0.084  -0.138  0.00  0.00    -0.007 A 
ATOM     13  C   UNL     1       6.833  -0.990   0.862  0.00  0.00    +0.032 C 
ATOM     14  C   UNL     1       7.370   0.341  -1.214  0.00  0.00    -0.003 A 
ATOM     15  C   UNL     1       7.334   1.627  -1.739  0.00  0.00    -0.001 A 
ATOM     16  C   UNL     1       6.397   2.555  -1.298  0.00  0.00    -0.003 A 
ATOM     17  C   UNL     1       5.372   2.175  -0.437  0.00  0.00    -0.007 A 
ATOM     18  C   UNL     1       4.456   3.180   0.190  0.00  0.00    +0.032 C 
ENDBRANCH   9  11
ENDBRANCH   7   8
ENDBRANCH   4   7
BRANCH   1  19
ATOM     19  C   UNL     1      -1.692  -1.971  -0.817  0.00  0.00    +0.109 C 
BRANCH  19  20
ATOM     20  C   UNL     1      -2.298  -1.688   0.691  0.00  0.00    +0.211 C 
ATOM     21  O   UNL     1      -3.402  -2.716   0.514  0.00  0.00    -0.218 OA
BRANCH  20  22
ATOM     22  C   UNL     1      -3.249  -0.456   0.146  0.00  0.00    +0.240 C 
BRANCH  22  23
ATOM     23  O   UNL     1      -4.304  -0.385   1.095  0.00  0.00    -0.470 OA
BRANCH  23  25
ATOM     24  C   UNL     1      -6.164   0.877   0.319  0.00  0.00    +0.172 A 
ATOM     25  C   UNL     1      -5.583  -0.366   0.527  0.00  0.00    +0.172 A 
ATOM     26  C   UNL     1      -6.160  -1.497  -0.033  0.00  0.00    +0.040 A 
ATOM     27  C   UNL     1      -7.104  -1.413  -1.013  0.00  0.00    +0.003 A 
ATOM     28  C   UNL     1      -7.399  -0.138  -1.482  0.00  0.00    +0.003 A 
ATOM     29  C   UNL     1      -7.104   0.970  -0.696  0.00  0.00    +0.040 A 
BRANCH  24  31
ATOM     30  C   UNL     1      -5.663   2.835   1.295  0.00  0.00    +0.253 C 
ATOM     31  O   UNL     1      -5.674   1.946   1.023  0.00  0.00    -0.468 OA
ENDBRANCH  24  31
ENDBRANCH  23  25
ENDBRANCH  22  23
ENDBRANCH  20  22
ENDBRANCH  19  20
ENDBRANCH   1  19
TORSDOF 9
