REMARK  Name = 
REMARK  2 active torsions:
REMARK  status: ('A' for Active; 'I' for Inactive)
REMARK    1  A    between atoms: C_2  and  C_3
REMARK    2  A    between atoms: C_5  and  C_7
REMARK                            x       y       z     vdW  Elec       q    Type
REMARK                         _______ _______ _______ _____ _____    ______ ____
ROOT
ATOM      1  C   UNL     1       1.158   0.123  -0.419  0.00  0.00    +0.184 C 
ATOM      2  C   UNL     1       0.665  -1.381   0.221  0.00  0.00    +0.217 C 
ATOM      3  O   UNL     1       1.229  -2.116  -0.953  0.00  0.00    -0.218 OA
ATOM      4  C   UNL     1      -0.805  -1.117  -0.610  0.00  0.00    +0.241 C 
ATOM      5  O   UNL     1      -1.563  -1.976   0.375  0.00  0.00    -0.215 OA
ATOM      6  C   UNL     1      -1.037   0.286   0.172  0.00  0.00    +0.281 C 
ATOM      7  O   UNL     1      -1.821   0.147   1.251  0.00  0.00    -0.190 OA
ATOM      8  O   UNL     1       0.142   0.792   0.455  0.00  0.00    -0.325 OA
ENDROOT
BRANCH   1  10
ATOM      9  O   UNL     1       2.918   1.425   0.372  0.00  0.00    -0.218 OA
ATOM     10  C   UNL     1       2.322   0.298   0.725  0.00  0.00    +0.214 C 
ENDBRANCH   1  10
BRANCH   6  11
ATOM     11  C   UNL     1      -1.774   1.090  -0.876  0.00  0.00    +0.243 C 
ATOM     12  O   UNL     1      -1.435   2.427  -0.770  0.00  0.00    -0.215 OA
ENDBRANCH   6  11
TORSDOF 2
