REMARK  Name = 
REMARK  3 active torsions:
REMARK  status: ('A' for Active; 'I' for Inactive)
REMARK    1  A    between atoms: C_2  and  C_3
REMARK    2  A    between atoms: C_8  and  C_9
REMARK    3  A    between atoms: C_9  and  C_10
REMARK                            x       y       z     vdW  Elec       q    Type
REMARK                         _______ _______ _______ _____ _____    ______ ____
ROOT
ATOM      1  C   UNL     1      -1.720   0.781  -0.342  0.00  0.00    +0.103 C 
ATOM      2  C   UNL     1      -0.306  -0.173  -0.608  0.00  0.00    +0.060 C 
ATOM      3  C   UNL     1      -1.024  -1.526  -0.043  0.00  0.00    +0.209 C 
ATOM      4  O   UNL     1      -2.189  -1.500  -0.792  0.00  0.00    -0.448 OA
ATOM      5  C   UNL     1      -2.628  -0.274  -1.156  0.00  0.00    +0.317 C 
ATOM      6  O   UNL     1      -3.796   0.139  -1.364  0.00  0.00    -0.250 OA
ENDROOT
BRANCH   1   8
ATOM      7  C   UNL     1      -3.089   0.852   1.638  0.00  0.00    +0.001 C 
ATOM      8  C   UNL     1      -2.094   0.097   1.109  0.00  0.00    +0.011 C 
ENDBRANCH   1   8
BRANCH   2   9
ATOM      9  C   UNL     1       0.334   0.202   0.851  0.00  0.00    +0.050 C 
BRANCH   9  10
ATOM     10  C   UNL     1       1.800  -0.010   0.637  0.00  0.00    +0.058 A 
ATOM     11  N   UNL     1       2.606   0.931   0.087  0.00  0.00    -0.310 N 
ATOM     12  C   UNL     1       2.243   2.284  -0.275  0.00  0.00    +0.132 C 
ATOM     13  C   UNL     1       3.828   0.373  -0.009  0.00  0.00    +0.178 A 
ATOM     14  N   UNL     1       3.657  -0.947  -0.039  0.00  0.00    -0.223 NA
ATOM     15  C   UNL     1       2.380  -1.229   0.305  0.00  0.00    +0.113 A 
ENDBRANCH   9  10
ENDBRANCH   2   9
TORSDOF 3
