REMARK  Name = 
REMARK  9 active torsions:
REMARK  status: ('A' for Active; 'I' for Inactive)
REMARK    1  A    between atoms: C_2  and  N_3
REMARK    2  A    between atoms: N_3  and  C_4
REMARK    3  A    between atoms: N_3  and  C_7
REMARK    4  A    between atoms: C_4  and  C_5
REMARK    5  A    between atoms: C_7  and  C_8
REMARK    6  A    between atoms: C_8  and  C_9
REMARK    7  A    between atoms: C_9  and  C_10
REMARK    8  A    between atoms: C_10  and  N_12
REMARK    9  A    between atoms: N_12  and  C_13
REMARK                            x       y       z     vdW  Elec       q    Type
REMARK                         _______ _______ _______ _____ _____    ______ ____
ROOT
ATOM      1  N   UNL     1      -0.619  -1.045  -1.108  0.00  0.00    -0.239 NA
ENDROOT
BRANCH   1   2
ATOM      2  C   UNL     1      -1.309  -1.107   0.146  0.00  0.00    +0.068 A 
ATOM      3  C   UNL     1      -2.610  -0.671   0.175  0.00  0.00    +0.033 A 
ATOM      4  C   UNL     1      -3.209  -0.204   1.322  0.00  0.00    +0.083 A 
ATOM      5  C   UNL     1      -4.494   0.316   1.271  0.00  0.00    +0.031 A 
ATOM      6  C   UNL     1      -5.240   0.171   0.113  0.00  0.00    +0.059 A 
ATOM      7  C   UNL     1      -4.694  -0.539  -0.926  0.00  0.00    +0.012 A 
ATOM      8 CL   UNL     1      -6.617   1.212  -0.200  0.00  0.00    -0.082 Cl
ATOM      9  N   UNL     1      -2.511  -0.284   2.481  0.00  0.00    -0.244 NA
ATOM     10  C   UNL     1      -1.298  -0.857   2.514  0.00  0.00    +0.100 A 
ATOM     11  C   UNL     1      -3.346  -0.838  -0.988  0.00  0.00    +0.004 A 
ATOM     12  C   UNL     1      -0.667  -1.286   1.352  0.00  0.00    +0.037 A 
ENDBRANCH   1   2
BRANCH   1  13
ATOM     13  C   UNL     1       0.933  -0.709  -0.932  0.00  0.00    +0.093 C 
ATOM     14  C   UNL     1       1.016  -0.087  -2.478  0.00  0.00    +0.023 C 
BRANCH  13  15
ATOM     15  C   UNL     1       0.581   0.795  -0.301  0.00  0.00    +0.023 C 
BRANCH  15  16
ATOM     16  C   UNL     1       1.855   1.196   0.423  0.00  0.00    +0.019 C 
BRANCH  16  17
ATOM     17  C   UNL     1       3.023   0.406  -0.100  0.00  0.00    +0.072 C 
BRANCH  17  18
ATOM     18  N   UNL     1       4.300   1.017   0.167  0.00  0.00    -0.270 NA
BRANCH  18  20
ATOM     19  C   UNL     1       3.741   3.297  -0.239  0.00  0.00    +0.019 C 
ATOM     20  C   UNL     1       4.462   2.245  -0.578  0.00  0.00    +0.072 C 
ENDBRANCH  18  20
BRANCH  18  21
ATOM     21  C   UNL     1       5.309   0.096  -0.355  0.00  0.00    +0.108 C 
BRANCH  21  22
ATOM     22  C   UNL     1       5.075  -1.249   0.324  0.00  0.00    +0.199 C 
ATOM     23  O   UNL     1       6.316  -1.876   0.433  0.00  0.00    -0.219 OA
ENDBRANCH  21  22
ENDBRANCH  18  21
ENDBRANCH  17  18
ENDBRANCH  16  17
ENDBRANCH  15  16
ENDBRANCH  13  15
ENDBRANCH   1  13
TORSDOF 9
