REMARK  Name = 
REMARK  6 active torsions:
REMARK  status: ('A' for Active; 'I' for Inactive)
REMARK    1  A    between atoms: C_7  and  C_8
REMARK    2  A    between atoms: C_8  and  O_9
REMARK    3  A    between atoms: C_8  and  C_15
REMARK    4  A    between atoms: O_9  and  C_10
REMARK    5  A    between atoms: C_10  and  C_11
REMARK    6  A    between atoms: C_11  and  N_12
REMARK                            x       y       z     vdW  Elec       q    Type
REMARK                         _______ _______ _______ _____ _____    ______ ____
ROOT
ATOM      1  C   UNL     1       0.065   0.274  -0.961  0.00  0.00    +0.159 C 
ENDROOT
BRANCH   1   4
ATOM      2  C   UNL     1      -1.929  -0.888  -2.530  0.00  0.00    +0.031 C 
ATOM      3  C   UNL     1      -1.642  -1.518  -1.331  0.00  0.00    -0.023 A 
ATOM      4  C   UNL     1      -0.571  -1.192  -0.506  0.00  0.00    +0.005 A 
ATOM      5  C   UNL     1      -0.709  -1.360   0.835  0.00  0.00    -0.002 A 
ATOM      6  C   UNL     1      -1.317  -2.547   1.228  0.00  0.00    -0.000 A 
ATOM      7  C   UNL     1      -2.350  -3.016   0.428  0.00  0.00    -0.000 A 
ATOM      8  C   UNL     1      -2.518  -2.472  -0.827  0.00  0.00    -0.004 A 
ENDBRANCH   1   4
BRANCH   1   9
ATOM      9  C   UNL     1      -0.987   1.117   0.006  0.00  0.00    +0.009 A 
ATOM     10  C   UNL     1      -1.591   2.082  -0.768  0.00  0.00    -0.002 A 
ATOM     11  C   UNL     1      -2.138   3.183  -0.147  0.00  0.00    -0.000 A 
ATOM     12  C   UNL     1      -1.851   3.431   1.169  0.00  0.00    -0.000 A 
ATOM     13  C   UNL     1      -1.335   2.393   1.907  0.00  0.00    -0.000 A 
ATOM     14  C   UNL     1      -0.616   1.399   1.255  0.00  0.00    -0.002 A 
ENDBRANCH   1   9
BRANCH   1  15
ATOM     15  O   UNL     1       1.205   0.194   0.106  0.00  0.00    -0.346 OA
BRANCH  15  16
ATOM     16  C   UNL     1       1.966  -0.862  -0.359  0.00  0.00    +0.160 C 
BRANCH  16  17
ATOM     17  C   UNL     1       3.282  -0.442  -0.927  0.00  0.00    +0.105 C 
BRANCH  17  18
ATOM     18  N   UNL     1       4.313  -0.234   0.044  0.00  0.00    -0.268 NA
ATOM     19  C   UNL     1       3.986  -0.679   1.373  0.00  0.00    +0.090 C 
ATOM     20  C   UNL     1       4.738   1.138   0.005  0.00  0.00    +0.090 C 
ENDBRANCH  17  18
ENDBRANCH  16  17
ENDBRANCH  15  16
ENDBRANCH   1  15
TORSDOF 6
