REMARK  Name = 
REMARK  6 active torsions:
REMARK  status: ('A' for Active; 'I' for Inactive)
REMARK    1  A    between atoms: C_2  and  N_5
REMARK    2  A    between atoms: N_5  and  C_6
REMARK    3  A    between atoms: C_6  and  C_7
REMARK    4  A    between atoms: C_7  and  C_9
REMARK    5  A    between atoms: C_9  and  O_10
REMARK    6  A    between atoms: O_10  and  C_11
REMARK                            x       y       z     vdW  Elec       q    Type
REMARK                         _______ _______ _______ _____ _____    ______ ____
ROOT
ATOM      1  C   UNL     1       1.074  -0.656  -0.046  0.00  0.00    +0.136 A 
ATOM      2  C   UNL     1       1.946   0.427   0.037  0.00  0.00    +0.028 A 
ATOM      3  C   UNL     1       2.033   1.067   1.368  0.00  0.00    +0.040 C 
ATOM      4  C   UNL     1       3.279   1.871   1.573  0.00  0.00    +0.092 C 
ATOM      5  C   UNL     1       4.366   1.461   0.661  0.00  0.00    +0.246 C 
ATOM      6  N   UNL     1       4.016   1.348  -0.724  0.00  0.00    -0.179 NA
ATOM      7  O   UNL     1       5.486   1.136   1.119  0.00  0.00    -0.273 OA
ATOM      8  C   UNL     1       2.726   0.810  -1.046  0.00  0.00    +0.072 A 
ATOM      9  C   UNL     1       2.474   0.161  -2.249  0.00  0.00    +0.016 A 
ATOM     10  C   UNL     1       1.709  -1.000  -2.304  0.00  0.00    +0.004 A 
ATOM     11  C   UNL     1       1.234  -1.533  -1.108  0.00  0.00    +0.037 A 
ENDROOT
BRANCH   1  12
ATOM     12  O   UNL     1      -0.078  -0.632   0.752  0.00  0.00    -0.473 OA
BRANCH  12  13
ATOM     13  C   UNL     1      -0.613  -1.800   1.262  0.00  0.00    +0.239 C 
BRANCH  13  14
ATOM     14  C   UNL     1      -2.176  -1.900   0.746  0.00  0.00    +0.213 C 
ATOM     15  O   UNL     1      -1.806  -1.513  -0.677  0.00  0.00    -0.218 OA
BRANCH  14  16
ATOM     16  C   UNL     1      -2.501  -0.341   1.179  0.00  0.00    +0.125 C 
BRANCH  16  17
ATOM     17  N   UNL     1      -3.253   0.240   0.147  0.00  0.00    -0.218 NA
BRANCH  17  19
ATOM     18  C   UNL     1      -4.839   0.153  -0.408  0.00  0.00    +0.017 C 
ATOM     19  C   UNL     1      -4.680   0.179   0.220  0.00  0.00    +0.060 C 
ATOM     20  C   UNL     1      -5.148   1.470   0.888  0.00  0.00    +0.017 C 
ATOM     21  C   UNL     1      -5.247  -0.948   1.039  0.00  0.00    +0.017 C 
ENDBRANCH  17  19
ENDBRANCH  16  17
ENDBRANCH  14  16
ENDBRANCH  13  14
ENDBRANCH  12  13
ENDBRANCH   1  12
TORSDOF 6
