REMARK  Name = 
REMARK  2 active torsions:
REMARK  status: ('A' for Active; 'I' for Inactive)
REMARK    1  A    between atoms: N_2  and  C_4
REMARK    2  A    between atoms: C_7  and  C_8
REMARK                            x       y       z     vdW  Elec       q    Type
REMARK                         _______ _______ _______ _____ _____    ______ ____
ROOT
ATOM      1  C   UNL     1      -1.708   1.207  -0.177  0.00  0.00    +0.124 C 
ATOM      2  C   UNL     1      -1.321   0.154   1.110  0.00  0.00    +0.065 C 
ATOM      3  C   UNL     1      -1.205  -1.189   0.215  0.00  0.00    +0.237 C 
ATOM      4  C   UNL     1      -0.208  -1.035  -0.806  0.00  0.00    +0.207 C 
ATOM      5  C   UNL     1       1.103  -0.926  -0.447  0.00  0.00    +0.057 C 
ATOM      6  C   UNL     1       0.909  -0.885   1.128  0.00  0.00    +0.063 C 
ATOM      7  C   UNL     1       2.445  -0.458   1.748  0.00  0.00    +0.179 C 
ATOM      8  O   UNL     1       2.204   1.039   1.892  0.00  0.00    -0.218 OA
ATOM      9  C   UNL     1       3.298  -0.336   0.393  0.00  0.00    +0.025 A 
ATOM     10  C   UNL     1       2.991   0.566  -0.561  0.00  0.00    +0.077 A 
ATOM     11  C   UNL     1       3.914   1.270  -1.334  0.00  0.00    +0.199 A 
ATOM     12  C   UNL     1       5.177   1.384  -0.779  0.00  0.00    +0.043 A 
ATOM     13  C   UNL     1       5.584   0.449   0.167  0.00  0.00    +0.014 A 
ATOM     14  O   UNL     1       3.600   1.548  -2.638  0.00  0.00    -0.286 OA
ATOM     15  C   UNL     1       4.623  -0.293   0.846  0.00  0.00    +0.056 A 
ATOM     16 CL   UNL     1       5.246  -1.463   2.002  0.00  0.00    -0.082 Cl
ATOM     17  C   UNL     1       1.716   0.163  -1.192  0.00  0.00    +0.197 C 
ATOM     18  O   UNL     1       1.591   0.089  -2.459  0.00  0.00    -0.287 OA
ATOM     19  O   UNL     1      -0.438  -1.111  -2.177  0.00  0.00    -0.289 OA
ATOM     20  O   UNL     1      -0.606  -2.165   1.043  0.00  0.00    -0.210 OA
ATOM     21  C   UNL     1      -2.537  -1.647   0.044  0.00  0.00    +0.215 C 
ATOM     22  O   UNL     1      -2.993  -2.485   0.903  0.00  0.00    -0.288 OA
ATOM     23  C   UNL     1      -3.516  -0.541  -0.084  0.00  0.00    +0.130 C 
ATOM     24  C   UNL     1       0.234   0.596   1.038  0.00  0.00    +0.013 C 
ATOM     25  C   UNL     1      -3.158   0.612  -0.496  0.00  0.00    +0.195 C 
ATOM     26  O   UNL     1      -3.842   1.261  -1.513  0.00  0.00    -0.290 OA
ENDROOT
BRANCH   1  28
ATOM     27  C   UNL     1      -1.848   2.568   1.361  0.00  0.00    +0.090 C 
ATOM     28  N   UNL     1      -2.296   2.257   0.834  0.00  0.00    -0.265 NA
ATOM     29  C   UNL     1      -3.248   3.054   0.136  0.00  0.00    +0.090 C 
ENDBRANCH   1  28
BRANCH  23  30
ATOM     30  C   UNL     1      -4.961  -0.832  -0.006  0.00  0.00    +0.290 C 
ATOM     31  O   UNL     1      -5.298  -1.466   1.042  0.00  0.00    -0.266 OA
ATOM     32  N   UNL     1      -5.451  -1.387  -1.235  0.00  0.00    -0.084 NA
ENDBRANCH  23  30
TORSDOF 2
