REMARK  Name = 
REMARK  9 active torsions:
REMARK  status: ('A' for Active; 'I' for Inactive)
REMARK    1  A    between atoms: C_2  and  N_3
REMARK    2  A    between atoms: N_3  and  C_4
REMARK    3  A    between atoms: N_3  and  C_7
REMARK    4  A    between atoms: C_4  and  C_5
REMARK    5  A    between atoms: C_7  and  C_8
REMARK    6  A    between atoms: C_8  and  C_9
REMARK    7  A    between atoms: C_9  and  C_10
REMARK    8  A    between atoms: C_10  and  N_12
REMARK    9  A    between atoms: N_12  and  C_13
REMARK                            x       y       z     vdW  Elec       q    Type
REMARK                         _______ _______ _______ _____ _____    ______ ____
ROOT
ATOM      1  N   UNL     1      -0.430   0.985  -0.913  0.00  0.00    -0.239 NA
ENDROOT
BRANCH   1   2
ATOM      2  C   UNL     1      -1.844   1.086  -0.845  0.00  0.00    +0.068 A 
ATOM      3  C   UNL     1      -2.621  -0.004  -0.472  0.00  0.00    +0.033 A 
ATOM      4  C   UNL     1      -3.732   0.163   0.326  0.00  0.00    +0.083 A 
ATOM      5  C   UNL     1      -4.381  -0.971   0.776  0.00  0.00    +0.031 A 
ATOM      6  C   UNL     1      -4.139  -2.216   0.212  0.00  0.00    +0.059 A 
ATOM      7  C   UNL     1      -3.027  -2.321  -0.606  0.00  0.00    +0.012 A 
ATOM      8 CL   UNL     1      -5.383  -3.461   0.235  0.00  0.00    -0.082 Cl
ATOM      9  N   UNL     1      -4.152   1.394   0.627  0.00  0.00    -0.244 NA
ATOM     10  C   UNL     1      -3.714   2.412  -0.156  0.00  0.00    +0.100 A 
ATOM     11  C   UNL     1      -2.161  -1.264  -0.776  0.00  0.00    +0.004 A 
ATOM     12  C   UNL     1      -2.441   2.334  -0.710  0.00  0.00    +0.037 A 
ENDBRANCH   1   2
BRANCH   1  13
ATOM     13  C   UNL     1       0.294   1.519   0.409  0.00  0.00    +0.093 C 
ATOM     14  C   UNL     1       1.384   2.409  -0.489  0.00  0.00    +0.023 C 
BRANCH  13  15
ATOM     15  C   UNL     1       1.331   0.212   0.462  0.00  0.00    +0.023 C 
BRANCH  15  16
ATOM     16  C   UNL     1       1.755  -0.047  -0.928  0.00  0.00    +0.019 C 
BRANCH  16  17
ATOM     17  C   UNL     1       3.083   0.474  -1.341  0.00  0.00    +0.072 C 
BRANCH  17  18
ATOM     18  N   UNL     1       4.203  -0.310  -0.860  0.00  0.00    -0.270 NA
BRANCH  18  20
ATOM     19  C   UNL     1       3.381  -2.201  -0.113  0.00  0.00    +0.019 C 
ATOM     20  C   UNL     1       3.820  -1.176   0.226  0.00  0.00    +0.072 C 
ENDBRANCH  18  20
BRANCH  18  21
ATOM     21  C   UNL     1       5.209   0.637  -0.383  0.00  0.00    +0.108 C 
BRANCH  21  22
ATOM     22  C   UNL     1       6.253  -0.201   0.333  0.00  0.00    +0.199 C 
ATOM     23  O   UNL     1       7.311   0.548   0.810  0.00  0.00    -0.219 OA
ENDBRANCH  21  22
ENDBRANCH  18  21
ENDBRANCH  17  18
ENDBRANCH  16  17
ENDBRANCH  15  16
ENDBRANCH  13  15
ENDBRANCH   1  13
TORSDOF 9
