REMARK  Name = 
REMARK  9 active torsions:
REMARK  status: ('A' for Active; 'I' for Inactive)
REMARK    1  A    between atoms: C_2  and  C_3
REMARK    2  A    between atoms: C_2  and  C_18
REMARK    3  A    between atoms: C_3  and  C_4
REMARK    4  A    between atoms: C_4  and  C_5
REMARK    5  A    between atoms: N_7  and  C_8
REMARK    6  A    between atoms: C_8  and  C_9
REMARK    7  A    between atoms: C_8  and  C_11
REMARK    8  A    between atoms: N_13  and  CA_14
REMARK    9  A    between atoms: CA_14  and  C_15
REMARK                            x       y       z     vdW  Elec       q    Type
REMARK                         _______ _______ _______ _____ _____    ______ ____
ROOT
ATOM      1  C   UNK A   1       1.343  -1.385   0.536  0.00  0.00    +0.242 C 
ATOM      2  N   UNK A   1       0.301  -2.279   0.247  0.00  0.00    -0.197 NA
ATOM      3  O   UNK A   1       0.900  -0.630   1.420  0.00  0.00    -0.273 OA
ENDROOT
BRANCH   1   4
ATOM      4  C   UNK A   1       2.661  -1.268  -0.118  0.00  0.00    +0.089 C 
BRANCH   4   5
ATOM      5  C   UNK A   1       2.768   0.152  -0.624  0.00  0.00    +0.040 C 
BRANCH   5   7
ATOM      6  N   UNK A   1       4.516   0.007   0.918  0.00  0.00    -0.121 NA
ATOM      7  C   UNK A   1       4.372   0.526  -0.566  0.00  0.00    +0.195 C 
BRANCH   7   8
ATOM      8  C   UNK A   1       4.145   2.047  -0.087  0.00  0.00    +0.382 C 
ATOM      9  O   UNK A   1       5.000   2.970  -0.645  0.00  0.00    -0.244 OA
ATOM     10  O   UNK A   1       3.136   2.373   0.493  0.00  0.00    -0.244 OA
ENDBRANCH   7   8
ENDBRANCH   5   7
ENDBRANCH   4   5
ENDBRANCH   1   4
BRANCH   2  11
ATOM     11  C   UNK A   1      -0.841  -1.719  -0.684  0.00  0.00    +0.184 C 
BRANCH  11  12
ATOM     12  C   UNK A   1      -1.359  -0.531   0.292  0.00  0.00    +0.263 C 
ATOM     13  N   GLY A   2      -2.794  -0.359   0.335  0.00  0.00    -0.192 NA
ATOM     14  O   UNK A   1      -0.854   0.510  -0.260  0.00  0.00    -0.271 OA
BRANCH  13  15
ATOM     15  CA  GLY A   2      -3.403   0.791  -0.205  0.00  0.00    +0.228 C 
BRANCH  15  16
ATOM     16  C   GLY A   2      -4.644   1.319   0.235  0.00  0.00    +0.387 C 
ATOM     17  OXT GLY A   2      -5.757   0.950  -0.543  0.00  0.00    -0.244 OA
ATOM     18  O   GLY A   2      -4.621   2.579   0.438  0.00  0.00    -0.244 OA
ENDBRANCH  15  16
ENDBRANCH  13  15
ENDBRANCH  11  12
BRANCH  11  19
ATOM     19  C   UNK A   1      -1.903  -2.831  -0.093  0.00  0.00    +0.100 C 
ATOM     20  S   UNK A   1      -2.967  -3.222  -1.526  0.00  0.00    -0.080 S 
ENDBRANCH  11  19
ENDBRANCH   2  11
TORSDOF 9
