REMARK  Name = 
REMARK  8 active torsions:
REMARK  status: ('A' for Active; 'I' for Inactive)
REMARK    1  A    between atoms: O_2  and  C_3
REMARK    2  A    between atoms: C_7  and  O_8
REMARK    3  A    between atoms: O_8  and  C_9
REMARK    4  A    between atoms: C_15  and  C_16
REMARK    5  A    between atoms: N_18  and  S_19
REMARK    6  A    between atoms: S_19  and  C_22
REMARK    7  A    between atoms: C_40  and  C_41
REMARK    8  A    between atoms: C_43  and  C_44
REMARK                            x       y       z     vdW  Elec       q    Type
REMARK                         _______ _______ _______ _____ _____    ______ ____
ROOT
ATOM      1  C   UNL     1       0.373  -0.423   0.331  0.00  0.00    +0.167 C 
ATOM      2  C   UNL     1      -0.483  -0.502  -1.062  0.00  0.00    +0.053 C 
ATOM      3  C   UNL     1      -1.785  -1.410  -0.789  0.00  0.00    +0.089 C 
ATOM      4  C   UNL     1      -1.602  -1.632   0.914  0.00  0.00    +0.090 C 
ATOM      5  C   UNL     1      -1.480  -0.062   1.285  0.00  0.00    +0.242 C 
ATOM      6  N   UNL     1      -2.753   0.493   1.298  0.00  0.00    -0.200 NA
ATOM      7  C   UNL     1      -3.995   0.134   0.865  0.00  0.00    +0.154 C 
ATOM      8  C   UNL     1      -4.313  -1.457   1.257  0.00  0.00    +0.051 C 
ATOM      9  C   UNL     1      -5.769  -1.499   0.415  0.00  0.00    -0.029 C 
ATOM     10  C   UNL     1      -5.609  -2.329  -0.601  0.00  0.00    -0.031 C 
ATOM     11  C   UNL     1      -5.099  -3.691  -0.231  0.00  0.00    +0.026 C 
ATOM     12  C   UNL     1      -5.409  -4.655  -1.356  0.00  0.00    +0.006 C 
ATOM     13  C   UNL     1      -4.130  -4.797  -2.172  0.00  0.00    +0.022 C 
ATOM     14  C   UNL     1      -3.347  -3.512  -2.003  0.00  0.00    +0.093 C 
ATOM     15  N   UNL     1      -2.028  -3.852  -1.469  0.00  0.00    -0.278 N 
ATOM     16  C   UNL     1      -1.488  -5.147  -1.831  0.00  0.00    +0.115 C 
ATOM     17  C   UNL     1      -4.846  -0.225   2.279  0.00  0.00    +0.036 C 
ATOM     18  O   UNL     1      -0.892   0.015   2.416  0.00  0.00    -0.273 OA
ATOM     19  C   UNL     1      -1.080  -2.837  -1.108  0.00  0.00    +0.226 C 
ATOM     20  O   UNL     1       0.016  -2.856  -1.655  0.00  0.00    -0.275 OA
ATOM     21  C   UNL     1      -0.013  -1.988   0.743  0.00  0.00    +0.053 C 
ENDROOT
BRANCH   7  22
ATOM     22  C   UNL     1      -4.896   0.777  -0.037  0.00  0.00    +0.280 C 
ATOM     23  N   UNL     1      -6.271   1.105   0.218  0.00  0.00    -0.062 NA
ATOM     24  O   UNL     1      -4.365   1.611  -0.834  0.00  0.00    -0.270 OA
BRANCH  23  25
ATOM     25  S   UNL     1      -7.221   2.073  -0.824  0.00  0.00    +0.074 S 
ATOM     26  O   UNL     1      -6.351   2.489  -1.990  0.00  0.00    -0.153 OA
ATOM     27  O   UNL     1      -8.363   1.302  -1.450  0.00  0.00    -0.153 OA
BRANCH  25  28
ATOM     28  C   UNL     1      -7.806   3.544  -0.009  0.00  0.00    +0.151 C 
ATOM     29  C   UNL     1      -6.750   4.087   0.994  0.00  0.00    +0.027 C 
ATOM     30  C   UNL     1      -7.074   4.848  -0.277  0.00  0.00    +0.027 C 
ENDBRANCH  25  28
ENDBRANCH  23  25
ENDBRANCH   7  22
BRANCH   1  31
ATOM     31  O   UNL     1       1.699  -0.862  -0.386  0.00  0.00    -0.479 OA
BRANCH  31  37
ATOM     32  C   UNL     1       3.761   2.771   2.377  0.00  0.00    +0.136 A 
ATOM     33  C   UNL     1       4.345   1.569   2.762  0.00  0.00    +0.030 A 
ATOM     34  C   UNL     1       5.677   1.693   3.434  0.00  0.00    +0.036 C 
ATOM     35  C   UNL     1       4.118   0.381   2.075  0.00  0.00    +0.083 A 
ATOM     36  C   UNL     1       2.909   0.287   1.393  0.00  0.00    +0.052 A 
ATOM     37  C   UNL     1       2.799  -0.755   0.475  0.00  0.00    +0.141 A 
ATOM     38  C   UNL     1       3.952  -1.368  -0.011  0.00  0.00    +0.058 A 
ATOM     39  C   UNL     1       5.202  -1.078   0.532  0.00  0.00    +0.108 A 
ATOM     40  C   UNL     1       2.134   1.429   1.230  0.00  0.00    +0.008 A 
ATOM     41  N   UNL     1       5.096  -0.508   1.764  0.00  0.00    -0.243 NA
ATOM     42  C   UNL     1       2.524   2.659   1.753  0.00  0.00    +0.037 A 
BRANCH  39  43
ATOM     43  C   UNL     1       6.375  -0.841  -0.336  0.00  0.00    +0.128 A 
ATOM     44  S   UNL     1       7.906  -1.607  -0.411  0.00  0.00    -0.065 S 
ATOM     45  C   UNL     1       8.802  -0.283  -1.050  0.00  0.00    +0.052 A 
ATOM     46  C   UNL     1       7.850   0.731  -0.951  0.00  0.00    +0.066 A 
ATOM     47  N   UNL     1       6.614   0.221  -1.146  0.00  0.00    -0.241 NA
BRANCH  46  48
ATOM     48  C   UNL     1       8.144   2.205  -0.878  0.00  0.00    +0.041 C 
ATOM     49  C   UNL     1       6.978   2.990  -1.471  0.00  0.00    +0.006 C 
ATOM     50  C   UNL     1       8.207   2.618   0.592  0.00  0.00    +0.006 C 
ENDBRANCH  46  48
ENDBRANCH  39  43
BRANCH  32  52
ATOM     51  C   UNL     1       5.248   4.190   1.060  0.00  0.00    +0.252 C 
ATOM     52  O   UNL     1       4.490   3.954   2.218  0.00  0.00    -0.472 OA
ENDBRANCH  32  52
ENDBRANCH  31  37
ENDBRANCH   1  31
TORSDOF 8
