REMARK  Name = 
REMARK  3 active torsions:
REMARK  status: ('A' for Active; 'I' for Inactive)
REMARK    1  A    between atoms: C_2  and  C_4
REMARK    2  A    between atoms: C_4  and  C_6
REMARK    3  A    between atoms: C_6  and  C_8
REMARK                            x       y       z     vdW  Elec       q    Type
REMARK                         _______ _______ _______ _____ _____    ______ ____
ROOT
ATOM      1  C   UNL     1      -0.477  -0.808  -0.144  0.00  0.00    +0.182 C 
ATOM      2  S   UNL     1      -0.426  -0.261  -1.958  0.00  0.00    -0.070 S 
ENDROOT
BRANCH   1   4
ATOM      3  O   UNL     1      -2.256  -0.558   0.972  0.00  0.00    -0.245 OA
ATOM      4  C   UNL     1      -1.898  -0.274   0.187  0.00  0.00    +0.377 C 
ATOM      5  O   UNL     1      -2.256   0.996  -0.277  0.00  0.00    -0.245 OA
ENDBRANCH   1   4
BRANCH   1   6
ATOM      6  C   UNL     1       0.302   0.507   0.423  0.00  0.00    +0.182 C 
ATOM      7  S   UNL     1       0.842  -0.307   2.048  0.00  0.00    -0.070 S 
BRANCH   6   8
ATOM      8  C   UNL     1       1.620   0.238  -0.348  0.00  0.00    +0.377 C 
ATOM      9  O   UNL     1       2.417   1.365  -0.569  0.00  0.00    -0.245 OA
ATOM     10  O   UNL     1       2.131  -0.897  -0.333  0.00  0.00    -0.245 OA
ENDBRANCH   6   8
ENDBRANCH   1   6
TORSDOF 3
