REMARK  Name = 
REMARK  6 active torsions:
REMARK  status: ('A' for Active; 'I' for Inactive)
REMARK    1  A    between atoms: C_2  and  N_4
REMARK    2  A    between atoms: N_4  and  C_5
REMARK    3  A    between atoms: C_5  and  C_6
REMARK    4  A    between atoms: C_6  and  C_8
REMARK    5  A    between atoms: C_8  and  O_9
REMARK    6  A    between atoms: O_9  and  C_10
REMARK                            x       y       z     vdW  Elec       q    Type
REMARK                         _______ _______ _______ _____ _____    ______ ____
ROOT
ATOM      1  C   UNL     1      -1.134  -1.048   0.115  0.00  0.00    +0.139 A 
ATOM      2  C   UNL     1      -1.931   0.063   0.143  0.00  0.00    +0.034 A 
ATOM      3  C   UNL     1      -3.234  -0.018  -0.324  0.00  0.00    +0.003 A 
ATOM      4  C   UNL     1      -4.005   1.119  -0.439  0.00  0.00    +0.000 A 
ATOM      5  C   UNL     1      -3.370   2.335  -0.292  0.00  0.00    +0.000 A 
ATOM      6  C   UNL     1      -2.163   2.366   0.387  0.00  0.00    +0.000 A 
ATOM      7  C   UNL     1      -3.835  -1.259  -0.447  0.00  0.00    +0.000 A 
ATOM      8  C   UNL     1      -2.994  -2.362  -0.457  0.00  0.00    +0.003 A 
ATOM      9  C   UNL     1      -1.627   1.189   0.900  0.00  0.00    +0.003 A 
ATOM     10  C   UNL     1      -1.621  -2.244  -0.337  0.00  0.00    +0.037 A 
ENDROOT
BRANCH   1  11
ATOM     11  O   UNL     1       0.177  -0.966   0.546  0.00  0.00    -0.473 OA
BRANCH  11  12
ATOM     12  C   UNL     1       0.673   0.174   1.124  0.00  0.00    +0.240 C 
BRANCH  12  13
ATOM     13  C   UNL     1       1.923   0.742   0.216  0.00  0.00    +0.213 C 
ATOM     14  O   UNL     1       1.296   0.312  -1.099  0.00  0.00    -0.218 OA
BRANCH  13  15
ATOM     15  C   UNL     1       2.759  -0.674   0.354  0.00  0.00    +0.125 C 
BRANCH  15  16
ATOM     16  N   UNL     1       3.806  -0.237   1.273  0.00  0.00    -0.217 NA
BRANCH  16  18
ATOM     17  C   UNL     1       4.846   1.250  -0.051  0.00  0.00    +0.019 C 
ATOM     18  C   UNL     1       5.011   0.149   0.581  0.00  0.00    +0.073 C 
ATOM     19  C   UNL     1       5.423  -0.891  -0.444  0.00  0.00    +0.019 C 
ENDBRANCH  16  18
ENDBRANCH  15  16
ENDBRANCH  13  15
ENDBRANCH  12  13
ENDBRANCH  11  12
ENDBRANCH   1  11
TORSDOF 6
