REMARK  Name = 
REMARK  10 active torsions:
REMARK  status: ('A' for Active; 'I' for Inactive)
REMARK    1  A    between atoms: C_2  and  O_3
REMARK    2  A    between atoms: O_3  and  C_4
REMARK    3  A    between atoms: C_4  and  C_6
REMARK    4  A    between atoms: C_6  and  C_7
REMARK    5  A    between atoms: C_6  and  N_15
REMARK    6  A    between atoms: C_7  and  C_8
REMARK    7  A    between atoms: C_8  and  C_9
REMARK    8  A    between atoms: N_15  and  CA_16
REMARK    9  A    between atoms: CA_16  and  C_18
REMARK   10  A    between atoms: C_21  and  C_22
REMARK                            x       y       z     vdW  Elec       q    Type
REMARK                         _______ _______ _______ _____ _____    ______ ____
ROOT
ATOM      1  CA  ALA A   1      -0.143   1.524   1.015  0.00  0.00    +0.149 C 
ATOM      2  CB  ALA A   1       0.538   0.527   2.132  0.00  0.00    +0.029 C 
ENDROOT
BRANCH   1   3
ATOM      3  C   ALA A   1       1.204   1.671   0.157  0.00  0.00    +0.242 C 
ATOM      4  N   UNK A   2       2.098   0.646  -0.147  0.00  0.00    -0.272 N 
ATOM      5  C   UNK A   2       2.885  -0.081   0.980  0.00  0.00    +0.076 C 
ATOM      6  C   UNK A   2       4.290  -0.325   0.054  0.00  0.00    +0.020 C 
ATOM      7  C   UNK A   2       5.176  -0.569   1.390  0.00  0.00    +0.002 C 
ATOM      8  C   UNK A   2       4.559  -1.869   1.843  0.00  0.00    +0.000 C 
ATOM      9  C   UNK A   2       3.589  -2.486   0.904  0.00  0.00    +0.002 C 
ATOM     10  C   UNK A   2       4.416   1.274   0.043  0.00  0.00    +0.033 C 
ATOM     11  C   UNK A   2       2.388  -1.594   0.587  0.00  0.00    +0.020 C 
ATOM     12  C   UNK A   2       3.184   1.351  -1.049  0.00  0.00    +0.179 C 
ATOM     13  O   ALA A   1       1.355   2.929   0.084  0.00  0.00    -0.273 OA
BRANCH  12  14
ATOM     14  C   UNK A   2       3.645   0.082  -1.927  0.00  0.00    +0.382 C 
ATOM     15  O   UNK A   2       4.702   0.367  -2.772  0.00  0.00    -0.244 OA
ATOM     16  O   UNK A   2       2.905  -0.804  -2.229  0.00  0.00    -0.244 OA
ENDBRANCH  12  14
ENDBRANCH   1   3
BRANCH   1  17
ATOM     17  N   ALA A   1      -0.691   0.316   0.158  0.00  0.00    -0.201 NA
BRANCH  17  18
ATOM     18  C   UNK A   0      -1.385   1.159  -0.986  0.00  0.00    +0.172 C 
BRANCH  18  19
ATOM     19  C   UNK A   0      -2.247   2.068   0.014  0.00  0.00    +0.333 C 
ATOM     20  O   UNK A   0      -2.765   1.743   1.014  0.00  0.00    -0.249 OA
BRANCH  19  21
ATOM     21  O   UNK A   0      -2.771   3.122  -0.671  0.00  0.00    -0.448 OA
BRANCH  21  23
ATOM     22  C   UNK A   0      -4.325   4.242   0.796  0.00  0.00    +0.051 C 
ATOM     23  C   UNK A   0      -3.487   4.181  -0.260  0.00  0.00    +0.209 C 
ENDBRANCH  21  23
ENDBRANCH  19  21
ENDBRANCH  18  19
BRANCH  18  24
ATOM     24  C   UNK A   0      -2.595   0.069  -1.226  0.00  0.00    +0.033 C 
BRANCH  24  25
ATOM     25  C   UNK A   0      -3.004  -0.489   0.048  0.00  0.00    +0.028 C 
BRANCH  25  26
ATOM     26  C   UNK A   0      -3.379  -1.907   0.067  0.00  0.00    -0.022 A 
ATOM     27  C   UNK A   0      -3.597  -2.678  -1.044  0.00  0.00    -0.004 A 
ATOM     28  C   UNK A   0      -4.113  -3.950  -0.912  0.00  0.00    -0.000 A 
ATOM     29  C   UNK A   0      -4.400  -4.458   0.329  0.00  0.00    -0.000 A 
ATOM     30  C   UNK A   0      -4.267  -3.662   1.432  0.00  0.00    -0.000 A 
ATOM     31  C   UNK A   0      -3.765  -2.398   1.310  0.00  0.00    -0.004 A 
ENDBRANCH  25  26
ENDBRANCH  24  25
ENDBRANCH  18  24
ENDBRANCH  17  18
ENDBRANCH   1  17
TORSDOF 10
