REMARK  Name = 
REMARK  11 active torsions:
REMARK  status: ('A' for Active; 'I' for Inactive)
REMARK    1  A    between atoms: C_5  and  C_6
REMARK    2  A    between atoms: N_8  and  C_9
REMARK    3  A    between atoms: C_9  and  C_22
REMARK    4  A    between atoms: C_10  and  C_11
REMARK    5  A    between atoms: C_11  and  C_12
REMARK    6  A    between atoms: C_12  and  C_13
REMARK    7  A    between atoms: C_13  and  C_14
REMARK    8  A    between atoms: C_14  and  S_15
REMARK    9  A    between atoms: S_15  and  C_16
REMARK   10  A    between atoms: C_16  and  C_17
REMARK   11  A    between atoms: C_17  and  C_19
REMARK                            x       y       z     vdW  Elec       q    Type
REMARK                         _______ _______ _______ _____ _____    ______ ____
ROOT
ATOM      1  C   UNK A   1      -1.824  -1.485   0.530  0.00  0.00    +0.149 C 
ATOM      2  C   UNK A   1      -0.565  -1.317   0.250  0.00  0.00    -0.003 C 
ENDROOT
BRANCH   1   4
ATOM      3  C   UNK A   0      -3.497  -0.015  -0.209  0.00  0.00    +0.245 C 
ATOM      4  N   UNK A   1      -2.882  -1.301  -0.413  0.00  0.00    -0.173 NA
ATOM      5  O   UNK A   0      -2.778   0.888  -0.724  0.00  0.00    -0.273 OA
BRANCH   3   8
ATOM      6  C   UNK A   0      -6.095   1.744  -0.623  0.00  0.00    +0.000 C 
ATOM      7  C   UNK A   0      -5.490   1.485  -0.265  0.00  0.00    +0.009 C 
ATOM      8  C   UNK A   0      -5.021   0.001  -0.885  0.00  0.00    +0.079 C 
ATOM      9  C   UNK A   0      -5.810   0.082   0.597  0.00  0.00    +0.010 C 
ATOM     10  C   UNK A   0      -4.526   2.277   0.445  0.00  0.00    +0.000 C 
ENDBRANCH   3   8
ENDBRANCH   1   4
BRANCH   1  11
ATOM     11  C   UNK A   1      -2.189  -1.811   1.911  0.00  0.00    +0.402 C 
ATOM     12  O   UNK A   1      -2.224  -3.171   2.233  0.00  0.00    -0.239 OA
ATOM     13  O   UNK A   1      -1.880  -0.983   2.811  0.00  0.00    -0.239 OA
ENDBRANCH   1  11
BRANCH   2  14
ATOM     14  C   UNK A   1      -0.129  -1.368  -1.169  0.00  0.00    +0.028 C 
BRANCH  14  15
ATOM     15  C   UNK A   1       1.373  -1.093  -1.111  0.00  0.00    +0.006 C 
BRANCH  15  16
ATOM     16  C   UNK A   1       1.612  -0.065  -0.012  0.00  0.00    +0.012 C 
BRANCH  16  17
ATOM     17  C   UNK A   1       2.487   1.073  -0.483  0.00  0.00    +0.058 C 
BRANCH  17  18
ATOM     18  S   UNK A   1       3.703   1.383   0.835  0.00  0.00    -0.138 S 
BRANCH  18  19
ATOM     19  C   UNK A   1       4.876   0.024   0.892  0.00  0.00    +0.088 C 
BRANCH  19  20
ATOM     20  C   UNK A   1       5.369  -0.142  -0.687  0.00  0.00    +0.205 C 
ATOM     21  N   UNK A   1       6.589  -1.076  -0.263  0.00  0.00    -0.120 NA
BRANCH  20  22
ATOM     22  C   UNK A   1       6.274   1.210  -0.636  0.00  0.00    +0.383 C 
ATOM     23  O   UNK A   1       5.630   2.307  -1.213  0.00  0.00    -0.244 OA
ATOM     24  O   UNK A   1       6.998   1.353   0.353  0.00  0.00    -0.244 OA
ENDBRANCH  20  22
ENDBRANCH  19  20
ENDBRANCH  18  19
ENDBRANCH  17  18
ENDBRANCH  16  17
ENDBRANCH  15  16
ENDBRANCH  14  15
ENDBRANCH   2  14
TORSDOF 11
