REMARK  Name = 
REMARK  1 active torsions:
REMARK  status: ('A' for Active; 'I' for Inactive)
REMARK    1  A    between atoms: N_4  and  C_5
REMARK                            x       y       z     vdW  Elec       q    Type
REMARK                         _______ _______ _______ _____ _____    ______ ____
ROOT
ATOM      1  C   UNL     1       3.506   1.651   0.320  0.00  0.00    +0.049 C 
ATOM      2  C   UNL     1       2.573   0.588  -0.164  0.00  0.00    +0.064 C 
ATOM      3  C   UNL     1       2.753  -0.848   0.200  0.00  0.00    +0.130 C 
ATOM      4  C   UNL     1       1.332  -1.289   0.300  0.00  0.00    +0.254 C 
ATOM      5  O   UNL     1       0.951  -2.299   0.923  0.00  0.00    -0.272 OA
ATOM      6  N   UNL     1       0.509  -0.226  -0.197  0.00  0.00    -0.159 N 
ATOM      7  N   UNL     1       1.427   0.688  -0.734  0.00  0.00    -0.180 NA
ENDROOT
BRANCH   6   8
ATOM      8  C   UNL     1      -0.898  -0.084   0.011  0.00  0.00    +0.077 A 
ATOM      9  C   UNL     1      -1.287   0.163   1.311  0.00  0.00    +0.017 A 
ATOM     10  C   UNL     1      -2.562   0.644   1.573  0.00  0.00    +0.001 A 
ATOM     11  C   UNL     1      -3.367   0.933   0.499  0.00  0.00    +0.000 A 
ATOM     12  C   UNL     1      -3.102   0.288  -0.702  0.00  0.00    +0.001 A 
ATOM     13  C   UNL     1      -1.835  -0.210  -0.969  0.00  0.00    +0.017 A 
ENDBRANCH   6   8
TORSDOF 1
