REMARK  Name = 
REMARK  4 active torsions:
REMARK  status: ('A' for Active; 'I' for Inactive)
REMARK    1  A    between atoms: O_2  and  N_3
REMARK    2  A    between atoms: C_16  and  C_17
REMARK    3  A    between atoms: N_21  and  C_22
REMARK    4  A    between atoms: C_26  and  C_27
REMARK                            x       y       z     vdW  Elec       q    Type
REMARK                         _______ _______ _______ _____ _____    ______ ____
ROOT
ATOM      1  N   UNL     1       5.065  -0.102  -0.819  0.00  0.00    -0.090 NA
ATOM      2  C   UNL     1       4.302  -0.392   0.198  0.00  0.00    +0.097 C 
ATOM      3  C   UNL     1       3.449  -1.777   0.096  0.00  0.00    +0.080 C 
ATOM      4  C   UNL     1       2.582  -1.400   1.461  0.00  0.00    +0.100 C 
ATOM      5  N   UNL     1       2.066  -0.156   0.886  0.00  0.00    -0.286 N 
ATOM      6  C   UNL     1       0.804   0.055   0.264  0.00  0.00    +0.161 A 
ATOM      7  C   UNL     1       0.646  -0.565  -0.971  0.00  0.00    +0.172 A 
ATOM      8  F   UNL     1       1.602  -0.346  -1.919  0.00  0.00    -0.201 F 
ATOM      9  C   UNL     1      -0.634  -1.006  -1.284  0.00  0.00    +0.039 A 
ATOM     10  C   UNL     1      -1.662  -0.438  -0.540  0.00  0.00    +0.076 A 
ATOM     11  C   UNL     1      -2.951  -0.912  -0.703  0.00  0.00    +0.206 A 
ATOM     12  C   UNL     1      -3.965  -0.013  -0.400  0.00  0.00    +0.136 A 
ATOM     13  C   UNL     1      -3.634   1.249   0.082  0.00  0.00    +0.087 A 
ATOM     14  N   UNL     1      -2.373   1.592   0.411  0.00  0.00    -0.313 N 
ATOM     15  O   UNL     1      -3.132  -2.132  -0.885  0.00  0.00    -0.286 OA
ATOM     16  C   UNL     1      -1.446   0.604   0.355  0.00  0.00    +0.148 A 
ATOM     17  N   UNL     1      -0.185   0.801   0.816  0.00  0.00    -0.211 NA
ATOM     18  C   UNL     1       3.281   0.595   0.659  0.00  0.00    +0.137 C 
ENDROOT
BRANCH  14  19
ATOM     19  C   UNL     1      -1.950   2.977   0.597  0.00  0.00    +0.087 C 
ATOM     20  C   UNL     1      -1.677   3.530   1.930  0.00  0.00    +0.025 C 
ATOM     21  C   UNL     1      -3.042   3.819   1.305  0.00  0.00    +0.025 C 
ENDBRANCH  14  19
BRANCH  12  22
ATOM     22  C   UNL     1      -5.301  -0.575  -0.170  0.00  0.00    +0.392 C 
ATOM     23  O   UNL     1      -5.670  -0.787   1.153  0.00  0.00    -0.240 OA
ATOM     24  O   UNL     1      -5.665  -1.464  -0.994  0.00  0.00    -0.240 OA
ENDBRANCH  12  22
BRANCH   1  26
ATOM     25  C   UNL     1       5.582   2.176  -0.173  0.00  0.00    +0.288 C 
ATOM     26  O   UNL     1       5.289   1.221  -1.160  0.00  0.00    -0.374 OA
ENDBRANCH   1  26
BRANCH   3  27
ATOM     27  C   UNL     1       4.583  -2.603   0.982  0.00  0.00    +0.117 C 
ATOM     28  N   UNL     1       4.035  -3.953   0.867  0.00  0.00    -0.131 NA
ENDBRANCH   3  27
TORSDOF 4
