REMARK  Name = 
REMARK  1 active torsions:
REMARK  status: ('A' for Active; 'I' for Inactive)
REMARK    1  A    between atoms: C_2  and  C_4
REMARK                            x       y       z     vdW  Elec       q    Type
REMARK                         _______ _______ _______ _____ _____    ______ ____
ROOT
ATOM      1  C   UNL     1       3.316   1.211   0.928  0.00  0.00    +0.058 C 
ATOM      2  C   UNL     1       2.146   0.214   0.407  0.00  0.00    +0.007 C 
ATOM      3  C   UNL     1       1.099   1.443   0.292  0.00  0.00    +0.000 C 
ATOM      4  C   UNL     1       0.041   0.515  -0.639  0.00  0.00    +0.001 C 
ATOM      5  C   UNL     1      -0.752   0.001   0.760  0.00  0.00    +0.003 C 
ATOM      6  C   UNL     1       0.318  -1.194   1.008  0.00  0.00    +0.000 C 
ATOM      7  C   UNL     1      -1.786  -0.939  -0.062  0.00  0.00    +0.016 C 
ATOM      8  C   UNL     1      -2.679  -0.035  -0.821  0.00  0.00    -0.042 C 
ATOM      9  C   UNL     1      -4.001  -0.074  -0.679  0.00  0.00    +0.029 C 
ATOM     10  C   UNL     1      -4.640  -0.635   0.519  0.00  0.00    +0.173 C 
ATOM     11  C   UNL     1      -3.684  -1.059   1.590  0.00  0.00    +0.069 C 
ATOM     12  O   UNL     1      -5.656  -1.383   0.388  0.00  0.00    -0.291 OA
ATOM     13  C   UNL     1      -2.140   1.139  -1.569  0.00  0.00    +0.022 C 
ATOM     14  C   UNL     1      -1.028  -1.757  -1.040  0.00  0.00    +0.004 C 
ATOM     15  C   UNL     1      -2.536  -1.764   0.932  0.00  0.00    +0.012 C 
ATOM     16  C   UNL     1      -0.967   1.748  -0.843  0.00  0.00    +0.004 C 
ATOM     17  C   UNL     1       1.939   1.982  -0.981  0.00  0.00    +0.000 C 
ATOM     18  C   UNL     1       2.471  -0.334  -0.883  0.00  0.00    +0.000 C 
ATOM     19  C   UNL     1       1.599  -0.577   1.485  0.00  0.00    +0.000 C 
ATOM     20  C   UNL     1       3.316   2.069  -0.464  0.00  0.00    +0.007 C 
ENDROOT
BRANCH   1  22
ATOM     21  C   UNL     1       4.514   0.002  -0.025  0.00  0.00    +0.072 C 
ATOM     22  C   UNL     1       4.492   0.248   0.383  0.00  0.00    +0.151 C 
ATOM     23  O   UNL     1       4.619  -0.823   0.991  0.00  0.00    -0.296 OA
ENDBRANCH   1  22
TORSDOF 1
