REMARK  Name = 
REMARK  5 active torsions:
REMARK  status: ('A' for Active; 'I' for Inactive)
REMARK    1  A    between atoms: O_2  and  C_3
REMARK    2  A    between atoms: C_5  and  C_6
REMARK    3  A    between atoms: C_6  and  C_7
REMARK    4  A    between atoms: C_16  and  O_17
REMARK    5  A    between atoms: C_19  and  O_20
REMARK                            x       y       z     vdW  Elec       q    Type
REMARK                         _______ _______ _______ _____ _____    ______ ____
ROOT
ATOM      1  C   UNL     1      -2.644  -1.022  -0.098  0.00  0.00    +0.175 A 
ATOM      2  C   UNL     1      -2.916   0.275  -0.516  0.00  0.00    +0.206 A 
ATOM      3  C   UNL     1      -1.979   1.260  -0.293  0.00  0.00    +0.175 A 
ATOM      4  C   UNL     1      -0.656   0.866  -0.209  0.00  0.00    +0.036 A 
ATOM      5  C   UNL     1      -0.278  -0.463  -0.073  0.00  0.00    -0.011 A 
ATOM      6  C   UNL     1      -1.321  -1.369   0.073  0.00  0.00    +0.036 A 
ENDROOT
BRANCH   1   8
ATOM      7  C   UNL     1      -3.456  -2.490  -1.851  0.00  0.00    +0.253 C 
ATOM      8  O   UNL     1      -3.501  -2.047  -0.508  0.00  0.00    -0.468 OA
ENDBRANCH   1   8
BRANCH   2   9
ATOM      9  O   UNL     1      -4.256   0.632  -0.626  0.00  0.00    -0.465 OA
ATOM     10  C   UNL     1      -5.027   0.956   0.505  0.00  0.00    +0.253 C 
ENDBRANCH   2   9
BRANCH   3  11
ATOM     11  O   UNL     1      -2.318   2.548  -0.658  0.00  0.00    -0.468 OA
ATOM     12  C   UNL     1      -2.196   3.659   0.193  0.00  0.00    +0.253 C 
ENDBRANCH   3  11
BRANCH   5  13
ATOM     13  C   UNL     1       0.925  -0.709   0.782  0.00  0.00    +0.057 C 
BRANCH  13  14
ATOM     14  C   UNL     1       2.188  -0.525   0.044  0.00  0.00    +0.036 A 
ATOM     15  C   UNL     1       3.337  -1.021   0.646  0.00  0.00    +0.170 A 
ATOM     16  N   UNL     1       3.211  -2.126   1.544  0.00  0.00    -0.107 NA
ATOM     17  N   UNL     1       4.542  -0.527   0.314  0.00  0.00    -0.193 NA
ATOM     18  C   UNL     1       4.613   0.404  -0.646  0.00  0.00    +0.258 A 
ATOM     19  N   UNL     1       5.827   1.100  -0.834  0.00  0.00    -0.086 NA
ATOM     20  N   UNL     1       3.584   0.449  -1.527  0.00  0.00    -0.210 NA
ATOM     21  C   UNL     1       2.320   0.152  -1.137  0.00  0.00    +0.101 A 
ENDBRANCH  13  14
ENDBRANCH   5  13
TORSDOF 5
