REMARK  Name = 
REMARK  1 active torsions:
REMARK  status: ('A' for Active; 'I' for Inactive)
REMARK    1  A    between atoms: C_2  and  C_3
REMARK                            x       y       z     vdW  Elec       q    Type
REMARK                         _______ _______ _______ _____ _____    ______ ____
ROOT
ATOM      1  C   UNL     1      -3.400   0.385  -0.268  0.00  0.00    +0.180 C 
ATOM      2  C   UNL     1      -2.092  -0.093  -0.773  0.00  0.00    +0.037 C 
ATOM      3  C   UNL     1      -1.327   0.016   0.675  0.00  0.00    +0.003 C 
ATOM      4  C   UNL     1      -0.123  -1.099   0.198  0.00  0.00    +0.001 C 
ATOM      5  C   UNL     1       0.795   0.150  -0.478  0.00  0.00    +0.004 C 
ATOM      6  C   UNL     1       0.017   0.064  -1.893  0.00  0.00    +0.000 C 
ATOM      7  C   UNL     1       1.985  -0.978  -0.981  0.00  0.00    +0.019 C 
ATOM      8  C   UNL     1       2.720  -0.893   0.459  0.00  0.00    -0.042 C 
ATOM      9  C   UNL     1       3.995  -0.627   0.481  0.00  0.00    +0.029 C 
ATOM     10  C   UNL     1       4.272   0.781   0.114  0.00  0.00    +0.173 C 
ATOM     11  C   UNL     1       3.091   1.278  -0.675  0.00  0.00    +0.069 C 
ATOM     12  O   UNL     1       5.437   1.149  -0.225  0.00  0.00    -0.291 OA
ATOM     13  C   UNL     1       1.973  -1.691   1.458  0.00  0.00    +0.022 C 
ATOM     14  C   UNL     1       2.882   0.211  -1.697  0.00  0.00    +0.012 C 
ATOM     15  C   UNL     1       0.637  -0.972   1.623  0.00  0.00    +0.004 C 
ATOM     16  C   UNL     1      -2.307  -1.166   1.258  0.00  0.00    +0.004 C 
ATOM     17  C   UNL     1      -2.184  -1.538  -1.110  0.00  0.00    +0.003 C 
ATOM     18  C   UNL     1      -1.327   0.763  -1.685  0.00  0.00    +0.003 C 
ATOM     19  C   UNL     1      -3.597  -0.382   1.037  0.00  0.00    +0.043 C 
ATOM     20  O   UNL     1      -4.446  -0.034  -1.105  0.00  0.00    -0.212 OA
ENDROOT
BRANCH   1  22
ATOM     21  C   UNL     1      -3.555   2.836   0.203  0.00  0.00    -0.012 C 
ATOM     22  C   UNL     1      -3.449   1.840  -0.043  0.00  0.00    -0.049 C 
ENDBRANCH   1  22
TORSDOF 1
