REMARK  Name = 
REMARK  2 active torsions:
REMARK  status: ('A' for Active; 'I' for Inactive)
REMARK    1  A    between atoms: C_4  and  C_5
REMARK    2  A    between atoms: C_5  and  N_6
REMARK                            x       y       z     vdW  Elec       q    Type
REMARK                         _______ _______ _______ _____ _____    ______ ____
ROOT
ATOM      1  N   UNL     1       1.097  -0.380  -0.165  0.00  0.00    -0.270 NA
ATOM      2  C   UNL     1       0.587  -1.854  -0.457  0.00  0.00    +0.062 C 
ATOM      3  C   UNL     1      -0.391  -2.007   0.973  0.00  0.00    +0.019 C 
ATOM      4  C   UNL     1      -0.845  -0.460   1.158  0.00  0.00    +0.021 C 
ATOM      5  C   UNL     1      -1.540   0.083   0.072  0.00  0.00    -0.023 A 
ATOM      6  C   UNL     1      -1.063  -0.087  -1.196  0.00  0.00    -0.025 A 
ATOM      7  C   UNL     1      -1.665   0.631  -2.206  0.00  0.00    -0.001 A 
ATOM      8  C   UNL     1      -2.813   1.387  -1.992  0.00  0.00    +0.042 A 
ATOM      9  C   UNL     1      -3.331   1.530  -0.717  0.00  0.00    +0.195 A 
ATOM     10  O   UNL     1      -4.497   2.232  -0.438  0.00  0.00    -0.287 OA
ATOM     11  C   UNL     1      -2.614   0.941   0.308  0.00  0.00    +0.037 A 
ATOM     12  C   UNL     1      -1.871  -0.727   2.262  0.00  0.00    +0.004 C 
ATOM     13  C   UNL     1       0.252   0.276   1.837  0.00  0.00    +0.021 C 
ATOM     14  C   UNL     1      -1.779  -2.428   0.204  0.00  0.00    +0.002 C 
ATOM     15  C   UNL     1      -0.613  -1.424  -1.495  0.00  0.00    +0.042 C 
ATOM     16  C   UNL     1       1.488  -0.410   1.251  0.00  0.00    +0.073 C 
ENDROOT
BRANCH   1  17
ATOM     17  C   UNL     1       2.394  -0.479  -0.836  0.00  0.00    +0.098 C 
BRANCH  17  20
ATOM     18  C   UNL     1       5.154  -0.316   0.790  0.00  0.00    +0.026 C 
ATOM     19  C   UNL     1       4.170   0.732   0.429  0.00  0.00    -0.047 C 
ATOM     20  C   UNL     1       3.300   0.623  -0.551  0.00  0.00    -0.017 C 
ATOM     21  C   UNL     1       4.579   2.138   0.769  0.00  0.00    +0.026 C 
ENDBRANCH  17  20
ENDBRANCH   1  17
TORSDOF 2
