REMARK  Name = 
REMARK  8 active torsions:
REMARK  status: ('A' for Active; 'I' for Inactive)
REMARK    1  A    between atoms: C_2  and  C_3
REMARK    2  A    between atoms: C_3  and  C_23
REMARK    3  A    between atoms: C_4  and  C_5
REMARK    4  A    between atoms: C_4  and  C_11
REMARK    5  A    between atoms: C_14  and  O_15
REMARK    6  A    between atoms: O_15  and  C_16
REMARK    7  A    between atoms: C_16  and  C_17
REMARK    8  A    between atoms: C_17  and  N_18
REMARK                            x       y       z     vdW  Elec       q    Type
REMARK                         _______ _______ _______ _____ _____    ______ ____
ROOT
ATOM      1  C   UNL     1      -2.358   0.638  -0.487  0.00  0.00    -0.022 C 
ATOM      2  C   UNL     1      -1.436  -0.309  -0.363  0.00  0.00    -0.004 C 
ENDROOT
BRANCH   2   3
ATOM      3  C   UNL     1      -1.883  -1.677  -0.066  0.00  0.00    -0.000 A 
ATOM      4  C   UNL     1      -1.797  -2.036   1.274  0.00  0.00    -0.000 A 
ATOM      5  C   UNL     1      -2.039  -3.376   1.551  0.00  0.00    -0.000 A 
ATOM      6  C   UNL     1      -2.788  -4.157   0.694  0.00  0.00    -0.000 A 
ATOM      7  C   UNL     1      -3.210  -3.561  -0.484  0.00  0.00    -0.000 A 
ATOM      8  C   UNL     1      -2.703  -2.363  -0.942  0.00  0.00    -0.000 A 
ENDBRANCH   2   3
BRANCH   1   9
ATOM      9  C   UNL     1      -2.002   1.982  -0.052  0.00  0.00    -0.004 A 
ATOM     10  C   UNL     1      -2.100   3.091  -0.880  0.00  0.00    -0.000 A 
ATOM     11  C   UNL     1      -2.434   4.344  -0.384  0.00  0.00    -0.000 A 
ATOM     12  C   UNL     1      -2.691   4.493   0.954  0.00  0.00    -0.000 A 
ATOM     13  C   UNL     1      -2.481   3.456   1.821  0.00  0.00    -0.000 A 
ATOM     14  C   UNL     1      -2.006   2.260   1.309  0.00  0.00    -0.000 A 
ENDBRANCH   1   9
BRANCH   2  15
ATOM     15  C   UNL     1       0.004  -0.013  -0.402  0.00  0.00    -0.000 A 
ATOM     16  C   UNL     1       0.681  -0.156   0.799  0.00  0.00    +0.003 A 
ATOM     17  C   UNL     1       2.026  -0.470   0.830  0.00  0.00    +0.037 A 
ATOM     18  C   UNL     1       2.597  -1.111  -0.256  0.00  0.00    +0.139 A 
ATOM     19  C   UNL     1       1.977  -0.945  -1.472  0.00  0.00    +0.037 A 
ATOM     20  C   UNL     1       0.673  -0.474  -1.528  0.00  0.00    +0.003 A 
BRANCH  18  21
ATOM     21  O   UNL     1       3.878  -1.648  -0.230  0.00  0.00    -0.474 OA
BRANCH  21  22
ATOM     22  C   UNL     1       4.822  -1.137  -1.168  0.00  0.00    +0.223 C 
BRANCH  22  23
ATOM     23  C   UNL     1       5.245   0.280  -0.799  0.00  0.00    +0.120 C 
BRANCH  23  24
ATOM     24  N   UNL     1       5.699   0.239   0.567  0.00  0.00    -0.267 NA
ATOM     25  C   UNL     1       5.637   1.515   1.236  0.00  0.00    +0.090 C 
ATOM     26  C   UNL     1       7.036  -0.301   0.589  0.00  0.00    +0.090 C 
ENDBRANCH  23  24
ENDBRANCH  22  23
ENDBRANCH  21  22
ENDBRANCH  18  21
ENDBRANCH   2  15
BRANCH   1  28
ATOM     27  C   UNL     1      -4.769   1.135  -0.870  0.00  0.00    +0.005 C 
ATOM     28  C   UNL     1      -3.578   0.301  -1.241  0.00  0.00    +0.026 C 
ENDBRANCH   1  28
TORSDOF 8
