REMARK  Name = 
REMARK  3 active torsions:
REMARK  status: ('A' for Active; 'I' for Inactive)
REMARK    1  A    between atoms: N_4  and  C_5
REMARK    2  A    between atoms: C_8  and  N_9
REMARK    3  A    between atoms: C_15  and  C_16
REMARK                            x       y       z     vdW  Elec       q    Type
REMARK                         _______ _______ _______ _____ _____    ______ ____
ROOT
ATOM      1  C   UNL     1       1.129  -0.505   0.119  0.00  0.00    +0.085 A 
ATOM      2  C   UNL     1       1.112   0.876  -0.035  0.00  0.00    +0.053 A 
ATOM      3  I   UNL     1       2.989   1.852  -0.037  0.00  0.00    -0.041 I 
ATOM      4  C   UNL     1      -0.069   1.591  -0.143  0.00  0.00    +0.093 A 
ATOM      5  C   UNL     1      -1.242   0.849  -0.152  0.00  0.00    +0.053 A 
ATOM      6  I   UNL     1      -2.998   1.790  -0.781  0.00  0.00    -0.041 I 
ATOM      7  C   UNL     1      -1.238  -0.474   0.268  0.00  0.00    +0.085 A 
ATOM      8  C   UNL     1      -0.070  -1.188   0.291  0.00  0.00    +0.061 A 
ATOM      9  I   UNL     1      -0.003  -3.041   1.254  0.00  0.00    -0.040 I 
ENDROOT
BRANCH   1  12
ATOM     10  C   UNL     1       4.732  -1.300  -0.557  0.00  0.00    +0.097 C 
ATOM     11  C   UNL     1       3.480  -1.190   0.243  0.00  0.00    +0.246 C 
ATOM     12  N   UNL     1       2.213  -1.295  -0.386  0.00  0.00    -0.178 NA
ATOM     13  O   UNL     1       3.473  -1.260   1.508  0.00  0.00    -0.273 OA
ENDBRANCH   1  12
BRANCH   7  14
ATOM     14  N   UNL     1      -2.479  -0.976   0.780  0.00  0.00    -0.178 NA
ATOM     15  C   UNL     1      -3.291  -1.878   0.026  0.00  0.00    +0.246 C 
ATOM     16  O   UNL     1      -2.653  -2.743  -0.647  0.00  0.00    -0.273 OA
ATOM     17  C   UNL     1      -4.760  -1.659  -0.158  0.00  0.00    +0.097 C 
ENDBRANCH   7  14
BRANCH   4  18
ATOM     18  C   UNL     1      -0.056   3.047  -0.095  0.00  0.00    +0.389 C 
ATOM     19  O   UNL     1      -1.097   3.786   0.462  0.00  0.00    -0.241 OA
ATOM     20  O   UNL     1       0.828   3.718  -0.695  0.00  0.00    -0.241 OA
ENDBRANCH   4  18
TORSDOF 3
