REMARK  Name = 
REMARK  2 active torsions:
REMARK  status: ('A' for Active; 'I' for Inactive)
REMARK    1  A    between atoms: C_2  and  C_3
REMARK    2  A    between atoms: C_22  and  C_23
REMARK                            x       y       z     vdW  Elec       q    Type
REMARK                         _______ _______ _______ _____ _____    ______ ____
ROOT
ATOM      1  C   UNL     1      -3.705   0.315  -0.093  0.00  0.00    +0.180 C 
ATOM      2  C   UNL     1      -2.431  -0.387   0.197  0.00  0.00    +0.037 C 
ATOM      3  C   UNL     1      -1.528   0.828  -0.382  0.00  0.00    +0.003 C 
ATOM      4  C   UNL     1      -0.145   0.280   0.409  0.00  0.00    +0.001 C 
ATOM      5  C   UNL     1       0.354  -0.484  -0.990  0.00  0.00    +0.004 C 
ATOM      6  C   UNL     1      -0.535  -1.780  -0.630  0.00  0.00    +0.000 C 
ATOM      7  C   UNL     1       1.752  -1.213  -0.383  0.00  0.00    +0.019 C 
ATOM      8  C   UNL     1       2.314  -0.045   0.528  0.00  0.00    -0.043 C 
ATOM      9  C   UNL     1       3.574  -0.351   0.856  0.00  0.00    +0.010 C 
ATOM     10  C   UNL     1       4.591  -0.821  -0.083  0.00  0.00    +0.101 C 
ATOM     11  C   UNL     1       4.050  -1.210  -1.420  0.00  0.00    +0.050 C 
ATOM     12  N   UNL     1       5.848  -0.483  -0.011  0.00  0.00    -0.034 NA
ATOM     13  O   UNL     1       6.099   0.868   0.160  0.00  0.00    -0.143 OA
ATOM     14  C   UNL     1       1.903   1.316   0.528  0.00  0.00    +0.022 C 
ATOM     15  C   UNL     1       2.646  -0.697  -1.650  0.00  0.00    +0.010 C 
ATOM     16  C   UNL     1       0.589   1.652  -0.002  0.00  0.00    +0.004 C 
ATOM     17  C   UNL     1      -1.990   1.761   0.858  0.00  0.00    +0.004 C 
ATOM     18  C   UNL     1      -1.984  -1.453  -0.699  0.00  0.00    +0.003 C 
ATOM     19  C   UNL     1      -3.500   1.605   0.702  0.00  0.00    +0.043 C 
ATOM     20  O   UNL     1      -4.845  -0.308   0.372  0.00  0.00    -0.212 OA
ENDROOT
BRANCH   1  22
ATOM     21  C   UNL     1      -3.729   0.949  -2.566  0.00  0.00    -0.012 C 
ATOM     22  C   UNL     1      -3.835   0.753  -1.493  0.00  0.00    -0.049 C 
ENDBRANCH   1  22
BRANCH   2  23
ATOM     23  C   UNL     1      -2.152  -0.506   1.640  0.00  0.00    +0.003 C 
ATOM     24  C   UNL     1      -3.342  -0.587   2.535  0.00  0.00    +0.000 C 
ENDBRANCH   2  23
TORSDOF 2
