REMARK  Name = 
REMARK  4 active torsions:
REMARK  status: ('A' for Active; 'I' for Inactive)
REMARK    1  A    between atoms: O_2  and  C_3
REMARK    2  A    between atoms: C_22  and  C_24
REMARK    3  A    between atoms: C_28  and  O_29
REMARK    4  A    between atoms: O_29  and  C_30
REMARK                            x       y       z     vdW  Elec       q    Type
REMARK                         _______ _______ _______ _____ _____    ______ ____
ROOT
ATOM      1  C   UNL     1      -4.838  -1.987   0.737  0.00  0.00    +0.142 A 
ATOM      2  C   UNL     1      -3.700  -1.596   0.038  0.00  0.00    +0.076 A 
ATOM      3  C   UNL     1      -2.409  -1.456   0.715  0.00  0.00    +0.202 C 
ATOM      4  C   UNL     1      -1.413  -0.551   0.123  0.00  0.00    +0.084 A 
ATOM      5  C   UNL     1      -1.784   0.222  -0.974  0.00  0.00    +0.084 A 
ATOM      6  C   UNL     1      -2.910  -0.167  -1.831  0.00  0.00    +0.199 C 
ATOM      7  O   UNL     1      -3.253   0.618  -2.752  0.00  0.00    -0.286 OA
ATOM      8  C   UNL     1      -1.127   1.422  -1.223  0.00  0.00    +0.195 A 
ATOM      9  O   UNL     1      -1.787   2.469  -1.875  0.00  0.00    -0.287 OA
ATOM     10  C   UNL     1       0.010   1.726  -0.483  0.00  0.00    +0.021 A 
ATOM     11  C   UNL     1       0.342   3.144  -0.163  0.00  0.00    +0.067 C 
ATOM     12  C   UNL     1       1.833   3.274  -0.195  0.00  0.00    +0.184 C 
ATOM     13  C   UNL     1       2.575   1.999  -0.200  0.00  0.00    +0.072 C 
ATOM     14  C   UNL     1       1.902   1.091   1.056  0.00  0.00    +0.146 C 
ATOM     15  O   UNL     1       2.105   3.857  -1.444  0.00  0.00    -0.218 OA
ATOM     16  C   UNL     1       0.614   0.622   0.116  0.00  0.00    +0.043 A 
ATOM     17  C   UNL     1      -0.286  -0.166   0.843  0.00  0.00    +0.197 A 
ATOM     18  O   UNL     1       0.088  -0.928   1.934  0.00  0.00    -0.287 OA
ATOM     19  O   UNL     1      -2.305  -1.786   1.935  0.00  0.00    -0.286 OA
ATOM     20  C   UNL     1      -3.784  -1.208  -1.294  0.00  0.00    +0.045 A 
ATOM     21  C   UNL     1      -4.867  -1.604  -2.047  0.00  0.00    +0.003 A 
ATOM     22  C   UNL     1      -5.836  -2.355  -1.432  0.00  0.00    +0.003 A 
ATOM     23  C   UNL     1      -5.843  -2.526  -0.052  0.00  0.00    +0.037 A 
ENDROOT
BRANCH  12  24
ATOM     24  C   UNL     1       2.242   4.210   0.892  0.00  0.00    +0.179 C 
ATOM     25  O   UNL     1       2.503   3.676   1.968  0.00  0.00    -0.293 OA
ATOM     26  C   UNL     1       1.643   5.582   0.829  0.00  0.00    +0.075 C 
ENDBRANCH  12  24
BRANCH   1  28
ATOM     27  C   UNL     1      -5.196  -1.073   2.949  0.00  0.00    +0.252 C 
ATOM     28  O   UNL     1      -4.827  -2.052   2.115  0.00  0.00    -0.471 OA
ENDBRANCH   1  28
BRANCH  14  29
ATOM     29  O   UNL     1       2.687  -0.216   0.759  0.00  0.00    -0.328 OA
BRANCH  29  30
ATOM     30  C   UNL     1       3.396   0.168  -0.588  0.00  0.00    +0.237 C 
ATOM     31  O   UNL     1       3.244  -1.240  -1.263  0.00  0.00    -0.330 OA
ATOM     32  C   UNL     1       2.838  -2.116  -0.088  0.00  0.00    +0.150 C 
ATOM     33  C   UNL     1       2.654  -3.421  -1.109  0.00  0.00    +0.035 C 
ATOM     34  C   UNL     1       4.461  -2.638   0.337  0.00  0.00    +0.196 C 
ATOM     35  O   UNL     1       5.145  -2.192  -0.928  0.00  0.00    -0.219 OA
ATOM     36  C   UNL     1       4.678  -1.160   1.239  0.00  0.00    +0.130 C 
ATOM     37  N   UNL     1       6.226  -1.462   1.400  0.00  0.00    -0.130 NA
ATOM     38  C   UNL     1       4.982  -0.180  -0.044  0.00  0.00    +0.083 C 
ENDBRANCH  29  30
ENDBRANCH  14  29
TORSDOF 4
