REMARK  Name = 
REMARK  5 active torsions:
REMARK  status: ('A' for Active; 'I' for Inactive)
REMARK    1  A    between atoms: C_2  and  N_3
REMARK    2  A    between atoms: N_3  and  C_4
REMARK    3  A    between atoms: N_3  and  C_6
REMARK    4  A    between atoms: C_6  and  C_8
REMARK    5  A    between atoms: C_8  and  C_10
REMARK                            x       y       z     vdW  Elec       q    Type
REMARK                         _______ _______ _______ _____ _____    ______ ____
ROOT
ATOM      1  C   UNL     1       0.213  -0.926  -0.157  0.00  0.00    +0.187 C 
ATOM      2  O   UNL     1      -0.349  -1.595  -1.032  0.00  0.00    -0.290 OA
ENDROOT
BRANCH   1   3
ATOM      3  C   UNL     1       1.439  -0.175  -0.339  0.00  0.00    +0.036 A 
ATOM      4  C   UNL     1       1.577   0.769  -1.351  0.00  0.00    +0.003 A 
ATOM      5  C   UNL     1       2.808   1.400  -1.446  0.00  0.00    +0.000 A 
ATOM      6  C   UNL     1       3.888   0.986  -0.681  0.00  0.00    +0.000 A 
ATOM      7  C   UNL     1       3.624   0.341   0.507  0.00  0.00    +0.000 A 
ATOM      8  C   UNL     1       2.487  -0.457   0.523  0.00  0.00    +0.003 A 
ENDBRANCH   1   3
BRANCH   1   9
ATOM      9  C   UNL     1      -0.737  -0.405   1.065  0.00  0.00    +0.120 C 
ATOM     10  C   UNL     1      -1.426  -1.913   1.263  0.00  0.00    +0.026 C 
BRANCH   9  11
ATOM     11  N   UNL     1      -1.859   0.127   0.063  0.00  0.00    -0.268 NA
BRANCH  11  13
ATOM     12  C   UNL     1      -3.100   2.223  -0.032  0.00  0.00    +0.019 C 
ATOM     13  C   UNL     1      -2.030   1.458   0.651  0.00  0.00    +0.072 C 
ENDBRANCH  11  13
BRANCH  11  14
ATOM     14  C   UNL     1      -3.061  -0.572   0.314  0.00  0.00    +0.072 C 
ATOM     15  C   UNL     1      -3.474  -1.262  -0.983  0.00  0.00    +0.019 C 
ENDBRANCH  11  14
ENDBRANCH   9  11
ENDBRANCH   1   9
TORSDOF 5
