REMARK  Name = 
REMARK  4 active torsions:
REMARK  status: ('A' for Active; 'I' for Inactive)
REMARK    1  A    between atoms: C_2  and  O_3
REMARK    2  A    between atoms: C_2  and  C_7
REMARK    3  A    between atoms: O_3  and  C_4
REMARK    4  A    between atoms: C_4  and  C_5
REMARK                            x       y       z     vdW  Elec       q    Type
REMARK                         _______ _______ _______ _____ _____    ______ ____
ROOT
ATOM      1  C   UNL     1      -0.755  -0.029  -0.116  0.00  0.00    +0.114 A 
ATOM      2  C   UNL     1      -2.010  -0.581  -0.290  0.00  0.00    +0.202 A 
ATOM      3  O   UNL     1      -2.087  -1.763  -1.030  0.00  0.00    -0.286 OA
ATOM      4  C   UNL     1      -3.107   0.266  -0.184  0.00  0.00    +0.042 A 
ATOM      5  C   UNL     1      -2.952   1.578   0.239  0.00  0.00    +0.003 A 
ATOM      6  C   UNL     1      -1.690   2.128   0.047  0.00  0.00    +0.000 A 
ATOM      7  C   UNL     1      -0.627   1.281   0.329  0.00  0.00    +0.010 A 
ENDROOT
BRANCH   1   9
ATOM      8  O   UNL     1       0.945  -1.267   0.900  0.00  0.00    -0.245 OA
ATOM      9  C   UNL     1       0.478  -0.817  -0.184  0.00  0.00    +0.344 C 
BRANCH   9  10
ATOM     10  O   UNL     1       1.414  -0.646  -1.209  0.00  0.00    -0.442 OA
BRANCH  10  11
ATOM     11  C   UNL     1       2.814  -0.719  -0.946  0.00  0.00    +0.244 C 
BRANCH  11  12
ATOM     12  C   UNL     1       3.203   0.410  -0.010  0.00  0.00    +0.229 C 
ATOM     13  O   UNL     1       4.374   0.158   0.679  0.00  0.00    -0.216 OA
ENDBRANCH  11  12
ENDBRANCH  10  11
ENDBRANCH   9  10
ENDBRANCH   1   9
TORSDOF 4
