REMARK  Name = 
REMARK  2 active torsions:
REMARK  status: ('A' for Active; 'I' for Inactive)
REMARK    1  A    between atoms: C_2  and  C_3
REMARK    2  A    between atoms: C_21  and  C_22
REMARK                            x       y       z     vdW  Elec       q    Type
REMARK                         _______ _______ _______ _____ _____    ______ ____
ROOT
ATOM      1  C   UNL     1       3.162   0.379   0.523  0.00  0.00    +0.180 C 
ATOM      2  C   UNL     1       1.734   0.350  -0.050  0.00  0.00    +0.037 C 
ATOM      3  C   UNL     1       1.457  -0.957   0.863  0.00  0.00    +0.003 C 
ATOM      4  C   UNL     1      -0.061  -1.464   0.308  0.00  0.00    +0.001 C 
ATOM      5  C   UNL     1      -0.699  -0.443   1.500  0.00  0.00    +0.004 C 
ATOM      6  C   UNL     1      -0.602   0.975   0.749  0.00  0.00    +0.000 C 
ATOM      7  C   UNL     1      -2.317  -0.828   1.170  0.00  0.00    +0.019 C 
ATOM      8  C   UNL     1      -2.449  -0.172  -0.279  0.00  0.00    -0.042 C 
ATOM      9  C   UNL     1      -3.752  -0.217  -0.593  0.00  0.00    +0.029 C 
ATOM     10  C   UNL     1      -4.737   0.150   0.395  0.00  0.00    +0.173 C 
ATOM     11  C   UNL     1      -4.274   0.676   1.686  0.00  0.00    +0.069 C 
ATOM     12  O   UNL     1      -5.944   0.050   0.110  0.00  0.00    -0.291 OA
ATOM     13  C   UNL     1      -1.667  -0.840  -1.374  0.00  0.00    +0.022 C 
ATOM     14  C   UNL     1      -2.817   0.525   1.922  0.00  0.00    +0.012 C 
ATOM     15  C   UNL     1      -0.274  -0.551  -0.987  0.00  0.00    +0.004 C 
ATOM     16  C   UNL     1       2.361  -1.827  -0.170  0.00  0.00    +0.004 C 
ATOM     17  C   UNL     1       0.818   1.341   0.534  0.00  0.00    +0.003 C 
ATOM     18  C   UNL     1       3.606  -1.070   0.302  0.00  0.00    +0.043 C 
ATOM     19  O   UNL     1       3.029   0.698   1.850  0.00  0.00    -0.212 OA
ENDROOT
BRANCH   1  21
ATOM     20  C   UNL     1       4.580   1.727  -0.618  0.00  0.00    -0.012 C 
ATOM     21  C   UNL     1       4.029   1.304  -0.230  0.00  0.00    -0.049 C 
ENDBRANCH   1  21
BRANCH   2  22
ATOM     22  C   UNL     1       1.936   0.154  -1.394  0.00  0.00    +0.003 C 
ATOM     23  C   UNL     1       2.882   0.041  -2.383  0.00  0.00    +0.000 C 
ENDBRANCH   2  22
TORSDOF 2
