REMARK  Name = 
REMARK  3 active torsions:
REMARK  status: ('A' for Active; 'I' for Inactive)
REMARK    1  A    between atoms: C_2  and  O_3
REMARK    2  A    between atoms: C_2  and  C_16
REMARK    3  A    between atoms: O_3  and  C_4
REMARK                            x       y       z     vdW  Elec       q    Type
REMARK                         _______ _______ _______ _____ _____    ______ ____
ROOT
ATOM      1  O   UNL     1      -0.347  -0.480   0.786  0.00  0.00    -0.449 OA
ENDROOT
BRANCH   1   2
ATOM      2  C   UNL     1       1.028  -0.493   0.626  0.00  0.00    +0.172 C 
ATOM      3  C   UNL     1       1.454   0.874   0.364  0.00  0.00    +0.060 C 
ATOM      4  C   UNL     1       3.111   0.896   0.159  0.00  0.00    +0.062 C 
ATOM      5  N   UNL     1       3.423  -0.471   0.849  0.00  0.00    -0.269 NA
ATOM      6  C   UNL     1       2.936  -1.785   0.158  0.00  0.00    +0.062 C 
ATOM      7  C   UNL     1       3.886  -1.710  -1.219  0.00  0.00    +0.024 C 
ATOM      8  C   UNL     1       4.325  -0.362  -1.447  0.00  0.00    +0.062 C 
ATOM      9  C   UNL     1       5.306   0.027  -0.384  0.00  0.00    +0.166 C 
ATOM     10  O   UNL     1       5.656   1.203  -0.412  0.00  0.00    -0.295 OA
ATOM     11  C   UNL     1       4.856  -0.546   0.933  0.00  0.00    +0.137 C 
ATOM     12  C   UNL     1       3.068   0.400  -1.440  0.00  0.00    +0.024 C 
ATOM     13  C   UNL     1       1.545  -1.205  -0.577  0.00  0.00    +0.060 C 
ENDBRANCH   1   2
BRANCH   1  15
ATOM     14  O   UNL     1      -0.938  -0.496  -1.356  0.00  0.00    -0.245 OA
ATOM     15  C   UNL     1      -1.179  -0.010  -0.236  0.00  0.00    +0.343 C 
BRANCH  15  16
ATOM     16  C   UNL     1      -2.415   0.728   0.026  0.00  0.00    +0.096 A 
ATOM     17  C   UNL     1      -3.685   0.228   0.080  0.00  0.00    +0.025 A 
ATOM     18  C   UNL     1      -4.390   1.040   0.946  0.00  0.00    +0.082 A 
ATOM     19  C   UNL     1      -5.584   0.555   1.463  0.00  0.00    +0.019 A 
ATOM     20  C   UNL     1      -6.057  -0.665   0.992  0.00  0.00    +0.002 A 
ATOM     21  C   UNL     1      -5.526  -1.190  -0.181  0.00  0.00    +0.000 A 
ATOM     22  N   UNL     1      -3.695   2.195   1.050  0.00  0.00    -0.244 NA
ATOM     23  C   UNL     1      -4.294  -0.776  -0.638  0.00  0.00    +0.002 A 
ATOM     24  C   UNL     1      -2.484   2.045   0.463  0.00  0.00    +0.105 A 
ENDBRANCH  15  16
ENDBRANCH   1  15
TORSDOF 3
