REMARK  Name = 
REMARK  2 active torsions:
REMARK  status: ('A' for Active; 'I' for Inactive)
REMARK    1  A    between atoms: C_2  and  C_4
REMARK    2  A    between atoms: C_4  and  C_5
REMARK                            x       y       z     vdW  Elec       q    Type
REMARK                         _______ _______ _______ _____ _____    ______ ____
ROOT
ATOM      1  C   UNL     1       0.217   0.004  -0.566  0.00  0.00    -0.021 A 
ATOM      2  C   UNL     1       0.726   1.089   0.123  0.00  0.00    -0.004 A 
ATOM      3  C   UNL     1       1.950   1.032   0.763  0.00  0.00    -0.000 A 
ATOM      4  C   UNL     1       2.667  -0.153   0.656  0.00  0.00    -0.000 A 
ATOM      5  C   UNL     1       2.412  -0.918  -0.476  0.00  0.00    -0.000 A 
ATOM      6  C   UNL     1       1.117  -0.979  -0.957  0.00  0.00    -0.004 A 
ENDROOT
BRANCH   1   7
ATOM      7  C   UNL     1      -1.228  -0.213  -0.791  0.00  0.00    +0.045 C 
BRANCH   7   9
ATOM      8  C   UNL     1      -2.947   1.203   0.086  0.00  0.00    +0.021 C 
ATOM      9  C   UNL     1      -1.919   0.045   0.706  0.00  0.00    +0.096 C 
ATOM     10  N   UNL     1      -2.995  -1.111   0.455  0.00  0.00    -0.133 NA
ENDBRANCH   7   9
ENDBRANCH   1   7
TORSDOF 2
