REMARK  Name = 
REMARK  10 active torsions:
REMARK  status: ('A' for Active; 'I' for Inactive)
REMARK    1  A    between atoms: C_2  and  C_3
REMARK    2  A    between atoms: C_7  and  N_8
REMARK    3  A    between atoms: C_15  and  O_16
REMARK    4  A    between atoms: O_16  and  C_17
REMARK    5  A    between atoms: C_17  and  C_18
REMARK    6  A    between atoms: C_18  and  O_19
REMARK    7  A    between atoms: C_21  and  O_22
REMARK    8  A    between atoms: O_22  and  C_23
REMARK    9  A    between atoms: C_23  and  C_24
REMARK   10  A    between atoms: C_24  and  O_25
REMARK                            x       y       z     vdW  Elec       q    Type
REMARK                         _______ _______ _______ _____ _____    ______ ____
ROOT
ATOM      1  N   UNL     1       2.157  -0.174  -0.289  0.00  0.00    -0.194 NA
ATOM      2  C   UNL     1       1.455  -1.363  -0.570  0.00  0.00    +0.155 A 
ATOM      3  C   UNL     1       0.086  -1.215  -0.768  0.00  0.00    +0.054 A 
ATOM      4  C   UNL     1      -0.638  -2.051  -1.595  0.00  0.00    +0.089 A 
ATOM      5  C   UNL     1      -1.992  -1.846  -1.820  0.00  0.00    +0.059 A 
ATOM      6  C   UNL     1      -2.658  -1.029  -0.916  0.00  0.00    +0.174 A 
ATOM      7  C   UNL     1      -1.991  -0.236   0.002  0.00  0.00    +0.173 A 
ATOM      8  N   UNL     1       0.009  -3.150  -2.035  0.00  0.00    -0.224 NA
ATOM      9  C   UNL     1       1.231  -3.477  -1.546  0.00  0.00    +0.200 A 
ATOM     10  C   UNL     1      -0.609  -0.284  -0.004  0.00  0.00    +0.044 A 
ATOM     11  N   UNL     1       1.999  -2.507  -0.992  0.00  0.00    -0.207 NA
ENDROOT
BRANCH   1  14
ATOM     12  C   UNL     1       5.227   1.656   0.136  0.00  0.00    +0.044 A 
ATOM     13  C   UNL     1       4.367   0.839  -0.541  0.00  0.00    +0.025 A 
ATOM     14  C   UNL     1       3.522  -0.083   0.066  0.00  0.00    +0.073 A 
ATOM     15  C   UNL     1       3.846  -0.379   1.385  0.00  0.00    +0.017 A 
ATOM     16  C   UNL     1       4.866   0.280   2.059  0.00  0.00    +0.002 A 
ATOM     17  C   UNL     1       5.538   1.327   1.443  0.00  0.00    +0.008 A 
BRANCH  12  19
ATOM     18  C   UNL     1       5.881   3.993  -0.866  0.00  0.00    -0.009 C 
ATOM     19  C   UNL     1       5.776   2.877  -0.396  0.00  0.00    -0.051 C 
ENDBRANCH  12  19
ENDBRANCH   1  14
BRANCH   7  20
ATOM     20  O   UNL     1      -2.709   0.077   1.162  0.00  0.00    -0.470 OA
BRANCH  20  21
ATOM     21  C   UNL     1      -2.382   1.188   1.971  0.00  0.00    +0.237 C 
BRANCH  21  22
ATOM     22  C   UNL     1      -1.764   0.735   3.289  0.00  0.00    +0.189 C 
BRANCH  22  23
ATOM     23  O   UNL     1      -2.533   1.148   4.381  0.00  0.00    -0.347 OA
ATOM     24  C   UNL     1      -3.104   0.025   4.958  0.00  0.00    +0.174 C 
ENDBRANCH  22  23
ENDBRANCH  21  22
ENDBRANCH  20  21
ENDBRANCH   7  20
BRANCH   6  25
ATOM     25  O   UNL     1      -3.973  -0.692  -1.245  0.00  0.00    -0.470 OA
BRANCH  25  26
ATOM     26  C   UNL     1      -4.115   0.294  -2.263  0.00  0.00    +0.237 C 
BRANCH  26  27
ATOM     27  C   UNL     1      -4.673   1.557  -1.636  0.00  0.00    +0.189 C 
BRANCH  27  28
ATOM     28  O   UNL     1      -5.959   1.300  -1.162  0.00  0.00    -0.347 OA
ATOM     29  C   UNL     1      -6.861   1.191  -2.210  0.00  0.00    +0.174 C 
ENDBRANCH  27  28
ENDBRANCH  26  27
ENDBRANCH  25  26
ENDBRANCH   6  25
TORSDOF 10
