REMARK  Name = 
REMARK  1 active torsions:
REMARK  status: ('A' for Active; 'I' for Inactive)
REMARK    1  A    between atoms: C_2  and  P_4
REMARK                            x       y       z     vdW  Elec       q    Type
REMARK                         _______ _______ _______ _____ _____    ______ ____
ROOT
ATOM      1  P   UNL     1      -0.699   0.064  -0.021  0.00  0.00    +0.222 P 
ATOM      2  O   UNL     1      -1.179   0.071   1.597  0.00  0.00    -0.350 OA
ATOM      3  O   UNL     1      -1.204   1.473  -0.784  0.00  0.00    -0.350 OA
ATOM      4  O   UNL     1      -1.389  -1.110  -0.677  0.00  0.00    -0.449 OA
ENDROOT
BRANCH   1   6
ATOM      5  O   UNL     1       1.514  -1.281  -0.343  0.00  0.00    -0.238 OA
ATOM      6  C   UNL     1       1.085  -0.121  -0.152  0.00  0.00    +0.411 C 
ATOM      7  O   UNL     1       1.873   0.904   0.381  0.00  0.00    -0.238 OA
ENDBRANCH   1   6
TORSDOF 1
