REMARK  Name = 
REMARK  3 active torsions:
REMARK  status: ('A' for Active; 'I' for Inactive)
REMARK    1  A    between atoms: C_2  and  C_4
REMARK    2  A    between atoms: C_15  and  O_16
REMARK    3  A    between atoms: O_16  and  C_17
REMARK                            x       y       z     vdW  Elec       q    Type
REMARK                         _______ _______ _______ _____ _____    ______ ____
ROOT
ATOM      1  C   UNL     1      -1.637   2.284  -1.255  0.00  0.00    +0.184 C 
ATOM      2  C   UNL     1      -2.039   0.993  -1.631  0.00  0.00    +0.072 C 
ATOM      3  C   UNL     1      -1.387  -0.238  -0.742  0.00  0.00    +0.146 C 
ATOM      4  C   UNL     1      -0.269   0.685   0.044  0.00  0.00    +0.043 A 
ATOM      5  C   UNL     1       0.500   1.419  -0.860  0.00  0.00    +0.021 A 
ATOM      6  C   UNL     1       1.843   1.717  -0.649  0.00  0.00    +0.195 A 
ATOM      7  C   UNL     1       2.565   0.847   0.119  0.00  0.00    +0.084 A 
ATOM      8  C   UNL     1       4.030   0.831  -0.007  0.00  0.00    +0.199 C 
ATOM      9  O   UNL     1       4.669   1.770  -0.573  0.00  0.00    -0.286 OA
ATOM     10  C   UNL     1       4.782  -0.321   0.503  0.00  0.00    +0.042 A 
ATOM     11  C   UNL     1       4.065  -1.505   0.631  0.00  0.00    +0.042 A 
ATOM     12  C   UNL     1       4.681  -2.727   0.392  0.00  0.00    +0.003 A 
ATOM     13  C   UNL     1       6.057  -2.733   0.574  0.00  0.00    +0.000 A 
ATOM     14  C   UNL     1       6.805  -1.578   0.373  0.00  0.00    +0.000 A 
ATOM     15  C   UNL     1       2.682  -1.426   1.121  0.00  0.00    +0.199 C 
ATOM     16  O   UNL     1       1.977  -2.478   1.196  0.00  0.00    -0.286 OA
ATOM     17  C   UNL     1       6.165  -0.357   0.536  0.00  0.00    +0.003 A 
ATOM     18  C   UNL     1       1.917  -0.248   0.677  0.00  0.00    +0.084 A 
ATOM     19  O   UNL     1       2.507   2.735  -1.316  0.00  0.00    -0.287 OA
ATOM     20  C   UNL     1       0.527  -0.251   0.704  0.00  0.00    +0.197 A 
ATOM     21  O   UNL     1      -0.018  -0.982   1.717  0.00  0.00    -0.287 OA
ATOM     22  C   UNL     1      -0.177   2.441  -1.677  0.00  0.00    +0.067 C 
ATOM     23  O   UNL     1      -1.783   2.820  -0.037  0.00  0.00    -0.218 OA
ENDROOT
BRANCH   1  25
ATOM     24  C   UNL     1      -1.661   4.559  -2.411  0.00  0.00    +0.075 C 
ATOM     25  C   UNL     1      -2.302   3.214  -2.227  0.00  0.00    +0.179 C 
ATOM     26  O   UNL     1      -3.245   2.919  -2.916  0.00  0.00    -0.293 OA
ENDBRANCH   1  25
BRANCH   3  27
ATOM     27  O   UNL     1      -2.495  -0.118   0.323  0.00  0.00    -0.328 OA
BRANCH  27  28
ATOM     28  C   UNL     1      -3.580  -0.449  -0.765  0.00  0.00    +0.237 C 
ATOM     29  O   UNL     1      -4.771   0.086   0.013  0.00  0.00    -0.330 OA
ATOM     30  C   UNL     1      -5.393  -0.822   1.031  0.00  0.00    +0.150 C 
ATOM     31  C   UNL     1      -5.538  -2.213   0.167  0.00  0.00    +0.035 C 
ATOM     32  C   UNL     1      -3.934  -1.058   1.923  0.00  0.00    +0.196 C 
ATOM     33  O   UNL     1      -4.612  -1.952   2.939  0.00  0.00    -0.219 OA
ATOM     34  C   UNL     1      -3.123  -2.300   1.058  0.00  0.00    +0.130 C 
ATOM     35  N   UNL     1      -4.088  -3.497   1.441  0.00  0.00    -0.130 NA
ATOM     36  C   UNL     1      -3.719  -2.066  -0.415  0.00  0.00    +0.083 C 
ENDBRANCH  27  28
ENDBRANCH   3  27
TORSDOF 3
