REMARK  Name = 
REMARK  4 active torsions:
REMARK  status: ('A' for Active; 'I' for Inactive)
REMARK    1  A    between atoms: C_2  and  C_4
REMARK    2  A    between atoms: C_4  and  C_5
REMARK    3  A    between atoms: C_9  and  C_10
REMARK    4  A    between atoms: C_10  and  C_12
REMARK                            x       y       z     vdW  Elec       q    Type
REMARK                         _______ _______ _______ _____ _____    ______ ____
ROOT
ATOM      1  C   UNL     1       1.792  -0.499   0.962  0.00  0.00    +0.004 A 
ATOM      2  C   UNL     1       0.666   0.149   0.476  0.00  0.00    +0.089 A 
ATOM      3  N   UNL     1      -0.123   0.852   1.441  0.00  0.00    -0.128 NA
ATOM      4  C   UNL     1       0.245  -0.010  -0.840  0.00  0.00    +0.055 A 
ATOM      5  C   UNL     1       1.078  -0.712  -1.697  0.00  0.00    +0.005 A 
ATOM      6  C   UNL     1       1.954  -1.613  -1.115  0.00  0.00    -0.000 A 
ATOM      7  C   UNL     1       2.303  -1.559   0.221  0.00  0.00    -0.002 A 
ENDROOT
BRANCH   4   8
ATOM      8  C   UNL     1      -0.936   0.716  -1.319  0.00  0.00    +0.197 C 
ATOM      9  O   UNL     1      -0.945   1.078  -2.534  0.00  0.00    -0.287 OA
BRANCH   8  10
ATOM     10  C   UNL     1      -2.246   0.549  -0.695  0.00  0.00    +0.039 A 
ATOM     11  C   UNL     1      -3.113  -0.319  -1.348  0.00  0.00    +0.003 A 
ATOM     12  C   UNL     1      -4.455  -0.338  -0.990  0.00  0.00    +0.000 A 
ATOM     13  C   UNL     1      -4.872   0.328   0.156  0.00  0.00    +0.000 A 
ATOM     14  C   UNL     1      -4.017   1.315   0.627  0.00  0.00    +0.000 A 
ATOM     15  C   UNL     1      -2.859   1.633  -0.075  0.00  0.00    +0.003 A 
ENDBRANCH   8  10
ENDBRANCH   4   8
BRANCH   1  16
ATOM     16  C   UNL     1       2.513   0.075   2.134  0.00  0.00    +0.116 C 
BRANCH  16  18
ATOM     17  N   UNL     1       4.698  -0.998   1.621  0.00  0.00    -0.087 NA
ATOM     18  C   UNL     1       3.967   0.211   1.818  0.00  0.00    +0.265 C 
ATOM     19  O   UNL     1       4.351   1.219   1.158  0.00  0.00    -0.271 OA
ENDBRANCH  16  18
ENDBRANCH   1  16
TORSDOF 4
