REMARK  Name = 
REMARK  3 active torsions:
REMARK  status: ('A' for Active; 'I' for Inactive)
REMARK    1  A    between atoms: C_2  and  C_3
REMARK    2  A    between atoms: C_2  and  N_18
REMARK    3  A    between atoms: C_3  and  N_4
REMARK                            x       y       z     vdW  Elec       q    Type
REMARK                         _______ _______ _______ _____ _____    ______ ____
ROOT
ATOM      1  N   UNL     1       0.051  -0.058  -0.100  0.00  0.00    -0.285 N 
ATOM      2  C   UNL     1      -0.839  -1.133   0.128  0.00  0.00    +0.058 A 
ATOM      3  C   UNL     1      -2.199  -0.988   0.039  0.00  0.00    +0.043 A 
ATOM      4  C   UNL     1      -2.991  -2.093   0.143  0.00  0.00    +0.008 A 
ATOM      5  C   UNL     1      -2.465  -3.357   0.232  0.00  0.00    +0.001 A 
ATOM      6  C   UNL     1      -1.102  -3.536   0.342  0.00  0.00    +0.001 A 
ATOM      7  S   UNL     1      -2.855   0.567   0.644  0.00  0.00    -0.084 S 
ATOM      8  C   UNL     1      -1.570   1.770   0.294  0.00  0.00    +0.043 A 
ATOM      9  C   UNL     1      -2.055   2.981  -0.178  0.00  0.00    +0.008 A 
ATOM     10  C   UNL     1      -1.115   3.945  -0.512  0.00  0.00    +0.001 A 
ATOM     11  C   UNL     1       0.236   3.643  -0.386  0.00  0.00    +0.001 A 
ATOM     12  C   UNL     1       0.537   2.295  -0.550  0.00  0.00    +0.015 A 
ATOM     13  C   UNL     1      -0.312  -2.417   0.148  0.00  0.00    +0.015 A 
ATOM     14  C   UNL     1      -0.371   1.304  -0.189  0.00  0.00    +0.058 A 
ENDROOT
BRANCH   1  15
ATOM     15  C   UNL     1       1.373  -0.340  -0.601  0.00  0.00    +0.111 C 
BRANCH  15  17
ATOM     16  C   UNL     1       1.656   0.096   1.751  0.00  0.00    +0.019 C 
ATOM     17  C   UNL     1       2.170  -1.070   0.670  0.00  0.00    +0.078 C 
BRANCH  17  18
ATOM     18  N   UNL     1       3.501  -0.235   0.359  0.00  0.00    -0.270 NA
ATOM     19  C   UNL     1       3.956  -0.751  -0.915  0.00  0.00    +0.090 C 
ATOM     20  C   UNL     1       4.395  -0.624   1.442  0.00  0.00    +0.090 C 
ENDBRANCH  17  18
ENDBRANCH  15  17
ENDBRANCH   1  15
TORSDOF 3
