REMARK  Name = 
REMARK  5 active torsions:
REMARK  status: ('A' for Active; 'I' for Inactive)
REMARK    1  A    between atoms: CE_2  and  CD_3
REMARK    2  A    between atoms: CD_3  and  CG_4
REMARK    3  A    between atoms: CG_4  and  CB_5
REMARK    4  A    between atoms: CB_5  and  CA_6
REMARK    5  A    between atoms: CA_6  and  C_8
REMARK                            x       y       z     vdW  Elec       q    Type
REMARK                         _______ _______ _______ _____ _____    ______ ____
ROOT
ATOM      1  CB  LYS A   1       0.171  -0.326   0.379  0.00  0.00    +0.031 C 
ENDROOT
BRANCH   1   2
ATOM      2  CA  LYS A   1      -1.076  -0.844  -0.580  0.00  0.00    +0.194 C 
ATOM      3  N   LYS A   1      -1.263   0.594  -1.220  0.00  0.00    -0.121 NA
BRANCH   2   4
ATOM      4  C   LYS A   1      -2.213  -0.562   0.542  0.00  0.00    +0.382 C 
ATOM      5  OXT LYS A   1      -3.498  -0.708  -0.000  0.00  0.00    -0.244 OA
ATOM      6  O   LYS A   1      -2.077   0.454   1.233  0.00  0.00    -0.244 OA
ENDBRANCH   2   4
ENDBRANCH   1   2
BRANCH   1   7
ATOM      7  CG  LYS A   1       1.156   0.130  -0.693  0.00  0.00    +0.004 C 
BRANCH   7   8
ATOM      8  CD  LYS A   1       2.012   1.213  -0.090  0.00  0.00    +0.021 C 
BRANCH   8  10
ATOM      9  NZ  LYS A   1       3.397  -0.608   0.529  0.00  0.00    -0.131 NA
ATOM     10  CE  LYS A   1       3.391   0.656   0.106  0.00  0.00    +0.109 C 
ENDBRANCH   8  10
ENDBRANCH   7   8
ENDBRANCH   1   7
TORSDOF 5
