REMARK  Name = 
REMARK  2 active torsions:
REMARK  status: ('A' for Active; 'I' for Inactive)
REMARK    1  A    between atoms: C_2  and  C_3
REMARK    2  A    between atoms: C_3  and  C_5
REMARK                            x       y       z     vdW  Elec       q    Type
REMARK                         _______ _______ _______ _____ _____    ______ ____
ROOT
ATOM      1  C   UNL     1      -0.324   0.611   0.879  0.00  0.00    +0.102 C 
ATOM      2  S   UNL     1       0.037   1.454  -0.788  0.00  0.00    -0.079 S 
ENDROOT
BRANCH   1   4
ATOM      3  O   UNL     1      -1.006  -0.944  -0.791  0.00  0.00    -0.219 OA
ATOM      4  C   UNL     1      -1.478  -0.317   0.299  0.00  0.00    +0.195 C 
ENDBRANCH   1   4
BRANCH   1   5
ATOM      5  C   UNL     1       0.790  -0.513   0.836  0.00  0.00    +0.083 C 
ATOM      6  S   UNL     1       1.981  -0.292  -0.435  0.00  0.00    -0.081 S 
ENDBRANCH   1   5
TORSDOF 2
