REMARK  Name = 
REMARK  7 active torsions:
REMARK  status: ('A' for Active; 'I' for Inactive)
REMARK    1  A    between atoms: C_6  and  N_7
REMARK    2  A    between atoms: C_8  and  C_10
REMARK    3  A    between atoms: C_10  and  N_11
REMARK    4  A    between atoms: N_11  and  C_12
REMARK    5  A    between atoms: N_11  and  C_16
REMARK    6  A    between atoms: C_12  and  C_13
REMARK    7  A    between atoms: C_16  and  C_17
REMARK                            x       y       z     vdW  Elec       q    Type
REMARK                         _______ _______ _______ _____ _____    ______ ____
ROOT
ATOM      1  N   UNL     1       0.278   0.605  -0.370  0.00  0.00    -0.179 NA
ATOM      2  C   UNL     1      -0.351   0.213   0.833  0.00  0.00    +0.262 C 
ATOM      3  O   UNL     1       0.329  -0.459   1.651  0.00  0.00    -0.271 OA
ENDROOT
BRANCH   1  10
ATOM      4  C   UNL     1       5.894   0.728  -0.268  0.00  0.00    +0.032 C 
ATOM      5  C   UNL     1       4.417   0.653  -0.071  0.00  0.00    -0.016 A 
ATOM      6  C   UNL     1       3.732  -0.497  -0.410  0.00  0.00    +0.028 A 
ATOM      7 BR   UNL     1       4.659  -2.172  -0.448  0.00  0.00    -0.050 Br
ATOM      8  C   UNL     1       2.372  -0.469  -0.673  0.00  0.00    -0.001 A 
ATOM      9  C   UNL     1       1.775  -1.531  -1.542  0.00  0.00    +0.033 C 
ATOM     10  C   UNL     1       1.700   0.734  -0.486  0.00  0.00    +0.066 A 
ATOM     11  C   UNL     1       2.271   1.718   0.313  0.00  0.00    -0.007 A 
ATOM     12  C   UNL     1       1.474   2.971   0.461  0.00  0.00    +0.032 C 
ATOM     13  C   UNL     1       3.660   1.761   0.290  0.00  0.00    -0.007 A 
ENDBRANCH   1  10
BRANCH   2  14
ATOM     14  C   UNL     1      -1.777   0.541   1.134  0.00  0.00    +0.161 C 
BRANCH  14  15
ATOM     15  N   UNL     1      -2.630  -0.258   0.299  0.00  0.00    -0.246 NA
BRANCH  15  16
ATOM     16  C   UNL     1      -3.264   0.580  -0.679  0.00  0.00    +0.189 C 
BRANCH  16  17
ATOM     17  C   UNL     1      -4.056   1.631   0.023  0.00  0.00    +0.381 C 
ATOM     18  O   UNL     1      -5.131   2.169  -0.691  0.00  0.00    -0.244 OA
ATOM     19  O   UNL     1      -4.234   1.559   1.275  0.00  0.00    -0.244 OA
ENDBRANCH  16  17
ENDBRANCH  15  16
BRANCH  15  20
ATOM     20  C   UNL     1      -1.990  -1.415  -0.264  0.00  0.00    +0.189 C 
BRANCH  20  21
ATOM     21  C   UNL     1      -2.701  -2.685   0.065  0.00  0.00    +0.381 C 
ATOM     22  O   UNL     1      -3.740  -2.734   1.000  0.00  0.00    -0.244 OA
ATOM     23  O   UNL     1      -2.688  -3.641  -0.767  0.00  0.00    -0.244 OA
ENDBRANCH  20  21
ENDBRANCH  15  20
ENDBRANCH  14  15
ENDBRANCH   2  14
TORSDOF 7
