REMARK  Name = 
REMARK  0 active torsions:
REMARK  status: ('A' for Active; 'I' for Inactive)
REMARK                            x       y       z     vdW  Elec       q    Type
REMARK                         _______ _______ _______ _____ _____    ______ ____
ROOT
ATOM      1  C   UNL     1      -1.929   3.480   0.043  0.00  0.00    +0.090 C 
ATOM      2  N   UNL     1      -1.559   3.024  -0.228  0.00  0.00    -0.268 NA
ATOM      3  C   UNL     1      -1.831   1.615  -0.504  0.00  0.00    +0.097 C 
ATOM      4  C   UNL     1      -0.842   0.817   0.565  0.00  0.00    +0.112 C 
ATOM      5  N   UNL     1       0.380   0.880  -0.452  0.00  0.00    -0.289 N 
ATOM      6  C   UNL     1       1.575   0.174  -0.109  0.00  0.00    +0.128 A 
ATOM      7  C   UNL     1       1.730  -1.126   0.328  0.00  0.00    +0.014 A 
ATOM      8  C   UNL     1       0.729  -2.008   0.952  0.00  0.00    +0.055 C 
ATOM      9  C   UNL     1      -0.647  -1.783   0.457  0.00  0.00    -0.020 A 
ATOM     10  C   UNL     1      -1.415  -2.888   0.804  0.00  0.00    -0.004 A 
ATOM     11  C   UNL     1      -2.780  -2.805   1.014  0.00  0.00    -0.000 A 
ATOM     12  C   UNL     1      -3.435  -1.733   0.444  0.00  0.00    -0.000 A 
ATOM     13  C   UNL     1      -2.689  -0.626   0.121  0.00  0.00    -0.003 A 
ATOM     14  C   UNL     1       2.989  -1.704   0.262  0.00  0.00    +0.000 A 
ATOM     15  C   UNL     1       4.007  -1.116  -0.450  0.00  0.00    +0.020 A 
ATOM     16  C   UNL     1       3.804   0.175  -0.911  0.00  0.00    +0.100 A 
ATOM     17  N   UNL     1       2.624   0.768  -0.714  0.00  0.00    -0.229 NA
ATOM     18  C   UNL     1       0.733   2.271  -0.720  0.00  0.00    +0.110 C 
ATOM     19  C   UNL     1      -1.304  -0.643   0.004  0.00  0.00    -0.007 A 
ATOM     20  C   UNL     1      -0.139   3.227   0.040  0.00  0.00    +0.094 C 
ENDROOT
TORSDOF 0
