REMARK  Name = 
REMARK  3 active torsions:
REMARK  status: ('A' for Active; 'I' for Inactive)
REMARK    1  A    between atoms: C_8  and  O_9
REMARK    2  A    between atoms: O_9  and  C_10
REMARK    3  A    between atoms: C_10  and  C_11
REMARK                            x       y       z     vdW  Elec       q    Type
REMARK                         _______ _______ _______ _____ _____    ______ ____
ROOT
ATOM      1  C   UNL     1      -0.039  -1.821  -1.652  0.00  0.00    +0.034 C 
ATOM      2  C   UNL     1      -0.833  -1.103  -0.774  0.00  0.00    +0.012 A 
ATOM      3  C   UNL     1      -0.442   0.034  -0.092  0.00  0.00    +0.131 A 
ATOM      4  C   UNL     1      -1.423   0.922   0.321  0.00  0.00    +0.012 A 
ATOM      5  C   UNL     1      -1.102   2.376   0.462  0.00  0.00    +0.034 C 
ATOM      6  C   UNL     1      -2.652   0.411   0.720  0.00  0.00    -0.001 A 
ATOM      7  C   UNL     1      -2.984  -0.833   0.253  0.00  0.00    -0.000 A 
ATOM      8  C   UNL     1      -2.109  -1.574  -0.519  0.00  0.00    -0.001 A 
ENDROOT
BRANCH   3   9
ATOM      9  O   UNL     1       0.880   0.369  -0.124  0.00  0.00    -0.475 OA
BRANCH   9  10
ATOM     10  C   UNL     1       1.593   0.966   0.911  0.00  0.00    +0.224 C 
BRANCH  10  11
ATOM     11  C   UNL     1       3.160   0.518   0.751  0.00  0.00    +0.135 C 
ATOM     12  N   UNL     1       2.791  -1.003   0.618  0.00  0.00    -0.129 NA
ATOM     13  C   UNL     1       3.160   0.737  -0.875  0.00  0.00    +0.024 C 
ENDBRANCH  10  11
ENDBRANCH   9  10
ENDBRANCH   3   9
TORSDOF 3
