REMARK  Name = 
REMARK  2 active torsions:
REMARK  status: ('A' for Active; 'I' for Inactive)
REMARK    1  A    between atoms: N_6  and  C_7
REMARK    2  A    between atoms: C_7  and  C_8
REMARK                            x       y       z     vdW  Elec       q    Type
REMARK                         _______ _______ _______ _____ _____    ______ ____
ROOT
ATOM      1  C   UNL     1       1.217   0.407  -0.564  0.00  0.00    +0.085 C 
ATOM      2  C   UNL     1       0.074  -0.504   0.102  0.00  0.00    +0.176 C 
ATOM      3  O   UNL     1       0.309  -1.743   0.018  0.00  0.00    -0.291 OA
ATOM      4  C   UNL     1      -1.277  -0.075  -0.262  0.00  0.00    +0.048 A 
ATOM      5  C   UNL     1      -2.473  -0.749  -0.431  0.00  0.00    +0.020 A 
ATOM      6  C   UNL     1      -3.500   0.152  -0.176  0.00  0.00    +0.060 A 
ATOM      7  N   UNL     1      -2.939   1.374  -0.088  0.00  0.00    -0.329 N 
ATOM      8  C   UNL     1      -3.640   2.626   0.092  0.00  0.00    +0.130 C 
ATOM      9  C   UNL     1      -4.736  -0.352   0.216  0.00  0.00    +0.017 A 
ATOM     10  C   UNL     1      -4.885  -1.715   0.443  0.00  0.00    +0.001 A 
ATOM     11  C   UNL     1      -4.013  -2.558  -0.234  0.00  0.00    +0.000 A 
ATOM     12  C   UNL     1      -2.745  -2.106  -0.567  0.00  0.00    +0.002 A 
ATOM     13  C   UNL     1      -1.599   1.258  -0.153  0.00  0.00    +0.040 A 
ATOM     14  C   UNL     1      -0.478   2.230  -0.340  0.00  0.00    +0.044 C 
ATOM     15  C   UNL     1       0.792   1.715   0.325  0.00  0.00    +0.016 C 
ENDROOT
BRANCH   1  16
ATOM     16  C   UNL     1       2.322  -0.069   0.546  0.00  0.00    +0.115 C 
BRANCH  16  19
ATOM     17  C   UNL     1       4.009  -1.569  -1.202  0.00  0.00    +0.072 C 
ATOM     18  C   UNL     1       4.333  -0.654  -0.783  0.00  0.00    +0.121 A 
ATOM     19  N   UNL     1       3.600   0.255  -0.088  0.00  0.00    -0.313 N 
ATOM     20  C   UNL     1       4.423   1.178   0.472  0.00  0.00    +0.098 A 
ATOM     21  C   UNL     1       5.659   0.957  -0.051  0.00  0.00    +0.119 A 
ATOM     22  N   UNL     1       5.548  -0.059  -0.905  0.00  0.00    -0.229 NA
ENDBRANCH  16  19
ENDBRANCH   1  16
TORSDOF 2
