REMARK  Name = 
REMARK  3 active torsions:
REMARK  status: ('A' for Active; 'I' for Inactive)
REMARK    1  A    between atoms: N_2  and  C_3
REMARK    2  A    between atoms: C_3  and  C_4
REMARK    3  A    between atoms: C_7  and  C_8
REMARK                            x       y       z     vdW  Elec       q    Type
REMARK                         _______ _______ _______ _____ _____    ______ ____
ROOT
ATOM      1  C   UNL     1       0.323   0.556  -0.713  0.00  0.00    +0.077 A 
ATOM      2  C   UNL     1      -0.872  -0.151  -0.743  0.00  0.00    -0.001 A 
ATOM      3  C   UNL     1      -0.819  -1.644  -0.826  0.00  0.00    +0.051 C 
ATOM      4  C   UNL     1      -2.174  -2.243  -1.112  0.00  0.00    +0.120 C 
ATOM      5  N   UNL     1      -3.043  -2.210   0.063  0.00  0.00    -0.201 NA
ATOM      6  C   UNL     1      -3.577  -0.995   0.605  0.00  0.00    +0.265 C 
ATOM      7  C   UNL     1      -3.048   0.365   0.439  0.00  0.00    +0.058 A 
ATOM      8  C   UNL     1      -3.697   1.315   1.175  0.00  0.00    +0.034 A 
ATOM      9  C   UNL     1      -3.268   2.626   1.018  0.00  0.00    +0.142 A 
ATOM     10  F   UNL     1      -4.117   3.613   1.415  0.00  0.00    -0.204 F 
ATOM     11  C   UNL     1      -2.078   2.926   0.378  0.00  0.00    +0.049 A 
ATOM     12  C   UNL     1      -1.353   1.946  -0.290  0.00  0.00    +0.083 A 
ATOM     13  O   UNL     1      -4.355  -1.099   1.592  0.00  0.00    -0.268 OA
ATOM     14  C   UNL     1      -1.875   0.671  -0.243  0.00  0.00    +0.020 A 
ATOM     15  N   UNL     1      -0.040   1.836  -0.568  0.00  0.00    -0.246 NA
ENDROOT
BRANCH   1  19
ATOM     16  C   UNL     1       3.829  -1.385   0.623  0.00  0.00    -0.005 A 
ATOM     17  C   UNL     1       2.960  -1.965  -0.293  0.00  0.00    -0.003 A 
ATOM     18  C   UNL     1       1.873  -1.286  -0.805  0.00  0.00    +0.001 A 
ATOM     19  C   UNL     1       1.673   0.040  -0.441  0.00  0.00    +0.017 A 
ATOM     20  C   UNL     1       2.460   0.571   0.574  0.00  0.00    +0.001 A 
ATOM     21  C   UNL     1       3.550  -0.108   1.088  0.00  0.00    -0.003 A 
BRANCH  16  22
ATOM     22  C   UNL     1       5.248  -1.854   0.563  0.00  0.00    +0.115 C 
BRANCH  22  24
ATOM     23  C   UNL     1       6.573  -0.159  -0.398  0.00  0.00    +0.108 C 
ATOM     24  N   UNL     1       5.825  -1.366  -0.683  0.00  0.00    -0.212 NA
ENDBRANCH  22  24
ENDBRANCH  16  22
ENDBRANCH   1  19
TORSDOF 3
