REMARK  Name = 
REMARK  1 active torsions:
REMARK  status: ('A' for Active; 'I' for Inactive)
REMARK    1  A    between atoms: O_2  and  C_3
REMARK                            x       y       z     vdW  Elec       q    Type
REMARK                         _______ _______ _______ _____ _____    ______ ____
ROOT
ATOM      1  C   UNL     1       2.762   0.010  -0.400  0.00  0.00    +0.138 A 
ATOM      2  C   UNL     1       1.655  -0.542   0.214  0.00  0.00    +0.032 A 
ATOM      3  C   UNL     1       0.375  -0.482  -0.343  0.00  0.00    -0.024 A 
ATOM      4  C   UNL     1      -0.641  -0.777   0.543  0.00  0.00    +0.021 C 
ATOM      5  C   UNL     1      -0.379  -0.157   1.917  0.00  0.00    +0.021 C 
ATOM      6  C   UNL     1      -0.881   1.272   1.716  0.00  0.00    +0.072 C 
ATOM      7  N   UNL     1      -0.695   1.683   0.358  0.00  0.00    -0.272 NA
ATOM      8  C   UNL     1      -0.898   3.130   0.354  0.00  0.00    +0.090 C 
ATOM      9  C   UNL     1      -1.920   1.199  -0.485  0.00  0.00    +0.062 C 
ATOM     10  C   UNL     1      -1.097   0.613  -1.762  0.00  0.00    +0.042 C 
ATOM     11  C   UNL     1      -2.140  -0.270   0.367  0.00  0.00    +0.019 C 
ATOM     12  C   UNL     1      -2.451  -1.191  -0.940  0.00  0.00    +0.002 C 
ATOM     13  C   UNL     1      -3.058  -2.416  -0.259  0.00  0.00    +0.000 C 
ATOM     14  C   UNL     1      -2.188  -2.698   0.961  0.00  0.00    +0.000 C 
ATOM     15  C   UNL     1      -0.778  -2.268   0.695  0.00  0.00    +0.004 C 
ATOM     16  C   UNL     1       0.284   0.386  -1.423  0.00  0.00    -0.025 A 
ATOM     17  C   UNL     1       1.325   1.110  -1.926  0.00  0.00    -0.001 A 
ATOM     18  C   UNL     1       2.581   0.903  -1.428  0.00  0.00    +0.037 A 
ENDROOT
BRANCH   1  20
ATOM     19  C   UNL     1       4.137   0.426   1.596  0.00  0.00    +0.252 C 
ATOM     20  O   UNL     1       4.005   0.070   0.242  0.00  0.00    -0.471 OA
ENDBRANCH   1  20
TORSDOF 1
