REMARK  Name = 
REMARK  13 active torsions:
REMARK  status: ('A' for Active; 'I' for Inactive)
REMARK    1  A    between atoms: C_4  and  O_5
REMARK    2  A    between atoms: O_5  and  C_6
REMARK    3  A    between atoms: C_11  and  O_12
REMARK    4  A    between atoms: O_12  and  C_13
REMARK    5  A    between atoms: C_13  and  C_14
REMARK    6  A    between atoms: C_13  and  C_18
REMARK    7  A    between atoms: C_14  and  C_16
REMARK    8  A    between atoms: C_18  and  C_20
REMARK    9  A    between atoms: C_20  and  C_22
REMARK   10  A    between atoms: C_25  and  C_26
REMARK   11  A    between atoms: C_32  and  N_33
REMARK   12  A    between atoms: N_33  and  C_34
REMARK   13  A    between atoms: C_36  and  C_37
REMARK                            x       y       z     vdW  Elec       q    Type
REMARK                         _______ _______ _______ _____ _____    ______ ____
ROOT
ATOM      1  O   UNL     1      -0.043   0.679  -0.653  0.00  0.00    -0.326 OA
ENDROOT
BRANCH   1   9
ATOM      2  C   UNL     1      -2.784   2.258  -2.325  0.00  0.00    +0.034 C 
ATOM      3  C   UNL     1      -2.084   1.248  -1.222  0.00  0.00    +0.136 C 
ATOM      4  C   UNL     1      -3.491   1.314  -0.271  0.00  0.00    +0.133 C 
ATOM      5  C   UNL     1      -2.927   1.314   1.331  0.00  0.00    +0.205 C 
ATOM      6  O   UNL     1      -2.463   2.755   1.377  0.00  0.00    -0.219 OA
ATOM      7  C   UNL     1      -1.407   0.565   1.292  0.00  0.00    +0.239 C 
ATOM      8  O   UNL     1      -1.666  -0.454   0.231  0.00  0.00    -0.215 OA
ATOM      9  C   UNL     1      -0.460   1.702   0.410  0.00  0.00    +0.269 C 
ATOM     10  O   UNL     1      -1.483   2.359  -0.466  0.00  0.00    -0.330 OA
BRANCH   4  11
ATOM     11  N   UNL     1      -3.603  -0.200  -0.493  0.00  0.00    -0.209 NA
BRANCH  11  12
ATOM     12  C   UNL     1      -4.661  -0.824   0.428  0.00  0.00    +0.127 C 
ATOM     13  C   UNL     1      -5.299  -1.540  -0.997  0.00  0.00    +0.205 C 
ATOM     14  O   UNL     1      -5.647  -0.261  -1.712  0.00  0.00    -0.218 OA
ATOM     15  C   UNL     1      -6.903  -1.732  -0.488  0.00  0.00    +0.218 C 
ATOM     16  O   UNL     1      -6.669  -3.212  -0.355  0.00  0.00    -0.217 OA
ATOM     17  C   UNL     1      -6.653  -1.535   1.192  0.00  0.00    +0.205 C 
ATOM     18  O   UNL     1      -8.139  -1.699   1.437  0.00  0.00    -0.216 OA
ATOM     19  C   UNL     1      -6.714   0.071   1.061  0.00  0.00    +0.018 C 
ATOM     20  C   UNL     1      -5.602   0.479   0.469  0.00  0.00    -0.010 C 
BRANCH  19  21
ATOM     21  C   UNL     1      -7.895   0.790   0.879  0.00  0.00    +0.207 C 
ATOM     22  O   UNL     1      -8.596   0.609  -0.307  0.00  0.00    -0.215 OA
ENDBRANCH  19  21
ENDBRANCH  11  12
ENDBRANCH   4  11
ENDBRANCH   1   9
BRANCH   1  23
ATOM     23  C   UNL     1       0.606  -0.361   0.304  0.00  0.00    +0.180 C 
ATOM     24  C   UNL     1       1.403   0.915   1.081  0.00  0.00    +0.180 C 
ATOM     25  O   UNL     1       2.319   1.149  -0.049  0.00  0.00    -0.326 OA
ATOM     26  C   UNL     1       3.450   0.196   0.225  0.00  0.00    +0.270 C 
ATOM     27  C   UNL     1       3.026  -0.716  -1.149  0.00  0.00    +0.240 C 
ATOM     28  O   UNL     1       2.781   0.440  -2.120  0.00  0.00    -0.215 OA
ATOM     29  C   UNL     1       1.357  -0.858  -1.110  0.00  0.00    +0.217 C 
ATOM     30  O   UNL     1       1.510  -2.280  -0.521  0.00  0.00    -0.218 OA
BRANCH  24  31
ATOM     31  C   UNL     1       2.308  -0.011   2.083  0.00  0.00    +0.214 C 
ATOM     32  O   UNL     1       2.077  -1.284   2.056  0.00  0.00    -0.218 OA
ENDBRANCH  24  31
BRANCH  26  33
ATOM     33  O   UNL     1       4.356   1.135  -0.552  0.00  0.00    -0.326 OA
BRANCH  33  34
ATOM     34  C   UNL     1       5.776   0.769  -0.380  0.00  0.00    +0.184 C 
BRANCH  34  35
ATOM     35  C   UNL     1       5.540  -0.454   0.770  0.00  0.00    +0.219 C 
ATOM     36  O   UNL     1       5.364   0.660   1.767  0.00  0.00    -0.217 OA
BRANCH  35  37
ATOM     37  C   UNL     1       7.192  -0.570   1.196  0.00  0.00    +0.248 C 
ATOM     38  O   UNL     1       6.884  -0.741   2.670  0.00  0.00    -0.212 OA
BRANCH  37  39
ATOM     39  C   UNL     1       7.135  -2.172   1.002  0.00  0.00    +0.243 C 
ATOM     40  O   UNL     1       8.191  -2.662   0.649  0.00  0.00    -0.285 OA
ENDBRANCH  37  39
ENDBRANCH  35  37
ENDBRANCH  34  35
BRANCH  34  41
ATOM     41  C   UNL     1       5.695  -0.244  -1.755  0.00  0.00    +0.214 C 
ATOM     42  O   UNL     1       7.160  -0.567  -1.672  0.00  0.00    -0.218 OA
BRANCH  41  43
ATOM     43  C   UNL     1       6.032   1.037  -2.724  0.00  0.00    +0.217 C 
ATOM     44  O   UNL     1       5.024   1.934  -2.587  0.00  0.00    -0.217 OA
ENDBRANCH  41  43
ENDBRANCH  34  41
ENDBRANCH  33  34
ENDBRANCH  26  33
ENDBRANCH   1  23
TORSDOF 13
