REMARK  Name = 
REMARK  5 active torsions:
REMARK  status: ('A' for Active; 'I' for Inactive)
REMARK    1  A    between atoms: C_6  and  O_7
REMARK    2  A    between atoms: O_7  and  C_8
REMARK    3  A    between atoms: C_8  and  C_10
REMARK    4  A    between atoms: C_10  and  C_12
REMARK    5  A    between atoms: C_10  and  C_18
REMARK                            x       y       z     vdW  Elec       q    Type
REMARK                         _______ _______ _______ _____ _____    ______ ____
ROOT
ATOM      1  C   UNL     1      -1.109  -0.512   0.105  0.00  0.00    +0.233 C 
ATOM      2  O   UNL     1      -0.885  -1.274   1.265  0.00  0.00    -0.210 OA
ENDROOT
BRANCH   1   3
ATOM      3  C   UNL     1      -2.008   0.604   0.409  0.00  0.00    +0.015 A 
ATOM      4  C   UNL     1      -3.354   0.666   0.165  0.00  0.00    -0.001 A 
ATOM      5  C   UNL     1      -3.947   1.889  -0.104  0.00  0.00    -0.000 A 
ATOM      6  C   UNL     1      -3.300   3.039   0.306  0.00  0.00    -0.000 A 
ATOM      7  C   UNL     1      -2.098   2.926   0.983  0.00  0.00    -0.000 A 
ATOM      8  C   UNL     1      -1.522   1.672   1.159  0.00  0.00    -0.001 A 
ENDBRANCH   1   3
BRANCH   1   9
ATOM      9  C   UNL     1      -1.532  -1.422  -0.987  0.00  0.00    +0.043 C 
ATOM     10  C   UNL     1      -2.991  -1.649  -1.145  0.00  0.00    +0.003 C 
ATOM     11  C   UNL     1      -3.277  -2.763  -0.160  0.00  0.00    +0.000 C 
ATOM     12  C   UNL     1      -2.144  -3.724  -0.504  0.00  0.00    +0.000 C 
ATOM     13  C   UNL     1      -0.981  -2.814  -0.766  0.00  0.00    +0.003 C 
ENDBRANCH   1   9
BRANCH   1  14
ATOM     14  C   UNL     1       0.237   0.014  -0.286  0.00  0.00    +0.349 C 
ATOM     15  O   UNL     1       0.362   1.261  -0.484  0.00  0.00    -0.247 OA
BRANCH  14  16
ATOM     16  O   UNL     1       1.378  -0.750  -0.379  0.00  0.00    -0.444 OA
BRANCH  16  20
ATOM     17  C   UNL     1       5.620  -0.003   0.387  0.00  0.00    +0.171 C 
ATOM     18  N   UNL     1       4.554   0.321  -0.279  0.00  0.00    +0.309 N 
ATOM     19  C   UNL     1       3.698  -0.825  -0.464  0.00  0.00    +0.153 C 
ATOM     20  C   UNL     1       2.455  -0.079  -1.301  0.00  0.00    +0.229 C 
ATOM     21  C   UNL     1       2.491   1.284  -0.333  0.00  0.00    +0.111 C 
ATOM     22  C   UNL     1       3.614   1.033   0.564  0.00  0.00    +0.113 C 
ATOM     23  C   UNL     1       4.739   1.107  -1.466  0.00  0.00    +0.171 C 
ENDBRANCH  16  20
ENDBRANCH  14  16
ENDBRANCH   1  14
TORSDOF 5
