REMARK  Name = 
REMARK  1 active torsions:
REMARK  status: ('A' for Active; 'I' for Inactive)
REMARK    1  A    between atoms: C_4  and  C_5
REMARK                            x       y       z     vdW  Elec       q    Type
REMARK                         _______ _______ _______ _____ _____    ______ ____
ROOT
ATOM      1  C   UNL     1       0.008  -0.179  -0.309  0.00  0.00    -0.021 A 
ATOM      2  C   UNL     1      -0.537   0.775  -1.168  0.00  0.00    -0.004 A 
ATOM      3  C   UNL     1      -1.606   1.435  -0.570  0.00  0.00    -0.000 A 
ATOM      4  C   UNL     1      -2.519   0.623   0.091  0.00  0.00    -0.000 A 
ATOM      5  C   UNL     1      -2.137  -0.661   0.464  0.00  0.00    -0.000 A 
ATOM      6  C   UNL     1      -0.939  -1.160  -0.041  0.00  0.00    -0.004 A 
ENDROOT
BRANCH   1   9
ATOM      7  N   UNL     1       1.681   1.026   0.868  0.00  0.00    -0.133 NA
ATOM      8  C   UNL     1       2.577   0.202  -0.154  0.00  0.00    +0.096 C 
ATOM      9  C   UNL     1       1.369  -0.712  -1.003  0.00  0.00    +0.041 C 
ATOM     10  C   UNL     1       2.103  -1.350   0.414  0.00  0.00    +0.025 C 
ENDBRANCH   1   9
TORSDOF 1
