REMARK  Name = 
REMARK  10 active torsions:
REMARK  status: ('A' for Active; 'I' for Inactive)
REMARK    1  A    between atoms: C_2  and  C_3
REMARK    2  A    between atoms: C_3  and  C_4
REMARK    3  A    between atoms: N_6  and  C_7
REMARK    4  A    between atoms: C_10  and  O_11
REMARK    5  A    between atoms: O_11  and  C_12
REMARK    6  A    between atoms: C_12  and  C_13
REMARK    7  A    between atoms: C_13  and  C_15
REMARK    8  A    between atoms: C_15  and  N_16
REMARK    9  A    between atoms: N_16  and  C_17
REMARK   10  A    between atoms: C_20  and  C_21
REMARK                            x       y       z     vdW  Elec       q    Type
REMARK                         _______ _______ _______ _____ _____    ______ ____
ROOT
ATOM      1  C   UNL     1      -2.198  -1.376  -1.310  0.00  0.00    +0.074 A 
ATOM      2  C   UNL     1      -1.834  -1.668  -0.002  0.00  0.00    +0.022 A 
ATOM      3  C   UNL     1      -0.750  -1.072   0.620  0.00  0.00    +0.070 A 
ATOM      4  C   UNL     1       0.329  -0.778  -0.207  0.00  0.00    +0.141 A 
ATOM      5  C   UNL     1       0.042  -0.509  -1.540  0.00  0.00    +0.038 A 
ATOM      6  C   UNL     1      -1.200  -0.805  -2.092  0.00  0.00    +0.020 A 
ENDROOT
BRANCH   3   7
ATOM      7  C   UNL     1      -0.785  -0.628   2.020  0.00  0.00    +0.176 C 
ATOM      8  O   UNL     1      -1.196   0.559   2.193  0.00  0.00    -0.291 OA
ATOM      9  C   UNL     1      -1.084  -1.609   3.093  0.00  0.00    +0.077 C 
ENDBRANCH   3   7
BRANCH   1  11
ATOM     10  C   UNL     1      -4.630  -1.366  -0.761  0.00  0.00    +0.246 C 
ATOM     11  N   UNL     1      -3.568  -1.208  -1.699  0.00  0.00    -0.179 NA
ATOM     12  O   UNL     1      -4.489  -2.319   0.061  0.00  0.00    -0.273 OA
BRANCH  10  13
ATOM     13  C   UNL     1      -5.761  -0.414  -0.627  0.00  0.00    +0.087 C 
BRANCH  13  15
ATOM     14  C   UNL     1      -4.926   1.511  -0.326  0.00  0.00    +0.001 C 
ATOM     15  C   UNL     1      -5.305   0.975  -0.241  0.00  0.00    +0.010 C 
ENDBRANCH  13  15
ENDBRANCH  10  13
ENDBRANCH   1  11
BRANCH   4  16
ATOM     16  O   UNL     1       1.395  -0.144   0.442  0.00  0.00    -0.473 OA
BRANCH  16  17
ATOM     17  C   UNL     1       2.759  -0.471   0.172  0.00  0.00    +0.240 C 
BRANCH  17  18
ATOM     18  C   UNL     1       3.099   0.905  -0.734  0.00  0.00    +0.213 C 
ATOM     19  O   UNL     1       3.147   0.074  -2.037  0.00  0.00    -0.218 OA
BRANCH  18  20
ATOM     20  C   UNL     1       4.752   0.708  -0.496  0.00  0.00    +0.125 C 
BRANCH  20  21
ATOM     21  N   UNL     1       4.906   1.172   0.862  0.00  0.00    -0.217 NA
BRANCH  21  22
ATOM     22  C   UNL     1       5.608   2.438   0.958  0.00  0.00    +0.073 C 
ATOM     23  C   UNL     1       6.941   2.418   0.252  0.00  0.00    +0.019 C 
ATOM     24  C   UNL     1       4.750   3.605   0.541  0.00  0.00    +0.019 C 
ENDBRANCH  21  22
ENDBRANCH  20  21
ENDBRANCH  18  20
ENDBRANCH  17  18
ENDBRANCH  16  17
ENDBRANCH   4  16
TORSDOF 10
