REMARK  Name = 
REMARK  3 active torsions:
REMARK  status: ('A' for Active; 'I' for Inactive)
REMARK    1  A    between atoms: C_3  and  C_4
REMARK    2  A    between atoms: C_20  and  C_21
REMARK    3  A    between atoms: C_24  and  N_25
REMARK                            x       y       z     vdW  Elec       q    Type
REMARK                         _______ _______ _______ _____ _____    ______ ____
ROOT
ATOM      1  C   UNL     1      -1.970  -2.787   0.603  0.00  0.00    +0.179 C 
ATOM      2  C   UNL     1      -1.387  -1.456   0.318  0.00  0.00    +0.037 C 
ATOM      3  C   UNL     1      -2.189  -1.013  -1.005  0.00  0.00    +0.007 C 
ATOM      4  C   UNL     1      -2.293   0.626  -0.563  0.00  0.00    +0.019 C 
ATOM      5  C   UNL     1      -0.736   0.880  -0.333  0.00  0.00    -0.045 C 
ATOM      6  C   UNL     1       0.191  -0.126  -1.162  0.00  0.00    +0.040 C 
ATOM      7  C   UNL     1      -0.456   2.149  -0.641  0.00  0.00    -0.033 C 
ATOM      8  C   UNL     1      -1.490   3.078  -1.131  0.00  0.00    -0.024 C 
ATOM      9  C   UNL     1      -1.506   4.249  -0.489  0.00  0.00    +0.033 C 
ATOM     10  C   UNL     1      -0.451   4.354   0.534  0.00  0.00    +0.173 C 
ATOM     11  C   UNL     1       0.936   3.870   0.245  0.00  0.00    +0.074 C 
ATOM     12  O   UNL     1      -0.689   4.762   1.711  0.00  0.00    -0.291 OA
ATOM     13  C   UNL     1      -2.598   2.567  -1.969  0.00  0.00    +0.026 C 
ATOM     14  C   UNL     1       0.915   2.691  -0.727  0.00  0.00    +0.034 C 
ATOM     15  C   UNL     1      -2.297   1.075  -2.130  0.00  0.00    +0.009 C 
ATOM     16  C   UNL     1      -3.642  -1.320  -0.369  0.00  0.00    +0.004 C 
ATOM     17  C   UNL     1      -1.812  -0.656   1.490  0.00  0.00    +0.003 C 
ATOM     18  C   UNL     1      -0.035  -1.413  -0.164  0.00  0.00    +0.012 C 
ATOM     19  C   UNL     1      -3.415  -2.304   0.699  0.00  0.00    +0.043 C 
ATOM     20  O   UNL     1      -1.560  -3.215   1.844  0.00  0.00    -0.212 OA
ENDROOT
BRANCH   6  21
ATOM     21  C   UNL     1       1.536   0.342  -0.410  0.00  0.00    -0.019 A 
ATOM     22  C   UNL     1       1.618   0.119   0.946  0.00  0.00    -0.003 A 
ATOM     23  C   UNL     1       2.835   0.272   1.599  0.00  0.00    +0.014 A 
ATOM     24  C   UNL     1       3.958   0.033   0.843  0.00  0.00    +0.048 A 
ATOM     25  C   UNL     1       3.883   0.344  -0.505  0.00  0.00    +0.014 A 
ATOM     26  C   UNL     1       2.683   0.003  -1.126  0.00  0.00    -0.003 A 
BRANCH  24  27
ATOM     27  N   UNL     1       5.156  -0.473   1.446  0.00  0.00    -0.304 N 
ATOM     28  C   UNL     1       6.197  -1.063   0.607  0.00  0.00    +0.112 C 
ATOM     29  C   UNL     1       5.025  -1.100   2.760  0.00  0.00    +0.112 C 
ENDBRANCH  24  27
ENDBRANCH   6  21
BRANCH   1  32
ATOM     30  C   UNL     1      -2.607  -6.021  -1.362  0.00  0.00    +0.090 C 
ATOM     31  C   UNL     1      -2.035  -4.725  -1.099  0.00  0.00    -0.088 C 
ATOM     32  C   UNL     1      -1.766  -3.744  -0.461  0.00  0.00    -0.062 C 
ENDBRANCH   1  32
TORSDOF 3
