REMARK  Name = 
REMARK  5 active torsions:
REMARK  status: ('A' for Active; 'I' for Inactive)
REMARK    1  A    between atoms: C_2  and  C_3
REMARK    2  A    between atoms: C_4  and  C_5
REMARK    3  A    between atoms: C_14  and  C_15
REMARK    4  A    between atoms: C_16  and  C_17
REMARK    5  A    between atoms: C_19  and  C_20
REMARK                            x       y       z     vdW  Elec       q    Type
REMARK                         _______ _______ _______ _____ _____    ______ ____
ROOT
ATOM      1  C   UNL     1       0.006   0.036   1.179  0.00  0.00    +0.031 C 
ATOM      2  C   UNL     1       0.178   0.340  -0.260  0.00  0.00    -0.022 C 
ATOM      3  C   UNL     1       1.330   0.764  -0.784  0.00  0.00    -0.004 C 
ENDROOT
BRANCH   3   4
ATOM      4  C   UNL     1       1.867   0.056  -1.956  0.00  0.00    -0.001 C 
ATOM      5  C   UNL     1       3.129  -0.348  -1.784  0.00  0.00    -0.004 C 
BRANCH   5   6
ATOM      6  C   UNL     1       4.074   0.748  -1.530  0.00  0.00    -0.015 C 
ATOM      7  C   UNL     1       4.991   0.566  -0.607  0.00  0.00    +0.082 C 
ATOM      8  C   UNL     1       4.022   1.964  -2.361  0.00  0.00    +0.031 C 
BRANCH   7   9
ATOM      9  C   UNL     1       4.974  -0.492   0.379  0.00  0.00    +0.388 C 
ATOM     10  O   UNL     1       6.059  -0.542   1.261  0.00  0.00    -0.241 OA
ATOM     11  O   UNL     1       4.014  -1.256   0.601  0.00  0.00    -0.241 OA
ENDBRANCH   7   9
ENDBRANCH   5   6
ENDBRANCH   3   4
BRANCH   2  12
ATOM     12  C   UNL     1      -0.891   0.204  -1.254  0.00  0.00    -0.005 C 
ATOM     13  C   UNL     1      -2.067   0.699  -0.860  0.00  0.00    -0.005 C 
BRANCH  13  14
ATOM     14  C   UNL     1      -2.598   0.038   0.341  0.00  0.00    -0.031 C 
ATOM     15  C   UNL     1      -3.607   0.811   1.132  0.00  0.00    +0.018 C 
ATOM     16  C   UNL     1      -3.163   2.215   1.423  0.00  0.00    +0.004 C 
ATOM     17  C   UNL     1      -4.876   0.917   0.293  0.00  0.00    +0.004 C 
ATOM     18  C   UNL     1      -3.903   0.118   2.434  0.00  0.00    +0.004 C 
ATOM     19  C   UNL     1      -4.086  -1.367   2.294  0.00  0.00    +0.005 C 
ATOM     20  C   UNL     1      -4.112  -1.836   0.868  0.00  0.00    +0.022 C 
ATOM     21  C   UNL     1      -2.915  -1.251   0.183  0.00  0.00    -0.048 C 
ATOM     22  C   UNL     1      -2.426  -2.040  -0.993  0.00  0.00    +0.026 C 
ENDBRANCH  13  14
ENDBRANCH   2  12
TORSDOF 5
