REMARK  Name = 
REMARK  5 active torsions:
REMARK  status: ('A' for Active; 'I' for Inactive)
REMARK    1  A    between atoms: N_2  and  N_3
REMARK    2  A    between atoms: N_3  and  C_4
REMARK    3  A    between atoms: C_4  and  C_5
REMARK    4  A    between atoms: C_8  and  C_9
REMARK    5  A    between atoms: N_11  and  C_12
REMARK                            x       y       z     vdW  Elec       q    Type
REMARK                         _______ _______ _______ _____ _____    ______ ____
ROOT
ATOM      1  C   UNL     1       1.852   0.062   0.472  0.00  0.00    -0.003 A 
ATOM      2  C   UNL     1       1.554  -0.734  -0.623  0.00  0.00    -0.003 A 
ATOM      3  C   UNL     1       0.249  -1.055  -0.965  0.00  0.00    +0.004 A 
ATOM      4  C   UNL     1      -0.694  -1.031   0.044  0.00  0.00    +0.055 A 
ATOM      5  C   UNL     1      -0.362  -0.416   1.244  0.00  0.00    +0.004 A 
ATOM      6  C   UNL     1       0.927   0.026   1.506  0.00  0.00    -0.003 A 
ENDROOT
BRANCH   4   7
ATOM      7  C   UNL     1      -2.104  -0.975  -0.363  0.00  0.00    +0.265 C 
ATOM      8  N   UNL     1      -2.807   0.239  -0.197  0.00  0.00    -0.203 NA
ATOM      9  O   UNL     1      -2.750  -2.022  -0.583  0.00  0.00    -0.268 OA
BRANCH   8  10
ATOM     10  C   UNL     1      -4.222   0.404  -0.472  0.00  0.00    +0.096 C 
ATOM     11  C   UNL     1      -4.393   0.207  -1.972  0.00  0.00    +0.023 C 
ATOM     12  C   UNL     1      -4.527   1.875  -0.205  0.00  0.00    +0.023 C 
ENDBRANCH   8  10
ENDBRANCH   4   7
BRANCH   1  13
ATOM     13  C   UNL     1       3.264   0.343   0.880  0.00  0.00    +0.136 C 
BRANCH  13  14
ATOM     14  N   UNL     1       3.742   1.577   0.292  0.00  0.00    -0.126 NA
BRANCH  14  16
ATOM     15  C   UNL     1       5.396   0.081  -0.517  0.00  0.00    +0.130 C 
ATOM     16  N   UNL     1       4.876   1.419  -0.486  0.00  0.00    -0.129 NA
ENDBRANCH  14  16
ENDBRANCH  13  14
ENDBRANCH   1  13
TORSDOF 5
