REMARK  Name = 
REMARK  6 active torsions:
REMARK  status: ('A' for Active; 'I' for Inactive)
REMARK    1  A    between atoms: C_5  and  C_6
REMARK    2  A    between atoms: C_6  and  C_7
REMARK    3  A    between atoms: C_6  and  O_13
REMARK    4  A    between atoms: C_7  and  N_8
REMARK    5  A    between atoms: O_13  and  C_14
REMARK    6  A    between atoms: C_14  and  C_15
REMARK                            x       y       z     vdW  Elec       q    Type
REMARK                         _______ _______ _______ _____ _____    ______ ____
ROOT
ATOM      1  C   UNL     1      -0.666  -0.491   1.062  0.00  0.00    +0.161 C 
ENDROOT
BRANCH   1   7
ATOM      2 CL   UNL     1      -4.850   3.600  -0.291  0.00  0.00    -0.082 Cl
ATOM      3  C   UNL     1      -3.564   2.579   0.263  0.00  0.00    +0.058 A 
ATOM      4  C   UNL     1      -3.883   1.528   1.104  0.00  0.00    +0.023 A 
ATOM      5  C   UNL     1      -2.931   0.552   1.340  0.00  0.00    +0.057 A 
ATOM      6 CL   UNL     1      -3.054  -0.462   2.779  0.00  0.00    -0.082 Cl
ATOM      7  C   UNL     1      -1.945   0.316   0.382  0.00  0.00    +0.017 A 
ATOM      8  C   UNL     1      -1.492   1.485  -0.233  0.00  0.00    -0.000 A 
ATOM      9  C   UNL     1      -2.276   2.635  -0.249  0.00  0.00    +0.011 A 
ENDBRANCH   1   7
BRANCH   1  10
ATOM     10  O   UNL     1      -0.298  -1.170  -0.285  0.00  0.00    -0.345 OA
BRANCH  10  11
ATOM     11  C   UNL     1       0.686  -0.391  -0.822  0.00  0.00    +0.170 C 
BRANCH  11  12
ATOM     12  C   UNL     1       1.948  -0.420  -0.013  0.00  0.00    +0.014 A 
ATOM     13  C   UNL     1       2.789   0.681   0.103  0.00  0.00    +0.006 A 
ATOM     14  C   UNL     1       2.505   2.024  -0.119  0.00  0.00    +0.000 A 
ATOM     15  C   UNL     1       3.533   2.900  -0.442  0.00  0.00    +0.001 A 
ATOM     16  C   UNL     1       4.845   2.508  -0.549  0.00  0.00    +0.012 A 
ATOM     17  C   UNL     1       5.130   1.223  -0.123  0.00  0.00    +0.064 A 
ATOM     18 CL   UNL     1       6.771   0.640  -0.189  0.00  0.00    -0.082 Cl
ATOM     19  C   UNL     1       4.114   0.282   0.022  0.00  0.00    +0.040 A 
ATOM     20  S   UNL     1       4.041  -1.216   0.861  0.00  0.00    -0.086 S 
ATOM     21  C   UNL     1       2.332  -1.412   0.881  0.00  0.00    +0.034 A 
ENDBRANCH  11  12
ENDBRANCH  10  11
ENDBRANCH   1  10
BRANCH   1  22
ATOM     22  C   UNL     1      -1.648  -1.764   1.561  0.00  0.00    +0.142 C 
BRANCH  22  23
ATOM     23  N   UNL     1      -2.103  -2.439   0.408  0.00  0.00    -0.305 N 
ATOM     24  C   UNL     1      -1.917  -3.773   0.255  0.00  0.00    +0.179 A 
ATOM     25  N   UNL     1      -2.441  -4.215  -0.881  0.00  0.00    -0.222 NA
ATOM     26  C   UNL     1      -2.976  -3.165  -1.489  0.00  0.00    +0.119 A 
ATOM     27  C   UNL     1      -2.652  -2.035  -0.751  0.00  0.00    +0.098 A 
ENDBRANCH  22  23
ENDBRANCH   1  22
TORSDOF 6
