REMARK  Name = 
REMARK  5 active torsions:
REMARK  status: ('A' for Active; 'I' for Inactive)
REMARK    1  A    between atoms: C_8  and  O_9
REMARK    2  A    between atoms: O_9  and  C_10
REMARK    3  A    between atoms: C_10  and  C_12
REMARK    4  A    between atoms: C_12  and  C_13
REMARK    5  A    between atoms: C_12  and  C_15
REMARK                            x       y       z     vdW  Elec       q    Type
REMARK                         _______ _______ _______ _____ _____    ______ ____
ROOT
ATOM      1  C   UNL     1      -0.528   0.191  -0.345  0.00  0.00    +0.323 C 
ATOM      2  O   UNL     1      -0.476   0.121   0.876  0.00  0.00    -0.250 OA
ENDROOT
BRANCH   1   3
ATOM      3  O   UNL     1       0.570  -0.578  -0.810  0.00  0.00    -0.452 OA
BRANCH   3   8
ATOM      4  C   UNL     1       3.920   1.766  -0.801  0.00  0.00    +0.090 C 
ATOM      5  N   UNL     1       3.748   1.319  -0.494  0.00  0.00    -0.274 NA
ATOM      6  C   UNL     1       4.218  -0.045  -1.075  0.00  0.00    +0.061 C 
ATOM      7  C   UNL     1       2.814  -0.868  -0.781  0.00  0.00    +0.060 C 
ATOM      8  C   UNL     1       1.750   0.390  -0.892  0.00  0.00    +0.172 C 
ATOM      9  C   UNL     1       1.777   0.600   0.735  0.00  0.00    +0.060 C 
ATOM     10  C   UNL     1       4.994  -0.472   0.308  0.00  0.00    +0.017 C 
ATOM     11  C   UNL     1       3.851  -0.512   1.123  0.00  0.00    +0.017 C 
ATOM     12  C   UNL     1       3.353   1.042   0.992  0.00  0.00    +0.061 C 
ENDBRANCH   3   8
ENDBRANCH   1   3
BRANCH   1  13
ATOM     13  C   UNL     1      -1.862  -0.439  -1.032  0.00  0.00    +0.154 C 
BRANCH  13  14
ATOM     14  C   UNL     1      -2.866  -0.045   0.177  0.00  0.00    -0.009 A 
ATOM     15  C   UNL     1      -3.885  -0.941   0.373  0.00  0.00    -0.004 A 
ATOM     16  C   UNL     1      -4.891  -0.509   1.236  0.00  0.00    -0.000 A 
ATOM     17  C   UNL     1      -5.343   0.779   1.018  0.00  0.00    -0.000 A 
ATOM     18  C   UNL     1      -4.412   1.705   0.617  0.00  0.00    -0.000 A 
ATOM     19  C   UNL     1      -3.179   1.287   0.140  0.00  0.00    -0.004 A 
ENDBRANCH  13  14
BRANCH  13  20
ATOM     20  C   UNL     1      -1.471  -1.885  -0.466  0.00  0.00    +0.198 C 
ATOM     21  O   UNL     1      -2.082  -2.906  -0.248  0.00  0.00    -0.219 OA
ENDBRANCH  13  20
ENDBRANCH   1  13
TORSDOF 5
