REMARK  Name = 
REMARK  4 active torsions:
REMARK  status: ('A' for Active; 'I' for Inactive)
REMARK    1  A    between atoms: CA_6  and  N_7
REMARK    2  A    between atoms: C_8  and  C_10
REMARK    3  A    between atoms: C_10  and  C_11
REMARK    4  A    between atoms: CA_20  and  C_21
REMARK                            x       y       z     vdW  Elec       q    Type
REMARK                         _______ _______ _______ _____ _____    ______ ____
ROOT
ATOM      1  C   UNL     1      -2.814   1.240  -1.810  0.00  0.00    +0.013 C 
ATOM      2  C   UNL     1      -2.664   0.540  -1.428  0.00  0.00    +0.068 C 
ATOM      3  CA  UNL     1      -3.496   0.470  -0.004  0.00  0.00    +0.189 C 
ATOM      4  N   UNL     1      -2.371  -0.250   0.827  0.00  0.00    -0.259 N 
ATOM      5  C   UNL     1      -1.200   0.708   0.721  0.00  0.00    +0.153 C 
ATOM      6  CA  UNL     1      -0.480  -0.502   1.629  0.00  0.00    +0.200 C 
ATOM      7  C   UNL     1      -1.551  -1.437   0.880  0.00  0.00    +0.249 C 
ATOM      8  O   UNL     1      -1.749  -2.608   1.222  0.00  0.00    -0.273 OA
ATOM      9  S   UNL     1      -1.017   0.055  -1.066  0.00  0.00    -0.118 S 
ATOM     10  C   UNL     1      -3.320  -0.501  -2.325  0.00  0.00    +0.013 C 
ENDROOT
BRANCH   3  11
ATOM     11  C   UNL     1      -3.077   1.954   0.498  0.00  0.00    +0.383 C 
ATOM     12  OXT UNL     1      -3.776   2.214   1.685  0.00  0.00    -0.244 OA
ATOM     13  O   UNL     1      -2.900   2.820  -0.356  0.00  0.00    -0.244 OA
ENDBRANCH   3  11
BRANCH   6  14
ATOM     14  N   UNL     1       0.688  -0.794   0.605  0.00  0.00    -0.195 NA
ATOM     15  C   UNL     1       1.429  -1.960   0.902  0.00  0.00    +0.246 C 
ATOM     16  O   UNL     1       1.395  -2.460   2.067  0.00  0.00    -0.273 OA
BRANCH  15  17
ATOM     17  C   UNL     1       2.727  -2.125   0.174  0.00  0.00    +0.113 C 
BRANCH  17  18
ATOM     18  C   UNL     1       3.381  -0.786   0.038  0.00  0.00    -0.013 A 
ATOM     19  C   UNL     1       3.476   0.086   1.091  0.00  0.00    -0.004 A 
ATOM     20  C   UNL     1       4.041   1.349   0.970  0.00  0.00    -0.000 A 
ATOM     21  C   UNL     1       4.568   1.709  -0.264  0.00  0.00    -0.000 A 
ATOM     22  C   UNL     1       4.595   0.784  -1.270  0.00  0.00    -0.000 A 
ATOM     23  C   UNL     1       4.115  -0.504  -1.104  0.00  0.00    -0.004 A 
ENDBRANCH  17  18
ENDBRANCH  15  17
ENDBRANCH   6  14
TORSDOF 4
