REMARK  Name = 
REMARK  4 active torsions:
REMARK  status: ('A' for Active; 'I' for Inactive)
REMARK    1  A    between atoms: C_2  and  C_4
REMARK    2  A    between atoms: C_6  and  N_7
REMARK    3  A    between atoms: N_8  and  C_9
REMARK    4  A    between atoms: C_14  and  C_15
REMARK                            x       y       z     vdW  Elec       q    Type
REMARK                         _______ _______ _______ _____ _____    ______ ____
ROOT
ATOM      1  N   UNL     1       0.186   0.319   0.238  0.00  0.00    -0.148 NA
ATOM      2  N   UNL     1      -0.090  -0.878  -0.062  0.00  0.00    -0.148 NA
ENDROOT
BRANCH   1   8
ATOM      3  C   UNL     1       3.767   0.762  -0.249  0.00  0.00    +0.120 A 
ATOM      4  C   UNL     1       3.916   2.139  -0.176  0.00  0.00    +0.202 A 
ATOM      5  O   UNL     1       5.105   2.723  -0.623  0.00  0.00    -0.286 OA
ATOM      6  C   UNL     1       2.774   2.915  -0.083  0.00  0.00    +0.044 A 
ATOM      7  C   UNL     1       1.527   2.306  -0.087  0.00  0.00    +0.024 A 
ATOM      8  C   UNL     1       1.419   0.937  -0.152  0.00  0.00    +0.103 A 
ATOM      9  C   UNL     1       2.523   0.218  -0.541  0.00  0.00    +0.031 A 
BRANCH   3  11
ATOM     10  O   UNL     1       5.692  -0.159  -1.212  0.00  0.00    -0.240 OA
ATOM     11  C   UNL     1       4.950  -0.103  -0.203  0.00  0.00    +0.391 C 
ATOM     12  O   UNL     1       5.023  -1.001   0.853  0.00  0.00    -0.240 OA
ENDBRANCH   3  11
ENDBRANCH   1   8
BRANCH   2  13
ATOM     13  C   UNL     1      -1.462  -1.233  -0.229  0.00  0.00    +0.103 A 
ATOM     14  C   UNL     1      -2.479  -0.294  -0.250  0.00  0.00    +0.031 A 
ATOM     15  C   UNL     1      -3.739  -0.682   0.132  0.00  0.00    +0.120 A 
ATOM     16  C   UNL     1      -4.008  -2.025   0.344  0.00  0.00    +0.202 A 
ATOM     17  O   UNL     1      -5.111  -2.399   1.082  0.00  0.00    -0.286 OA
ATOM     18  C   UNL     1      -3.112  -2.923  -0.212  0.00  0.00    +0.044 A 
ATOM     19  C   UNL     1      -1.826  -2.531  -0.560  0.00  0.00    +0.024 A 
BRANCH  15  20
ATOM     20  C   UNL     1      -4.696   0.370   0.480  0.00  0.00    +0.391 C 
ATOM     21  O   UNL     1      -5.361   0.281   1.688  0.00  0.00    -0.240 OA
ATOM     22  O   UNL     1      -4.999   1.259  -0.356  0.00  0.00    -0.240 OA
ENDBRANCH  15  20
ENDBRANCH   2  13
TORSDOF 4
