REMARK  Name = 
REMARK  2 active torsions:
REMARK  status: ('A' for Active; 'I' for Inactive)
REMARK    1  A    between atoms: C_21  and  C_23
REMARK    2  A    between atoms: C_23  and  C_25
REMARK                            x       y       z     vdW  Elec       q    Type
REMARK                         _______ _______ _______ _____ _____    ______ ____
ROOT
ATOM      1  C   UNL     1       2.062  -1.620   0.531  0.00  0.00    +0.003 C 
ATOM      2  C   UNL     1       1.740  -0.230   0.507  0.00  0.00    +0.035 C 
ATOM      3  C   UNL     1       2.873   0.453  -0.021  0.00  0.00    +0.180 C 
ATOM      4  O   UNL     1       2.659   1.805  -0.096  0.00  0.00    -0.218 OA
ATOM      5  C   UNL     1       3.064  -0.217  -1.385  0.00  0.00    +0.038 C 
ATOM      6  C   UNL     1       1.793  -1.037  -1.633  0.00  0.00    +0.003 C 
ATOM      7  C   UNL     1       0.879   0.038  -0.843  0.00  0.00    +0.003 C 
ATOM      8  C   UNL     1      -0.279  -1.014  -0.222  0.00  0.00    +0.003 C 
ATOM      9  C   UNL     1      -0.925  -1.319  -1.658  0.00  0.00    +0.004 C 
ATOM     10  C   UNL     1      -2.255  -1.961  -1.274  0.00  0.00    +0.022 C 
ATOM     11  C   UNL     1      -3.035  -0.929  -0.511  0.00  0.00    -0.042 C 
ATOM     12  C   UNL     1      -2.382  -0.415   0.754  0.00  0.00    +0.018 C 
ATOM     13  C   UNL     1      -1.942  -1.579   1.496  0.00  0.00    +0.004 C 
ATOM     14  C   UNL     1      -3.330   0.539   1.347  0.00  0.00    +0.012 C 
ATOM     15  C   UNL     1      -4.716   0.550   0.827  0.00  0.00    +0.069 C 
ATOM     16  C   UNL     1      -4.646   0.783  -0.651  0.00  0.00    +0.173 C 
ATOM     17  O   UNL     1      -4.907   1.933  -1.117  0.00  0.00    -0.291 OA
ATOM     18  C   UNL     1      -3.659  -0.072  -1.327  0.00  0.00    +0.029 C 
ATOM     19  C   UNL     1      -1.217   0.359  -0.022  0.00  0.00    +0.034 C 
ATOM     20  C   UNL     1      -0.346   1.115   1.239  0.00  0.00    +0.152 C 
ATOM     21  O   UNL     1      -1.130   0.571   2.414  0.00  0.00    -0.223 OA
ATOM     22  C   UNL     1       0.833   0.026   1.517  0.00  0.00    +0.036 C 
ENDROOT
BRANCH   3  23
ATOM     23  C   UNL     1       4.198   0.251   0.644  0.00  0.00    +0.211 C 
ATOM     24  O   UNL     1       4.452  -0.938   0.847  0.00  0.00    -0.291 OA
BRANCH  23  25
ATOM     25  C   UNL     1       5.326   0.958  -0.055  0.00  0.00    +0.248 C 
ATOM     26  O   UNL     1       4.889   1.949  -0.911  0.00  0.00    -0.212 OA
ENDBRANCH  23  25
ENDBRANCH   3  23
TORSDOF 2
