REMARK  Name = 
REMARK  1 active torsions:
REMARK  status: ('A' for Active; 'I' for Inactive)
REMARK    1  A    between atoms: C_2  and  C_3
REMARK                            x       y       z     vdW  Elec       q    Type
REMARK                         _______ _______ _______ _____ _____    ______ ____
ROOT
ATOM      1  C   UNL     1      -0.549   0.664  -0.619  0.00  0.00    +0.161 C 
ATOM      2  O   UNL     1      -1.334   0.199   0.712  0.00  0.00    -0.350 OA
ATOM      3  C   UNL     1      -0.801  -0.928  -0.301  0.00  0.00    +0.173 C 
ENDROOT
BRANCH   1   5
ATOM      4 CL   UNL     1       1.750  -0.704   0.043  0.00  0.00    -0.111 Cl
ATOM      5  C   UNL     1       0.934   0.769   0.164  0.00  0.00    +0.127 C 
ENDBRANCH   1   5
TORSDOF 1
