REMARK  Name = 
REMARK  1 active torsions:
REMARK  status: ('A' for Active; 'I' for Inactive)
REMARK    1  A    between atoms: C_2  and  C_4
REMARK                            x       y       z     vdW  Elec       q    Type
REMARK                         _______ _______ _______ _____ _____    ______ ____
ROOT
ATOM      1  C   UNL     1      -1.093   0.968   0.841  0.00  0.00    +0.048 C 
ATOM      2  C   UNL     1      -0.692   0.368  -0.650  0.00  0.00    +0.254 C 
ATOM      3  O   UNL     1      -1.397  -0.958  -0.380  0.00  0.00    -0.211 OA
ENDROOT
BRANCH   2   4
ATOM      4  C   UNL     1       0.750  -0.190  -0.145  0.00  0.00    +0.395 C 
ATOM      5  O   UNL     1       1.715   0.627  -0.595  0.00  0.00    -0.243 OA
ATOM      6  O   UNL     1       0.717  -0.814   0.929  0.00  0.00    -0.243 OA
ENDBRANCH   2   4
TORSDOF 1
