REMARK  Name = 
REMARK  4 active torsions:
REMARK  status: ('A' for Active; 'I' for Inactive)
REMARK    1  A    between atoms: N_2  and  C_3
REMARK    2  A    between atoms: C_3  and  C_4
REMARK    3  A    between atoms: C_4  and  C_5
REMARK    4  A    between atoms: C_5  and  C_6
REMARK                            x       y       z     vdW  Elec       q    Type
REMARK                         _______ _______ _______ _____ _____    ______ ____
ROOT
ATOM      1  C   UNL     1       0.139  -0.188   0.218  0.00  0.00    +0.037 C 
ATOM      2  C   UNL     1      -1.233  -0.757   0.419  0.00  0.00    -0.023 A 
ATOM      3  C   UNL     1      -2.229  -0.042  -0.239  0.00  0.00    -0.022 A 
ATOM      4  C   UNL     1      -3.420  -0.698  -0.520  0.00  0.00    -0.004 A 
ATOM      5  C   UNL     1      -3.535  -2.065  -0.318  0.00  0.00    -0.000 A 
ATOM      6  C   UNL     1      -2.477  -2.798   0.202  0.00  0.00    -0.000 A 
ATOM      7  C   UNL     1      -1.705   1.055  -1.117  0.00  0.00    +0.044 C 
ATOM      8  C   UNL     1      -0.896   1.956  -0.234  0.00  0.00    -0.022 A 
ATOM      9  C   UNL     1      -0.683   3.288  -0.572  0.00  0.00    -0.004 A 
ATOM     10  C   UNL     1       0.546   3.896  -0.339  0.00  0.00    -0.000 A 
ATOM     11  C   UNL     1       1.364   3.288   0.603  0.00  0.00    -0.000 A 
ATOM     12  C   UNL     1       1.189   1.969   0.993  0.00  0.00    -0.004 A 
ATOM     13  C   UNL     1      -0.703   0.373  -2.036  0.00  0.00    +0.009 C 
ATOM     14  C   UNL     1      -1.339  -2.127   0.633  0.00  0.00    -0.004 A 
ATOM     15  C   UNL     1       0.093   1.287   0.482  0.00  0.00    -0.023 A 
ATOM     16  C   UNL     1       0.402  -0.315  -1.278  0.00  0.00    +0.009 C 
ENDROOT
BRANCH   1  17
ATOM     17  C   UNL     1       1.173  -0.857   1.054  0.00  0.00    +0.010 C 
BRANCH  17  18
ATOM     18  C   UNL     1       1.688  -2.119   0.384  0.00  0.00    +0.019 C 
BRANCH  18  19
ATOM     19  C   UNL     1       3.098  -2.337   0.898  0.00  0.00    +0.089 C 
BRANCH  19  21
ATOM     20  C   UNL     1       4.533  -0.732  -0.172  0.00  0.00    +0.107 C 
ATOM     21  N   UNL     1       3.992  -2.075  -0.203  0.00  0.00    -0.217 NA
ENDBRANCH  19  21
ENDBRANCH  18  19
ENDBRANCH  17  18
ENDBRANCH   1  17
TORSDOF 4
