REMARK  Name = 
REMARK  8 active torsions:
REMARK  status: ('A' for Active; 'I' for Inactive)
REMARK    1  A    between atoms: C_5  and  C_6
REMARK    2  A    between atoms: N_9  and  C_10
REMARK    3  A    between atoms: N_17  and  C_18
REMARK    4  A    between atoms: C_18  and  C_19
REMARK    5  A    between atoms: C_19  and  C_20
REMARK    6  A    between atoms: C_20  and  N_21
REMARK    7  A    between atoms: C_20  and  C_32
REMARK    8  A    between atoms: C_22  and  C_24
REMARK                            x       y       z     vdW  Elec       q    Type
REMARK                         _______ _______ _______ _____ _____    ______ ____
ROOT
ATOM      1  C   UNL     1       0.475  -1.520  -1.270  0.00  0.00    +0.043 C 
ENDROOT
BRANCH   1   2
ATOM      2  C   UNL     1      -0.846  -1.128  -1.539  0.00  0.00    +0.074 C 
BRANCH   2   6
ATOM      3  C   UNL     1      -4.563  -1.052   0.704  0.00  0.00    +0.090 C 
ATOM      4  C   UNL     1      -4.164  -2.144  -0.385  0.00  0.00    +0.039 C 
ATOM      5  C   UNL     1      -3.019  -1.861  -1.461  0.00  0.00    +0.059 C 
ATOM      6  N   UNL     1      -1.984  -0.882  -0.840  0.00  0.00    -0.275 NA
ATOM      7  C   UNL     1      -1.894  -1.225   0.663  0.00  0.00    +0.059 C 
ATOM      8  C   UNL     1      -2.551  -2.727   0.587  0.00  0.00    +0.017 C 
ATOM      9  C   UNL     1      -2.156  -3.146  -0.840  0.00  0.00    +0.017 C 
ATOM     10  C   UNL     1      -3.178  -0.254   0.885  0.00  0.00    +0.039 C 
BRANCH   3  13
ATOM     11  C   UNL     1      -6.631  -1.908  -1.085  0.00  0.00    +0.074 C 
ATOM     12  C   UNL     1      -6.308  -0.622  -0.898  0.00  0.00    +0.143 A 
ATOM     13  N   UNL     1      -5.161  -0.065  -0.398  0.00  0.00    -0.304 N 
ATOM     14  C   UNL     1      -5.587   1.163  -0.007  0.00  0.00    +0.142 A 
ATOM     15  N   UNL     1      -6.642   1.513  -0.772  0.00  0.00    -0.134 NA
ATOM     16  N   UNL     1      -7.227   0.360  -1.096  0.00  0.00    -0.134 NA
BRANCH  14  17
ATOM     17  C   UNL     1      -4.652   2.140   0.568  0.00  0.00    +0.059 C 
ATOM     18  C   UNL     1      -4.169   2.970  -0.624  0.00  0.00    +0.008 C 
ATOM     19  C   UNL     1      -5.551   3.117   1.334  0.00  0.00    +0.008 C 
ENDBRANCH  14  17
ENDBRANCH   3  13
ENDBRANCH   2   6
ENDBRANCH   1   2
BRANCH   1  20
ATOM     20  C   UNL     1       1.456  -0.192  -1.226  0.00  0.00    +0.119 C 
BRANCH  20  21
ATOM     21  C   UNL     1       1.797  -0.360   0.330  0.00  0.00    -0.003 A 
ATOM     22  C   UNL     1       1.462  -1.342   1.134  0.00  0.00    -0.003 A 
ATOM     23  C   UNL     1       1.530  -1.144   2.495  0.00  0.00    -0.000 A 
ATOM     24  C   UNL     1       2.130   0.043   2.902  0.00  0.00    -0.000 A 
ATOM     25  C   UNL     1       1.867   1.147   2.091  0.00  0.00    -0.000 A 
ATOM     26  C   UNL     1       1.541   0.939   0.778  0.00  0.00    -0.003 A 
ENDBRANCH  20  21
BRANCH  20  27
ATOM     27  N   UNL     1       2.793  -0.854  -1.753  0.00  0.00    -0.203 NA
ATOM     28  C   UNL     1       3.960  -0.482  -1.119  0.00  0.00    +0.241 C 
ATOM     29  O   UNL     1       3.938  -1.390  -0.208  0.00  0.00    -0.273 OA
BRANCH  28  30
ATOM     30  C   UNL     1       5.204   0.122  -1.178  0.00  0.00    +0.079 C 
ATOM     31  C   UNL     1       5.379   0.786   0.194  0.00  0.00    +0.015 C 
ATOM     32  C   UNL     1       6.882   0.762   0.510  0.00  0.00    +0.067 C 
ATOM     33  C   UNL     1       7.426   1.865  -0.395  0.00  0.00    +0.264 C 
ATOM     34  F   UNL     1       8.720   2.030  -0.030  0.00  0.00    -0.204 F 
ATOM     35  F   UNL     1       6.684   3.001  -0.161  0.00  0.00    -0.204 F 
ATOM     36  C   UNL     1       7.238   1.329  -1.792  0.00  0.00    +0.067 C 
ATOM     37  C   UNL     1       5.798   1.011  -2.123  0.00  0.00    +0.015 C 
ENDBRANCH  28  30
ENDBRANCH  20  27
ENDBRANCH   1  20
TORSDOF 8
