REMARK  Name = 
REMARK  5 active torsions:
REMARK  status: ('A' for Active; 'I' for Inactive)
REMARK    1  A    between atoms: C_2  and  S_3
REMARK    2  A    between atoms: S_3  and  C_6
REMARK    3  A    between atoms: C_6  and  C_7
REMARK    4  A    between atoms: C_7  and  N_8
REMARK    5  A    between atoms: C_13  and  N_14
REMARK                            x       y       z     vdW  Elec       q    Type
REMARK                         _______ _______ _______ _____ _____    ______ ____
ROOT
ATOM      1  N   UNL     1      -0.868   0.669   0.467  0.00  0.00    -0.256 N 
ATOM      2  C   UNL     1      -1.926   0.153  -0.192  0.00  0.00    +0.378 A 
ATOM      3  C   UNL     1      -2.534   1.213  -0.855  0.00  0.00    +0.195 A 
ATOM      4  N   UNL     1      -1.750   2.283  -0.627  0.00  0.00    -0.223 NA
ATOM      5  C   UNL     1      -0.869   2.018   0.352  0.00  0.00    +0.125 A 
ATOM      6  C   UNL     1      -0.382   2.908   1.450  0.00  0.00    +0.072 C 
ENDROOT
BRANCH   2   7
ATOM      7  N   UNL     1      -2.418  -1.184  -0.040  0.00  0.00    +0.101 N 
ATOM      8  O   UNL     1      -3.363  -1.678  -0.902  0.00  0.00    -0.575 OA
ATOM      9  O   UNL     1      -2.304  -1.709   1.093  0.00  0.00    +0.043 OA
ENDBRANCH   2   7
BRANCH   1  10
ATOM     10  C   UNL     1       0.238  -0.132   0.983  0.00  0.00    +0.138 C 
BRANCH  10  11
ATOM     11  C   UNL     1       0.809  -0.890  -0.182  0.00  0.00    +0.175 C 
BRANCH  11  12
ATOM     12  S   UNL     1       2.543  -1.157  -0.089  0.00  0.00    -0.008 S 
ATOM     13  O   UNL     1       2.851  -2.029   1.080  0.00  0.00    -0.173 OA
ATOM     14  O   UNL     1       2.944  -1.893  -1.345  0.00  0.00    -0.173 OA
BRANCH  12  16
ATOM     15  C   UNL     1       3.548   1.100  -1.247  0.00  0.00    +0.027 C 
ATOM     16  C   UNL     1       3.481   0.328   0.054  0.00  0.00    +0.151 C 
ENDBRANCH  12  16
ENDBRANCH  11  12
ENDBRANCH  10  11
ENDBRANCH   1  10
TORSDOF 5
