REMARK  Name = 
REMARK  7 active torsions:
REMARK  status: ('A' for Active; 'I' for Inactive)
REMARK    1  A    between atoms: C_2  and  C_3
REMARK    2  A    between atoms: C_3  and  S_4
REMARK    3  A    between atoms: S_4  and  N_7
REMARK    4  A    between atoms: N_7  and  C_8
REMARK    5  A    between atoms: C_13  and  C_14
REMARK    6  A    between atoms: C_14  and  C_16
REMARK    7  A    between atoms: C_22  and  C_23
REMARK                            x       y       z     vdW  Elec       q    Type
REMARK                         _______ _______ _______ _____ _____    ______ ____
ROOT
ATOM      1  C   UNL     1       0.239  -1.637  -0.580  0.00  0.00    +0.202 C 
ATOM      2  O   UNL     1       0.258  -2.692  -1.276  0.00  0.00    -0.286 OA
ENDROOT
BRANCH   1   3
ATOM      3  C   UNL     1      -0.537  -1.681   0.647  0.00  0.00    +0.061 A 
ATOM      4  C   UNL     1      -1.923  -1.802   0.659  0.00  0.00    +0.040 A 
ATOM      5  C   UNL     1      -2.224  -1.998   2.002  0.00  0.00    +0.162 A 
ATOM      6  N   UNL     1      -3.532  -2.197   2.292  0.00  0.00    -0.225 NA
ATOM      7  C   UNL     1      -4.522  -1.814   1.450  0.00  0.00    +0.101 A 
ATOM      8  C   UNL     1      -4.241  -1.213   0.228  0.00  0.00    +0.019 A 
ATOM      9  N   UNL     1      -1.138  -1.642   2.730  0.00  0.00    -0.225 NA
ATOM     10  C   UNL     1      -2.932  -1.394  -0.204  0.00  0.00    +0.005 A 
ATOM     11  C   UNL     1      -0.113  -1.325   1.921  0.00  0.00    +0.104 A 
BRANCH   8  12
ATOM     12  C   UNL     1      -5.058  -0.082  -0.233  0.00  0.00    +0.002 A 
ATOM     13  C   UNL     1      -6.168  -0.242  -1.026  0.00  0.00    +0.001 A 
ATOM     14  C   UNL     1      -6.826   0.880  -1.515  0.00  0.00    +0.011 A 
ATOM     15  C   UNL     1      -6.572   2.133  -0.971  0.00  0.00    +0.058 A 
ATOM     16 CL   UNL     1      -7.272   3.541  -1.760  0.00  0.00    -0.082 Cl
ATOM     17  C   UNL     1      -5.545   2.287  -0.047  0.00  0.00    +0.011 A 
ATOM     18  C   UNL     1      -4.710   1.208   0.141  0.00  0.00    +0.001 A 
ENDBRANCH   8  12
ENDBRANCH   1   3
BRANCH   1  22
ATOM     19  C   UNL     1       3.396   0.381  -0.187  0.00  0.00    +0.118 A 
ATOM     20  C   UNL     1       2.399  -0.549   0.027  0.00  0.00    +0.162 A 
ATOM     21  F   UNL     1       2.759  -1.654   0.742  0.00  0.00    -0.203 F 
ATOM     22  C   UNL     1       1.308  -0.674  -0.824  0.00  0.00    +0.095 A 
ATOM     23  C   UNL     1       1.224   0.264  -1.836  0.00  0.00    +0.145 A 
ATOM     24  F   UNL     1       0.244   0.156  -2.780  0.00  0.00    -0.204 F 
ATOM     25  C   UNL     1       2.084   1.345  -1.921  0.00  0.00    +0.031 A 
ATOM     26  C   UNL     1       3.199   1.391  -1.105  0.00  0.00    +0.023 A 
BRANCH  19  27
ATOM     27  N   UNL     1       4.666   0.249   0.451  0.00  0.00    -0.098 NA
BRANCH  27  28
ATOM     28  S   UNL     1       5.809   1.529   0.415  0.00  0.00    +0.073 S 
ATOM     29  O   UNL     1       6.232   1.720  -1.002  0.00  0.00    -0.153 OA
ATOM     30  O   UNL     1       5.123   2.753   0.970  0.00  0.00    -0.153 OA
BRANCH  28  31
ATOM     31  C   UNL     1       7.154   1.089   1.480  0.00  0.00    +0.174 C 
BRANCH  31  33
ATOM     32  C   UNL     1       8.970   1.321  -0.190  0.00  0.00    +0.002 C 
ATOM     33  C   UNL     1       8.248   0.351   0.720  0.00  0.00    +0.027 C 
ENDBRANCH  31  33
ENDBRANCH  28  31
ENDBRANCH  27  28
ENDBRANCH  19  27
ENDBRANCH   1  22
TORSDOF 7
