REMARK  Name = 
REMARK  10 active torsions:
REMARK  status: ('A' for Active; 'I' for Inactive)
REMARK    1  A    between atoms: C_2  and  C_4
REMARK    2  A    between atoms: C_2  and  C_7
REMARK    3  A    between atoms: C_10  and  C_11
REMARK    4  A    between atoms: C_11  and  C_13
REMARK    5  A    between atoms: C_13  and  C_14
REMARK    6  A    between atoms: C_14  and  C_15
REMARK    7  A    between atoms: C_15  and  N_16
REMARK    8  A    between atoms: C_19  and  C_20
REMARK    9  A    between atoms: C_20  and  C_22
REMARK   10  A    between atoms: C_20  and  C_28
REMARK                            x       y       z     vdW  Elec       q    Type
REMARK                         _______ _______ _______ _____ _____    ______ ____
ROOT
ATOM      1  N   UNL     1      -0.796  -1.850  -0.189  0.00  0.00    -0.273 NA
ATOM      2  C   UNL     1      -1.592  -1.719   1.030  0.00  0.00    +0.072 C 
ATOM      3  C   UNL     1      -2.840  -0.922   0.773  0.00  0.00    +0.020 C 
ATOM      4  C   UNL     1      -2.603   0.290  -0.083  0.00  0.00    +0.039 C 
ATOM      5  C   UNL     1      -1.917  -0.029  -1.383  0.00  0.00    +0.020 C 
ATOM      6  C   UNL     1      -1.585  -1.513  -1.373  0.00  0.00    +0.072 C 
ENDROOT
BRANCH   4   7
ATOM      7  C   UNL     1      -3.942   0.923  -0.392  0.00  0.00    +0.164 C 
ATOM      8  O   UNL     1      -3.679   2.022  -1.214  0.00  0.00    -0.217 OA
BRANCH   7   9
ATOM      9  C   UNL     1      -4.577   1.440   0.837  0.00  0.00    +0.009 A 
ATOM     10  C   UNL     1      -4.937   2.762   1.012  0.00  0.00    -0.002 A 
ATOM     11  C   UNL     1      -5.988   3.048   1.863  0.00  0.00    -0.000 A 
ATOM     12  C   UNL     1      -6.502   2.105   2.716  0.00  0.00    -0.000 A 
ATOM     13  C   UNL     1      -5.861   0.881   2.801  0.00  0.00    -0.000 A 
ATOM     14  C   UNL     1      -5.048   0.502   1.743  0.00  0.00    -0.002 A 
ENDBRANCH   7   9
BRANCH   7  15
ATOM     15  C   UNL     1      -4.837  -0.011  -1.142  0.00  0.00    +0.009 A 
ATOM     16  C   UNL     1      -5.702   0.492  -2.105  0.00  0.00    -0.002 A 
ATOM     17  C   UNL     1      -6.904  -0.151  -2.368  0.00  0.00    -0.000 A 
ATOM     18  C   UNL     1      -7.258  -1.305  -1.681  0.00  0.00    -0.000 A 
ATOM     19  C   UNL     1      -6.364  -1.867  -0.810  0.00  0.00    -0.000 A 
ATOM     20  C   UNL     1      -5.141  -1.268  -0.657  0.00  0.00    -0.002 A 
ENDBRANCH   7  15
ENDBRANCH   4   7
BRANCH   1  21
ATOM     21  C   UNL     1       0.200  -0.795  -0.116  0.00  0.00    +0.072 C 
BRANCH  21  22
ATOM     22  C   UNL     1       1.550  -1.288  -0.226  0.00  0.00    +0.020 C 
BRANCH  22  23
ATOM     23  C   UNL     1       2.067  -1.692  -1.558  0.00  0.00    +0.039 C 
BRANCH  23  24
ATOM     24  C   UNL     1       3.486  -2.486  -1.249  0.00  0.00    +0.174 C 
ATOM     25  O   UNL     1       2.843  -3.345  -0.168  0.00  0.00    -0.218 OA
BRANCH  24  29
ATOM     26  C   UNL     1       6.023   0.509   0.341  0.00  0.00    -0.013 A 
ATOM     27  C   UNL     1       6.205  -0.830   0.634  0.00  0.00    -0.004 A 
ATOM     28  C   UNL     1       5.175  -1.748   0.453  0.00  0.00    -0.002 A 
ATOM     29  C   UNL     1       3.981  -1.382  -0.163  0.00  0.00    +0.008 A 
ATOM     30  C   UNL     1       3.958  -0.088  -0.654  0.00  0.00    -0.002 A 
ATOM     31  C   UNL     1       4.754   0.871  -0.055  0.00  0.00    -0.004 A 
BRANCH  26  33
ATOM     32  C   UNL     1       7.352   1.482  -0.746  0.00  0.00    +0.016 C 
ATOM     33  C   UNL     1       7.166   1.437   0.058  0.00  0.00    +0.113 C 
ATOM     34  C   UNL     1       6.758   2.802   0.607  0.00  0.00    +0.016 C 
BRANCH  33  35
ATOM     35  C   UNL     1       8.386   0.985   0.798  0.00  0.00    +0.368 C 
ATOM     36  O   UNL     1       9.004  -0.157   0.275  0.00  0.00    -0.245 OA
ATOM     37  O   UNL     1       9.168   1.898   1.193  0.00  0.00    -0.245 OA
ENDBRANCH  33  35
ENDBRANCH  26  33
ENDBRANCH  24  29
ENDBRANCH  23  24
ENDBRANCH  22  23
ENDBRANCH  21  22
ENDBRANCH   1  21
TORSDOF 10
