REMARK  Name = 
REMARK  3 active torsions:
REMARK  status: ('A' for Active; 'I' for Inactive)
REMARK    1  A    between atoms: C_5  and  S_6
REMARK    2  A    between atoms: S_6  and  N_9
REMARK    3  A    between atoms: N_12  and  N_13
REMARK                            x       y       z     vdW  Elec       q    Type
REMARK                         _______ _______ _______ _____ _____    ______ ____
ROOT
ATOM      1  N   UNL     1      -0.066  -0.681  -0.218  0.00  0.00    -0.070 NA
ATOM      2  C   UNL     1      -1.156  -1.372  -0.207  0.00  0.00    +0.387 C 
ATOM      3  N   UNL     1      -2.366  -0.667  -0.380  0.00  0.00    -0.105 NA
ATOM      4  O   UNL     1      -1.031  -2.746  -0.238  0.00  0.00    -0.243 OA
ENDROOT
BRANCH   3   5
ATOM      5  N   UNL     1      -2.578   0.489   0.358  0.00  0.00    -0.183 NA
ATOM      6  C   UNL     1      -3.532   0.326   1.425  0.00  0.00    +0.094 C 
ATOM      7  C   UNL     1      -4.585  -0.681   0.980  0.00  0.00    +0.019 C 
ATOM      8  C   UNL     1      -5.657   0.127   0.259  0.00  0.00    +0.002 C 
ATOM      9  C   UNL     1      -4.989   0.674  -0.997  0.00  0.00    +0.002 C 
ATOM     10  C   UNL     1      -4.274   1.967  -0.631  0.00  0.00    +0.019 C 
ATOM     11  C   UNL     1      -2.812   1.656  -0.452  0.00  0.00    +0.094 C 
ENDBRANCH   3   5
BRANCH   1  12
ATOM     12  S   UNL     1       1.442  -1.307   0.364  0.00  0.00    +0.104 S 
ATOM     13  O   UNL     1       1.677  -2.713  -0.074  0.00  0.00    -0.146 OA
ATOM     14  O   UNL     1       1.389  -1.224   1.866  0.00  0.00    -0.146 OA
BRANCH  12  19
ATOM     15  C   UNL     1       6.019   2.374  -0.237  0.00  0.00    +0.031 C 
ATOM     16  C   UNL     1       4.816   1.504  -0.226  0.00  0.00    -0.022 A 
ATOM     17  C   UNL     1       5.025   0.147  -0.419  0.00  0.00    -0.003 A 
ATOM     18  C   UNL     1       3.966  -0.716  -0.325  0.00  0.00    +0.020 A 
ATOM     19  C   UNL     1       2.692  -0.225  -0.215  0.00  0.00    +0.129 A 
ATOM     20  C   UNL     1       2.472   1.098  -0.492  0.00  0.00    +0.020 A 
ATOM     21  C   UNL     1       3.547   1.972  -0.450  0.00  0.00    -0.003 A 
ENDBRANCH  12  19
ENDBRANCH   1  12
TORSDOF 3
