REMARK  Name = 
REMARK  8 active torsions:
REMARK  status: ('A' for Active; 'I' for Inactive)
REMARK    1  A    between atoms: C_2  and  C_4
REMARK    2  A    between atoms: C_4  and  C_5
REMARK    3  A    between atoms: C_5  and  C_6
REMARK    4  A    between atoms: C_6  and  N_7
REMARK    5  A    between atoms: C_10  and  O_11
REMARK    6  A    between atoms: O_11  and  C_12
REMARK    7  A    between atoms: C_12  and  C_13
REMARK    8  A    between atoms: C_12  and  C_20
REMARK                            x       y       z     vdW  Elec       q    Type
REMARK                         _______ _______ _______ _____ _____    ______ ____
ROOT
ATOM      1  C   UNL     1      -1.756   0.388  -0.534  0.00  0.00    +0.177 C 
ENDROOT
BRANCH   1   2
ATOM      2  C   UNL     1      -2.833  -0.370   0.478  0.00  0.00    +0.010 A 
ATOM      3  C   UNL     1      -2.358  -1.626   0.852  0.00  0.00    -0.001 A 
ATOM      4  C   UNL     1      -3.303  -2.475   1.415  0.00  0.00    +0.011 A 
ATOM      5  C   UNL     1      -4.570  -2.504   0.846  0.00  0.00    +0.058 A 
ATOM      6 CL   UNL     1      -5.496  -4.000   0.853  0.00  0.00    -0.082 Cl
ATOM      7  C   UNL     1      -4.922  -1.461   0.000  0.00  0.00    +0.011 A 
ATOM      8  C   UNL     1      -4.027  -0.433  -0.242  0.00  0.00    -0.001 A 
ENDBRANCH   1   2
BRANCH   1   9
ATOM      9  C   UNL     1      -2.138   1.880   0.085  0.00  0.00    +0.090 A 
ATOM     10  N   UNL     1      -3.461   2.134  -0.040  0.00  0.00    -0.245 NA
ATOM     11  C   UNL     1      -3.851   3.418   0.074  0.00  0.00    +0.099 A 
ATOM     12  C   UNL     1      -3.037   4.442  -0.379  0.00  0.00    +0.021 A 
ATOM     13  C   UNL     1      -1.787   4.061  -0.846  0.00  0.00    +0.003 A 
ATOM     14  C   UNL     1      -1.322   2.773  -0.609  0.00  0.00    +0.018 A 
ENDBRANCH   1   9
BRANCH   1  15
ATOM     15  O   UNL     1      -0.595   0.234   0.491  0.00  0.00    -0.348 OA
BRANCH  15  19
ATOM     16  N   UNL     1       3.288  -0.328  -0.103  0.00  0.00    -0.273 NA
ATOM     17  C   UNL     1       2.198  -1.261  -0.026  0.00  0.00    +0.075 C 
ATOM     18  C   UNL     1       0.997  -0.867  -0.838  0.00  0.00    +0.047 C 
ATOM     19  C   UNL     1       0.470   0.462  -0.382  0.00  0.00    +0.119 C 
ATOM     20  C   UNL     1       1.532   1.272   0.312  0.00  0.00    +0.047 C 
ATOM     21  C   UNL     1       2.877   1.034  -0.319  0.00  0.00    +0.075 C 
BRANCH  16  22
ATOM     22  C   UNL     1       4.027  -0.498   1.148  0.00  0.00    +0.073 C 
BRANCH  22  23
ATOM     23  C   UNL     1       4.647  -1.888   1.020  0.00  0.00    +0.029 C 
BRANCH  23  24
ATOM     24  C   UNL     1       5.197  -1.936  -0.403  0.00  0.00    +0.115 C 
BRANCH  24  26
ATOM     25  O   UNL     1       6.429  -0.058  -0.926  0.00  0.00    -0.246 OA
ATOM     26  C   UNL     1       6.412  -1.061  -0.386  0.00  0.00    +0.365 C 
ATOM     27  O   UNL     1       7.382  -1.330   0.558  0.00  0.00    -0.246 OA
ENDBRANCH  24  26
ENDBRANCH  23  24
ENDBRANCH  22  23
ENDBRANCH  16  22
ENDBRANCH  15  19
ENDBRANCH   1  15
TORSDOF 8
