REMARK  Name = 
REMARK  3 active torsions:
REMARK  status: ('A' for Active; 'I' for Inactive)
REMARK    1  A    between atoms: N_6  and  C1*_7
REMARK    2  A    between atoms: C4*_11  and  C5*_12
REMARK    3  A    between atoms: C_16  and  C_17
REMARK                            x       y       z     vdW  Elec       q    Type
REMARK                         _______ _______ _______ _____ _____    ______ ____
ROOT
ATOM      1  O   UNL     1      -3.058  -1.395   0.586  0.00  0.00    -0.265 OA
ATOM      2  C   UNL     1      -2.245  -1.161   0.405  0.00  0.00    +0.288 A 
ATOM      3  C   UNL     1      -1.951   0.157   0.064  0.00  0.00    +0.146 A 
ATOM      4  C   UNL     1      -0.794   0.448  -0.654  0.00  0.00    +0.091 A 
ATOM      5  N   UNL     1       0.249  -0.395  -0.437  0.00  0.00    -0.256 N 
ATOM      6  C   UNL     1       0.029  -1.667  -0.076  0.00  0.00    +0.355 A 
ATOM      7  O   UNL     1       0.814  -2.619  -0.380  0.00  0.00    -0.244 OA
ATOM      8  N   UNL     1      -1.157  -1.961   0.502  0.00  0.00    -0.153 NA
ENDROOT
BRANCH   5   9
ATOM      9  C1* UNL     1       1.441  -0.213  -1.480  0.00  0.00    +0.211 C 
ATOM     10  O4* UNL     1       2.434  -0.791  -0.490  0.00  0.00    -0.332 OA
ATOM     11  C4* UNL     1       3.437   0.317  -0.458  0.00  0.00    +0.180 C 
ATOM     12  C3* UNL     1       2.227   1.177   0.412  0.00  0.00    +0.186 C 
ATOM     13  O3* UNL     1       3.003   2.470   0.316  0.00  0.00    -0.220 OA
ATOM     14  C2* UNL     1       1.586   1.380  -1.066  0.00  0.00    +0.089 C 
BRANCH  11  15
ATOM     15  C5* UNL     1       4.155  -0.195   0.919  0.00  0.00    +0.214 C 
ATOM     16  O5* UNL     1       3.304  -0.909   1.667  0.00  0.00    -0.218 OA
ENDBRANCH  11  15
ENDBRANCH   5   9
BRANCH   3  17
ATOM     17  C   UNL     1      -3.070   1.122   0.198  0.00  0.00    +0.424 C 
ATOM     18  F   UNL     1      -3.654   1.455  -1.002  0.00  0.00    -0.166 F 
ATOM     19  F   UNL     1      -4.091   0.550   0.952  0.00  0.00    -0.166 F 
ATOM     20  F   UNL     1      -2.660   2.228   0.910  0.00  0.00    -0.166 F 
ENDBRANCH   3  17
TORSDOF 3
