REMARK  Name = 
REMARK  7 active torsions:
REMARK  status: ('A' for Active; 'I' for Inactive)
REMARK    1  A    between atoms: N_2  and  C_3
REMARK    2  A    between atoms: N_2  and  C_20
REMARK    3  A    between atoms: C_3  and  C_4
REMARK    4  A    between atoms: C_4  and  O_5
REMARK    5  A    between atoms: O_5  and  C_6
REMARK    6  A    between atoms: C_9  and  C_10
REMARK    7  A    between atoms: C_10  and  C_11
REMARK                            x       y       z     vdW  Elec       q    Type
REMARK                         _______ _______ _______ _____ _____    ______ ____
ROOT
ATOM      1  C   UNL     1       0.170  -0.201  -0.873  0.00  0.00    +0.139 A 
ATOM      2  C   UNL     1      -0.467  -0.119   0.359  0.00  0.00    +0.037 A 
ATOM      3  C   UNL     1      -1.567   0.730   0.399  0.00  0.00    -0.001 A 
ATOM      4  C   UNL     1      -2.345   0.771  -0.752  0.00  0.00    -0.021 A 
ATOM      5  C   UNL     1      -1.970   0.033  -1.869  0.00  0.00    -0.001 A 
ATOM      6  C   UNL     1      -0.638  -0.333  -1.986  0.00  0.00    +0.037 A 
ENDROOT
BRANCH   4   7
ATOM      7  C   UNL     1      -3.781   1.196  -0.724  0.00  0.00    +0.047 C 
BRANCH   7   8
ATOM      8  C   UNL     1      -4.666  -0.108  -0.933  0.00  0.00    +0.139 C 
ATOM      9  C   UNL     1      -5.802   0.337   0.038  0.00  0.00    +0.259 C 
ATOM     10  O   UNL     1      -6.656   1.131  -0.466  0.00  0.00    -0.272 OA
ATOM     11  N   UNL     1      -6.199  -0.798   0.778  0.00  0.00    -0.135 NA
ATOM     12  C   UNL     1      -5.086  -1.188   1.590  0.00  0.00    +0.299 C 
ATOM     13  O   UNL     1      -5.040  -1.650   2.750  0.00  0.00    -0.261 OA
ATOM     14  S   UNL     1      -3.750  -1.141   0.383  0.00  0.00    -0.046 S 
ENDBRANCH   7   8
ENDBRANCH   4   7
BRANCH   1  15
ATOM     15  O   UNL     1       1.510  -0.460  -1.017  0.00  0.00    -0.474 OA
BRANCH  15  16
ATOM     16  C   UNL     1       2.181  -1.297  -0.097  0.00  0.00    +0.227 C 
BRANCH  16  17
ATOM     17  C   UNL     1       2.558  -0.482   1.125  0.00  0.00    +0.140 C 
BRANCH  17  19
ATOM     18  C   UNL     1       2.965   1.424   0.604  0.00  0.00    +0.114 C 
ATOM     19  N   UNL     1       3.277   0.698   0.642  0.00  0.00    -0.288 N 
BRANCH  19  20
ATOM     20  C   UNL     1       4.641   0.419   0.287  0.00  0.00    +0.132 A 
ATOM     21  N   UNL     1       4.976   0.242  -0.998  0.00  0.00    -0.229 NA
ATOM     22  C   UNL     1       6.262   0.005  -1.327  0.00  0.00    +0.100 A 
ATOM     23  C   UNL     1       7.150  -0.211  -0.286  0.00  0.00    +0.021 A 
ATOM     24  C   UNL     1       6.786  -0.164   1.034  0.00  0.00    +0.004 A 
ATOM     25  C   UNL     1       5.490   0.168   1.339  0.00  0.00    +0.034 A 
ENDBRANCH  19  20
ENDBRANCH  17  19
ENDBRANCH  16  17
ENDBRANCH  15  16
ENDBRANCH   1  15
TORSDOF 7
