REMARK  Name = 
REMARK  1 active torsions:
REMARK  status: ('A' for Active; 'I' for Inactive)
REMARK    1  A    between atoms: O_2  and  C_3
REMARK                            x       y       z     vdW  Elec       q    Type
REMARK                         _______ _______ _______ _____ _____    ______ ____
ROOT
ATOM      1  C   UNL     1       2.533  -0.763   0.542  0.00  0.00    +0.172 A 
ATOM      2  C   UNL     1       1.151  -0.693   0.741  0.00  0.00    +0.168 A 
ATOM      3  O   UNL     1       0.237  -1.745   0.889  0.00  0.00    -0.476 OA
ATOM      4  C   UNL     1      -0.672  -1.599  -0.362  0.00  0.00    +0.176 C 
ATOM      5  C   UNL     1      -0.934  -0.037   0.030  0.00  0.00    +0.078 C 
ATOM      6  C   UNL     1      -1.372   0.748  -1.205  0.00  0.00    +0.029 C 
ATOM      7  C   UNL     1      -1.558   2.121  -0.535  0.00  0.00    +0.073 C 
ATOM      8  N   UNL     1      -0.485   3.014  -0.730  0.00  0.00    -0.268 NA
ATOM      9  C   UNL     1       0.711   2.454  -1.268  0.00  0.00    +0.099 C 
ATOM     10  C   UNL     1       1.220   1.330  -0.415  0.00  0.00    -0.007 A 
ATOM     11  C   UNL     1       2.443   1.001  -0.993  0.00  0.00    +0.000 A 
ATOM     12  C   UNL     1      -0.138   3.868   0.378  0.00  0.00    +0.090 C 
ATOM     13  C   UNL     1      -2.051   0.140   0.868  0.00  0.00    -0.021 C 
ATOM     14  C   UNL     1      -3.219  -0.242   0.278  0.00  0.00    +0.002 C 
ATOM     15  C   UNL     1      -3.028  -1.587  -0.636  0.00  0.00    +0.177 C 
ATOM     16  O   UNL     1      -4.221  -2.285   0.016  0.00  0.00    -0.218 OA
ATOM     17  C   UNL     1      -1.966  -2.211   0.475  0.00  0.00    +0.082 C 
ATOM     18  C   UNL     1       0.424   0.395   0.256  0.00  0.00    +0.019 A 
ATOM     19  C   UNL     1       3.146  -0.055  -0.487  0.00  0.00    +0.040 A 
ENDROOT
BRANCH   1  21
ATOM     20  C   UNL     1       4.481  -2.181   0.918  0.00  0.00    +0.253 C 
ATOM     21  O   UNL     1       3.298  -1.672   1.241  0.00  0.00    -0.468 OA
ENDBRANCH   1  21
TORSDOF 1
