REMARK  Name = 
REMARK  5 active torsions:
REMARK  status: ('A' for Active; 'I' for Inactive)
REMARK    1  A    between atoms: C_2  and  C_3
REMARK    2  A    between atoms: C_2  and  C_9
REMARK    3  A    between atoms: C_2  and  C_15
REMARK    4  A    between atoms: C_3  and  N_4
REMARK    5  A    between atoms: C_9  and  N_10
REMARK                            x       y       z     vdW  Elec       q    Type
REMARK                         _______ _______ _______ _____ _____    ______ ____
ROOT
ATOM      1  O   UNL     1      -0.901   0.241  -1.272  0.00  0.00    -0.217 OA
ATOM      2  C   UNL     1      -0.213   0.127  -0.067  0.00  0.00    +0.192 C 
ENDROOT
BRANCH   2   3
ATOM      3  C   UNL     1       1.087  -0.589  -0.271  0.00  0.00    +0.036 A 
ATOM      4  C   UNL     1       2.026   0.027  -1.091  0.00  0.00    +0.141 A 
ATOM      5  F   UNL     1       1.560   0.528  -2.271  0.00  0.00    -0.204 F 
ATOM      6  C   UNL     1       3.386  -0.223  -0.951  0.00  0.00    +0.059 A 
ATOM      7  C   UNL     1       3.830  -0.822   0.218  0.00  0.00    +0.142 A 
ATOM      8  F   UNL     1       4.977  -0.429   0.844  0.00  0.00    -0.204 F 
ATOM      9  C   UNL     1       2.926  -1.687   0.820  0.00  0.00    +0.030 A 
ATOM     10  C   UNL     1       1.559  -1.497   0.662  0.00  0.00    +0.003 A 
ENDBRANCH   2   3
BRANCH   2  11
ATOM     11  C   UNL     1      -0.987  -0.646   0.978  0.00  0.00    +0.166 C 
BRANCH  11  12
ATOM     12  N   UNL     1      -1.779  -1.710   0.417  0.00  0.00    -0.227 N 
ATOM     13  N   UNL     1      -1.481  -2.488  -0.623  0.00  0.00    -0.145 NA
ATOM     14  C   UNL     1      -2.462  -3.413  -0.770  0.00  0.00    +0.221 A 
ATOM     15  N   UNL     1      -3.022  -3.488   0.459  0.00  0.00    -0.201 NA
ATOM     16  C   UNL     1      -2.867  -2.260   1.000  0.00  0.00    +0.197 A 
ENDBRANCH  11  12
ENDBRANCH   2  11
BRANCH   2  17
ATOM     17  C   UNL     1       0.120   1.468   0.529  0.00  0.00    +0.166 C 
BRANCH  17  18
ATOM     18  N   UNL     1      -0.972   2.405   0.479  0.00  0.00    -0.227 N 
ATOM     19  N   UNL     1      -1.602   2.730  -0.643  0.00  0.00    -0.145 NA
ATOM     20  C   UNL     1      -2.359   3.815  -0.386  0.00  0.00    +0.221 A 
ATOM     21  N   UNL     1      -1.800   4.410   0.666  0.00  0.00    -0.201 NA
ATOM     22  C   UNL     1      -1.024   3.501   1.274  0.00  0.00    +0.197 A 
ENDBRANCH  17  18
ENDBRANCH   2  17
TORSDOF 5
