MODEL 1
REMARK VINA RESULT:      -9.9      0.000      0.000
REMARK  Name = 
REMARK  8 active torsions:
REMARK  status: ('A' for Active; 'I' for Inactive)
REMARK    1  A    between atoms: C_2  and  C_3
REMARK    2  A    between atoms: C_3  and  C_4
REMARK    3  A    between atoms: C_3  and  C_21
REMARK    4  A    between atoms: C_3  and  C_27
REMARK    5  A    between atoms: C_4  and  C_5
REMARK    6  A    between atoms: C_5  and  N_6
REMARK    7  A    between atoms: C_9  and  C_10
REMARK    8  A    between atoms: C_9  and  C_13
REMARK                            x       y       z     vdW  Elec       q    Type
REMARK                         _______ _______ _______ _____ _____    ______ ____
ROOT
ATOM      1  C   UNL     1       3.603   5.125  -7.760  0.00  0.00    +0.040 C 
ENDROOT
BRANCH   1   2
ATOM      2  C   UNL     1       4.356   5.834  -6.641  0.00  0.00    +0.074 C 
BRANCH   2   3
ATOM      3  N   UNL     1       3.803   5.348  -5.403  0.00  0.00    -0.273 NA
ATOM      4  C   UNL     1       3.396   6.391  -4.502  0.00  0.00    +0.073 C 
ATOM      5  C   UNL     1       2.066   7.012  -4.868  0.00  0.00    +0.032 C 
ATOM      6  C   UNL     1       1.050   5.877  -4.882  0.00  0.00    +0.115 C 
ATOM      7  C   UNL     1       1.445   4.779  -5.834  0.00  0.00    +0.032 C 
ATOM      8  C   UNL     1       2.841   4.297  -5.566  0.00  0.00    +0.073 C 
BRANCH   6   9
ATOM      9  C   UNL     1      -0.248   6.459  -5.336  0.00  0.00    -0.013 A 
ATOM     10  C   UNL     1      -1.026   5.880  -6.313  0.00  0.00    -0.004 A 
ATOM     11  C   UNL     1      -2.401   6.054  -6.222  0.00  0.00    -0.000 A 
ATOM     12  C   UNL     1      -2.954   6.896  -5.265  0.00  0.00    -0.000 A 
ATOM     13  C   UNL     1      -2.087   7.844  -4.738  0.00  0.00    -0.000 A 
ATOM     14  C   UNL     1      -0.713   7.663  -4.827  0.00  0.00    -0.004 A 
ENDBRANCH   6   9
BRANCH   6  15
ATOM     15  C   UNL     1       0.882   5.324  -3.503  0.00  0.00    +0.368 C 
ATOM     16  O   UNL     1       1.876   5.513  -2.558  0.00  0.00    -0.245 OA
ATOM     17  O   UNL     1      -0.141   4.646  -3.275  0.00  0.00    -0.245 OA
ENDBRANCH   6  15
ENDBRANCH   2   3
ENDBRANCH   1   2
BRANCH   1  18
ATOM     18  C   UNL     1       3.345   6.031  -8.933  0.00  0.00    +0.118 C 
BRANCH  18  19
ATOM     19  C   UNL     1       2.386   5.426  -9.908  0.00  0.00    -0.006 A 
ATOM     20  C   UNL     1       2.452   5.700 -11.250  0.00  0.00    -0.003 A 
ATOM     21  C   UNL     1       1.385   5.470 -12.088  0.00  0.00    -0.000 A 
ATOM     22  C   UNL     1       0.195   5.062 -11.498  0.00  0.00    -0.000 A 
ATOM     23  C   UNL     1       0.248   4.506 -10.227  0.00  0.00    -0.000 A 
ATOM     24  C   UNL     1       1.329   4.722  -9.385  0.00  0.00    -0.003 A 
ENDBRANCH  18  19
BRANCH  18  25
ATOM     25  C   UNL     1       4.637   6.225  -9.635  0.00  0.00    -0.006 A 
ATOM     26  C   UNL     1       4.739   7.352 -10.440  0.00  0.00    -0.003 A 
ATOM     27  C   UNL     1       5.899   7.723 -11.066  0.00  0.00    -0.000 A 
ATOM     28  C   UNL     1       7.035   6.977 -10.779  0.00  0.00    -0.000 A 
ATOM     29  C   UNL     1       6.902   5.752 -10.141  0.00  0.00    -0.000 A 
ATOM     30  C   UNL     1       5.781   5.527  -9.351  0.00  0.00    -0.003 A 
ENDBRANCH  18  25
BRANCH  18  32
ATOM     31  N   UNL     1       2.274   8.231  -8.063  0.00  0.00    -0.195 NA
ATOM     32  C   UNL     1       2.786   7.296  -8.484  0.00  0.00    +0.079 C 
ENDBRANCH  18  32
ENDBRANCH   1  18
TORSDOF 8
ENDMDL
MODEL 2
REMARK VINA RESULT:      -9.8      2.603      7.850
REMARK  Name = 
REMARK  8 active torsions:
REMARK  status: ('A' for Active; 'I' for Inactive)
REMARK    1  A    between atoms: C_2  and  C_3
REMARK    2  A    between atoms: C_3  and  C_4
REMARK    3  A    between atoms: C_3  and  C_21
REMARK    4  A    between atoms: C_3  and  C_27
REMARK    5  A    between atoms: C_4  and  C_5
REMARK    6  A    between atoms: C_5  and  N_6
REMARK    7  A    between atoms: C_9  and  C_10
REMARK    8  A    between atoms: C_9  and  C_13
REMARK                            x       y       z     vdW  Elec       q    Type
REMARK                         _______ _______ _______ _____ _____    ______ ____
ROOT
ATOM      1  C   UNL     1       1.229   4.617  -5.753  0.00  0.00    +0.040 C 
ENDROOT
BRANCH   1   2
ATOM      2  C   UNL     1       2.512   4.647  -6.576  0.00  0.00    +0.074 C 
BRANCH   2   3
ATOM      3  N   UNL     1       2.110   4.688  -7.958  0.00  0.00    -0.273 NA
ATOM      4  C   UNL     1       1.937   6.019  -8.471  0.00  0.00    +0.073 C 
ATOM      5  C   UNL     1       3.242   6.701  -8.816  0.00  0.00    +0.032 C 
ATOM      6  C   UNL     1       3.938   5.810  -9.838  0.00  0.00    +0.115 C 
ATOM      7  C   UNL     1       4.148   4.413  -9.315  0.00  0.00    +0.032 C 
ATOM      8  C   UNL     1       2.866   3.818  -8.811  0.00  0.00    +0.073 C 
BRANCH   6   9
ATOM      9  C   UNL     1       5.271   6.423 -10.114  0.00  0.00    -0.013 A 
ATOM     10  C   UNL     1       6.449   5.895  -9.638  0.00  0.00    -0.004 A 
ATOM     11  C   UNL     1       7.589   6.075 -10.410  0.00  0.00    -0.000 A 
ATOM     12  C   UNL     1       7.566   6.877 -11.545  0.00  0.00    -0.000 A 
ATOM     13  C   UNL     1       6.524   7.793 -11.601  0.00  0.00    -0.000 A 
ATOM     14  C   UNL     1       5.384   7.606 -10.830  0.00  0.00    -0.004 A 
ENDBRANCH   6   9
BRANCH   6  15
ATOM     15  C   UNL     1       3.145   5.770 -11.104  0.00  0.00    +0.368 C 
ATOM     16  O   UNL     1       1.927   6.424 -11.178  0.00  0.00    -0.245 OA
ATOM     17  O   UNL     1       3.595   5.080 -12.043  0.00  0.00    -0.245 OA
ENDBRANCH   6  15
ENDBRANCH   2   3
ENDBRANCH   1   2
BRANCH   1  18
ATOM     18  C   UNL     1       1.114   5.807  -4.839  0.00  0.00    +0.118 C 
BRANCH  18  19
ATOM     19  C   UNL     1       1.164   5.412  -3.397  0.00  0.00    -0.006 A 
ATOM     20  C   UNL     1       0.022   5.203  -2.666  0.00  0.00    -0.003 A 
ATOM     21  C   UNL     1       0.033   5.215  -1.290  0.00  0.00    -0.000 A 
ATOM     22  C   UNL     1       1.226   5.567  -0.670  0.00  0.00    -0.000 A 
ATOM     23  C   UNL     1       2.402   5.464  -1.401  0.00  0.00    -0.000 A 
ATOM     24  C   UNL     1       2.395   5.436  -2.788  0.00  0.00    -0.003 A 
ENDBRANCH  18  19
BRANCH  18  25
ATOM     25  C   UNL     1      -0.207   6.431  -5.088  0.00  0.00    -0.006 A 
ATOM     26  C   UNL     1      -1.097   5.700  -5.866  0.00  0.00    -0.003 A 
ATOM     27  C   UNL     1      -2.388   6.094  -6.095  0.00  0.00    -0.000 A 
ATOM     28  C   UNL     1      -2.832   7.223  -5.420  0.00  0.00    -0.000 A 
ATOM     29  C   UNL     1      -1.907   8.056  -4.806  0.00  0.00    -0.000 A 
ATOM     30  C   UNL     1      -0.683   7.525  -4.415  0.00  0.00    -0.003 A 
ENDBRANCH  18  25
BRANCH  18  32
ATOM     31  N   UNL     1       3.083   7.415  -5.369  0.00  0.00    -0.195 NA
ATOM     32  C   UNL     1       2.202   6.740  -5.083  0.00  0.00    +0.079 C 
ENDBRANCH  18  32
ENDBRANCH   1  18
TORSDOF 8
ENDMDL
MODEL 3
REMARK VINA RESULT:      -9.7      2.555      5.191
REMARK  Name = 
REMARK  8 active torsions:
REMARK  status: ('A' for Active; 'I' for Inactive)
REMARK    1  A    between atoms: C_2  and  C_3
REMARK    2  A    between atoms: C_3  and  C_4
REMARK    3  A    between atoms: C_3  and  C_21
REMARK    4  A    between atoms: C_3  and  C_27
REMARK    5  A    between atoms: C_4  and  C_5
REMARK    6  A    between atoms: C_5  and  N_6
REMARK    7  A    between atoms: C_9  and  C_10
REMARK    8  A    between atoms: C_9  and  C_13
REMARK                            x       y       z     vdW  Elec       q    Type
REMARK                         _______ _______ _______ _____ _____    ______ ____
ROOT
ATOM      1  C   UNL     1       2.223   5.032  -6.993  0.00  0.00    +0.040 C 
ENDROOT
BRANCH   1   2
ATOM      2  C   UNL     1       3.130   5.633  -5.926  0.00  0.00    +0.074 C 
BRANCH   2   3
ATOM      3  N   UNL     1       2.984   4.810  -4.753  0.00  0.00    -0.273 NA
ATOM      4  C   UNL     1       4.223   4.533  -4.081  0.00  0.00    +0.073 C 
ATOM      5  C   UNL     1       4.711   5.684  -3.230  0.00  0.00    +0.032 C 
ATOM      6  C   UNL     1       3.603   5.979  -2.227  0.00  0.00    +0.115 C 
ATOM      7  C   UNL     1       2.296   6.291  -2.908  0.00  0.00    +0.032 C 
ATOM      8  C   UNL     1       1.917   5.217  -3.885  0.00  0.00    +0.073 C 
BRANCH   6   9
ATOM      9  C   UNL     1       4.031   7.175  -1.443  0.00  0.00    -0.013 A 
ATOM     10  C   UNL     1       3.801   8.465  -1.863  0.00  0.00    -0.004 A 
ATOM     11  C   UNL     1       3.613   9.433  -0.885  0.00  0.00    -0.000 A 
ATOM     12  C   UNL     1       3.791   9.134   0.461  0.00  0.00    -0.000 A 
ATOM     13  C   UNL     1       4.563   8.009   0.721  0.00  0.00    -0.000 A 
ATOM     14  C   UNL     1       4.744   7.042  -0.260  0.00  0.00    -0.004 A 
ENDBRANCH   6   9
BRANCH   6  15
ATOM     15  C   UNL     1       3.433   4.820  -1.298  0.00  0.00    +0.368 C 
ATOM     16  O   UNL     1       2.185   4.535  -0.770  0.00  0.00    -0.245 OA
ATOM     17  O   UNL     1       4.459   4.183  -0.979  0.00  0.00    -0.245 OA
ENDBRANCH   6  15
ENDBRANCH   2   3
ENDBRANCH   1   2
BRANCH   1  18
ATOM     18  C   UNL     1       1.201   6.019  -7.490  0.00  0.00    +0.118 C 
BRANCH  18  19
ATOM     19  C   UNL     1      -0.013   6.054  -6.619  0.00  0.00    -0.006 A 
ATOM     20  C   UNL     1      -1.089   5.235  -6.847  0.00  0.00    -0.003 A 
ATOM     21  C   UNL     1      -2.329   5.505  -6.315  0.00  0.00    -0.000 A 
ATOM     22  C   UNL     1      -2.476   6.708  -5.635  0.00  0.00    -0.000 A 
ATOM     23  C   UNL     1      -1.334   7.340  -5.163  0.00  0.00    -0.000 A 
ATOM     24  C   UNL     1      -0.080   7.059  -5.685  0.00  0.00    -0.003 A 
ENDBRANCH  18  19
BRANCH  18  25
ATOM     25  C   UNL     1       0.774   5.573  -8.838  0.00  0.00    -0.006 A 
ATOM     26  C   UNL     1       0.144   6.524  -9.631  0.00  0.00    -0.003 A 
ATOM     27  C   UNL     1      -0.212   6.296 -10.934  0.00  0.00    -0.000 A 
ATOM     28  C   UNL     1       0.184   5.088 -11.491  0.00  0.00    -0.000 A 
ATOM     29  C   UNL     1       0.634   4.069 -10.663  0.00  0.00    -0.000 A 
ATOM     30  C   UNL     1       1.174   4.402  -9.426  0.00  0.00    -0.003 A 
ENDBRANCH  18  25
BRANCH  18  32
ATOM     31  N   UNL     1       2.166   8.424  -7.654  0.00  0.00    -0.195 NA
ATOM     32  C   UNL     1       1.765   7.359  -7.523  0.00  0.00    +0.079 C 
ENDBRANCH  18  32
ENDBRANCH   1  18
TORSDOF 8
ENDMDL
MODEL 4
REMARK VINA RESULT:      -9.6      2.626      5.048
REMARK  Name = 
REMARK  8 active torsions:
REMARK  status: ('A' for Active; 'I' for Inactive)
REMARK    1  A    between atoms: C_2  and  C_3
REMARK    2  A    between atoms: C_3  and  C_4
REMARK    3  A    between atoms: C_3  and  C_21
REMARK    4  A    between atoms: C_3  and  C_27
REMARK    5  A    between atoms: C_4  and  C_5
REMARK    6  A    between atoms: C_5  and  N_6
REMARK    7  A    between atoms: C_9  and  C_10
REMARK    8  A    between atoms: C_9  and  C_13
REMARK                            x       y       z     vdW  Elec       q    Type
REMARK                         _______ _______ _______ _____ _____    ______ ____
ROOT
ATOM      1  C   UNL     1       1.276   6.628  -6.879  0.00  0.00    +0.040 C 
ENDROOT
BRANCH   1   2
ATOM      2  C   UNL     1       0.750   7.246  -5.588  0.00  0.00    +0.074 C 
BRANCH   2   3
ATOM      3  N   UNL     1      -0.539   6.651  -5.345  0.00  0.00    -0.273 NA
ATOM      4  C   UNL     1      -0.479   5.426  -4.597  0.00  0.00    +0.073 C 
ATOM      5  C   UNL     1      -0.284   5.641  -3.113  0.00  0.00    +0.032 C 
ATOM      6  C   UNL     1      -1.446   6.508  -2.645  0.00  0.00    +0.115 C 
ATOM      7  C   UNL     1      -1.518   7.808  -3.402  0.00  0.00    +0.032 C 
ATOM      8  C   UNL     1      -1.532   7.578  -4.885  0.00  0.00    +0.073 C 
BRANCH   6   9
ATOM      9  C   UNL     1      -1.213   6.808  -1.202  0.00  0.00    -0.013 A 
ATOM     10  C   UNL     1      -0.064   6.443  -0.539  0.00  0.00    -0.004 A 
ATOM     11  C   UNL     1       0.363   7.261   0.500  0.00  0.00    -0.000 A 
ATOM     12  C   UNL     1      -0.417   8.324   0.940  0.00  0.00    -0.000 A 
ATOM     13  C   UNL     1      -1.764   8.246   0.611  0.00  0.00    -0.000 A 
ATOM     14  C   UNL     1      -2.185   7.430  -0.431  0.00  0.00    -0.004 A 
ENDBRANCH   6   9
BRANCH   6  15
ATOM     15  C   UNL     1      -2.732   5.759  -2.789  0.00  0.00    +0.368 C 
ATOM     16  O   UNL     1      -3.906   6.446  -3.046  0.00  0.00    -0.245 OA
ATOM     17  O   UNL     1      -2.703   4.524  -2.602  0.00  0.00    -0.245 OA
ENDBRANCH   6  15
ENDBRANCH   2   3
ENDBRANCH   1   2
BRANCH   1  18
ATOM     18  C   UNL     1       2.518   5.809  -6.650  0.00  0.00    +0.118 C 
BRANCH  18  19
ATOM     19  C   UNL     1       3.233   6.214  -5.401  0.00  0.00    -0.006 A 
ATOM     20  C   UNL     1       3.905   7.407  -5.308  0.00  0.00    -0.003 A 
ATOM     21  C   UNL     1       4.859   7.625  -4.341  0.00  0.00    -0.000 A 
ATOM     22  C   UNL     1       5.201   6.546  -3.535  0.00  0.00    -0.000 A 
ATOM     23  C   UNL     1       4.310   5.485  -3.444  0.00  0.00    -0.000 A 
ATOM     24  C   UNL     1       3.337   5.269  -4.409  0.00  0.00    -0.003 A 
ENDBRANCH  18  19
BRANCH  18  25
ATOM     25  C   UNL     1       3.430   6.059  -7.791  0.00  0.00    -0.006 A 
ATOM     26  C   UNL     1       4.601   5.313  -7.820  0.00  0.00    -0.003 A 
ATOM     27  C   UNL     1       5.490   5.355  -8.861  0.00  0.00    -0.000 A 
ATOM     28  C   UNL     1       5.125   6.105  -9.971  0.00  0.00    -0.000 A 
ATOM     29  C   UNL     1       4.066   6.996  -9.872  0.00  0.00    -0.000 A 
ATOM     30  C   UNL     1       3.086   6.768  -8.912  0.00  0.00    -0.003 A 
ENDBRANCH  18  25
BRANCH  18  32
ATOM     31  N   UNL     1       1.944   3.296  -6.330  0.00  0.00    -0.195 NA
ATOM     32  C   UNL     1       2.181   4.399  -6.533  0.00  0.00    +0.079 C 
ENDBRANCH  18  32
ENDBRANCH   1  18
TORSDOF 8
ENDMDL
MODEL 5
REMARK VINA RESULT:      -9.6      2.936      7.574
REMARK  Name = 
REMARK  8 active torsions:
REMARK  status: ('A' for Active; 'I' for Inactive)
REMARK    1  A    between atoms: C_2  and  C_3
REMARK    2  A    between atoms: C_3  and  C_4
REMARK    3  A    between atoms: C_3  and  C_21
REMARK    4  A    between atoms: C_3  and  C_27
REMARK    5  A    between atoms: C_4  and  C_5
REMARK    6  A    between atoms: C_5  and  N_6
REMARK    7  A    between atoms: C_9  and  C_10
REMARK    8  A    between atoms: C_9  and  C_13
REMARK                            x       y       z     vdW  Elec       q    Type
REMARK                         _______ _______ _______ _____ _____    ______ ____
ROOT
ATOM      1  C   UNL     1       1.013   5.234  -8.167  0.00  0.00    +0.040 C 
ENDROOT
BRANCH   1   2
ATOM      2  C   UNL     1       0.382   5.994  -9.328  0.00  0.00    +0.074 C 
BRANCH   2   3
ATOM      3  N   UNL     1       0.964   5.459 -10.532  0.00  0.00    -0.273 NA
ATOM      4  C   UNL     1       1.431   6.465 -11.445  0.00  0.00    +0.073 C 
ATOM      5  C   UNL     1       2.765   7.059 -11.049  0.00  0.00    +0.032 C 
ATOM      6  C   UNL     1       3.747   5.898 -10.969  0.00  0.00    +0.115 C 
ATOM      7  C   UNL     1       3.289   4.838 -10.002  0.00  0.00    +0.032 C 
ATOM      8  C   UNL     1       1.890   4.388 -10.307  0.00  0.00    +0.073 C 
BRANCH   6   9
ATOM      9  C   UNL     1       5.044   6.457 -10.485  0.00  0.00    -0.013 A 
ATOM     10  C   UNL     1       5.787   5.866  -9.489  0.00  0.00    -0.004 A 
ATOM     11  C   UNL     1       7.167   6.014  -9.547  0.00  0.00    -0.000 A 
ATOM     12  C   UNL     1       7.759   6.842 -10.492  0.00  0.00    -0.000 A 
ATOM     13  C   UNL     1       6.923   7.806 -11.042  0.00  0.00    -0.000 A 
ATOM     14  C   UNL     1       5.544   7.651 -10.985  0.00  0.00    -0.004 A 
ENDBRANCH   6   9
BRANCH   6  15
ATOM     15  C   UNL     1       3.947   5.303 -12.326  0.00  0.00    +0.368 C 
ATOM     16  O   UNL     1       2.985   5.481 -13.306  0.00  0.00    -0.245 OA
ATOM     17  O   UNL     1       4.965   4.601 -12.503  0.00  0.00    -0.245 OA
ENDBRANCH   6  15
ENDBRANCH   2   3
ENDBRANCH   1   2
BRANCH   1  18
ATOM     18  C   UNL     1       1.253   6.119  -6.973  0.00  0.00    +0.118 C 
BRANCH  18  19
ATOM     19  C   UNL     1       2.267   5.538  -6.041  0.00  0.00    -0.006 A 
ATOM     20  C   UNL     1       1.957   5.221  -4.743  0.00  0.00    -0.003 A 
ATOM     21  C   UNL     1       2.934   5.052  -3.788  0.00  0.00    -0.000 A 
ATOM     22  C   UNL     1       4.241   5.334  -4.163  0.00  0.00    -0.000 A 
ATOM     23  C   UNL     1       4.549   5.342  -5.517  0.00  0.00    -0.000 A 
ATOM     24  C   UNL     1       3.567   5.496  -6.484  0.00  0.00    -0.003 A 
ENDBRANCH  18  19
BRANCH  18  25
ATOM     25  C   UNL     1      -0.029   6.222  -6.235  0.00  0.00    -0.006 A 
ATOM     26  C   UNL     1      -0.172   7.321  -5.397  0.00  0.00    -0.003 A 
ATOM     27  C   UNL     1      -1.333   7.610  -4.732  0.00  0.00    -0.000 A 
ATOM     28  C   UNL     1      -2.433   6.810  -5.011  0.00  0.00    -0.000 A 
ATOM     29  C   UNL     1      -2.250   5.611  -5.685  0.00  0.00    -0.000 A 
ATOM     30  C   UNL     1      -1.140   5.469  -6.509  0.00  0.00    -0.003 A 
ENDBRANCH  18  25
BRANCH  18  32
ATOM     31  N   UNL     1       2.180   8.397  -7.805  0.00  0.00    -0.195 NA
ATOM     32  C   UNL     1       1.732   7.424  -7.398  0.00  0.00    +0.079 C 
ENDBRANCH  18  32
ENDBRANCH   1  18
TORSDOF 8
ENDMDL
MODEL 6
REMARK VINA RESULT:      -9.5      2.114      3.642
REMARK  Name = 
REMARK  8 active torsions:
REMARK  status: ('A' for Active; 'I' for Inactive)
REMARK    1  A    between atoms: C_2  and  C_3
REMARK    2  A    between atoms: C_3  and  C_4
REMARK    3  A    between atoms: C_3  and  C_21
REMARK    4  A    between atoms: C_3  and  C_27
REMARK    5  A    between atoms: C_4  and  C_5
REMARK    6  A    between atoms: C_5  and  N_6
REMARK    7  A    between atoms: C_9  and  C_10
REMARK    8  A    between atoms: C_9  and  C_13
REMARK                            x       y       z     vdW  Elec       q    Type
REMARK                         _______ _______ _______ _____ _____    ______ ____
ROOT
ATOM      1  C   UNL     1       3.545   5.116  -7.694  0.00  0.00    +0.040 C 
ENDROOT
BRANCH   1   2
ATOM      2  C   UNL     1       3.851   5.864  -6.401  0.00  0.00    +0.074 C 
BRANCH   2   3
ATOM      3  N   UNL     1       3.169   5.158  -5.348  0.00  0.00    -0.273 NA
ATOM      4  C   UNL     1       4.052   4.550  -4.391  0.00  0.00    +0.073 C 
ATOM      5  C   UNL     1       4.613   5.533  -3.387  0.00  0.00    +0.032 C 
ATOM      6  C   UNL     1       3.416   6.171  -2.694  0.00  0.00    +0.115 C 
ATOM      7  C   UNL     1       2.484   6.832  -3.675  0.00  0.00    +0.032 C 
ATOM      8  C   UNL     1       2.079   5.886  -4.768  0.00  0.00    +0.073 C 
BRANCH   6   9
ATOM      9  C   UNL     1       3.953   7.213  -1.769  0.00  0.00    -0.013 A 
ATOM     10  C   UNL     1       3.726   8.558  -1.947  0.00  0.00    -0.004 A 
ATOM     11  C   UNL     1       3.661   9.352  -0.809  0.00  0.00    -0.000 A 
ATOM     12  C   UNL     1       3.952   8.830   0.446  0.00  0.00    -0.000 A 
ATOM     13  C   UNL     1       4.708   7.665   0.441  0.00  0.00    -0.000 A 
ATOM     14  C   UNL     1       4.767   6.872  -0.698  0.00  0.00    -0.004 A 
ENDBRANCH   6   9
BRANCH   6  15
ATOM     15  C   UNL     1       2.679   5.143  -1.898  0.00  0.00    +0.368 C 
ATOM     16  O   UNL     1       1.308   5.248  -1.735  0.00  0.00    -0.245 OA
ATOM     17  O   UNL     1       3.354   4.247  -1.348  0.00  0.00    -0.245 OA
ENDBRANCH   6  15
ENDBRANCH   2   3
ENDBRANCH   1   2
BRANCH   1  18
ATOM     18  C   UNL     1       3.310   6.052  -8.848  0.00  0.00    +0.118 C 
BRANCH  18  19
ATOM     19  C   UNL     1       2.346   5.485  -9.840  0.00  0.00    -0.006 A 
ATOM     20  C   UNL     1       2.526   5.640 -11.191  0.00  0.00    -0.003 A 
ATOM     21  C   UNL     1       1.491   5.468 -12.082  0.00  0.00    -0.000 A 
ATOM     22  C   UNL     1       0.227   5.249 -11.549  0.00  0.00    -0.000 A 
ATOM     23  C   UNL     1       0.135   4.796 -10.239  0.00  0.00    -0.000 A 
ATOM     24  C   UNL     1       1.181   4.953  -9.342  0.00  0.00    -0.003 A 
ENDBRANCH  18  19
BRANCH  18  25
ATOM     25  C   UNL     1       4.609   6.238  -9.539  0.00  0.00    -0.006 A 
ATOM     26  C   UNL     1       4.698   7.322 -10.403  0.00  0.00    -0.003 A 
ATOM     27  C   UNL     1       5.859   7.685 -11.031  0.00  0.00    -0.000 A 
ATOM     28  C   UNL     1       7.007   6.984 -10.686  0.00  0.00    -0.000 A 
ATOM     29  C   UNL     1       6.892   5.793  -9.983  0.00  0.00    -0.000 A 
ATOM     30  C   UNL     1       5.763   5.584  -9.199  0.00  0.00    -0.003 A 
ENDBRANCH  18  25
BRANCH  18  32
ATOM     31  N   UNL     1       2.264   8.251  -7.946  0.00  0.00    -0.195 NA
ATOM     32  C   UNL     1       2.770   7.316  -8.374  0.00  0.00    +0.079 C 
ENDBRANCH  18  32
ENDBRANCH   1  18
TORSDOF 8
ENDMDL
MODEL 7
REMARK VINA RESULT:      -9.4      2.574      4.809
REMARK  Name = 
REMARK  8 active torsions:
REMARK  status: ('A' for Active; 'I' for Inactive)
REMARK    1  A    between atoms: C_2  and  C_3
REMARK    2  A    between atoms: C_3  and  C_4
REMARK    3  A    between atoms: C_3  and  C_21
REMARK    4  A    between atoms: C_3  and  C_27
REMARK    5  A    between atoms: C_4  and  C_5
REMARK    6  A    between atoms: C_5  and  N_6
REMARK    7  A    between atoms: C_9  and  C_10
REMARK    8  A    between atoms: C_9  and  C_13
REMARK                            x       y       z     vdW  Elec       q    Type
REMARK                         _______ _______ _______ _____ _____    ______ ____
ROOT
ATOM      1  C   UNL     1       2.599   6.658  -6.265  0.00  0.00    +0.040 C 
ENDROOT
BRANCH   1   2
ATOM      2  C   UNL     1       3.984   6.025  -6.338  0.00  0.00    +0.074 C 
BRANCH   2   3
ATOM      3  N   UNL     1       4.639   6.328  -5.091  0.00  0.00    -0.273 NA
ATOM      4  C   UNL     1       4.140   7.511  -4.448  0.00  0.00    +0.073 C 
ATOM      5  C   UNL     1       2.831   7.290  -3.722  0.00  0.00    +0.032 C 
ATOM      6  C   UNL     1       3.084   6.183  -2.706  0.00  0.00    +0.115 C 
ATOM      7  C   UNL     1       3.590   4.924  -3.359  0.00  0.00    +0.032 C 
ATOM      8  C   UNL     1       4.788   5.198  -4.221  0.00  0.00    +0.073 C 
BRANCH   6   9
ATOM      9  C   UNL     1       1.776   5.888  -2.049  0.00  0.00    -0.013 A 
ATOM     10  C   UNL     1       1.422   6.402  -0.823  0.00  0.00    -0.004 A 
ATOM     11  C   UNL     1       0.073   6.641  -0.595  0.00  0.00    -0.000 A 
ATOM     12  C   UNL     1      -0.890   6.244  -1.514  0.00  0.00    -0.000 A 
ATOM     13  C   UNL     1      -0.490   5.252  -2.400  0.00  0.00    -0.000 A 
ATOM     14  C   UNL     1       0.860   5.020  -2.628  0.00  0.00    -0.004 A 
ENDBRANCH   6   9
BRANCH   6  15
ATOM     15  C   UNL     1       4.056   6.651  -1.671  0.00  0.00    +0.368 C 
ATOM     16  O   UNL     1       4.348   8.000  -1.559  0.00  0.00    -0.245 OA
ATOM     17  O   UNL     1       4.624   5.780  -0.980  0.00  0.00    -0.245 OA
ENDBRANCH   6  15
ENDBRANCH   2   3
ENDBRANCH   1   2
BRANCH   1  18
ATOM     18  C   UNL     1       1.532   5.751  -6.816  0.00  0.00    +0.118 C 
BRANCH  18  19
ATOM     19  C   UNL     1       1.477   5.795  -8.309  0.00  0.00    -0.006 A 
ATOM     20  C   UNL     1       1.151   6.943  -8.986  0.00  0.00    -0.003 A 
ATOM     21  C   UNL     1       0.731   6.915 -10.296  0.00  0.00    -0.000 A 
ATOM     22  C   UNL     1       0.535   5.665 -10.871  0.00  0.00    -0.000 A 
ATOM     23  C   UNL     1       1.157   4.569 -10.288  0.00  0.00    -0.000 A 
ATOM     24  C   UNL     1       1.596   4.598  -8.972  0.00  0.00    -0.003 A 
ENDBRANCH  18  19
BRANCH  18  25
ATOM     25  C   UNL     1       0.229   6.238  -6.303  0.00  0.00    -0.006 A 
ATOM     26  C   UNL     1      -0.879   5.450  -6.589  0.00  0.00    -0.003 A 
ATOM     27  C   UNL     1      -2.130   5.711  -6.095  0.00  0.00    -0.000 A 
ATOM     28  C   UNL     1      -2.242   6.754  -5.186  0.00  0.00    -0.000 A 
ATOM     29  C   UNL     1      -1.195   7.654  -5.049  0.00  0.00    -0.000 A 
ATOM     30  C   UNL     1       0.090   7.243  -5.383  0.00  0.00    -0.003 A 
ENDBRANCH  18  25
BRANCH  18  32
ATOM     31  N   UNL     1       1.871   3.285  -6.075  0.00  0.00    -0.195 NA
ATOM     32  C   UNL     1       1.783   4.374  -6.420  0.00  0.00    +0.079 C 
ENDBRANCH  18  32
ENDBRANCH   1  18
TORSDOF 8
ENDMDL
MODEL 8
REMARK VINA RESULT:      -9.3      3.524      7.892
REMARK  Name = 
REMARK  8 active torsions:
REMARK  status: ('A' for Active; 'I' for Inactive)
REMARK    1  A    between atoms: C_2  and  C_3
REMARK    2  A    between atoms: C_3  and  C_4
REMARK    3  A    between atoms: C_3  and  C_21
REMARK    4  A    between atoms: C_3  and  C_27
REMARK    5  A    between atoms: C_4  and  C_5
REMARK    6  A    between atoms: C_5  and  N_6
REMARK    7  A    between atoms: C_9  and  C_10
REMARK    8  A    between atoms: C_9  and  C_13
REMARK                            x       y       z     vdW  Elec       q    Type
REMARK                         _______ _______ _______ _____ _____    ______ ____
ROOT
ATOM      1  C   UNL     1       1.494   5.210  -8.011  0.00  0.00    +0.040 C 
ENDROOT
BRANCH   1   2
ATOM      2  C   UNL     1       0.941   5.756  -9.322  0.00  0.00    +0.074 C 
BRANCH   2   3
ATOM      3  N   UNL     1       1.473   4.923 -10.370  0.00  0.00    -0.273 NA
ATOM      4  C   UNL     1       0.469   4.366 -11.233  0.00  0.00    +0.073 C 
ATOM      5  C   UNL     1      -0.048   5.349 -12.259  0.00  0.00    +0.032 C 
ATOM      6  C   UNL     1       1.162   5.812 -13.061  0.00  0.00    +0.115 C 
ATOM      7  C   UNL     1       2.222   6.419 -12.179  0.00  0.00    +0.032 C 
ATOM      8  C   UNL     1       2.595   5.494 -11.057  0.00  0.00    +0.073 C 
BRANCH   6   9
ATOM      9  C   UNL     1       0.680   6.856 -14.014  0.00  0.00    -0.013 A 
ATOM     10  C   UNL     1       0.617   8.192 -13.690  0.00  0.00    -0.004 A 
ATOM     11  C   UNL     1       0.805   9.108 -14.717  0.00  0.00    -0.000 A 
ATOM     12  C   UNL     1       0.910   8.691 -16.038  0.00  0.00    -0.000 A 
ATOM     13  C   UNL     1       0.392   7.430 -16.304  0.00  0.00    -0.000 A 
ATOM     14  C   UNL     1       0.210   6.516 -15.274  0.00  0.00    -0.004 A 
ENDBRANCH   6   9
BRANCH   6  15
ATOM     15  C   UNL     1       1.731   4.668 -13.835  0.00  0.00    +0.368 C 
ATOM     16  O   UNL     1       3.026   4.738 -14.320  0.00  0.00    -0.245 OA
ATOM     17  O   UNL     1       0.976   3.701 -14.072  0.00  0.00    -0.245 OA
ENDBRANCH   6  15
ENDBRANCH   2   3
ENDBRANCH   1   2
BRANCH   1  18
ATOM     18  C   UNL     1       1.503   6.250  -6.923  0.00  0.00    +0.118 C 
BRANCH  18  19
ATOM     19  C   UNL     1       2.494   5.929  -5.850  0.00  0.00    -0.006 A 
ATOM     20  C   UNL     1       3.478   6.814  -5.489  0.00  0.00    -0.003 A 
ATOM     21  C   UNL     1       4.598   6.407  -4.800  0.00  0.00    -0.000 A 
ATOM     22  C   UNL     1       4.750   5.041  -4.591  0.00  0.00    -0.000 A 
ATOM     23  C   UNL     1       3.625   4.233  -4.682  0.00  0.00    -0.000 A 
ATOM     24  C   UNL     1       2.488   4.645  -5.362  0.00  0.00    -0.003 A 
ENDBRANCH  18  19
BRANCH  18  25
ATOM     25  C   UNL     1       0.156   6.253  -6.303  0.00  0.00    -0.006 A 
ATOM     26  C   UNL     1      -0.083   7.235  -5.350  0.00  0.00    -0.003 A 
ATOM     27  C   UNL     1      -1.306   7.433  -4.768  0.00  0.00    -0.000 A 
ATOM     28  C   UNL     1      -2.362   6.671  -5.250  0.00  0.00    -0.000 A 
ATOM     29  C   UNL     1      -2.098   5.569  -6.050  0.00  0.00    -0.000 A 
ATOM     30  C   UNL     1      -0.912   5.537  -6.775  0.00  0.00    -0.003 A 
ENDBRANCH  18  25
BRANCH  18  32
ATOM     31  N   UNL     1       2.222   8.550  -7.889  0.00  0.00    -0.195 NA
ATOM     32  C   UNL     1       1.843   7.553  -7.469  0.00  0.00    +0.079 C 
ENDBRANCH  18  32
ENDBRANCH   1  18
TORSDOF 8
ENDMDL
MODEL 9
REMARK VINA RESULT:      -9.3      2.876      7.721
REMARK  Name = 
REMARK  8 active torsions:
REMARK  status: ('A' for Active; 'I' for Inactive)
REMARK    1  A    between atoms: C_2  and  C_3
REMARK    2  A    between atoms: C_3  and  C_4
REMARK    3  A    between atoms: C_3  and  C_21
REMARK    4  A    between atoms: C_3  and  C_27
REMARK    5  A    between atoms: C_4  and  C_5
REMARK    6  A    between atoms: C_5  and  N_6
REMARK    7  A    between atoms: C_9  and  C_10
REMARK    8  A    between atoms: C_9  and  C_13
REMARK                            x       y       z     vdW  Elec       q    Type
REMARK                         _______ _______ _______ _____ _____    ______ ____
ROOT
ATOM      1  C   UNL     1       2.222   6.882  -6.521  0.00  0.00    +0.040 C 
ENDROOT
BRANCH   1   2
ATOM      2  C   UNL     1       3.277   6.013  -7.198  0.00  0.00    +0.074 C 
BRANCH   2   3
ATOM      3  N   UNL     1       2.799   5.754  -8.532  0.00  0.00    -0.273 NA
ATOM      4  C   UNL     1       2.823   6.907  -9.389  0.00  0.00    +0.073 C 
ATOM      5  C   UNL     1       4.200   7.221  -9.929  0.00  0.00    +0.032 C 
ATOM      6  C   UNL     1       4.664   5.977 -10.677  0.00  0.00    +0.115 C 
ATOM      7  C   UNL     1       4.667   4.758  -9.793  0.00  0.00    +0.032 C 
ATOM      8  C   UNL     1       3.337   4.564  -9.124  0.00  0.00    +0.073 C 
BRANCH   6   9
ATOM      9  C   UNL     1       6.062   6.239 -11.132  0.00  0.00    -0.013 A 
ATOM     10  C   UNL     1       7.167   5.774 -10.458  0.00  0.00    -0.004 A 
ATOM     11  C   UNL     1       8.297   5.477 -11.209  0.00  0.00    -0.000 A 
ATOM     12  C   UNL     1       8.353   5.773 -12.566  0.00  0.00    -0.000 A 
ATOM     13  C   UNL     1       7.450   6.736 -12.999  0.00  0.00    -0.000 A 
ATOM     14  C   UNL     1       6.319   7.025 -12.246  0.00  0.00    -0.004 A 
ENDBRANCH   6   9
BRANCH   6  15
ATOM     15  C   UNL     1       3.796   5.744 -11.870  0.00  0.00    +0.368 C 
ATOM     16  O   UNL     1       4.123   4.753 -12.780  0.00  0.00    -0.245 OA
ATOM     17  O   UNL     1       2.825   6.513 -12.035  0.00  0.00    -0.245 OA
ENDBRANCH   6  15
ENDBRANCH   2   3
ENDBRANCH   1   2
BRANCH   1  18
ATOM     18  C   UNL     1       1.352   6.089  -5.584  0.00  0.00    +0.118 C 
BRANCH  18  19
ATOM     19  C   UNL     1      -0.080   6.511  -5.659  0.00  0.00    -0.006 A 
ATOM     20  C   UNL     1      -0.551   7.594  -4.960  0.00  0.00    -0.003 A 
ATOM     21  C   UNL     1      -1.895   7.767  -4.716  0.00  0.00    -0.000 A 
ATOM     22  C   UNL     1      -2.746   6.739  -5.103  0.00  0.00    -0.000 A 
ATOM     23  C   UNL     1      -2.295   5.837  -6.058  0.00  0.00    -0.000 A 
ATOM     24  C   UNL     1      -0.943   5.670  -6.318  0.00  0.00    -0.003 A 
ENDBRANCH  18  19
BRANCH  18  25
ATOM     25  C   UNL     1       1.828   6.356  -4.205  0.00  0.00    -0.006 A 
ATOM     26  C   UNL     1       1.301   5.551  -3.203  0.00  0.00    -0.003 A 
ATOM     27  C   UNL     1       1.719   5.605  -1.901  0.00  0.00    -0.000 A 
ATOM     28  C   UNL     1       2.794   6.437  -1.620  0.00  0.00    -0.000 A 
ATOM     29  C   UNL     1       3.192   7.377  -2.560  0.00  0.00    -0.000 A 
ATOM     30  C   UNL     1       2.904   7.147  -3.900  0.00  0.00    -0.003 A 
ENDBRANCH  18  25
BRANCH  18  32
ATOM     31  N   UNL     1       1.573   3.557  -6.117  0.00  0.00    -0.195 NA
ATOM     32  C   UNL     1       1.417   4.673  -5.907  0.00  0.00    +0.079 C 
ENDBRANCH  18  32
ENDBRANCH   1  18
TORSDOF 8
ENDMDL
