MODEL 1
REMARK VINA RESULT:      -8.0      0.000      0.000
REMARK  Name = 
REMARK  8 active torsions:
REMARK  status: ('A' for Active; 'I' for Inactive)
REMARK    1  A    between atoms: C_2  and  C_3
REMARK    2  A    between atoms: C_3  and  O_4
REMARK    3  A    between atoms: O_4  and  C_5
REMARK    4  A    between atoms: C_5  and  C_6
REMARK    5  A    between atoms: C_6  and  N_7
REMARK    6  A    between atoms: N_10  and  C_11
REMARK    7  A    between atoms: C_11  and  C_12
REMARK    8  A    between atoms: C_11  and  C_18
REMARK                            x       y       z     vdW  Elec       q    Type
REMARK                         _______ _______ _______ _____ _____    ______ ____
ROOT
ATOM      1  C   UNL     1       1.529   6.445  -6.302  0.00  0.00    +0.103 C 
ENDROOT
BRANCH   1   2
ATOM      2  C   UNL     1       2.049   5.286  -5.247  0.00  0.00    -0.004 A 
ATOM      3  C   UNL     1       3.426   5.335  -5.061  0.00  0.00    -0.002 A 
ATOM      4  C   UNL     1       4.025   4.949  -3.874  0.00  0.00    +0.011 A 
ATOM      5  C   UNL     1       3.256   5.170  -2.737  0.00  0.00    +0.058 A 
ATOM      6 CL   UNL     1       4.146   5.141  -1.219  0.00  0.00    -0.082 Cl
ATOM      7  C   UNL     1       1.912   5.450  -2.816  0.00  0.00    +0.011 A 
ATOM      8  C   UNL     1       1.320   5.471  -4.074  0.00  0.00    -0.002 A 
ENDBRANCH   1   2
BRANCH   1   9
ATOM      9  C   UNL     1      -0.013   6.378  -5.730  0.00  0.00    -0.004 A 
ATOM     10  C   UNL     1      -0.879   5.625  -6.436  0.00  0.00    -0.003 A 
ATOM     11  C   UNL     1      -2.202   5.622  -6.009  0.00  0.00    -0.000 A 
ATOM     12  C   UNL     1      -2.637   6.690  -5.235  0.00  0.00    -0.000 A 
ATOM     13  C   UNL     1      -1.756   7.676  -4.819  0.00  0.00    -0.000 A 
ATOM     14  C   UNL     1      -0.400   7.521  -5.072  0.00  0.00    -0.003 A 
ENDBRANCH   1   9
BRANCH   1  18
ATOM     15  N   UNL     1       3.298   4.854  -9.480  0.00  0.00    -0.268 NA
ATOM     16  C   UNL     1       2.737   6.159  -9.245  0.00  0.00    +0.090 C 
ATOM     17  C   UNL     1       1.346   6.128  -8.681  0.00  0.00    +0.090 C 
ATOM     18  N   UNL     1       1.233   5.367  -7.464  0.00  0.00    -0.264 NA
ATOM     19  C   UNL     1       2.435   4.560  -7.287  0.00  0.00    +0.090 C 
ATOM     20  C   UNL     1       2.807   3.852  -8.560  0.00  0.00    +0.090 C 
BRANCH  15  21
ATOM     21  C   UNL     1       4.735   4.983  -9.237  0.00  0.00    +0.105 C 
BRANCH  21  22
ATOM     22  C   UNL     1       5.293   6.047 -10.171  0.00  0.00    +0.160 C 
BRANCH  22  23
ATOM     23  O   UNL     1       6.638   5.739 -10.372  0.00  0.00    -0.350 OA
BRANCH  23  24
ATOM     24  C   UNL     1       7.099   6.248 -11.596  0.00  0.00    +0.178 C 
BRANCH  24  26
ATOM     25  O   UNL     1       7.716   4.685 -12.434  0.00  0.00    -0.218 OA
ATOM     26  C   UNL     1       7.611   5.045 -12.379  0.00  0.00    +0.214 C 
ENDBRANCH  24  26
ENDBRANCH  23  24
ENDBRANCH  22  23
ENDBRANCH  21  22
ENDBRANCH  15  21
ENDBRANCH   1  18
TORSDOF 8
ENDMDL
MODEL 2
REMARK VINA RESULT:      -7.9      4.441      8.518
REMARK  Name = 
REMARK  8 active torsions:
REMARK  status: ('A' for Active; 'I' for Inactive)
REMARK    1  A    between atoms: C_2  and  C_3
REMARK    2  A    between atoms: C_3  and  O_4
REMARK    3  A    between atoms: O_4  and  C_5
REMARK    4  A    between atoms: C_5  and  C_6
REMARK    5  A    between atoms: C_6  and  N_7
REMARK    6  A    between atoms: N_10  and  C_11
REMARK    7  A    between atoms: C_11  and  C_12
REMARK    8  A    between atoms: C_11  and  C_18
REMARK                            x       y       z     vdW  Elec       q    Type
REMARK                         _______ _______ _______ _____ _____    ______ ____
ROOT
ATOM      1  C   UNL     1       3.581   6.552  -9.420  0.00  0.00    +0.103 C 
ENDROOT
BRANCH   1   2
ATOM      2  C   UNL     1       2.950   5.483 -10.509  0.00  0.00    -0.004 A 
ATOM      3  C   UNL     1       1.587   5.680 -10.698  0.00  0.00    -0.002 A 
ATOM      4  C   UNL     1       0.959   5.391 -11.898  0.00  0.00    +0.011 A 
ATOM      5  C   UNL     1       1.753   5.563 -13.026  0.00  0.00    +0.058 A 
ATOM      6 CL   UNL     1       0.875   5.670 -14.547  0.00  0.00    -0.082 Cl
ATOM      7  C   UNL     1       3.119   5.700 -12.933  0.00  0.00    +0.011 A 
ATOM      8  C   UNL     1       3.702   5.625 -11.673  0.00  0.00    -0.002 A 
ENDBRANCH   1   2
BRANCH   1   9
ATOM      9  C   UNL     1       5.077   6.474 -10.099  0.00  0.00    -0.004 A 
ATOM     10  C   UNL     1       5.980   5.697  -9.467  0.00  0.00    -0.003 A 
ATOM     11  C   UNL     1       7.269   5.684  -9.986  0.00  0.00    -0.000 A 
ATOM     12  C   UNL     1       7.665   6.760 -10.771  0.00  0.00    -0.000 A 
ATOM     13  C   UNL     1       6.772   7.764 -11.108  0.00  0.00    -0.000 A 
ATOM     14  C   UNL     1       5.434   7.623 -10.763  0.00  0.00    -0.003 A 
ENDBRANCH   1   9
BRANCH   1  18
ATOM     15  N   UNL     1       2.009   4.867  -6.187  0.00  0.00    -0.268 NA
ATOM     16  C   UNL     1       2.625   6.151  -6.398  0.00  0.00    +0.090 C 
ATOM     17  C   UNL     1       3.955   6.080  -7.089  0.00  0.00    +0.090 C 
ATOM     18  N   UNL     1       3.913   5.389  -8.352  0.00  0.00    -0.264 NA
ATOM     19  C   UNL     1       2.654   4.662  -8.463  0.00  0.00    +0.090 C 
ATOM     20  C   UNL     1       2.355   3.898  -7.203  0.00  0.00    +0.090 C 
BRANCH  15  21
ATOM     21  C   UNL     1       0.567   5.089  -6.287  0.00  0.00    +0.105 C 
BRANCH  21  22
ATOM     22  C   UNL     1       0.049   5.555  -4.934  0.00  0.00    +0.160 C 
BRANCH  22  23
ATOM     23  O   UNL     1      -1.342   5.540  -5.009  0.00  0.00    -0.350 OA
BRANCH  23  24
ATOM     24  C   UNL     1      -1.919   6.171  -3.897  0.00  0.00    +0.178 C 
BRANCH  24  26
ATOM     25  O   UNL     1      -2.761   4.849  -2.861  0.00  0.00    -0.218 OA
ATOM     26  C   UNL     1      -2.681   5.082  -3.150  0.00  0.00    +0.214 C 
ENDBRANCH  24  26
ENDBRANCH  23  24
ENDBRANCH  22  23
ENDBRANCH  21  22
ENDBRANCH  15  21
ENDBRANCH   1  18
TORSDOF 8
ENDMDL
MODEL 3
REMARK VINA RESULT:      -7.8      3.946      6.984
REMARK  Name = 
REMARK  8 active torsions:
REMARK  status: ('A' for Active; 'I' for Inactive)
REMARK    1  A    between atoms: C_2  and  C_3
REMARK    2  A    between atoms: C_3  and  O_4
REMARK    3  A    between atoms: O_4  and  C_5
REMARK    4  A    between atoms: C_5  and  C_6
REMARK    5  A    between atoms: C_6  and  N_7
REMARK    6  A    between atoms: N_10  and  C_11
REMARK    7  A    between atoms: C_11  and  C_12
REMARK    8  A    between atoms: C_11  and  C_18
REMARK                            x       y       z     vdW  Elec       q    Type
REMARK                         _______ _______ _______ _____ _____    ______ ____
ROOT
ATOM      1  C   UNL     1       2.510   4.931  -5.770  0.00  0.00    +0.103 C 
ENDROOT
BRANCH   1   2
ATOM      2  C   UNL     1       3.812   5.582  -4.991  0.00  0.00    -0.004 A 
ATOM      3  C   UNL     1       3.601   6.914  -4.652  0.00  0.00    -0.002 A 
ATOM      4  C   UNL     1       4.191   7.495  -3.542  0.00  0.00    +0.011 A 
ATOM      5  C   UNL     1       4.404   6.629  -2.476  0.00  0.00    +0.058 A 
ATOM      6 CL   UNL     1       4.697   7.412  -0.928  0.00  0.00    -0.082 Cl
ATOM      7  C   UNL     1       4.327   5.265  -2.628  0.00  0.00    +0.011 A 
ATOM      8  C   UNL     1       4.063   4.759  -3.896  0.00  0.00    -0.002 A 
ENDBRANCH   1   2
BRANCH   1   9
ATOM      9  C   UNL     1       3.186   5.165  -7.252  0.00  0.00    -0.004 A 
ATOM     10  C   UNL     1       2.749   4.359  -8.241  0.00  0.00    -0.003 A 
ATOM     11  C   UNL     1       3.367   4.493  -9.479  0.00  0.00    -0.000 A 
ATOM     12  C   UNL     1       4.636   5.058  -9.514  0.00  0.00    -0.000 A 
ATOM     13  C   UNL     1       5.225   5.563  -8.365  0.00  0.00    -0.000 A 
ATOM     14  C   UNL     1       4.481   5.620  -7.194  0.00  0.00    -0.003 A 
ENDBRANCH   1   9
BRANCH   1  18
ATOM     15  N   UNL     1      -1.200   6.345  -5.722  0.00  0.00    -0.268 NA
ATOM     16  C   UNL     1      -0.446   5.659  -6.738  0.00  0.00    +0.090 C 
ATOM     17  C   UNL     1       0.910   6.251  -6.992  0.00  0.00    +0.090 C 
ATOM     18  N   UNL     1       1.730   6.342  -5.811  0.00  0.00    -0.264 NA
ATOM     19  C   UNL     1       0.899   6.136  -4.631  0.00  0.00    +0.090 C 
ATOM     20  C   UNL     1      -0.365   6.948  -4.707  0.00  0.00    +0.090 C 
BRANCH  15  21
ATOM     21  C   UNL     1      -2.003   5.321  -5.055  0.00  0.00    +0.105 C 
BRANCH  21  22
ATOM     22  C   UNL     1      -2.692   5.949  -3.851  0.00  0.00    +0.160 C 
BRANCH  22  23
ATOM     23  O   UNL     1      -2.623   5.016  -2.817  0.00  0.00    -0.350 OA
BRANCH  23  24
ATOM     24  C   UNL     1      -2.193   5.612  -1.622  0.00  0.00    +0.178 C 
BRANCH  24  26
ATOM     25  O   UNL     1      -0.400   5.155  -1.304  0.00  0.00    -0.218 OA
ATOM     26  C   UNL     1      -0.718   5.253  -1.485  0.00  0.00    +0.214 C 
ENDBRANCH  24  26
ENDBRANCH  23  24
ENDBRANCH  22  23
ENDBRANCH  21  22
ENDBRANCH  15  21
ENDBRANCH   1  18
TORSDOF 8
ENDMDL
MODEL 4
REMARK VINA RESULT:      -7.8      4.129      7.154
REMARK  Name = 
REMARK  8 active torsions:
REMARK  status: ('A' for Active; 'I' for Inactive)
REMARK    1  A    between atoms: C_2  and  C_3
REMARK    2  A    between atoms: C_3  and  O_4
REMARK    3  A    between atoms: O_4  and  C_5
REMARK    4  A    between atoms: C_5  and  C_6
REMARK    5  A    between atoms: C_6  and  N_7
REMARK    6  A    between atoms: N_10  and  C_11
REMARK    7  A    between atoms: C_11  and  C_12
REMARK    8  A    between atoms: C_11  and  C_18
REMARK                            x       y       z     vdW  Elec       q    Type
REMARK                         _______ _______ _______ _____ _____    ______ ____
ROOT
ATOM      1  C   UNL     1       2.980   4.896  -8.543  0.00  0.00    +0.103 C 
ENDROOT
BRANCH   1   2
ATOM      2  C   UNL     1       4.170   5.860  -9.159  0.00  0.00    -0.004 A 
ATOM      3  C   UNL     1       5.424   5.511  -8.672  0.00  0.00    -0.002 A 
ATOM      4  C   UNL     1       6.581   5.697  -9.410  0.00  0.00    +0.011 A 
ATOM      5  C   UNL     1       6.417   5.584 -10.785  0.00  0.00    +0.058 A 
ATOM      6 CL   UNL     1       7.904   5.342 -11.695  0.00  0.00    -0.082 Cl
ATOM      7  C   UNL     1       5.172   5.600 -11.368  0.00  0.00    +0.011 A 
ATOM      8  C   UNL     1       4.065   5.772 -10.545  0.00  0.00    -0.002 A 
ENDBRANCH   1   2
BRANCH   1   9
ATOM      9  C   UNL     1       1.915   5.335  -9.718  0.00  0.00    -0.004 A 
ATOM     10  C   UNL     1       1.436   6.593  -9.649  0.00  0.00    -0.003 A 
ATOM     11  C   UNL     1       0.477   6.952 -10.589  0.00  0.00    -0.000 A 
ATOM     12  C   UNL     1      -0.247   5.936 -11.200  0.00  0.00    -0.000 A 
ATOM     13  C   UNL     1       0.047   4.604 -10.954  0.00  0.00    -0.000 A 
ATOM     14  C   UNL     1       1.161   4.287 -10.190  0.00  0.00    -0.003 A 
ENDBRANCH   1   9
BRANCH   1  18
ATOM     15  N   UNL     1       2.824   5.653  -4.649  0.00  0.00    -0.268 NA
ATOM     16  C   UNL     1       2.088   4.735  -5.480  0.00  0.00    +0.090 C 
ATOM     17  C   UNL     1       1.497   5.368  -6.706  0.00  0.00    +0.090 C 
ATOM     18  N   UNL     1       2.465   6.042  -7.531  0.00  0.00    -0.264 NA
ATOM     19  C   UNL     1       3.706   6.207  -6.783  0.00  0.00    +0.090 C 
ATOM     20  C   UNL     1       3.439   6.726  -5.397  0.00  0.00    +0.090 C 
BRANCH  15  21
ATOM     21  C   UNL     1       3.909   4.876  -4.052  0.00  0.00    +0.105 C 
BRANCH  21  22
ATOM     22  C   UNL     1       3.815   4.991  -2.537  0.00  0.00    +0.160 C 
BRANCH  22  23
ATOM     23  O   UNL     1       2.647   5.699  -2.259  0.00  0.00    -0.350 OA
BRANCH  23  24
ATOM     24  C   UNL     1       1.993   5.179  -1.131  0.00  0.00    +0.178 C 
BRANCH  24  26
ATOM     25  O   UNL     1       0.276   4.635  -1.664  0.00  0.00    -0.218 OA
ATOM     26  C   UNL     1       0.575   4.856  -1.586  0.00  0.00    +0.214 C 
ENDBRANCH  24  26
ENDBRANCH  23  24
ENDBRANCH  22  23
ENDBRANCH  21  22
ENDBRANCH  15  21
ENDBRANCH   1  18
TORSDOF 8
ENDMDL
MODEL 5
REMARK VINA RESULT:      -7.7      4.134      6.673
REMARK  Name = 
REMARK  8 active torsions:
REMARK  status: ('A' for Active; 'I' for Inactive)
REMARK    1  A    between atoms: C_2  and  C_3
REMARK    2  A    between atoms: C_3  and  O_4
REMARK    3  A    between atoms: O_4  and  C_5
REMARK    4  A    between atoms: C_5  and  C_6
REMARK    5  A    between atoms: C_6  and  N_7
REMARK    6  A    between atoms: N_10  and  C_11
REMARK    7  A    between atoms: C_11  and  C_12
REMARK    8  A    between atoms: C_11  and  C_18
REMARK                            x       y       z     vdW  Elec       q    Type
REMARK                         _______ _______ _______ _____ _____    ______ ____
ROOT
ATOM      1  C   UNL     1       1.082   7.045  -5.224  0.00  0.00    +0.103 C 
ENDROOT
BRANCH   1   2
ATOM      2  C   UNL     1      -0.538   6.729  -5.286  0.00  0.00    -0.004 A 
ATOM      3  C   UNL     1      -0.881   5.628  -4.510  0.00  0.00    -0.002 A 
ATOM      4  C   UNL     1      -2.122   5.507  -3.908  0.00  0.00    +0.011 A 
ATOM      5  C   UNL     1      -2.707   6.711  -3.535  0.00  0.00    +0.058 A 
ATOM      6 CL   UNL     1      -4.019   6.573  -2.370  0.00  0.00    -0.082 Cl
ATOM      7  C   UNL     1      -2.240   7.917  -4.004  0.00  0.00    +0.011 A 
ATOM      8  C   UNL     1      -1.179   7.905  -4.902  0.00  0.00    -0.002 A 
ENDBRANCH   1   2
BRANCH   1   9
ATOM      9  C   UNL     1       1.313   6.545  -6.775  0.00  0.00    -0.004 A 
ATOM     10  C   UNL     1       1.984   7.393  -7.581  0.00  0.00    -0.003 A 
ATOM     11  C   UNL     1       2.118   7.018  -8.913  0.00  0.00    -0.000 A 
ATOM     12  C   UNL     1       1.209   6.100  -9.425  0.00  0.00    -0.000 A 
ATOM     13  C   UNL     1       0.262   5.503  -8.608  0.00  0.00    -0.000 A 
ATOM     14  C   UNL     1       0.310   5.729  -7.239  0.00  0.00    -0.003 A 
ENDBRANCH   1   9
BRANCH   1  18
ATOM     15  N   UNL     1       3.787   5.285  -2.911  0.00  0.00    -0.268 NA
ATOM     16  C   UNL     1       3.851   5.776  -4.263  0.00  0.00    +0.090 C 
ATOM     17  C   UNL     1       2.732   5.294  -5.138  0.00  0.00    +0.090 C 
ATOM     18  N   UNL     1       1.423   5.590  -4.616  0.00  0.00    -0.264 NA
ATOM     19  C   UNL     1       1.540   5.989  -3.219  0.00  0.00    +0.090 C 
ATOM     20  C   UNL     1       2.434   5.049  -2.459  0.00  0.00    +0.090 C 
BRANCH  15  21
ATOM     21  C   UNL     1       4.336   6.347  -2.069  0.00  0.00    +0.105 C 
BRANCH  21  22
ATOM     22  C   UNL     1       4.752   7.510  -2.959  0.00  0.00    +0.160 C 
BRANCH  22  23
ATOM     23  O   UNL     1       4.107   8.643  -2.466  0.00  0.00    -0.350 OA
BRANCH  23  24
ATOM     24  C   UNL     1       3.732   8.472  -1.124  0.00  0.00    +0.178 C 
BRANCH  24  26
ATOM     25  O   UNL     1       3.573  10.177  -0.353  0.00  0.00    -0.218 OA
ATOM     26  C   UNL     1       3.507   9.875  -0.574  0.00  0.00    +0.214 C 
ENDBRANCH  24  26
ENDBRANCH  23  24
ENDBRANCH  22  23
ENDBRANCH  21  22
ENDBRANCH  15  21
ENDBRANCH   1  18
TORSDOF 8
ENDMDL
MODEL 6
REMARK VINA RESULT:      -7.6      2.973      4.738
REMARK  Name = 
REMARK  8 active torsions:
REMARK  status: ('A' for Active; 'I' for Inactive)
REMARK    1  A    between atoms: C_2  and  C_3
REMARK    2  A    between atoms: C_3  and  O_4
REMARK    3  A    between atoms: O_4  and  C_5
REMARK    4  A    between atoms: C_5  and  C_6
REMARK    5  A    between atoms: C_6  and  N_7
REMARK    6  A    between atoms: N_10  and  C_11
REMARK    7  A    between atoms: C_11  and  C_12
REMARK    8  A    between atoms: C_11  and  C_18
REMARK                            x       y       z     vdW  Elec       q    Type
REMARK                         _______ _______ _______ _____ _____    ______ ____
ROOT
ATOM      1  C   UNL     1       1.869   5.014  -6.247  0.00  0.00    +0.103 C 
ENDROOT
BRANCH   1   2
ATOM      2  C   UNL     1       0.644   5.967  -5.683  0.00  0.00    -0.004 A 
ATOM      3  C   UNL     1      -0.591   5.578  -6.190  0.00  0.00    -0.002 A 
ATOM      4  C   UNL     1      -1.768   5.757  -5.484  0.00  0.00    +0.011 A 
ATOM      5  C   UNL     1      -1.635   5.682  -4.103  0.00  0.00    +0.058 A 
ATOM      6 CL   UNL     1      -3.137   5.429  -3.222  0.00  0.00    -0.082 Cl
ATOM      7  C   UNL     1      -0.404   5.740  -3.492  0.00  0.00    +0.011 A 
ATOM      8  C   UNL     1       0.718   5.915  -4.293  0.00  0.00    -0.002 A 
ENDBRANCH   1   2
BRANCH   1   9
ATOM      9  C   UNL     1       2.953   5.655  -5.188  0.00  0.00    -0.004 A 
ATOM     10  C   UNL     1       3.363   6.914  -5.443  0.00  0.00    -0.003 A 
ATOM     11  C   UNL     1       4.337   7.439  -4.601  0.00  0.00    -0.000 A 
ATOM     12  C   UNL     1       5.135   6.548  -3.894  0.00  0.00    -0.000 A 
ATOM     13  C   UNL     1       4.902   5.183  -3.950  0.00  0.00    -0.000 A 
ATOM     14  C   UNL     1       3.777   4.716  -4.616  0.00  0.00    -0.003 A 
ENDBRANCH   1   9
BRANCH   1  18
ATOM     15  N   UNL     1       1.758   5.333 -10.203  0.00  0.00    -0.268 NA
ATOM     16  C   UNL     1       2.592   4.555  -9.324  0.00  0.00    +0.090 C 
ATOM     17  C   UNL     1       3.214   5.351  -8.215  0.00  0.00    +0.090 C 
ATOM     18  N   UNL     1       2.257   6.064  -7.409  0.00  0.00    -0.264 NA
ATOM     19  C   UNL     1       0.968   6.078  -8.091  0.00  0.00    +0.090 C 
ATOM     20  C   UNL     1       1.125   6.451  -9.540  0.00  0.00    +0.090 C 
BRANCH  15  21
ATOM     21  C   UNL     1       0.688   4.438 -10.641  0.00  0.00    +0.105 C 
BRANCH  21  22
ATOM     22  C   UNL     1       0.036   5.030 -11.883  0.00  0.00    +0.160 C 
BRANCH  22  23
ATOM     23  O   UNL     1       0.664   4.448 -12.982  0.00  0.00    -0.350 OA
BRANCH  23  24
ATOM     24  C   UNL     1       1.183   5.424 -13.848  0.00  0.00    +0.178 C 
BRANCH  24  26
ATOM     25  O   UNL     1       2.890   4.728 -14.206  0.00  0.00    -0.218 OA
ATOM     26  C   UNL     1       2.576   4.940 -14.231  0.00  0.00    +0.214 C 
ENDBRANCH  24  26
ENDBRANCH  23  24
ENDBRANCH  22  23
ENDBRANCH  21  22
ENDBRANCH  15  21
ENDBRANCH   1  18
TORSDOF 8
ENDMDL
MODEL 7
REMARK VINA RESULT:      -7.6      4.201      7.228
REMARK  Name = 
REMARK  8 active torsions:
REMARK  status: ('A' for Active; 'I' for Inactive)
REMARK    1  A    between atoms: C_2  and  C_3
REMARK    2  A    between atoms: C_3  and  O_4
REMARK    3  A    between atoms: O_4  and  C_5
REMARK    4  A    between atoms: C_5  and  C_6
REMARK    5  A    between atoms: C_6  and  N_7
REMARK    6  A    between atoms: N_10  and  C_11
REMARK    7  A    between atoms: C_11  and  C_12
REMARK    8  A    between atoms: C_11  and  C_18
REMARK                            x       y       z     vdW  Elec       q    Type
REMARK                         _______ _______ _______ _____ _____    ______ ____
ROOT
ATOM      1  C   UNL     1       2.780   6.871  -6.330  0.00  0.00    +0.103 C 
ENDROOT
BRANCH   1   2
ATOM      2  C   UNL     1       1.601   5.760  -6.012  0.00  0.00    -0.004 A 
ATOM      3  C   UNL     1       0.704   6.215  -5.052  0.00  0.00    -0.002 A 
ATOM      4  C   UNL     1      -0.622   5.818  -5.033  0.00  0.00    +0.011 A 
ATOM      5  C   UNL     1      -1.166   5.548  -6.283  0.00  0.00    +0.058 A 
ATOM      6 CL   UNL     1      -2.924   5.512  -6.338  0.00  0.00    -0.082 Cl
ATOM      7  C   UNL     1      -0.374   5.386  -7.396  0.00  0.00    +0.011 A 
ATOM      8  C   UNL     1       1.005   5.462  -7.236  0.00  0.00    -0.002 A 
ENDBRANCH   1   2
BRANCH   1   9
ATOM      9  C   UNL     1       3.127   6.193  -7.789  0.00  0.00    -0.004 A 
ATOM     10  C   UNL     1       3.927   5.109  -7.768  0.00  0.00    -0.003 A 
ATOM     11  C   UNL     1       4.291   4.573  -8.998  0.00  0.00    -0.000 A 
ATOM     12  C   UNL     1       4.223   5.400 -10.113  0.00  0.00    -0.000 A 
ATOM     13  C   UNL     1       3.714   6.685 -10.017  0.00  0.00    -0.000 A 
ATOM     14  C   UNL     1       3.147   7.101  -8.821  0.00  0.00    -0.003 A 
ENDBRANCH   1   9
BRANCH   1  18
ATOM     15  N   UNL     1       4.415   6.533  -2.728  0.00  0.00    -0.268 NA
ATOM     16  C   UNL     1       4.535   7.543  -3.748  0.00  0.00    +0.090 C 
ATOM     17  C   UNL     1       4.851   6.996  -5.109  0.00  0.00    +0.090 C 
ATOM     18  N   UNL     1       3.909   6.008  -5.567  0.00  0.00    -0.264 NA
ATOM     19  C   UNL     1       3.088   5.568  -4.445  0.00  0.00    +0.090 C 
ATOM     20  C   UNL     1       3.933   5.268  -3.238  0.00  0.00    +0.090 C 
BRANCH  15  21
ATOM     21  C   UNL     1       3.407   7.023  -1.790  0.00  0.00    +0.105 C 
BRANCH  21  22
ATOM     22  C   UNL     1       3.324   6.058  -0.615  0.00  0.00    +0.160 C 
BRANCH  22  23
ATOM     23  O   UNL     1       1.999   6.065  -0.183  0.00  0.00    -0.350 OA
BRANCH  23  24
ATOM     24  C   UNL     1       1.118   6.309  -1.247  0.00  0.00    +0.178 C 
BRANCH  24  26
ATOM     25  O   UNL     1       0.388   4.601  -1.528  0.00  0.00    -0.218 OA
ATOM     26  C   UNL     1       0.431   4.978  -1.531  0.00  0.00    +0.214 C 
ENDBRANCH  24  26
ENDBRANCH  23  24
ENDBRANCH  22  23
ENDBRANCH  21  22
ENDBRANCH  15  21
ENDBRANCH   1  18
TORSDOF 8
ENDMDL
MODEL 8
REMARK VINA RESULT:      -7.6      3.326      5.183
REMARK  Name = 
REMARK  8 active torsions:
REMARK  status: ('A' for Active; 'I' for Inactive)
REMARK    1  A    between atoms: C_2  and  C_3
REMARK    2  A    between atoms: C_3  and  O_4
REMARK    3  A    between atoms: O_4  and  C_5
REMARK    4  A    between atoms: C_5  and  C_6
REMARK    5  A    between atoms: C_6  and  N_7
REMARK    6  A    between atoms: N_10  and  C_11
REMARK    7  A    between atoms: C_11  and  C_12
REMARK    8  A    between atoms: C_11  and  C_18
REMARK                            x       y       z     vdW  Elec       q    Type
REMARK                         _______ _______ _______ _____ _____    ______ ____
ROOT
ATOM      1  C   UNL     1       1.666   4.869  -8.999  0.00  0.00    +0.103 C 
ENDROOT
BRANCH   1   2
ATOM      2  C   UNL     1       0.454   5.345 -10.015  0.00  0.00    -0.004 A 
ATOM      3  C   UNL     1       0.507   6.709 -10.281  0.00  0.00    -0.002 A 
ATOM      4  C   UNL     1       0.060   7.246 -11.476  0.00  0.00    +0.011 A 
ATOM      5  C   UNL     1       0.209   6.412 -12.579  0.00  0.00    +0.058 A 
ATOM      6 CL   UNL     1       0.104   7.217 -14.140  0.00  0.00    -0.082 Cl
ATOM      7  C   UNL     1       0.479   5.071 -12.439  0.00  0.00    +0.011 A 
ATOM      8  C   UNL     1       0.565   4.550 -11.153  0.00  0.00    -0.002 A 
ENDBRANCH   1   2
BRANCH   1   9
ATOM      9  C   UNL     1       0.797   5.265  -7.659  0.00  0.00    -0.004 A 
ATOM     10  C   UNL     1       1.230   4.746  -6.492  0.00  0.00    -0.003 A 
ATOM     11  C   UNL     1       0.461   5.009  -5.364  0.00  0.00    -0.000 A 
ATOM     12  C   UNL     1      -0.872   5.353  -5.552  0.00  0.00    -0.000 A 
ATOM     13  C   UNL     1      -1.392   5.525  -6.826  0.00  0.00    -0.000 A 
ATOM     14  C   UNL     1      -0.535   5.481  -7.917  0.00  0.00    -0.003 A 
ENDBRANCH   1   9
BRANCH   1  18
ATOM     15  N   UNL     1       5.317   6.428  -9.002  0.00  0.00    -0.268 NA
ATOM     16  C   UNL     1       4.536   5.812  -7.961  0.00  0.00    +0.090 C 
ATOM     17  C   UNL     1       3.147   6.367  -7.835  0.00  0.00    +0.090 C 
ATOM     18  N   UNL     1       2.389   6.309  -9.058  0.00  0.00    -0.264 NA
ATOM     19  C   UNL     1       3.289   6.026 -10.170  0.00  0.00    +0.090 C 
ATOM     20  C   UNL     1       4.515   6.894 -10.111  0.00  0.00    +0.090 C 
BRANCH  15  21
ATOM     21  C   UNL     1       6.193   5.380  -9.524  0.00  0.00    +0.105 C 
BRANCH  21  22
ATOM     22  C   UNL     1       7.518   6.010  -9.930  0.00  0.00    +0.160 C 
BRANCH  22  23
ATOM     23  O   UNL     1       8.147   5.106 -10.785  0.00  0.00    -0.350 OA
BRANCH  23  24
ATOM     24  C   UNL     1       8.553   5.729 -11.975  0.00  0.00    +0.178 C 
BRANCH  24  26
ATOM     25  O   UNL     1       7.502   4.930 -13.311  0.00  0.00    -0.218 OA
ATOM     26  C   UNL     1       7.634   5.185 -13.063  0.00  0.00    +0.214 C 
ENDBRANCH  24  26
ENDBRANCH  23  24
ENDBRANCH  22  23
ENDBRANCH  21  22
ENDBRANCH  15  21
ENDBRANCH   1  18
TORSDOF 8
ENDMDL
MODEL 9
REMARK VINA RESULT:      -7.5      4.174      8.079
REMARK  Name = 
REMARK  8 active torsions:
REMARK  status: ('A' for Active; 'I' for Inactive)
REMARK    1  A    between atoms: C_2  and  C_3
REMARK    2  A    between atoms: C_3  and  O_4
REMARK    3  A    between atoms: O_4  and  C_5
REMARK    4  A    between atoms: C_5  and  C_6
REMARK    5  A    between atoms: C_6  and  N_7
REMARK    6  A    between atoms: N_10  and  C_11
REMARK    7  A    between atoms: C_11  and  C_12
REMARK    8  A    between atoms: C_11  and  C_18
REMARK                            x       y       z     vdW  Elec       q    Type
REMARK                         _______ _______ _______ _____ _____    ______ ____
ROOT
ATOM      1  C   UNL     1       3.489   6.465  -9.441  0.00  0.00    +0.103 C 
ENDROOT
BRANCH   1   2
ATOM      2  C   UNL     1       2.891   5.383 -10.536  0.00  0.00    -0.004 A 
ATOM      3  C   UNL     1       1.522   5.535 -10.721  0.00  0.00    -0.002 A 
ATOM      4  C   UNL     1       0.901   5.233 -11.921  0.00  0.00    +0.011 A 
ATOM      5  C   UNL     1       1.687   5.439 -13.049  0.00  0.00    +0.058 A 
ATOM      6 CL   UNL     1       0.802   5.526 -14.568  0.00  0.00    -0.082 Cl
ATOM      7  C   UNL     1       3.047   5.620 -12.959  0.00  0.00    +0.011 A 
ATOM      8  C   UNL     1       3.635   5.556 -11.701  0.00  0.00    -0.002 A 
ENDBRANCH   1   2
BRANCH   1   9
ATOM      9  C   UNL     1       4.985   6.443 -10.125  0.00  0.00    -0.004 A 
ATOM     10  C   UNL     1       5.913   5.687  -9.506  0.00  0.00    -0.003 A 
ATOM     11  C   UNL     1       7.201   5.720 -10.028  0.00  0.00    -0.000 A 
ATOM     12  C   UNL     1       7.561   6.817 -10.801  0.00  0.00    -0.000 A 
ATOM     13  C   UNL     1       6.635   7.797 -11.122  0.00  0.00    -0.000 A 
ATOM     14  C   UNL     1       5.304   7.610 -10.776  0.00  0.00    -0.003 A 
ENDBRANCH   1   9
BRANCH   1  18
ATOM     15  N   UNL     1       2.017   4.752  -6.175  0.00  0.00    -0.268 NA
ATOM     16  C   UNL     1       2.607   6.046  -6.399  0.00  0.00    +0.090 C 
ATOM     17  C   UNL     1       3.923   5.997  -7.120  0.00  0.00    +0.090 C 
ATOM     18  N   UNL     1       3.864   5.307  -8.383  0.00  0.00    -0.264 NA
ATOM     19  C   UNL     1       2.615   4.559  -8.466  0.00  0.00    +0.090 C 
ATOM     20  C   UNL     1       2.357   3.790  -7.200  0.00  0.00    +0.090 C 
BRANCH  15  21
ATOM     21  C   UNL     1       0.570   4.950  -6.244  0.00  0.00    +0.105 C 
BRANCH  21  22
ATOM     22  C   UNL     1       0.147   5.855  -5.095  0.00  0.00    +0.160 C 
BRANCH  22  23
ATOM     23  O   UNL     1       0.380   5.146  -3.918  0.00  0.00    -0.350 OA
BRANCH  23  24
ATOM     24  C   UNL     1       0.831   5.994  -2.894  0.00  0.00    +0.178 C 
BRANCH  24  26
ATOM     25  O   UNL     1       2.569   5.351  -2.594  0.00  0.00    -0.218 OA
ATOM     26  C   UNL     1       2.275   5.588  -2.625  0.00  0.00    +0.214 C 
ENDBRANCH  24  26
ENDBRANCH  23  24
ENDBRANCH  22  23
ENDBRANCH  21  22
ENDBRANCH  15  21
ENDBRANCH   1  18
TORSDOF 8
ENDMDL
