MODEL 1
REMARK VINA RESULT:      -8.3      0.000      0.000
REMARK  Name = 
REMARK  9 active torsions:
REMARK  status: ('A' for Active; 'I' for Inactive)
REMARK    1  A    between atoms: N_2  and  C_3
REMARK    2  A    between atoms: C_8  and  C_9
REMARK    3  A    between atoms: C_12  and  O_13
REMARK    4  A    between atoms: O_13  and  C_14
REMARK    5  A    between atoms: C_15  and  O_16
REMARK    6  A    between atoms: O_16  and  C_17
REMARK    7  A    between atoms: C_22  and  N_23
REMARK    8  A    between atoms: C_29  and  N_30
REMARK    9  A    between atoms: C_37  and  C_39
REMARK                            x       y       z     vdW  Elec       q    Type
REMARK                         _______ _______ _______ _____ _____    ______ ____
ROOT
ATOM      1  C   UNL     1       1.498   6.238  -5.620  0.00  0.00    +0.211 C 
ATOM      2  C   UNL     1      -0.103   6.476  -5.490  0.00  0.00    +0.238 C 
ATOM      3  O   UNL     1      -0.708   5.507  -4.832  0.00  0.00    -0.212 OA
ATOM      4  C   UNL     1      -0.579   6.439  -7.078  0.00  0.00    +0.155 C 
ATOM      5  C   UNL     1      -0.872   4.778  -7.054  0.00  0.00    +0.035 C 
ATOM      6  O   UNL     1       0.838   6.349  -7.681  0.00  0.00    -0.328 OA
ATOM      7  C   UNL     1       1.149   5.057  -6.891  0.00  0.00    +0.267 C 
ENDROOT
BRANCH   2   8
ATOM      8  C   UNL     1      -0.397   7.859  -5.199  0.00  0.00    +0.242 C 
ATOM      9  O   UNL     1      -1.406   8.346  -4.751  0.00  0.00    -0.285 OA
ENDBRANCH   2   8
BRANCH   1  10
ATOM     10  O   UNL     1       1.564   5.203  -4.503  0.00  0.00    -0.324 OA
BRANCH  10  12
ATOM     11  C   UNL     1       1.504   6.142  -2.262  0.00  0.00    +0.162 C 
ATOM     12  C   UNL     1       2.520   6.121  -3.690  0.00  0.00    +0.255 C 
ATOM     13  O   UNL     1       3.368   4.913  -3.233  0.00  0.00    -0.326 OA
ATOM     14  C   UNL     1       4.634   5.638  -2.761  0.00  0.00    +0.183 C 
ATOM     15  C   UNL     1       3.782   6.685  -1.666  0.00  0.00    +0.213 C 
ATOM     16  O   UNL     1       4.700   6.292  -0.540  0.00  0.00    -0.218 OA
ATOM     17  C   UNL     1       2.676   5.439  -1.232  0.00  0.00    +0.205 C 
ATOM     18  O   UNL     1       2.193   6.229  -0.037  0.00  0.00    -0.219 OA
BRANCH  14  19
ATOM     19  C   UNL     1       4.673   6.741  -3.997  0.00  0.00    +0.214 C 
ATOM     20  O   UNL     1       5.890   7.272  -4.067  0.00  0.00    -0.218 OA
ENDBRANCH  14  19
BRANCH  11  22
ATOM     21  C   UNL     1       0.068   4.827  -1.954  0.00  0.00    +0.108 C 
ATOM     22  N   UNL     1       0.845   4.757  -2.457  0.00  0.00    -0.210 NA
ENDBRANCH  11  22
ENDBRANCH  10  12
ENDBRANCH   1  10
BRANCH   7  23
ATOM     23  O   UNL     1       2.606   4.917  -7.316  0.00  0.00    -0.325 OA
BRANCH  23  24
ATOM     24  C   UNL     1       2.965   5.955  -8.328  0.00  0.00    +0.193 C 
ATOM     25  C   UNL     1       2.622   5.049  -9.760  0.00  0.00    +0.244 C 
ATOM     26  C   UNL     1       3.473   6.171 -10.753  0.00  0.00    +0.236 C 
ATOM     27  O   UNL     1       3.062   5.437 -12.011  0.00  0.00    -0.215 OA
ATOM     28  C   UNL     1       4.956   5.327 -10.619  0.00  0.00    +0.247 C 
ATOM     29  C   UNL     1       5.261   6.400  -9.310  0.00  0.00    +0.227 C 
ATOM     30  O   UNL     1       6.620   5.779  -9.080  0.00  0.00    -0.216 OA
ATOM     31  C   UNL     1       4.560   5.264  -8.233  0.00  0.00    +0.216 C 
ATOM     32  O   UNL     1       4.912   6.116  -7.042  0.00  0.00    -0.218 OA
BRANCH  28  33
ATOM     33  N   UNL     1       5.627   6.277 -11.654  0.00  0.00    -0.085 NA
ATOM     34  C   UNL     1       6.374   5.597 -12.659  0.00  0.00    +0.535 C 
ATOM     35  N   UNL     1       6.498   6.065 -13.999  0.00  0.00    +0.135 NA
ATOM     36  N   UNL     1       7.251   4.761 -12.247  0.00  0.00    +0.135 NA
ENDBRANCH  28  33
BRANCH  25  37
ATOM     37  N   UNL     1       1.415   5.935 -10.167  0.00  0.00    -0.085 NA
ATOM     38  C   UNL     1       0.325   5.406 -10.825  0.00  0.00    +0.535 C 
ATOM     39  N   UNL     1      -0.728   6.333 -11.103  0.00  0.00    +0.135 NA
ATOM     40  N   UNL     1      -0.043   4.237 -10.492  0.00  0.00    +0.135 NA
ENDBRANCH  25  37
ENDBRANCH  23  24
ENDBRANCH   7  23
TORSDOF 9
ENDMDL
MODEL 2
REMARK VINA RESULT:      -7.8      2.806      5.950
REMARK  Name = 
REMARK  9 active torsions:
REMARK  status: ('A' for Active; 'I' for Inactive)
REMARK    1  A    between atoms: N_2  and  C_3
REMARK    2  A    between atoms: C_8  and  C_9
REMARK    3  A    between atoms: C_12  and  O_13
REMARK    4  A    between atoms: O_13  and  C_14
REMARK    5  A    between atoms: C_15  and  O_16
REMARK    6  A    between atoms: O_16  and  C_17
REMARK    7  A    between atoms: C_22  and  N_23
REMARK    8  A    between atoms: C_29  and  N_30
REMARK    9  A    between atoms: C_37  and  C_39
REMARK                            x       y       z     vdW  Elec       q    Type
REMARK                         _______ _______ _______ _____ _____    ______ ____
ROOT
ATOM      1  C   UNL     1       1.563   5.667  -2.133  0.00  0.00    +0.211 C 
ATOM      2  C   UNL     1       2.937   5.197  -1.405  0.00  0.00    +0.238 C 
ATOM      3  O   UNL     1       3.550   6.189  -0.791  0.00  0.00    -0.212 OA
ATOM      4  C   UNL     1       3.852   4.704  -2.697  0.00  0.00    +0.155 C 
ATOM      5  C   UNL     1       4.543   6.227  -2.914  0.00  0.00    +0.035 C 
ATOM      6  O   UNL     1       2.749   4.869  -3.763  0.00  0.00    -0.328 OA
ATOM      7  C   UNL     1       2.564   6.364  -3.416  0.00  0.00    +0.267 C 
ENDROOT
BRANCH   2   8
ATOM      8  C   UNL     1       2.764   3.922  -0.752  0.00  0.00    +0.242 C 
ATOM      9  O   UNL     1       3.602   3.131  -0.390  0.00  0.00    -0.285 OA
ENDBRANCH   2   8
BRANCH   1  10
ATOM     10  O   UNL     1       1.442   6.967  -1.348  0.00  0.00    -0.324 OA
BRANCH  10  12
ATOM     11  C   UNL     1       0.615   7.153   0.930  0.00  0.00    +0.162 C 
ATOM     12  C   UNL     1       0.192   6.417  -0.604  0.00  0.00    +0.255 C 
ATOM     13  O   UNL     1      -0.675   7.601  -1.086  0.00  0.00    -0.326 OA
ATOM     14  C   UNL     1      -2.074   7.035  -0.818  0.00  0.00    +0.183 C 
ATOM     15  C   UNL     1      -1.756   6.694   0.857  0.00  0.00    +0.213 C 
ATOM     16  O   UNL     1      -2.990   7.450   1.269  0.00  0.00    -0.218 OA
ATOM     17  C   UNL     1      -0.797   8.113   1.031  0.00  0.00    +0.205 C 
ATOM     18  O   UNL     1      -0.840   8.005   2.539  0.00  0.00    -0.219 OA
BRANCH  14  19
ATOM     19  C   UNL     1      -1.740   5.496  -1.333  0.00  0.00    +0.214 C 
ATOM     20  O   UNL     1      -2.795   5.018  -1.987  0.00  0.00    -0.218 OA
ENDBRANCH  14  19
BRANCH  11  22
ATOM     21  C   UNL     1       2.020   8.533   1.037  0.00  0.00    +0.108 C 
ATOM     22  N   UNL     1       1.397   8.363   0.369  0.00  0.00    -0.210 NA
ENDBRANCH  11  22
ENDBRANCH  10  12
ENDBRANCH   1  10
BRANCH   7  23
ATOM     23  O   UNL     1       1.384   6.633  -4.343  0.00  0.00    -0.325 OA
BRANCH  23  24
ATOM     24  C   UNL     1       1.270   5.564  -5.379  0.00  0.00    +0.193 C 
ATOM     25  C   UNL     1       2.008   6.402  -6.698  0.00  0.00    +0.244 C 
ATOM     26  C   UNL     1       1.411   5.261  -7.843  0.00  0.00    +0.236 C 
ATOM     27  O   UNL     1       2.163   5.933  -8.972  0.00  0.00    -0.215 OA
ATOM     28  C   UNL     1      -0.025   6.144  -8.134  0.00  0.00    +0.247 C 
ATOM     29  C   UNL     1      -0.700   5.133  -6.918  0.00  0.00    +0.227 C 
ATOM     30  O   UNL     1      -2.050   5.794  -7.075  0.00  0.00    -0.216 OA
ATOM     31  C   UNL     1      -0.270   6.295  -5.731  0.00  0.00    +0.216 C 
ATOM     32  O   UNL     1      -0.951   5.500  -4.649  0.00  0.00    -0.218 OA
BRANCH  28  33
ATOM     33  N   UNL     1      -0.432   5.169  -9.278  0.00  0.00    -0.085 NA
ATOM     34  C   UNL     1      -0.148   5.664 -10.583  0.00  0.00    +0.535 C 
ATOM     35  N   UNL     1       0.221   4.829 -11.678  0.00  0.00    +0.135 NA
ATOM     36  N   UNL     1      -0.602   6.827 -10.862  0.00  0.00    +0.135 NA
ENDBRANCH  28  33
BRANCH  25  37
ATOM     37  N   UNL     1       3.249   5.472  -6.743  0.00  0.00    -0.085 NA
ATOM     38  C   UNL     1       4.530   5.982  -6.703  0.00  0.00    +0.535 C 
ATOM     39  N   UNL     1       5.574   5.004  -6.713  0.00  0.00    +0.135 NA
ATOM     40  N   UNL     1       4.730   6.994  -5.964  0.00  0.00    +0.135 NA
ENDBRANCH  25  37
ENDBRANCH  23  24
ENDBRANCH   7  23
TORSDOF 9
ENDMDL
MODEL 3
REMARK VINA RESULT:      -7.6      3.393      6.457
REMARK  Name = 
REMARK  9 active torsions:
REMARK  status: ('A' for Active; 'I' for Inactive)
REMARK    1  A    between atoms: N_2  and  C_3
REMARK    2  A    between atoms: C_8  and  C_9
REMARK    3  A    between atoms: C_12  and  O_13
REMARK    4  A    between atoms: O_13  and  C_14
REMARK    5  A    between atoms: C_15  and  O_16
REMARK    6  A    between atoms: O_16  and  C_17
REMARK    7  A    between atoms: C_22  and  N_23
REMARK    8  A    between atoms: C_29  and  N_30
REMARK    9  A    between atoms: C_37  and  C_39
REMARK                            x       y       z     vdW  Elec       q    Type
REMARK                         _______ _______ _______ _____ _____    ______ ____
ROOT
ATOM      1  C   UNL     1       0.041   8.019  -0.106  0.00  0.00    +0.211 C 
ATOM      2  C   UNL     1      -1.291   7.664   0.753  0.00  0.00    +0.238 C 
ATOM      3  O   UNL     1      -1.088   6.700   1.629  0.00  0.00    -0.212 OA
ATOM      4  C   UNL     1      -2.320   7.122  -0.429  0.00  0.00    +0.155 C 
ATOM      5  C   UNL     1      -1.835   5.516  -0.252  0.00  0.00    +0.035 C 
ATOM      6  O   UNL     1      -1.396   7.444  -1.622  0.00  0.00    -0.328 OA
ATOM      7  C   UNL     1      -0.265   6.556  -1.054  0.00  0.00    +0.267 C 
ENDROOT
BRANCH   2   8
ATOM      8  C   UNL     1      -1.995   8.865   1.131  0.00  0.00    +0.242 C 
ATOM      9  O   UNL     1      -1.552   9.923   1.509  0.00  0.00    -0.285 OA
ENDBRANCH   2   8
BRANCH   1  10
ATOM     10  O   UNL     1       1.002   7.341   0.864  0.00  0.00    -0.324 OA
BRANCH  10  12
ATOM     11  C   UNL     1       1.891   8.990   2.412  0.00  0.00    +0.162 C 
ATOM     12  C   UNL     1       1.999   8.525   0.726  0.00  0.00    +0.255 C 
ATOM     13  O   UNL     1       3.212   7.589   0.923  0.00  0.00    -0.326 OA
ATOM     14  C   UNL     1       4.335   8.489   0.393  0.00  0.00    +0.183 C 
ATOM     15  C   UNL     1       3.954   9.809   1.460  0.00  0.00    +0.213 C 
ATOM     16  O   UNL     1       5.383   9.870   1.930  0.00  0.00    -0.218 OA
ATOM     17  C   UNL     1       3.550   8.738   2.746  0.00  0.00    +0.205 C 
ATOM     18  O   UNL     1       3.585   9.869   3.750  0.00  0.00    -0.219 OA
BRANCH  14  19
ATOM     19  C   UNL     1       3.478   9.100  -0.886  0.00  0.00    +0.214 C 
ATOM     20  O   UNL     1       4.075   8.743  -2.020  0.00  0.00    -0.218 OA
ENDBRANCH  14  19
BRANCH  11  22
ATOM     21  C   UNL     1       1.047   7.795   3.735  0.00  0.00    +0.108 C 
ATOM     22  N   UNL     1       1.563   7.593   2.990  0.00  0.00    -0.210 NA
ENDBRANCH  11  22
ENDBRANCH  10  12
ENDBRANCH   1  10
BRANCH   7  23
ATOM     23  O   UNL     1       0.786   6.885  -2.107  0.00  0.00    -0.325 OA
BRANCH  23  24
ATOM     24  C   UNL     1       1.009   5.720  -3.015  0.00  0.00    +0.193 C 
ATOM     25  C   UNL     1       2.735   5.773  -3.083  0.00  0.00    +0.244 C 
ATOM     26  C   UNL     1       2.779   4.717  -4.445  0.00  0.00    +0.236 C 
ATOM     27  O   UNL     1       4.292   4.673  -4.418  0.00  0.00    -0.215 OA
ATOM     28  C   UNL     1       2.733   6.001  -5.576  0.00  0.00    +0.247 C 
ATOM     29  C   UNL     1       1.032   5.744  -5.552  0.00  0.00    +0.227 C 
ATOM     30  O   UNL     1       0.823   6.837  -6.575  0.00  0.00    -0.216 OA
ATOM     31  C   UNL     1       0.889   6.899  -4.291  0.00  0.00    +0.216 C 
ATOM     32  O   UNL     1      -0.613   6.795  -4.313  0.00  0.00    -0.218 OA
BRANCH  28  33
ATOM     33  N   UNL     1       2.943   5.011  -6.759  0.00  0.00    -0.085 NA
ATOM     34  C   UNL     1       3.813   5.503  -7.773  0.00  0.00    +0.535 C 
ATOM     35  N   UNL     1       4.677   4.670  -8.541  0.00  0.00    +0.135 NA
ATOM     36  N   UNL     1       3.531   6.655  -8.255  0.00  0.00    +0.135 NA
ENDBRANCH  28  33
BRANCH  25  37
ATOM     37  N   UNL     1       2.919   4.438  -2.316  0.00  0.00    -0.085 NA
ATOM     38  C   UNL     1       3.711   4.360  -1.189  0.00  0.00    +0.535 C 
ATOM     39  N   UNL     1       3.756   3.074  -0.564  0.00  0.00    +0.135 NA
ATOM     40  N   UNL     1       3.699   5.355  -0.401  0.00  0.00    +0.135 NA
ENDBRANCH  25  37
ENDBRANCH  23  24
ENDBRANCH   7  23
TORSDOF 9
ENDMDL
MODEL 4
REMARK VINA RESULT:      -7.6      3.270      6.094
REMARK  Name = 
REMARK  9 active torsions:
REMARK  status: ('A' for Active; 'I' for Inactive)
REMARK    1  A    between atoms: N_2  and  C_3
REMARK    2  A    between atoms: C_8  and  C_9
REMARK    3  A    between atoms: C_12  and  O_13
REMARK    4  A    between atoms: O_13  and  C_14
REMARK    5  A    between atoms: C_15  and  O_16
REMARK    6  A    between atoms: O_16  and  C_17
REMARK    7  A    between atoms: C_22  and  N_23
REMARK    8  A    between atoms: C_29  and  N_30
REMARK    9  A    between atoms: C_37  and  C_39
REMARK                            x       y       z     vdW  Elec       q    Type
REMARK                         _______ _______ _______ _____ _____    ______ ____
ROOT
ATOM      1  C   UNL     1       0.894   7.806  -0.151  0.00  0.00    +0.211 C 
ATOM      2  C   UNL     1      -0.363   8.199   0.799  0.00  0.00    +0.238 C 
ATOM      3  O   UNL     1      -0.467   7.413   1.852  0.00  0.00    -0.212 OA
ATOM      4  C   UNL     1      -1.649   7.930  -0.213  0.00  0.00    +0.155 C 
ATOM      5  C   UNL     1      -1.833   6.330   0.284  0.00  0.00    +0.035 C 
ATOM      6  O   UNL     1      -0.814   7.618  -1.472  0.00  0.00    -0.328 OA
ATOM      7  C   UNL     1      -0.078   6.459  -0.761  0.00  0.00    +0.267 C 
ENDROOT
BRANCH   2   8
ATOM      8  C   UNL     1      -0.479   9.631   0.936  0.00  0.00    +0.242 C 
ATOM      9  O   UNL     1      -1.243  10.273   1.616  0.00  0.00    -0.285 OA
ENDBRANCH   2   8
BRANCH   1  10
ATOM     10  O   UNL     1       1.604   6.977   0.912  0.00  0.00    -0.324 OA
BRANCH  10  12
ATOM     11  C   UNL     1       2.915   8.468   2.314  0.00  0.00    +0.162 C 
ATOM     12  C   UNL     1       2.909   7.792   0.696  0.00  0.00    +0.255 C 
ATOM     13  O   UNL     1       3.787   6.573   1.057  0.00  0.00    -0.326 OA
ATOM     14  C   UNL     1       5.134   7.035   0.491  0.00  0.00    +0.183 C 
ATOM     15  C   UNL     1       5.144   8.527   1.384  0.00  0.00    +0.213 C 
ATOM     16  O   UNL     1       6.519   8.224   1.918  0.00  0.00    -0.218 OA
ATOM     17  C   UNL     1       4.419   7.784   2.758  0.00  0.00    +0.205 C 
ATOM     18  O   UNL     1       4.771   8.967   3.632  0.00  0.00    -0.219 OA
BRANCH  14  19
ATOM     19  C   UNL     1       4.518   7.712  -0.891  0.00  0.00    +0.214 C 
ATOM     20  O   UNL     1       5.317   7.417  -1.913  0.00  0.00    -0.218 OA
ENDBRANCH  14  19
BRANCH  11  22
ATOM     21  C   UNL     1       1.783   7.730   3.750  0.00  0.00    +0.108 C 
ATOM     22  N   UNL     1       2.179   7.308   3.023  0.00  0.00    -0.210 NA
ENDBRANCH  11  22
ENDBRANCH  10  12
ENDBRANCH   1  10
BRANCH   7  23
ATOM     23  O   UNL     1       0.890   6.125  -1.890  0.00  0.00    -0.325 OA
BRANCH  23  24
ATOM     24  C   UNL     1       0.473   6.788  -3.161  0.00  0.00    +0.193 C 
ATOM     25  C   UNL     1      -0.353   5.454  -3.888  0.00  0.00    +0.244 C 
ATOM     26  C   UNL     1      -0.365   6.218  -5.432  0.00  0.00    +0.236 C 
ATOM     27  O   UNL     1      -1.194   5.102  -6.028  0.00  0.00    -0.215 OA
ATOM     28  C   UNL     1       1.119   5.513  -5.911  0.00  0.00    +0.247 C 
ATOM     29  C   UNL     1       1.818   6.963  -5.305  0.00  0.00    +0.227 C 
ATOM     30  O   UNL     1       3.201   6.495  -5.696  0.00  0.00    -0.216 OA
ATOM     31  C   UNL     1       2.001   6.218  -3.771  0.00  0.00    +0.216 C 
ATOM     32  O   UNL     1       2.723   7.422  -3.228  0.00  0.00    -0.218 OA
BRANCH  28  33
ATOM     33  N   UNL     1       0.971   6.095  -7.347  0.00  0.00    -0.085 NA
ATOM     34  C   UNL     1       1.257   5.156  -8.381  0.00  0.00    +0.535 C 
ATOM     35  N   UNL     1       0.602   5.156  -9.647  0.00  0.00    +0.135 NA
ATOM     36  N   UNL     1       2.382   4.551  -8.303  0.00  0.00    +0.135 NA
ENDBRANCH  28  33
BRANCH  25  37
ATOM     37  N   UNL     1      -1.751   6.119  -3.789  0.00  0.00    -0.085 NA
ATOM     38  C   UNL     1      -2.828   5.450  -3.248  0.00  0.00    +0.535 C 
ATOM     39  N   UNL     1      -4.043   6.201  -3.187  0.00  0.00    +0.135 NA
ATOM     40  N   UNL     1      -2.601   4.688  -2.258  0.00  0.00    +0.135 NA
ENDBRANCH  25  37
ENDBRANCH  23  24
ENDBRANCH   7  23
TORSDOF 9
ENDMDL
MODEL 5
REMARK VINA RESULT:      -7.2      2.473      4.965
REMARK  Name = 
REMARK  9 active torsions:
REMARK  status: ('A' for Active; 'I' for Inactive)
REMARK    1  A    between atoms: N_2  and  C_3
REMARK    2  A    between atoms: C_8  and  C_9
REMARK    3  A    between atoms: C_12  and  O_13
REMARK    4  A    between atoms: O_13  and  C_14
REMARK    5  A    between atoms: C_15  and  O_16
REMARK    6  A    between atoms: O_16  and  C_17
REMARK    7  A    between atoms: C_22  and  N_23
REMARK    8  A    between atoms: C_29  and  N_30
REMARK    9  A    between atoms: C_37  and  C_39
REMARK                            x       y       z     vdW  Elec       q    Type
REMARK                         _______ _______ _______ _____ _____    ______ ____
ROOT
ATOM      1  C   UNL     1      -0.080   6.941  -1.992  0.00  0.00    +0.211 C 
ATOM      2  C   UNL     1      -1.427   6.413  -1.254  0.00  0.00    +0.238 C 
ATOM      3  O   UNL     1      -1.393   5.119  -1.003  0.00  0.00    -0.212 OA
ATOM      4  C   UNL     1      -2.584   6.717  -2.404  0.00  0.00    +0.155 C 
ATOM      5  C   UNL     1      -2.426   5.192  -3.106  0.00  0.00    +0.035 C 
ATOM      6  O   UNL     1      -1.654   7.452  -3.392  0.00  0.00    -0.328 OA
ATOM      7  C   UNL     1      -0.707   6.234  -3.489  0.00  0.00    +0.267 C 
ENDROOT
BRANCH   2   8
ATOM      8  C   UNL     1      -1.862   7.348  -0.244  0.00  0.00    +0.242 C 
ATOM      9  O   UNL     1      -2.210   7.135   0.892  0.00  0.00    -0.285 OA
ENDBRANCH   2   8
BRANCH   1  10
ATOM     10  O   UNL     1       0.756   5.724  -1.619  0.00  0.00    -0.324 OA
BRANCH  10  12
ATOM     11  C   UNL     1       2.781   5.448  -0.304  0.00  0.00    +0.162 C 
ATOM     12  C   UNL     1       1.389   6.505  -0.433  0.00  0.00    +0.255 C 
ATOM     13  O   UNL     1       2.068   7.505  -1.393  0.00  0.00    -0.326 OA
ATOM     14  C   UNL     1       2.405   8.634  -0.411  0.00  0.00    +0.183 C 
ATOM     15  C   UNL     1       3.280   7.598   0.678  0.00  0.00    +0.213 C 
ATOM     16  O   UNL     1       4.465   8.525   0.643  0.00  0.00    -0.218 OA
ATOM     17  C   UNL     1       3.932   6.675  -0.620  0.00  0.00    +0.205 C 
ATOM     18  O   UNL     1       4.955   6.039   0.294  0.00  0.00    -0.219 OA
BRANCH  14  19
ATOM     19  C   UNL     1       0.985   8.552   0.439  0.00  0.00    +0.214 C 
ATOM     20  O   UNL     1       0.602   9.783   0.765  0.00  0.00    -0.218 OA
ENDBRANCH  14  19
BRANCH  11  22
ATOM     21  C   UNL     1       3.275   4.187  -1.737  0.00  0.00    +0.108 C 
ATOM     22  N   UNL     1       2.844   5.008  -1.785  0.00  0.00    -0.210 NA
ENDBRANCH  11  22
ENDBRANCH  10  12
ENDBRANCH   1  10
BRANCH   7  23
ATOM     23  O   UNL     1       0.353   6.883  -4.371  0.00  0.00    -0.325 OA
BRANCH  23  24
ATOM     24  C   UNL     1       1.066   5.856  -5.186  0.00  0.00    +0.193 C 
ATOM     25  C   UNL     1       2.309   6.864  -5.842  0.00  0.00    +0.244 C 
ATOM     26  C   UNL     1       2.726   5.689  -7.031  0.00  0.00    +0.236 C 
ATOM     27  O   UNL     1       3.889   6.528  -7.516  0.00  0.00    -0.215 OA
ATOM     28  C   UNL     1       1.645   6.328  -8.195  0.00  0.00    +0.247 C 
ATOM     29  C   UNL     1       0.542   5.165  -7.571  0.00  0.00    +0.227 C 
ATOM     30  O   UNL     1      -0.516   5.595  -8.560  0.00  0.00    -0.216 OA
ATOM     31  C   UNL     1      -0.033   6.331  -6.451  0.00  0.00    +0.216 C 
ATOM     32  O   UNL     1      -1.093   5.386  -5.952  0.00  0.00    -0.218 OA
BRANCH  28  33
ATOM     33  N   UNL     1       2.182   5.350  -9.280  0.00  0.00    -0.085 NA
ATOM     34  C   UNL     1       2.386   5.957 -10.552  0.00  0.00    +0.535 C 
ATOM     35  N   UNL     1       3.418   5.566 -11.455  0.00  0.00    +0.135 NA
ATOM     36  N   UNL     1       1.392   6.598 -11.042  0.00  0.00    +0.135 NA
ENDBRANCH  28  33
BRANCH  25  37
ATOM     37  N   UNL     1       3.449   6.161  -5.060  0.00  0.00    -0.085 NA
ATOM     38  C   UNL     1       4.490   6.877  -4.509  0.00  0.00    +0.535 C 
ATOM     39  N   UNL     1       5.447   6.100  -3.784  0.00  0.00    +0.135 NA
ATOM     40  N   UNL     1       4.216   8.014  -4.015  0.00  0.00    +0.135 NA
ENDBRANCH  25  37
ENDBRANCH  23  24
ENDBRANCH   7  23
TORSDOF 9
ENDMDL
MODEL 6
REMARK VINA RESULT:      -7.0      3.998      9.803
REMARK  Name = 
REMARK  9 active torsions:
REMARK  status: ('A' for Active; 'I' for Inactive)
REMARK    1  A    between atoms: N_2  and  C_3
REMARK    2  A    between atoms: C_8  and  C_9
REMARK    3  A    between atoms: C_12  and  O_13
REMARK    4  A    between atoms: O_13  and  C_14
REMARK    5  A    between atoms: C_15  and  O_16
REMARK    6  A    between atoms: O_16  and  C_17
REMARK    7  A    between atoms: C_22  and  N_23
REMARK    8  A    between atoms: C_29  and  N_30
REMARK    9  A    between atoms: C_37  and  C_39
REMARK                            x       y       z     vdW  Elec       q    Type
REMARK                         _______ _______ _______ _____ _____    ______ ____
ROOT
ATOM      1  C   UNL     1       2.859   7.186  -3.020  0.00  0.00    +0.211 C 
ATOM      2  C   UNL     1       4.429   6.779  -2.936  0.00  0.00    +0.238 C 
ATOM      3  O   UNL     1       4.612   5.475  -2.873  0.00  0.00    -0.212 OA
ATOM      4  C   UNL     1       4.879   7.465  -1.494  0.00  0.00    +0.155 C 
ATOM      5  C   UNL     1       4.520   6.075  -0.609  0.00  0.00    +0.035 C 
ATOM      6  O   UNL     1       3.542   8.185  -1.222  0.00  0.00    -0.328 OA
ATOM      7  C   UNL     1       2.753   6.857  -1.284  0.00  0.00    +0.267 C 
ENDROOT
BRANCH   2   8
ATOM      8  C   UNL     1       5.221   7.591  -3.828  0.00  0.00    +0.242 C 
ATOM      9  O   UNL     1       4.934   8.031  -4.916  0.00  0.00    -0.285 OA
ENDBRANCH   2   8
BRANCH   1  10
ATOM     10  O   UNL     1       2.390   5.798  -3.438  0.00  0.00    -0.324 OA
BRANCH  10  12
ATOM     11  C   UNL     1       2.691   5.399  -5.817  0.00  0.00    +0.162 C 
ATOM     12  C   UNL     1       1.744   6.389  -4.723  0.00  0.00    +0.255 C 
ATOM     13  O   UNL     1       0.560   5.400  -4.640  0.00  0.00    -0.326 OA
ATOM     14  C   UNL     1      -0.434   6.092  -5.580  0.00  0.00    +0.183 C 
ATOM     15  C   UNL     1       0.676   6.154  -6.917  0.00  0.00    +0.213 C 
ATOM     16  O   UNL     1      -0.340   5.506  -7.819  0.00  0.00    -0.218 OA
ATOM     17  C   UNL     1       1.341   4.616  -6.519  0.00  0.00    +0.205 C 
ATOM     18  O   UNL     1       2.019   4.518  -7.867  0.00  0.00    -0.219 OA
BRANCH  14  19
ATOM     19  C   UNL     1      -0.112   7.635  -5.068  0.00  0.00    +0.214 C 
ATOM     20  O   UNL     1      -1.260   8.276  -4.870  0.00  0.00    -0.218 OA
ENDBRANCH  14  19
BRANCH  11  22
ATOM     21  C   UNL     1       3.735   3.875  -5.129  0.00  0.00    +0.108 C 
ATOM     22  N   UNL     1       2.900   4.192  -4.874  0.00  0.00    -0.210 NA
ENDBRANCH  11  22
ENDBRANCH  10  12
ENDBRANCH   1  10
BRANCH   7  23
ATOM     23  O   UNL     1       1.358   7.455  -1.143  0.00  0.00    -0.325 OA
BRANCH  23  24
ATOM     24  C   UNL     1       0.526   6.644  -0.206  0.00  0.00    +0.193 C 
ATOM     25  C   UNL     1      -1.023   7.305  -0.598  0.00  0.00    +0.244 C 
ATOM     26  C   UNL     1      -1.744   6.620   0.809  0.00  0.00    +0.236 C 
ATOM     27  O   UNL     1      -3.118   7.099   0.392  0.00  0.00    -0.215 OA
ATOM     28  C   UNL     1      -1.438   8.004   1.769  0.00  0.00    +0.247 C 
ATOM     29  C   UNL     1      -0.001   7.174   2.219  0.00  0.00    +0.227 C 
ATOM     30  O   UNL     1       0.400   8.306   3.138  0.00  0.00    -0.216 OA
ATOM     31  C   UNL     1       0.828   7.935   0.923  0.00  0.00    +0.216 C 
ATOM     32  O   UNL     1       2.136   7.323   1.349  0.00  0.00    -0.218 OA
BRANCH  28  33
ATOM     33  N   UNL     1      -2.248   7.402   2.954  0.00  0.00    -0.085 NA
ATOM     34  C   UNL     1      -3.454   8.105   3.243  0.00  0.00    +0.535 C 
ATOM     35  N   UNL     1      -4.634   7.474   3.732  0.00  0.00    +0.135 NA
ATOM     36  N   UNL     1      -3.346   9.367   3.426  0.00  0.00    +0.135 NA
ENDBRANCH  28  33
BRANCH  25  37
ATOM     37  N   UNL     1      -1.546   5.993  -1.239  0.00  0.00    -0.085 NA
ATOM     38  C   UNL     1      -2.574   6.003  -2.158  0.00  0.00    +0.535 C 
ATOM     39  N   UNL     1      -2.924   4.723  -2.693  0.00  0.00    +0.135 NA
ATOM     40  N   UNL     1      -2.612   6.972  -2.977  0.00  0.00    +0.135 NA
ENDBRANCH  25  37
ENDBRANCH  23  24
ENDBRANCH   7  23
TORSDOF 9
ENDMDL
MODEL 7
REMARK VINA RESULT:      -6.8      3.327      6.457
REMARK  Name = 
REMARK  9 active torsions:
REMARK  status: ('A' for Active; 'I' for Inactive)
REMARK    1  A    between atoms: N_2  and  C_3
REMARK    2  A    between atoms: C_8  and  C_9
REMARK    3  A    between atoms: C_12  and  O_13
REMARK    4  A    between atoms: O_13  and  C_14
REMARK    5  A    between atoms: C_15  and  O_16
REMARK    6  A    between atoms: O_16  and  C_17
REMARK    7  A    between atoms: C_22  and  N_23
REMARK    8  A    between atoms: C_29  and  N_30
REMARK    9  A    between atoms: C_37  and  C_39
REMARK                            x       y       z     vdW  Elec       q    Type
REMARK                         _______ _______ _______ _____ _____    ______ ____
ROOT
ATOM      1  C   UNL     1       2.107   7.090  -0.219  0.00  0.00    +0.211 C 
ATOM      2  C   UNL     1       3.269   7.857   0.616  0.00  0.00    +0.238 C 
ATOM      3  O   UNL     1       3.163   9.169   0.546  0.00  0.00    -0.212 OA
ATOM      4  C   UNL     1       4.637   7.376  -0.189  0.00  0.00    +0.155 C 
ATOM      5  C   UNL     1       4.596   8.689  -1.246  0.00  0.00    +0.035 C 
ATOM      6  O   UNL     1       3.937   6.378  -1.135  0.00  0.00    -0.328 OA
ATOM      7  C   UNL     1       3.007   7.479  -1.693  0.00  0.00    +0.267 C 
ENDROOT
BRANCH   2   8
ATOM      8  C   UNL     1       3.511   7.205   1.881  0.00  0.00    +0.242 C 
ATOM      9  O   UNL     1       4.557   6.852   2.370  0.00  0.00    -0.285 OA
ENDBRANCH   2   8
BRANCH   1  10
ATOM     10  O   UNL     1       1.191   8.305  -0.308  0.00  0.00    -0.324 OA
BRANCH  10  12
ATOM     11  C   UNL     1      -0.069   8.543   1.757  0.00  0.00    +0.162 C 
ATOM     12  C   UNL     1       0.037   7.500   0.352  0.00  0.00    +0.255 C 
ATOM     13  O   UNL     1      -1.028   8.266  -0.463  0.00  0.00    -0.326 OA
ATOM     14  C   UNL     1      -2.229   7.331  -0.284  0.00  0.00    +0.183 C 
ATOM     15  C   UNL     1      -2.148   7.351   1.453  0.00  0.00    +0.213 C 
ATOM     16  O   UNL     1      -3.603   7.728   1.539  0.00  0.00    -0.218 OA
ATOM     17  C   UNL     1      -1.691   9.010   1.477  0.00  0.00    +0.205 C 
ATOM     18  O   UNL     1      -1.985   9.110   2.957  0.00  0.00    -0.219 OA
BRANCH  14  19
ATOM     19  C   UNL     1      -1.374   5.920  -0.441  0.00  0.00    +0.214 C 
ATOM     20  O   UNL     1      -2.097   5.049  -1.138  0.00  0.00    -0.218 OA
ENDBRANCH  14  19
BRANCH  11  22
ATOM     21  C   UNL     1       0.726  10.347   1.805  0.00  0.00    +0.108 C 
ATOM     22  N   UNL     1       0.423   9.845   1.084  0.00  0.00    -0.210 NA
ENDBRANCH  11  22
ENDBRANCH  10  12
ENDBRANCH   1  10
BRANCH   7  23
ATOM     23  O   UNL     1       2.156   6.580  -2.583  0.00  0.00    -0.325 OA
BRANCH  23  24
ATOM     24  C   UNL     1       2.057   7.141  -3.963  0.00  0.00    +0.193 C 
ATOM     25  C   UNL     1       0.704   6.220  -4.519  0.00  0.00    +0.244 C 
ATOM     26  C   UNL     1       1.007   6.644  -6.162  0.00  0.00    +0.236 C 
ATOM     27  O   UNL     1      -0.249   5.936  -6.623  0.00  0.00    -0.215 OA
ATOM     28  C   UNL     1       2.003   5.281  -6.441  0.00  0.00    +0.247 C 
ATOM     29  C   UNL     1       3.293   6.342  -6.029  0.00  0.00    +0.227 C 
ATOM     30  O   UNL     1       4.308   5.247  -6.265  0.00  0.00    -0.216 OA
ATOM     31  C   UNL     1       3.151   5.856  -4.390  0.00  0.00    +0.216 C 
ATOM     32  O   UNL     1       4.349   6.680  -4.001  0.00  0.00    -0.218 OA
BRANCH  28  33
ATOM     33  N   UNL     1       2.104   5.623  -7.956  0.00  0.00    -0.085 NA
ATOM     34  C   UNL     1       1.925   4.499  -8.813  0.00  0.00    +0.535 C 
ATOM     35  N   UNL     1       1.317   4.579 -10.100  0.00  0.00    +0.135 NA
ATOM     36  N   UNL     1       2.665   3.482  -8.578  0.00  0.00    +0.135 NA
ENDBRANCH  28  33
BRANCH  25  37
ATOM     37  N   UNL     1      -0.241   7.447  -4.603  0.00  0.00    -0.085 NA
ATOM     38  C   UNL     1      -1.612   7.300  -4.574  0.00  0.00    +0.535 C 
ATOM     39  N   UNL     1      -2.356   8.522  -4.622  0.00  0.00    +0.135 NA
ATOM     40  N   UNL     1      -2.084   6.397  -3.818  0.00  0.00    +0.135 NA
ENDBRANCH  25  37
ENDBRANCH  23  24
ENDBRANCH   7  23
TORSDOF 9
ENDMDL
MODEL 8
REMARK VINA RESULT:      -6.8      4.062      8.086
REMARK  Name = 
REMARK  9 active torsions:
REMARK  status: ('A' for Active; 'I' for Inactive)
REMARK    1  A    between atoms: N_2  and  C_3
REMARK    2  A    between atoms: C_8  and  C_9
REMARK    3  A    between atoms: C_12  and  O_13
REMARK    4  A    between atoms: O_13  and  C_14
REMARK    5  A    between atoms: C_15  and  O_16
REMARK    6  A    between atoms: O_16  and  C_17
REMARK    7  A    between atoms: C_22  and  N_23
REMARK    8  A    between atoms: C_29  and  N_30
REMARK    9  A    between atoms: C_37  and  C_39
REMARK                            x       y       z     vdW  Elec       q    Type
REMARK                         _______ _______ _______ _____ _____    ______ ____
ROOT
ATOM      1  C   UNL     1       2.566   7.464   1.227  0.00  0.00    +0.211 C 
ATOM      2  C   UNL     1       4.122   7.741   1.600  0.00  0.00    +0.238 C 
ATOM      3  O   UNL     1       4.489   8.983   1.353  0.00  0.00    -0.212 OA
ATOM      4  C   UNL     1       4.906   6.721   0.554  0.00  0.00    +0.155 C 
ATOM      5  C   UNL     1       5.035   7.894  -0.650  0.00  0.00    +0.035 C 
ATOM      6  O   UNL     1       3.639   6.043  -0.008  0.00  0.00    -0.328 OA
ATOM      7  C   UNL     1       3.057   7.398  -0.472  0.00  0.00    +0.267 C 
ENDROOT
BRANCH   2   8
ATOM      8  C   UNL     1       4.475   7.103   2.845  0.00  0.00    +0.242 C 
ATOM      9  O   UNL     1       5.483   6.505   3.137  0.00  0.00    -0.285 OA
ENDBRANCH   2   8
BRANCH   1  10
ATOM     10  O   UNL     1       2.179   8.937   1.189  0.00  0.00    -0.324 OA
BRANCH  10  12
ATOM     11  C   UNL     1       0.877   9.962   2.966  0.00  0.00    +0.162 C 
ATOM     12  C   UNL     1       0.812   8.611   1.852  0.00  0.00    +0.255 C 
ATOM     13  O   UNL     1       0.042   9.378   0.755  0.00  0.00    -0.326 OA
ATOM     14  C   UNL     1      -1.369   8.821   0.977  0.00  0.00    +0.183 C 
ATOM     15  C   UNL     1      -1.412   9.249   2.662  0.00  0.00    +0.213 C 
ATOM     16  O   UNL     1      -2.723   9.963   2.471  0.00  0.00    -0.218 OA
ATOM     17  C   UNL     1      -0.546  10.710   2.379  0.00  0.00    +0.205 C 
ATOM     18  O   UNL     1      -0.911  11.237   3.749  0.00  0.00    -0.219 OA
BRANCH  14  19
ATOM     19  C   UNL     1      -0.896   7.256   1.249  0.00  0.00    +0.214 C 
ATOM     20  O   UNL     1      -1.918   6.443   1.001  0.00  0.00    -0.218 OA
ENDBRANCH  14  19
BRANCH  11  22
ATOM     21  C   UNL     1       2.388  11.197   2.685  0.00  0.00    +0.108 C 
ATOM     22  N   UNL     1       1.733  10.908   2.093  0.00  0.00    -0.210 NA
ENDBRANCH  11  22
ENDBRANCH  10  12
ENDBRANCH   1  10
BRANCH   7  23
ATOM     23  O   UNL     1       1.711   6.874  -0.957  0.00  0.00    -0.325 OA
BRANCH  23  24
ATOM     24  C   UNL     1       1.895   5.862  -2.040  0.00  0.00    +0.193 C 
ATOM     25  C   UNL     1       2.172   6.944  -3.359  0.00  0.00    +0.244 C 
ATOM     26  C   UNL     1       1.923   5.696  -4.521  0.00  0.00    +0.236 C 
ATOM     27  O   UNL     1       2.287   6.623  -5.661  0.00  0.00    -0.215 OA
ATOM     28  C   UNL     1       0.247   6.014  -4.660  0.00  0.00    +0.247 C 
ATOM     29  C   UNL     1       0.081   4.796  -3.458  0.00  0.00    +0.227 C 
ATOM     30  O   UNL     1      -1.424   4.935  -3.482  0.00  0.00    -0.216 OA
ATOM     31  C   UNL     1       0.171   6.003  -2.242  0.00  0.00    +0.216 C 
ATOM     32  O   UNL     1      -0.089   4.989  -1.160  0.00  0.00    -0.218 OA
BRANCH  28  33
ATOM     33  N   UNL     1       0.115   4.989  -5.825  0.00  0.00    -0.085 NA
ATOM     34  C   UNL     1      -0.652   5.465  -6.927  0.00  0.00    +0.535 C 
ATOM     35  N   UNL     1      -0.396   5.102  -8.281  0.00  0.00    +0.135 NA
ATOM     36  N   UNL     1      -1.818   5.919  -6.653  0.00  0.00    +0.135 NA
ENDBRANCH  28  33
BRANCH  25  37
ATOM     37  N   UNL     1       3.653   6.522  -3.543  0.00  0.00    -0.085 NA
ATOM     38  C   UNL     1       4.579   7.375  -4.104  0.00  0.00    +0.535 C 
ATOM     39  N   UNL     1       5.913   6.865  -4.174  0.00  0.00    +0.135 NA
ATOM     40  N   UNL     1       4.475   8.609  -3.825  0.00  0.00    +0.135 NA
ENDBRANCH  25  37
ENDBRANCH  23  24
ENDBRANCH   7  23
TORSDOF 9
ENDMDL
MODEL 9
REMARK VINA RESULT:      -6.5      2.078      4.923
REMARK  Name = 
REMARK  9 active torsions:
REMARK  status: ('A' for Active; 'I' for Inactive)
REMARK    1  A    between atoms: N_2  and  C_3
REMARK    2  A    between atoms: C_8  and  C_9
REMARK    3  A    between atoms: C_12  and  O_13
REMARK    4  A    between atoms: O_13  and  C_14
REMARK    5  A    between atoms: C_15  and  O_16
REMARK    6  A    between atoms: O_16  and  C_17
REMARK    7  A    between atoms: C_22  and  N_23
REMARK    8  A    between atoms: C_29  and  N_30
REMARK    9  A    between atoms: C_37  and  C_39
REMARK                            x       y       z     vdW  Elec       q    Type
REMARK                         _______ _______ _______ _____ _____    ______ ____
ROOT
ATOM      1  C   UNL     1       2.139   5.723  -4.990  0.00  0.00    +0.211 C 
ATOM      2  C   UNL     1       3.447   5.762  -4.028  0.00  0.00    +0.238 C 
ATOM      3  O   UNL     1       3.536   6.882  -3.338  0.00  0.00    -0.212 OA
ATOM      4  C   UNL     1       4.682   5.702  -5.134  0.00  0.00    +0.155 C 
ATOM      5  C   UNL     1       4.782   7.381  -5.260  0.00  0.00    +0.035 C 
ATOM      6  O   UNL     1       3.790   5.495  -6.376  0.00  0.00    -0.328 OA
ATOM      7  C   UNL     1       3.007   6.799  -6.096  0.00  0.00    +0.267 C 
ENDROOT
BRANCH   2   8
ATOM      8  C   UNL     1       3.655   4.485  -3.388  0.00  0.00    +0.242 C 
ATOM      9  O   UNL     1       3.874   4.241  -2.226  0.00  0.00    -0.285 OA
ENDBRANCH   2   8
BRANCH   1  10
ATOM     10  O   UNL     1       1.414   6.849  -4.264  0.00  0.00    -0.324 OA
BRANCH  10  12
ATOM     11  C   UNL     1       0.085   5.544  -2.703  0.00  0.00    +0.162 C 
ATOM     12  C   UNL     1       0.071   6.073  -4.373  0.00  0.00    +0.255 C 
ATOM     13  O   UNL     1      -0.747   7.355  -4.101  0.00  0.00    -0.326 OA
ATOM     14  C   UNL     1      -2.127   6.901  -4.590  0.00  0.00    +0.183 C 
ATOM     15  C   UNL     1      -2.171   5.496  -3.567  0.00  0.00    +0.213 C 
ATOM     16  O   UNL     1      -3.516   5.902  -3.028  0.00  0.00    -0.218 OA
ATOM     17  C   UNL     1      -1.378   6.326  -2.284  0.00  0.00    +0.205 C 
ATOM     18  O   UNL     1      -1.751   5.240  -1.299  0.00  0.00    -0.219 OA
BRANCH  14  19
ATOM     19  C   UNL     1      -1.578   6.081  -5.921  0.00  0.00    +0.214 C 
ATOM     20  O   UNL     1      -2.578   5.935  -6.785  0.00  0.00    -0.218 OA
ENDBRANCH  14  19
BRANCH  11  22
ATOM     21  C   UNL     1       1.187   6.394  -1.306  0.00  0.00    +0.108 C 
ATOM     22  N   UNL     1       0.886   6.729  -2.118  0.00  0.00    -0.210 NA
ENDBRANCH  11  22
ENDBRANCH  10  12
ENDBRANCH   1  10
BRANCH   7  23
ATOM     23  O   UNL     1       1.984   6.654  -7.217  0.00  0.00    -0.325 OA
BRANCH  23  24
ATOM     24  C   UNL     1       2.404   5.597  -8.184  0.00  0.00    +0.193 C 
ATOM     25  C   UNL     1       2.995   6.621  -9.446  0.00  0.00    +0.244 C 
ATOM     26  C   UNL     1       3.009   5.325 -10.581  0.00  0.00    +0.236 C 
ATOM     27  O   UNL     1       3.641   6.201 -11.641  0.00  0.00    -0.215 OA
ATOM     28  C   UNL     1       1.416   5.639 -11.121  0.00  0.00    +0.247 C 
ATOM     29  C   UNL     1       0.960   4.474  -9.942  0.00  0.00    +0.227 C 
ATOM     30  O   UNL     1      -0.496   4.614 -10.324  0.00  0.00    -0.216 OA
ATOM     31  C   UNL     1       0.777   5.732  -8.789  0.00  0.00    +0.216 C 
ATOM     32  O   UNL     1       0.260   4.765  -7.757  0.00  0.00    -0.218 OA
BRANCH  28  33
ATOM     33  N   UNL     1       1.548   4.566 -12.241  0.00  0.00    -0.085 NA
ATOM     34  C   UNL     1       1.575   5.109 -13.558  0.00  0.00    +0.535 C 
ATOM     35  N   UNL     1       2.317   4.535 -14.631  0.00  0.00    +0.135 NA
ATOM     36  N   UNL     1       0.617   5.899 -13.867  0.00  0.00    +0.135 NA
ENDBRANCH  28  33
BRANCH  25  37
ATOM     37  N   UNL     1       4.472   6.188  -9.260  0.00  0.00    -0.085 NA
ATOM     38  C   UNL     1       5.463   6.634 -10.109  0.00  0.00    +0.535 C 
ATOM     39  N   UNL     1       6.784   6.183  -9.793  0.00  0.00    +0.135 NA
ATOM     40  N   UNL     1       5.375   7.828 -10.529  0.00  0.00    +0.135 NA
ENDBRANCH  25  37
ENDBRANCH  23  24
ENDBRANCH   7  23
TORSDOF 9
ENDMDL
