MODEL 1
REMARK VINA RESULT:      -4.1      0.000      0.000
REMARK  Name = 
REMARK  3 active torsions:
REMARK  status: ('A' for Active; 'I' for Inactive)
REMARK    1  A    between atoms: C_2  and  C_4
REMARK    2  A    between atoms: C_4  and  C_6
REMARK    3  A    between atoms: C_6  and  C_8
REMARK                            x       y       z     vdW  Elec       q    Type
REMARK                         _______ _______ _______ _____ _____    ______ ____
ROOT
ATOM      1  C   UNL     1       6.970   6.498 -12.305  0.00  0.00    +0.182 C 
ATOM      2  S   UNL     1       6.142   6.142 -13.972  0.00  0.00    -0.070 S 
ENDROOT
BRANCH   1   4
ATOM      3  O   UNL     1       7.906   4.707 -12.927  0.00  0.00    -0.245 OA
ATOM      4  C   UNL     1       8.090   5.426 -12.404  0.00  0.00    +0.377 C 
ATOM      5  O   UNL     1       9.421   5.844 -12.307  0.00  0.00    -0.245 OA
ENDBRANCH   1   4
BRANCH   1   6
ATOM      6  C   UNL     1       5.956   5.561 -11.439  0.00  0.00    +0.182 C 
ATOM      7  S   UNL     1       6.805   5.888  -9.776  0.00  0.00    -0.070 S 
BRANCH   6   8
ATOM      8  C   UNL     1       4.856   6.642 -11.284  0.00  0.00    +0.377 C 
ATOM      9  O   UNL     1       3.545   6.156 -11.269  0.00  0.00    -0.245 OA
ATOM     10  O   UNL     1       5.124   7.733 -10.749  0.00  0.00    -0.245 OA
ENDBRANCH   6   8
ENDBRANCH   1   6
TORSDOF 3
ENDMDL
MODEL 2
REMARK VINA RESULT:      -3.8      6.472      7.843
REMARK  Name = 
REMARK  3 active torsions:
REMARK  status: ('A' for Active; 'I' for Inactive)
REMARK    1  A    between atoms: C_2  and  C_4
REMARK    2  A    between atoms: C_4  and  C_6
REMARK    3  A    between atoms: C_6  and  C_8
REMARK                            x       y       z     vdW  Elec       q    Type
REMARK                         _______ _______ _______ _____ _____    ______ ____
ROOT
ATOM      1  C   UNL     1       2.040   6.081  -7.184  0.00  0.00    +0.182 C 
ATOM      2  S   UNL     1       3.335   6.814  -6.010  0.00  0.00    -0.070 S 
ENDROOT
BRANCH   1   4
ATOM      3  O   UNL     1       2.105   8.140  -7.659  0.00  0.00    -0.245 OA
ATOM      4  C   UNL     1       1.740   7.376  -7.987  0.00  0.00    +0.377 C 
ATOM      5  O   UNL     1       1.562   7.275  -9.371  0.00  0.00    -0.245 OA
ENDBRANCH   1   4
BRANCH   1   6
ATOM      6  C   UNL     1       0.792   6.264  -6.151  0.00  0.00    +0.182 C 
ATOM      7  S   UNL     1      -0.487   5.450  -7.290  0.00  0.00    -0.070 S 
BRANCH   6   8
ATOM      8  C   UNL     1       1.108   4.996  -5.316  0.00  0.00    +0.377 C 
ATOM      9  O   UNL     1       0.787   5.087  -3.959  0.00  0.00    -0.245 OA
ATOM     10  O   UNL     1       1.173   3.884  -5.871  0.00  0.00    -0.245 OA
ENDBRANCH   6   8
ENDBRANCH   1   6
TORSDOF 3
ENDMDL
MODEL 3
REMARK VINA RESULT:      -3.7      9.866     11.546
REMARK  Name = 
REMARK  3 active torsions:
REMARK  status: ('A' for Active; 'I' for Inactive)
REMARK    1  A    between atoms: C_2  and  C_4
REMARK    2  A    between atoms: C_4  and  C_6
REMARK    3  A    between atoms: C_6  and  C_8
REMARK                            x       y       z     vdW  Elec       q    Type
REMARK                         _______ _______ _______ _____ _____    ______ ____
ROOT
ATOM      1  C   UNL     1      -0.364   5.211  -3.114  0.00  0.00    +0.182 C 
ATOM      2  S   UNL     1       0.225   5.801  -1.412  0.00  0.00    -0.070 S 
ENDROOT
BRANCH   1   4
ATOM      3  O   UNL     1       1.231   6.520  -3.575  0.00  0.00    -0.245 OA
ATOM      4  C   UNL     1       0.798   5.815  -3.949  0.00  0.00    +0.377 C 
ATOM      5  O   UNL     1       1.528   4.964  -4.785  0.00  0.00    -0.245 OA
ENDBRANCH   1   4
BRANCH   1   6
ATOM      6  C   UNL     1      -1.377   6.465  -3.356  0.00  0.00    +0.182 C 
ATOM      7  S   UNL     1      -1.931   5.901  -5.080  0.00  0.00    -0.070 S 
BRANCH   6   8
ATOM      8  C   UNL     1      -2.567   5.841  -2.583  0.00  0.00    +0.377 C 
ATOM      9  O   UNL     1      -3.551   6.749  -2.178  0.00  0.00    -0.245 OA
ATOM     10  O   UNL     1      -2.850   4.639  -2.738  0.00  0.00    -0.245 OA
ENDBRANCH   6   8
ENDBRANCH   1   6
TORSDOF 3
ENDMDL
MODEL 4
REMARK VINA RESULT:      -3.7      9.820     11.993
REMARK  Name = 
REMARK  3 active torsions:
REMARK  status: ('A' for Active; 'I' for Inactive)
REMARK    1  A    between atoms: C_2  and  C_4
REMARK    2  A    between atoms: C_4  and  C_6
REMARK    3  A    between atoms: C_6  and  C_8
REMARK                            x       y       z     vdW  Elec       q    Type
REMARK                         _______ _______ _______ _____ _____    ______ ____
ROOT
ATOM      1  C   UNL     1      -1.516   6.445  -3.066  0.00  0.00    +0.182 C 
ATOM      2  S   UNL     1      -0.436   5.672  -1.714  0.00  0.00    -0.070 S 
ENDROOT
BRANCH   1   4
ATOM      3  O   UNL     1      -2.752   4.934  -2.252  0.00  0.00    -0.245 OA
ATOM      4  C   UNL     1      -2.840   5.715  -2.707  0.00  0.00    +0.377 C 
ATOM      5  O   UNL     1      -3.982   6.488  -2.471  0.00  0.00    -0.245 OA
ENDBRANCH   1   4
BRANCH   1   6
ATOM      6  C   UNL     1      -1.080   5.382  -4.222  0.00  0.00    +0.182 C 
ATOM      7  S   UNL     1      -2.112   6.191  -5.591  0.00  0.00    -0.070 S 
BRANCH   6   8
ATOM      8  C   UNL     1       0.254   6.089  -4.573  0.00  0.00    +0.377 C 
ATOM      9  O   UNL     1       1.329   5.233  -4.828  0.00  0.00    -0.245 OA
ATOM     10  O   UNL     1       0.244   7.240  -5.049  0.00  0.00    -0.245 OA
ENDBRANCH   6   8
ENDBRANCH   1   6
TORSDOF 3
ENDMDL
MODEL 5
REMARK VINA RESULT:      -3.7      5.366      6.550
REMARK  Name = 
REMARK  3 active torsions:
REMARK  status: ('A' for Active; 'I' for Inactive)
REMARK    1  A    between atoms: C_2  and  C_4
REMARK    2  A    between atoms: C_4  and  C_6
REMARK    3  A    between atoms: C_6  and  C_8
REMARK                            x       y       z     vdW  Elec       q    Type
REMARK                         _______ _______ _______ _____ _____    ______ ____
ROOT
ATOM      1  C   UNL     1       2.369   5.763  -7.146  0.00  0.00    +0.182 C 
ATOM      2  S   UNL     1       0.477   5.706  -7.058  0.00  0.00    -0.070 S 
ENDROOT
BRANCH   1   4
ATOM      3  O   UNL     1       3.223   7.495  -6.283  0.00  0.00    -0.245 OA
ATOM      4  C   UNL     1       2.539   7.277  -6.839  0.00  0.00    +0.377 C 
ATOM      5  O   UNL     1       2.172   8.200  -7.823  0.00  0.00    -0.245 OA
ENDBRANCH   1   4
BRANCH   1   6
ATOM      6  C   UNL     1       2.431   5.941  -8.765  0.00  0.00    +0.182 C 
ATOM      7  S   UNL     1       4.284   5.563  -8.903  0.00  0.00    -0.070 S 
BRANCH   6   8
ATOM      8  C   UNL     1       1.941   4.506  -9.087  0.00  0.00    +0.377 C 
ATOM      9  O   UNL     1       1.098   4.404 -10.198  0.00  0.00    -0.245 OA
ATOM     10  O   UNL     1       2.603   3.521  -8.711  0.00  0.00    -0.245 OA
ENDBRANCH   6   8
ENDBRANCH   1   6
TORSDOF 3
ENDMDL
MODEL 6
REMARK VINA RESULT:      -3.5      9.299     10.715
REMARK  Name = 
REMARK  3 active torsions:
REMARK  status: ('A' for Active; 'I' for Inactive)
REMARK    1  A    between atoms: C_2  and  C_4
REMARK    2  A    between atoms: C_4  and  C_6
REMARK    3  A    between atoms: C_6  and  C_8
REMARK                            x       y       z     vdW  Elec       q    Type
REMARK                         _______ _______ _______ _____ _____    ______ ____
ROOT
ATOM      1  C   UNL     1       0.040   6.498  -3.985  0.00  0.00    +0.182 C 
ATOM      2  S   UNL     1      -0.723   5.717  -5.535  0.00  0.00    -0.070 S 
ENDROOT
BRANCH   1   4
ATOM      3  O   UNL     1       1.595   5.276  -4.733  0.00  0.00    -0.245 OA
ATOM      4  C   UNL     1       1.498   6.014  -4.213  0.00  0.00    +0.377 C 
ATOM      5  O   UNL     1       2.521   6.969  -4.231  0.00  0.00    -0.245 OA
ENDBRANCH   1   4
BRANCH   1   6
ATOM      6  C   UNL     1      -0.362   5.269  -2.994  0.00  0.00    +0.182 C 
ATOM      7  S   UNL     1       0.265   6.114  -1.417  0.00  0.00    -0.070 S 
BRANCH   6   8
ATOM      8  C   UNL     1      -1.846   5.690  -2.834  0.00  0.00    +0.377 C 
ATOM      9  O   UNL     1      -2.745   4.635  -2.653  0.00  0.00    -0.245 OA
ATOM     10  O   UNL     1      -2.130   6.832  -2.427  0.00  0.00    -0.245 OA
ENDBRANCH   6   8
ENDBRANCH   1   6
TORSDOF 3
ENDMDL
MODEL 7
REMARK VINA RESULT:      -3.5      6.446      7.640
REMARK  Name = 
REMARK  3 active torsions:
REMARK  status: ('A' for Active; 'I' for Inactive)
REMARK    1  A    between atoms: C_2  and  C_4
REMARK    2  A    between atoms: C_4  and  C_6
REMARK    3  A    between atoms: C_6  and  C_8
REMARK                            x       y       z     vdW  Elec       q    Type
REMARK                         _______ _______ _______ _____ _____    ______ ____
ROOT
ATOM      1  C   UNL     1       2.890   6.947  -5.907  0.00  0.00    +0.182 C 
ATOM      2  S   UNL     1       1.504   6.678  -4.642  0.00  0.00    -0.070 S 
ENDROOT
BRANCH   1   4
ATOM      3  O   UNL     1       1.172   6.746  -7.124  0.00  0.00    -0.245 OA
ATOM      4  C   UNL     1       1.987   7.146  -7.155  0.00  0.00    +0.377 C 
ATOM      5  O   UNL     1       2.107   8.337  -7.879  0.00  0.00    -0.245 OA
ENDBRANCH   1   4
BRANCH   1   6
ATOM      6  C   UNL     1       3.148   5.359  -6.174  0.00  0.00    +0.182 C 
ATOM      7  S   UNL     1       4.352   5.626  -7.614  0.00  0.00    -0.070 S 
BRANCH   6   8
ATOM      8  C   UNL     1       4.230   5.202  -5.075  0.00  0.00    +0.377 C 
ATOM      9  O   UNL     1       4.972   6.356  -4.805  0.00  0.00    -0.245 OA
ATOM     10  O   UNL     1       4.116   4.314  -4.209  0.00  0.00    -0.245 OA
ENDBRANCH   6   8
ENDBRANCH   1   6
TORSDOF 3
ENDMDL
MODEL 8
REMARK VINA RESULT:      -3.5      5.489      6.342
REMARK  Name = 
REMARK  3 active torsions:
REMARK  status: ('A' for Active; 'I' for Inactive)
REMARK    1  A    between atoms: C_2  and  C_4
REMARK    2  A    between atoms: C_4  and  C_6
REMARK    3  A    between atoms: C_6  and  C_8
REMARK                            x       y       z     vdW  Elec       q    Type
REMARK                         _______ _______ _______ _____ _____    ______ ____
ROOT
ATOM      1  C   UNL     1       1.867   5.415  -7.833  0.00  0.00    +0.182 C 
ATOM      2  S   UNL     1       1.837   4.273  -6.321  0.00  0.00    -0.070 S 
ENDROOT
BRANCH   1   4
ATOM      3  O   UNL     1       2.587   3.580  -8.598  0.00  0.00    -0.245 OA
ATOM      4  C   UNL     1       2.170   4.327  -8.900  0.00  0.00    +0.377 C 
ATOM      5  O   UNL     1       1.296   4.199  -9.986  0.00  0.00    -0.245 OA
ENDBRANCH   1   4
BRANCH   1   6
ATOM      6  C   UNL     1       3.423   5.862  -7.643  0.00  0.00    +0.182 C 
ATOM      7  S   UNL     1       3.583   6.643  -9.364  0.00  0.00    -0.070 S 
BRANCH   6   8
ATOM      8  C   UNL     1       3.104   7.179  -6.889  0.00  0.00    +0.377 C 
ATOM      9  O   UNL     1       1.977   7.866  -7.348  0.00  0.00    -0.245 OA
ATOM     10  O   UNL     1       3.503   7.340  -5.721  0.00  0.00    -0.245 OA
ENDBRANCH   6   8
ENDBRANCH   1   6
TORSDOF 3
ENDMDL
MODEL 9
REMARK VINA RESULT:      -3.5      7.602      9.549
REMARK  Name = 
REMARK  3 active torsions:
REMARK  status: ('A' for Active; 'I' for Inactive)
REMARK    1  A    between atoms: C_2  and  C_4
REMARK    2  A    between atoms: C_4  and  C_6
REMARK    3  A    between atoms: C_6  and  C_8
REMARK                            x       y       z     vdW  Elec       q    Type
REMARK                         _______ _______ _______ _____ _____    ______ ____
ROOT
ATOM      1  C   UNL     1       0.611   6.710  -5.480  0.00  0.00    +0.182 C 
ATOM      2  S   UNL     1       1.931   6.537  -4.131  0.00  0.00    -0.070 S 
ENDROOT
BRANCH   1   4
ATOM      3  O   UNL     1      -0.512   6.707  -3.688  0.00  0.00    -0.245 OA
ATOM      4  C   UNL     1      -0.596   6.998  -4.544  0.00  0.00    +0.377 C 
ATOM      5  O   UNL     1      -1.358   8.147  -4.777  0.00  0.00    -0.245 OA
ENDBRANCH   1   4
BRANCH   1   6
ATOM      6  C   UNL     1       0.317   5.111  -5.598  0.00  0.00    +0.182 C 
ATOM      7  S   UNL     1      -0.997   5.283  -6.954  0.00  0.00    -0.070 S 
BRANCH   6   8
ATOM      8  C   UNL     1       1.505   4.817  -6.550  0.00  0.00    +0.377 C 
ATOM      9  O   UNL     1       2.045   3.532  -6.443  0.00  0.00    -0.245 OA
ATOM     10  O   UNL     1       1.634   5.464  -7.606  0.00  0.00    -0.245 OA
ENDBRANCH   6   8
ENDBRANCH   1   6
TORSDOF 3
ENDMDL
