MODEL 1
REMARK VINA RESULT:      -8.5      0.000      0.000
REMARK  Name = 
REMARK  1 active torsions:
REMARK  status: ('A' for Active; 'I' for Inactive)
REMARK    1  A    between atoms: N_14  and  C_15
REMARK                            x       y       z     vdW  Elec       q    Type
REMARK                         _______ _______ _______ _____ _____    ______ ____
ROOT
ATOM      1  O   UNL     1       0.822   6.046  -1.688  0.00  0.00    -0.270 OA
ATOM      2  C   UNL     1       0.527   6.252  -2.595  0.00  0.00    +0.249 C 
ATOM      3  N   UNL     1       1.528   6.498  -3.597  0.00  0.00    -0.276 N 
ATOM      4  C   UNL     1       1.279   6.109  -4.947  0.00  0.00    +0.098 C 
ATOM      5  C   UNL     1      -0.150   6.633  -5.500  0.00  0.00    +0.042 C 
ATOM      6  C   UNL     1      -0.264   5.301  -6.452  0.00  0.00    +0.006 C 
ATOM      7  C   UNL     1      -1.603   5.280  -7.068  0.00  0.00    +0.005 C 
ATOM      8  C   UNL     1      -2.723   5.796  -6.225  0.00  0.00    +0.026 C 
ATOM      9  C   UNL     1      -2.374   5.786  -4.795  0.00  0.00    -0.026 A 
ATOM     10  C   UNL     1      -3.311   5.276  -3.904  0.00  0.00    -0.005 A 
ATOM     11  C   UNL     1      -3.024   5.449  -2.561  0.00  0.00    -0.000 A 
ATOM     12  C   UNL     1      -1.806   5.932  -2.156  0.00  0.00    +0.004 A 
ATOM     13  C   UNL     1      -1.054   5.936  -4.370  0.00  0.00    -0.020 A 
ATOM     14  C   UNL     1      -0.858   6.364  -3.080  0.00  0.00    +0.049 A 
ENDROOT
BRANCH   3  15
ATOM     15  C   UNL     1       2.875   5.692  -3.371  0.00  0.00    +0.092 C 
ATOM     16  C   UNL     1       3.429   5.978  -4.886  0.00  0.00    +0.022 C 
ATOM     17  C   UNL     1       3.931   7.350  -4.991  0.00  0.00    +0.019 C 
ATOM     18  C   UNL     1       5.299   7.404  -4.315  0.00  0.00    +0.072 C 
ATOM     19  N   UNL     1       5.109   6.643  -3.078  0.00  0.00    -0.271 NA
ATOM     20  C   UNL     1       5.271   5.247  -3.477  0.00  0.00    +0.072 C 
ATOM     21  C   UNL     1       4.644   5.048  -4.854  0.00  0.00    +0.019 C 
ATOM     22  C   UNL     1       3.725   6.927  -2.701  0.00  0.00    +0.092 C 
ENDBRANCH   3  15
TORSDOF 1
ENDMDL
MODEL 2
REMARK VINA RESULT:      -8.5      3.554      5.324
REMARK  Name = 
REMARK  1 active torsions:
REMARK  status: ('A' for Active; 'I' for Inactive)
REMARK    1  A    between atoms: N_14  and  C_15
REMARK                            x       y       z     vdW  Elec       q    Type
REMARK                         _______ _______ _______ _____ _____    ______ ____
ROOT
ATOM      1  O   UNL     1       0.513   5.789  -6.795  0.00  0.00    -0.270 OA
ATOM      2  C   UNL     1       1.249   6.062  -7.375  0.00  0.00    +0.249 C 
ATOM      3  N   UNL     1       2.520   6.352  -6.769  0.00  0.00    -0.276 N 
ATOM      4  C   UNL     1       3.721   6.061  -7.484  0.00  0.00    +0.098 C 
ATOM      5  C   UNL     1       3.715   6.653  -8.992  0.00  0.00    +0.042 C 
ATOM      6  C   UNL     1       4.642   5.391  -9.485  0.00  0.00    +0.006 C 
ATOM      7  C   UNL     1       4.757   5.442 -10.954  0.00  0.00    +0.005 C 
ATOM      8  C   UNL     1       3.552   5.925 -11.692  0.00  0.00    +0.026 C 
ATOM      9  C   UNL     1       2.333   5.812 -10.873  0.00  0.00    -0.026 A 
ATOM     10  C   UNL     1       1.203   5.264 -11.468  0.00  0.00    -0.005 A 
ATOM     11  C   UNL     1       0.034   5.339 -10.730  0.00  0.00    -0.000 A 
ATOM     12  C   UNL     1       0.049   5.767  -9.428  0.00  0.00    +0.004 A 
ATOM     13  C   UNL     1       2.383   5.903  -9.482  0.00  0.00    -0.020 A 
ATOM     14  C   UNL     1       1.219   6.237  -8.836  0.00  0.00    +0.049 A 
ENDROOT
BRANCH   3  15
ATOM     15  C   UNL     1       2.819   5.503  -5.464  0.00  0.00    +0.092 C 
ATOM     16  C   UNL     1       4.367   6.026  -5.345  0.00  0.00    +0.022 C 
ATOM     17  C   UNL     1       4.400   7.390  -4.812  0.00  0.00    +0.019 C 
ATOM     18  C   UNL     1       4.148   7.314  -3.308  0.00  0.00    +0.072 C 
ATOM     19  N   UNL     1       3.041   6.363  -3.186  0.00  0.00    -0.271 NA
ATOM     20  C   UNL     1       3.679   5.050  -3.227  0.00  0.00    +0.072 C 
ATOM     21  C   UNL     1       4.830   5.088  -4.229  0.00  0.00    +0.019 C 
ATOM     22  C   UNL     1       2.242   6.599  -4.387  0.00  0.00    +0.092 C 
ENDBRANCH   3  15
TORSDOF 1
ENDMDL
MODEL 3
REMARK VINA RESULT:      -8.3      5.525      8.178
REMARK  Name = 
REMARK  1 active torsions:
REMARK  status: ('A' for Active; 'I' for Inactive)
REMARK    1  A    between atoms: N_14  and  C_15
REMARK                            x       y       z     vdW  Elec       q    Type
REMARK                         _______ _______ _______ _____ _____    ______ ____
ROOT
ATOM      1  O   UNL     1       1.809   5.290 -10.658  0.00  0.00    -0.270 OA
ATOM      2  C   UNL     1       2.688   5.674 -10.478  0.00  0.00    +0.249 C 
ATOM      3  N   UNL     1       3.044   5.953  -9.114  0.00  0.00    -0.276 N 
ATOM      4  C   UNL     1       4.404   5.821  -8.702  0.00  0.00    +0.098 C 
ATOM      5  C   UNL     1       5.435   6.599  -9.678  0.00  0.00    +0.042 C 
ATOM      6  C   UNL     1       6.578   5.462  -9.368  0.00  0.00    +0.006 C 
ATOM      7  C   UNL     1       7.732   5.705 -10.252  0.00  0.00    +0.005 C 
ATOM      8  C   UNL     1       7.416   6.213 -11.621  0.00  0.00    +0.026 C 
ATOM      9  C   UNL     1       6.021   5.930 -11.995  0.00  0.00    -0.026 A 
ATOM     10  C   UNL     1       5.784   5.402 -13.259  0.00  0.00    -0.005 A 
ATOM     11  C   UNL     1       4.457   5.319 -13.641  0.00  0.00    -0.000 A 
ATOM     12  C   UNL     1       3.449   5.578 -12.749  0.00  0.00    +0.004 A 
ATOM     13  C   UNL     1       5.015   5.846 -11.033  0.00  0.00    -0.020 A 
ATOM     14  C   UNL     1       3.724   6.032 -11.462  0.00  0.00    +0.049 A 
ENDROOT
BRANCH   3  15
ATOM     15  C   UNL     1       2.388   4.962  -8.064  0.00  0.00    +0.092 C 
ATOM     16  C   UNL     1       3.117   5.669  -6.777  0.00  0.00    +0.022 C 
ATOM     17  C   UNL     1       2.443   6.926  -6.443  0.00  0.00    +0.019 C 
ATOM     18  C   UNL     1       1.144   6.585  -5.716  0.00  0.00    +0.072 C 
ATOM     19  N   UNL     1       0.583   5.483  -6.500  0.00  0.00    -0.271 NA
ATOM     20  C   UNL     1       1.268   4.293  -6.004  0.00  0.00    +0.072 C 
ATOM     21  C   UNL     1       2.724   4.643  -5.713  0.00  0.00    +0.019 C 
ATOM     22  C   UNL     1       0.983   5.790  -7.872  0.00  0.00    +0.092 C 
ENDBRANCH   3  15
TORSDOF 1
ENDMDL
MODEL 4
REMARK VINA RESULT:      -8.3      2.630      3.442
REMARK  Name = 
REMARK  1 active torsions:
REMARK  status: ('A' for Active; 'I' for Inactive)
REMARK    1  A    between atoms: N_14  and  C_15
REMARK                            x       y       z     vdW  Elec       q    Type
REMARK                         _______ _______ _______ _____ _____    ______ ____
ROOT
ATOM      1  O   UNL     1       3.023   5.059  -4.310  0.00  0.00    -0.270 OA
ATOM      2  C   UNL     1       2.220   5.554  -4.558  0.00  0.00    +0.249 C 
ATOM      3  N   UNL     1       2.051   5.932  -5.934  0.00  0.00    -0.276 N 
ATOM      4  C   UNL     1       0.739   5.982  -6.492  0.00  0.00    +0.098 C 
ATOM      5  C   UNL     1      -0.297   6.837  -5.587  0.00  0.00    +0.042 C 
ATOM      6  C   UNL     1      -1.523   5.861  -6.078  0.00  0.00    +0.006 C 
ATOM      7  C   UNL     1      -2.731   6.204  -5.307  0.00  0.00    +0.005 C 
ATOM      8  C   UNL     1      -2.512   6.610  -3.887  0.00  0.00    +0.026 C 
ATOM      9  C   UNL     1      -1.208   6.145  -3.385  0.00  0.00    -0.026 A 
ATOM     10  C   UNL     1      -1.175   5.539  -2.135  0.00  0.00    -0.005 A 
ATOM     11  C   UNL     1       0.084   5.280  -1.621  0.00  0.00    -0.000 A 
ATOM     12  C   UNL     1       1.208   5.453  -2.388  0.00  0.00    +0.004 A 
ATOM     13  C   UNL     1      -0.119   5.982  -4.240  0.00  0.00    -0.020 A 
ATOM     14  C   UNL     1       1.130   5.992  -3.670  0.00  0.00    +0.049 A 
ENDROOT
BRANCH   3  15
ATOM     15  C   UNL     1       2.699   4.915  -6.964  0.00  0.00    +0.092 C 
ATOM     16  C   UNL     1       1.990   5.611  -8.267  0.00  0.00    +0.022 C 
ATOM     17  C   UNL     1       2.684   6.853  -8.616  0.00  0.00    +0.019 C 
ATOM     18  C   UNL     1       3.982   6.482  -9.329  0.00  0.00    +0.072 C 
ATOM     19  N   UNL     1       4.522   5.385  -8.523  0.00  0.00    -0.271 NA
ATOM     20  C   UNL     1       3.824   4.196  -9.005  0.00  0.00    +0.072 C 
ATOM     21  C   UNL     1       2.375   4.563  -9.312  0.00  0.00    +0.019 C 
ATOM     22  C   UNL     1       4.117   5.719  -7.159  0.00  0.00    +0.092 C 
ENDBRANCH   3  15
TORSDOF 1
ENDMDL
MODEL 5
REMARK VINA RESULT:      -8.1      1.493      3.264
REMARK  Name = 
REMARK  1 active torsions:
REMARK  status: ('A' for Active; 'I' for Inactive)
REMARK    1  A    between atoms: N_14  and  C_15
REMARK                            x       y       z     vdW  Elec       q    Type
REMARK                         _______ _______ _______ _____ _____    ______ ____
ROOT
ATOM      1  O   UNL     1       1.942   5.760  -5.403  0.00  0.00    -0.270 OA
ATOM      2  C   UNL     1       1.223   5.593  -4.766  0.00  0.00    +0.249 C 
ATOM      3  N   UNL     1       1.512   5.721  -3.364  0.00  0.00    -0.276 N 
ATOM      4  C   UNL     1       0.496   6.189  -2.477  0.00  0.00    +0.098 C 
ATOM      5  C   UNL     1      -0.904   5.394  -2.649  0.00  0.00    +0.042 C 
ATOM      6  C   UNL     1      -1.722   6.757  -2.238  0.00  0.00    +0.006 C 
ATOM      7  C   UNL     1      -3.162   6.516  -2.438  0.00  0.00    +0.005 C 
ATOM      8  C   UNL     1      -3.529   5.644  -3.594  0.00  0.00    +0.026 C 
ATOM      9  C   UNL     1      -2.444   5.574  -4.587  0.00  0.00    -0.026 A 
ATOM     10  C   UNL     1      -2.781   5.730  -5.926  0.00  0.00    -0.005 A 
ATOM     11  C   UNL     1      -1.770   5.480  -6.837  0.00  0.00    -0.000 A 
ATOM     12  C   UNL     1      -0.481   5.270  -6.420  0.00  0.00    +0.004 A 
ATOM     13  C   UNL     1      -1.108   5.709  -4.210  0.00  0.00    -0.020 A 
ATOM     14  C   UNL     1      -0.164   5.198  -5.066  0.00  0.00    +0.049 A 
ENDROOT
BRANCH   3  15
ATOM     15  C   UNL     1       2.622   6.805  -3.033  0.00  0.00    +0.092 C 
ATOM     16  C   UNL     1       2.357   6.743  -1.417  0.00  0.00    +0.022 C 
ATOM     17  C   UNL     1       2.961   5.533  -0.852  0.00  0.00    +0.019 C 
ATOM     18  C   UNL     1       4.467   5.762  -0.752  0.00  0.00    +0.072 C 
ATOM     19  N   UNL     1       4.812   6.386  -2.031  0.00  0.00    -0.271 NA
ATOM     20  C   UNL     1       4.504   7.801  -1.844  0.00  0.00    +0.072 C 
ATOM     21  C   UNL     1       3.235   7.926  -1.006  0.00  0.00    +0.019 C 
ATOM     22  C   UNL     1       3.893   5.766  -2.983  0.00  0.00    +0.092 C 
ENDBRANCH   3  15
TORSDOF 1
ENDMDL
MODEL 6
REMARK VINA RESULT:      -8.0      1.569      2.569
REMARK  Name = 
REMARK  1 active torsions:
REMARK  status: ('A' for Active; 'I' for Inactive)
REMARK    1  A    between atoms: N_14  and  C_15
REMARK                            x       y       z     vdW  Elec       q    Type
REMARK                         _______ _______ _______ _____ _____    ______ ____
ROOT
ATOM      1  O   UNL     1      -0.275   6.264  -2.921  0.00  0.00    -0.270 OA
ATOM      2  C   UNL     1       0.174   6.361  -3.782  0.00  0.00    +0.249 C 
ATOM      3  N   UNL     1       1.608   6.455  -3.795  0.00  0.00    -0.276 N 
ATOM      4  C   UNL     1       2.337   5.906  -4.892  0.00  0.00    +0.098 C 
ATOM      5  C   UNL     1       1.771   6.389  -6.330  0.00  0.00    +0.042 C 
ATOM      6  C   UNL     1       2.217   4.951  -6.983  0.00  0.00    +0.006 C 
ATOM      7  C   UNL     1       1.702   4.884  -8.362  0.00  0.00    +0.005 C 
ATOM      8  C   UNL     1       0.375   5.528  -8.601  0.00  0.00    +0.026 C 
ATOM      9  C   UNL     1      -0.381   5.691  -7.348  0.00  0.00    -0.026 A 
ATOM     10  C   UNL     1      -1.721   5.318  -7.349  0.00  0.00    -0.005 A 
ATOM     11  C   UNL     1      -2.441   5.652  -6.215  0.00  0.00    -0.000 A 
ATOM     12  C   UNL     1      -1.814   6.154  -5.103  0.00  0.00    +0.004 A 
ATOM     13  C   UNL     1       0.268   5.862  -6.126  0.00  0.00    -0.020 A 
ATOM     14  C   UNL     1      -0.452   6.443  -5.112  0.00  0.00    +0.049 A 
ENDROOT
BRANCH   3  15
ATOM     15  C   UNL     1       2.316   5.653  -2.624  0.00  0.00    +0.092 C 
ATOM     16  C   UNL     1       3.826   5.949  -3.186  0.00  0.00    +0.022 C 
ATOM     17  C   UNL     1       4.222   7.323  -2.872  0.00  0.00    +0.019 C 
ATOM     18  C   UNL     1       4.596   7.379  -1.392  0.00  0.00    +0.072 C 
ATOM     19  N   UNL     1       3.537   6.610  -0.735  0.00  0.00    -0.271 NA
ATOM     20  C   UNL     1       3.954   5.217  -0.871  0.00  0.00    +0.072 C 
ATOM     21  C   UNL     1       4.595   5.023  -2.242  0.00  0.00    +0.019 C 
ATOM     22  C   UNL     1       2.350   6.887  -1.542  0.00  0.00    +0.092 C 
ENDBRANCH   3  15
TORSDOF 1
ENDMDL
MODEL 7
REMARK VINA RESULT:      -8.0      1.694      3.534
REMARK  Name = 
REMARK  1 active torsions:
REMARK  status: ('A' for Active; 'I' for Inactive)
REMARK    1  A    between atoms: N_14  and  C_15
REMARK                            x       y       z     vdW  Elec       q    Type
REMARK                         _______ _______ _______ _____ _____    ______ ____
ROOT
ATOM      1  O   UNL     1      -0.106   5.662  -5.105  0.00  0.00    -0.270 OA
ATOM      2  C   UNL     1      -0.045   5.576  -4.135  0.00  0.00    +0.249 C 
ATOM      3  N   UNL     1       1.262   5.515  -3.539  0.00  0.00    -0.276 N 
ATOM      4  C   UNL     1       1.470   6.083  -2.246  0.00  0.00    +0.098 C 
ATOM      5  C   UNL     1       0.378   5.588  -1.158  0.00  0.00    +0.042 C 
ATOM      6  C   UNL     1       0.490   7.037  -0.394  0.00  0.00    +0.006 C 
ATOM      7  C   UNL     1      -0.543   7.093   0.655  0.00  0.00    +0.005 C 
ATOM      8  C   UNL     1      -1.838   6.419   0.340  0.00  0.00    +0.026 C 
ATOM      9  C   UNL     1      -2.016   6.238  -1.110  0.00  0.00    -0.026 A 
ATOM     10  C   UNL     1      -3.247   6.579  -1.658  0.00  0.00    -0.005 A 
ATOM     11  C   UNL     1      -3.437   6.227  -2.984  0.00  0.00    -0.000 A 
ATOM     12  C   UNL     1      -2.402   5.739  -3.739  0.00  0.00    +0.004 A 
ATOM     13  C   UNL     1      -0.922   6.080  -1.960  0.00  0.00    -0.020 A 
ATOM     14  C   UNL     1      -1.156   5.481  -3.174  0.00  0.00    +0.049 A 
ENDROOT
BRANCH   3  15
ATOM     15  C   UNL     1       2.368   6.332  -4.329  0.00  0.00    +0.092 C 
ATOM     16  C   UNL     1       3.467   6.227  -3.119  0.00  0.00    +0.022 C 
ATOM     17  C   UNL     1       4.064   4.889  -3.093  0.00  0.00    +0.019 C 
ATOM     18  C   UNL     1       5.079   4.804  -4.230  0.00  0.00    +0.072 C 
ATOM     19  N   UNL     1       4.388   5.423  -5.363  0.00  0.00    -0.271 NA
ATOM     20  C   UNL     1       4.592   6.858  -5.180  0.00  0.00    +0.072 C 
ATOM     21  C   UNL     1       4.514   7.183  -3.691  0.00  0.00    +0.019 C 
ATOM     22  C   UNL     1       2.987   5.059  -5.161  0.00  0.00    +0.092 C 
ENDBRANCH   3  15
TORSDOF 1
ENDMDL
MODEL 8
REMARK VINA RESULT:      -8.0      2.160      4.110
REMARK  Name = 
REMARK  1 active torsions:
REMARK  status: ('A' for Active; 'I' for Inactive)
REMARK    1  A    between atoms: N_14  and  C_15
REMARK                            x       y       z     vdW  Elec       q    Type
REMARK                         _______ _______ _______ _____ _____    ______ ____
ROOT
ATOM      1  O   UNL     1       4.094   7.279  -5.444  0.00  0.00    -0.270 OA
ATOM      2  C   UNL     1       3.315   6.692  -5.462  0.00  0.00    +0.249 C 
ATOM      3  N   UNL     1       2.788   6.221  -4.210  0.00  0.00    -0.276 N 
ATOM      4  C   UNL     1       1.383   6.006  -4.076  0.00  0.00    +0.098 C 
ATOM      5  C   UNL     1       0.767   5.105  -5.272  0.00  0.00    +0.042 C 
ATOM      6  C   UNL     1      -0.651   5.923  -5.150  0.00  0.00    +0.006 C 
ATOM      7  C   UNL     1      -1.528   5.505  -6.258  0.00  0.00    +0.005 C 
ATOM      8  C   UNL     1      -0.852   5.204  -7.556  0.00  0.00    +0.026 C 
ATOM      9  C   UNL     1       0.481   5.827  -7.629  0.00  0.00    -0.026 A 
ATOM     10  C   UNL     1       0.815   6.504  -8.796  0.00  0.00    -0.005 A 
ATOM     11  C   UNL     1       2.132   6.917  -8.899  0.00  0.00    -0.000 A 
ATOM     12  C   UNL     1       2.989   6.815  -7.833  0.00  0.00    +0.004 A 
ATOM     13  C   UNL     1       1.240   6.050  -6.481  0.00  0.00    -0.020 A 
ATOM     14  C   UNL     1       2.595   6.198  -6.648  0.00  0.00    +0.049 A 
ENDROOT
BRANCH   3  15
ATOM     15  C   UNL     1       2.981   7.237  -3.009  0.00  0.00    +0.092 C 
ATOM     16  C   UNL     1       2.328   6.221  -1.901  0.00  0.00    +0.022 C 
ATOM     17  C   UNL     1       3.290   5.174  -1.547  0.00  0.00    +0.019 C 
ATOM     18  C   UNL     1       4.325   5.785  -0.604  0.00  0.00    +0.072 C 
ATOM     19  N   UNL     1       4.638   7.077  -1.218  0.00  0.00    -0.271 NA
ATOM     20  C   UNL     1       3.576   7.968  -0.759  0.00  0.00    +0.072 C 
ATOM     21  C   UNL     1       2.260   7.196  -0.724  0.00  0.00    +0.019 C 
ATOM     22  C   UNL     1       4.528   6.820  -2.653  0.00  0.00    +0.092 C 
ENDBRANCH   3  15
TORSDOF 1
ENDMDL
MODEL 9
REMARK VINA RESULT:      -8.0      2.706      6.002
REMARK  Name = 
REMARK  1 active torsions:
REMARK  status: ('A' for Active; 'I' for Inactive)
REMARK    1  A    between atoms: N_14  and  C_15
REMARK                            x       y       z     vdW  Elec       q    Type
REMARK                         _______ _______ _______ _____ _____    ______ ____
ROOT
ATOM      1  O   UNL     1       2.259   5.681  -4.725  0.00  0.00    -0.270 OA
ATOM      2  C   UNL     1       1.912   5.494  -5.617  0.00  0.00    +0.249 C 
ATOM      3  N   UNL     1       0.491   5.562  -5.824  0.00  0.00    -0.276 N 
ATOM      4  C   UNL     1      -0.014   6.001  -7.084  0.00  0.00    +0.098 C 
ATOM      5  C   UNL     1       0.656   5.223  -8.336  0.00  0.00    +0.042 C 
ATOM      6  C   UNL     1       0.494   6.573  -9.256  0.00  0.00    +0.006 C 
ATOM      7  C   UNL     1       1.182   6.350 -10.539  0.00  0.00    +0.005 C 
ATOM      8  C   UNL     1       2.429   5.529 -10.484  0.00  0.00    +0.026 C 
ATOM      9  C   UNL     1       2.994   5.493  -9.125  0.00  0.00    -0.026 A 
ATOM     10  C   UNL     1       4.361   5.705  -8.987  0.00  0.00    -0.005 A 
ATOM     11  C   UNL     1       4.882   5.486  -7.724  0.00  0.00    -0.000 A 
ATOM     12  C   UNL     1       4.059   5.251  -6.652  0.00  0.00    +0.004 A 
ATOM     13  C   UNL     1       2.179   5.603  -7.998  0.00  0.00    -0.020 A 
ATOM     14  C   UNL     1       2.682   5.121  -6.815  0.00  0.00    +0.049 A 
ENDROOT
BRANCH   3  15
ATOM     15  C   UNL     1      -0.242   6.623  -4.901  0.00  0.00    +0.092 C 
ATOM     16  C   UNL     1      -1.681   6.459  -5.668  0.00  0.00    +0.022 C 
ATOM     17  C   UNL     1      -2.336   5.217  -5.252  0.00  0.00    +0.019 C 
ATOM     18  C   UNL     1      -2.928   5.440  -3.862  0.00  0.00    +0.072 C 
ATOM     19  N   UNL     1      -1.867   6.144  -3.139  0.00  0.00    -0.271 NA
ATOM     20  C   UNL     1      -2.029   7.545  -3.520  0.00  0.00    +0.072 C 
ATOM     21  C   UNL     1      -2.421   7.615  -4.993  0.00  0.00    +0.019 C 
ATOM     22  C   UNL     1      -0.635   5.585  -3.692  0.00  0.00    +0.092 C 
ENDBRANCH   3  15
TORSDOF 1
ENDMDL
