MODEL 1
REMARK VINA RESULT:      -7.1      0.000      0.000
REMARK  Name = 
REMARK  6 active torsions:
REMARK  status: ('A' for Active; 'I' for Inactive)
REMARK    1  A    between atoms: C_7  and  C_8
REMARK    2  A    between atoms: C_8  and  O_9
REMARK    3  A    between atoms: C_8  and  C_15
REMARK    4  A    between atoms: O_9  and  C_10
REMARK    5  A    between atoms: C_10  and  C_11
REMARK    6  A    between atoms: C_11  and  N_12
REMARK                            x       y       z     vdW  Elec       q    Type
REMARK                         _______ _______ _______ _____ _____    ______ ____
ROOT
ATOM      1  C   UNL     1       3.960   5.404 -10.187  0.00  0.00    +0.159 C 
ENDROOT
BRANCH   1   4
ATOM      2  C   UNL     1       2.600   3.638  -8.543  0.00  0.00    +0.031 C 
ATOM      3  C   UNL     1       2.505   4.962  -8.278  0.00  0.00    -0.023 A 
ATOM      4  C   UNL     1       3.452   5.900  -8.682  0.00  0.00    +0.005 A 
ATOM      5  C   UNL     1       2.923   7.188  -8.701  0.00  0.00    -0.002 A 
ATOM      6  C   UNL     1       2.057   7.571  -7.686  0.00  0.00    -0.000 A 
ATOM      7  C   UNL     1       1.122   6.645  -7.312  0.00  0.00    -0.000 A 
ATOM      8  C   UNL     1       1.296   5.321  -7.699  0.00  0.00    -0.004 A 
ENDBRANCH   1   4
BRANCH   1   9
ATOM      9  C   UNL     1       5.380   6.247 -10.085  0.00  0.00    +0.009 A 
ATOM     10  C   UNL     1       5.490   7.275 -10.976  0.00  0.00    -0.002 A 
ATOM     11  C   UNL     1       6.774   7.730 -11.257  0.00  0.00    -0.000 A 
ATOM     12  C   UNL     1       7.830   7.281 -10.472  0.00  0.00    -0.000 A 
ATOM     13  C   UNL     1       7.617   6.295  -9.516  0.00  0.00    -0.000 A 
ATOM     14  C   UNL     1       6.418   5.590  -9.528  0.00  0.00    -0.002 A 
ENDBRANCH   1   9
BRANCH   1  15
ATOM     15  O   UNL     1       3.252   6.576 -10.933  0.00  0.00    -0.346 OA
BRANCH  15  16
ATOM     16  C   UNL     1       2.759   5.871 -12.033  0.00  0.00    +0.160 C 
BRANCH  16  17
ATOM     17  C   UNL     1       1.356   6.351 -12.389  0.00  0.00    +0.105 C 
BRANCH  17  18
ATOM     18  N   UNL     1       0.525   6.193 -11.215  0.00  0.00    -0.268 NA
ATOM     19  C   UNL     1      -0.001   4.852 -11.152  0.00  0.00    +0.090 C 
ATOM     20  C   UNL     1      -0.548   7.177 -11.263  0.00  0.00    +0.090 C 
ENDBRANCH  17  18
ENDBRANCH  16  17
ENDBRANCH  15  16
ENDBRANCH   1  15
TORSDOF 6
ENDMDL
MODEL 2
REMARK VINA RESULT:      -6.8      3.959      7.438
REMARK  Name = 
REMARK  6 active torsions:
REMARK  status: ('A' for Active; 'I' for Inactive)
REMARK    1  A    between atoms: C_7  and  C_8
REMARK    2  A    between atoms: C_8  and  O_9
REMARK    3  A    between atoms: C_8  and  C_15
REMARK    4  A    between atoms: O_9  and  C_10
REMARK    5  A    between atoms: C_10  and  C_11
REMARK    6  A    between atoms: C_11  and  N_12
REMARK                            x       y       z     vdW  Elec       q    Type
REMARK                         _______ _______ _______ _____ _____    ______ ____
ROOT
ATOM      1  C   UNL     1       0.854   5.435  -4.887  0.00  0.00    +0.159 C 
ENDROOT
BRANCH   1   4
ATOM      2  C   UNL     1       2.213   3.666  -6.529  0.00  0.00    +0.031 C 
ATOM      3  C   UNL     1       2.156   4.967  -6.898  0.00  0.00    -0.023 A 
ATOM      4  C   UNL     1       1.167   5.849  -6.469  0.00  0.00    +0.005 A 
ATOM      5  C   UNL     1       1.571   7.175  -6.598  0.00  0.00    -0.002 A 
ATOM      6  C   UNL     1       2.296   7.548  -7.721  0.00  0.00    -0.000 A 
ATOM      7  C   UNL     1       3.274   6.679  -8.121  0.00  0.00    -0.000 A 
ATOM      8  C   UNL     1       3.264   5.381  -7.623  0.00  0.00    -0.004 A 
ENDBRANCH   1   4
BRANCH   1   9
ATOM      9  C   UNL     1      -0.703   5.991  -4.955  0.00  0.00    +0.009 A 
ATOM     10  C   UNL     1      -1.479   5.380  -5.898  0.00  0.00    -0.002 A 
ATOM     11  C   UNL     1      -2.616   6.065  -6.316  0.00  0.00    -0.000 A 
ATOM     12  C   UNL     1      -3.013   7.196  -5.613  0.00  0.00    -0.000 A 
ATOM     13  C   UNL     1      -2.210   7.703  -4.599  0.00  0.00    -0.000 A 
ATOM     14  C   UNL     1      -0.907   7.232  -4.469  0.00  0.00    -0.002 A 
ENDBRANCH   1   9
BRANCH   1  15
ATOM     15  O   UNL     1       1.372   6.791  -4.315  0.00  0.00    -0.346 OA
BRANCH  15  16
ATOM     16  C   UNL     1       2.040   6.312  -3.186  0.00  0.00    +0.160 C 
BRANCH  16  17
ATOM     17  C   UNL     1       3.401   6.986  -3.046  0.00  0.00    +0.105 C 
BRANCH  17  18
ATOM     18  N   UNL     1       4.183   6.647  -4.216  0.00  0.00    -0.268 NA
ATOM     19  C   UNL     1       4.762   5.335  -4.066  0.00  0.00    +0.090 C 
ATOM     20  C   UNL     1       5.215   7.658  -4.400  0.00  0.00    +0.090 C 
ENDBRANCH  17  18
ENDBRANCH  16  17
ENDBRANCH  15  16
ENDBRANCH   1  15
TORSDOF 6
ENDMDL
MODEL 3
REMARK VINA RESULT:      -6.7      4.991      7.477
REMARK  Name = 
REMARK  6 active torsions:
REMARK  status: ('A' for Active; 'I' for Inactive)
REMARK    1  A    between atoms: C_7  and  C_8
REMARK    2  A    between atoms: C_8  and  O_9
REMARK    3  A    between atoms: C_8  and  C_15
REMARK    4  A    between atoms: O_9  and  C_10
REMARK    5  A    between atoms: C_10  and  C_11
REMARK    6  A    between atoms: C_11  and  N_12
REMARK                            x       y       z     vdW  Elec       q    Type
REMARK                         _______ _______ _______ _____ _____    ______ ____
ROOT
ATOM      1  C   UNL     1       0.765   6.684  -4.163  0.00  0.00    +0.159 C 
ENDROOT
BRANCH   1   4
ATOM      2  C   UNL     1      -1.535   8.219  -4.300  0.00  0.00    +0.031 C 
ATOM      3  C   UNL     1      -1.410   7.177  -5.154  0.00  0.00    -0.023 A 
ATOM      4  C   UNL     1      -0.185   6.627  -5.528  0.00  0.00    +0.005 A 
ATOM      5  C   UNL     1      -0.331   5.333  -6.017  0.00  0.00    -0.002 A 
ATOM      6  C   UNL     1      -1.420   5.041  -6.828  0.00  0.00    -0.000 A 
ATOM      7  C   UNL     1      -2.618   5.575  -6.439  0.00  0.00    -0.000 A 
ATOM      8  C   UNL     1      -2.624   6.604  -5.505  0.00  0.00    -0.004 A 
ENDBRANCH   1   4
BRANCH   1   9
ATOM      9  C   UNL     1       2.115   6.173  -4.971  0.00  0.00    +0.009 A 
ATOM     10  C   UNL     1       2.885   5.284  -4.278  0.00  0.00    -0.002 A 
ATOM     11  C   UNL     1       4.212   5.156  -4.677  0.00  0.00    -0.000 A 
ATOM     12  C   UNL     1       4.614   5.753  -5.866  0.00  0.00    -0.000 A 
ATOM     13  C   UNL     1       3.737   6.572  -6.566  0.00  0.00    -0.000 A 
ATOM     14  C   UNL     1       2.562   6.990  -5.947  0.00  0.00    -0.002 A 
ENDBRANCH   1   9
BRANCH   1  15
ATOM     15  O   UNL     1       0.410   5.230  -3.723  0.00  0.00    -0.346 OA
BRANCH  15  16
ATOM     16  C   UNL     1      -0.031   5.494  -2.424  0.00  0.00    +0.160 C 
BRANCH  16  17
ATOM     17  C   UNL     1       0.874   4.813  -1.404  0.00  0.00    +0.105 C 
BRANCH  17  18
ATOM     18  N   UNL     1       1.199   5.788  -0.384  0.00  0.00    -0.268 NA
ATOM     19  C   UNL     1       0.086   6.680  -0.174  0.00  0.00    +0.090 C 
ATOM     20  C   UNL     1       2.389   6.520  -0.795  0.00  0.00    +0.090 C 
ENDBRANCH  17  18
ENDBRANCH  16  17
ENDBRANCH  15  16
ENDBRANCH   1  15
TORSDOF 6
ENDMDL
MODEL 4
REMARK VINA RESULT:      -6.4      3.594      5.743
REMARK  Name = 
REMARK  6 active torsions:
REMARK  status: ('A' for Active; 'I' for Inactive)
REMARK    1  A    between atoms: C_7  and  C_8
REMARK    2  A    between atoms: C_8  and  O_9
REMARK    3  A    between atoms: C_8  and  C_15
REMARK    4  A    between atoms: O_9  and  C_10
REMARK    5  A    between atoms: C_10  and  C_11
REMARK    6  A    between atoms: C_11  and  N_12
REMARK                            x       y       z     vdW  Elec       q    Type
REMARK                         _______ _______ _______ _____ _____    ______ ____
ROOT
ATOM      1  C   UNL     1       2.555   6.073  -5.653  0.00  0.00    +0.159 C 
ENDROOT
BRANCH   1   4
ATOM      2  C   UNL     1       2.098   7.787  -7.780  0.00  0.00    +0.031 C 
ATOM      3  C   UNL     1       3.161   6.953  -7.848  0.00  0.00    -0.023 A 
ATOM      4  C   UNL     1       3.782   6.401  -6.729  0.00  0.00    +0.005 A 
ATOM      5  C   UNL     1       4.514   5.263  -7.058  0.00  0.00    -0.002 A 
ATOM      6  C   UNL     1       5.237   5.251  -8.242  0.00  0.00    -0.000 A 
ATOM      7  C   UNL     1       4.608   5.783  -9.335  0.00  0.00    -0.000 A 
ATOM      8  C   UNL     1       3.483   6.575  -9.144  0.00  0.00    -0.004 A 
ENDBRANCH   1   4
BRANCH   1   9
ATOM      9  C   UNL     1       3.543   6.235  -4.337  0.00  0.00    +0.009 A 
ATOM     10  C   UNL     1       3.291   5.347  -3.331  0.00  0.00    -0.002 A 
ATOM     11  C   UNL     1       3.751   5.688  -2.062  0.00  0.00    -0.000 A 
ATOM     12  C   UNL     1       4.611   6.771  -1.930  0.00  0.00    -0.000 A 
ATOM     13  C   UNL     1       4.894   7.574  -3.028  0.00  0.00    -0.000 A 
ATOM     14  C   UNL     1       4.122   7.443  -4.178  0.00  0.00    -0.002 A 
ENDBRANCH   1   9
BRANCH   1  15
ATOM     15  O   UNL     1       2.777   4.530  -5.701  0.00  0.00    -0.346 OA
BRANCH  15  16
ATOM     16  C   UNL     1       1.514   4.139  -6.151  0.00  0.00    +0.160 C 
BRANCH  16  17
ATOM     17  C   UNL     1       0.450   5.121  -5.672  0.00  0.00    +0.105 C 
BRANCH  17  18
ATOM     18  N   UNL     1      -0.713   4.958  -6.518  0.00  0.00    -0.268 NA
ATOM     19  C   UNL     1      -0.408   5.360  -7.869  0.00  0.00    +0.090 C 
ATOM     20  C   UNL     1      -1.807   5.748  -5.970  0.00  0.00    +0.090 C 
ENDBRANCH  17  18
ENDBRANCH  16  17
ENDBRANCH  15  16
ENDBRANCH   1  15
TORSDOF 6
ENDMDL
MODEL 5
REMARK VINA RESULT:      -6.3      3.296      4.396
REMARK  Name = 
REMARK  6 active torsions:
REMARK  status: ('A' for Active; 'I' for Inactive)
REMARK    1  A    between atoms: C_7  and  C_8
REMARK    2  A    between atoms: C_8  and  O_9
REMARK    3  A    between atoms: C_8  and  C_15
REMARK    4  A    between atoms: O_9  and  C_10
REMARK    5  A    between atoms: C_10  and  C_11
REMARK    6  A    between atoms: C_11  and  N_12
REMARK                            x       y       z     vdW  Elec       q    Type
REMARK                         _______ _______ _______ _____ _____    ______ ____
ROOT
ATOM      1  C   UNL     1       3.285   5.719  -6.687  0.00  0.00    +0.159 C 
ENDROOT
BRANCH   1   4
ATOM      2  C   UNL     1       3.789   4.028  -4.553  0.00  0.00    +0.031 C 
ATOM      3  C   UNL     1       4.237   5.303  -4.479  0.00  0.00    -0.023 A 
ATOM      4  C   UNL     1       4.479   6.103  -5.594  0.00  0.00    +0.005 A 
ATOM      5  C   UNL     1       4.480   7.455  -5.264  0.00  0.00    -0.002 A 
ATOM      6  C   UNL     1       5.066   7.854  -4.071  0.00  0.00    -0.000 A 
ATOM      7  C   UNL     1       4.806   7.067  -2.982  0.00  0.00    -0.000 A 
ATOM      8  C   UNL     1       4.286   5.794  -3.182  0.00  0.00    -0.004 A 
ENDBRANCH   1   4
BRANCH   1   9
ATOM      9  C   UNL     1       4.243   6.061  -7.991  0.00  0.00    +0.009 A 
ATOM     10  C   UNL     1       3.608   6.730  -8.997  0.00  0.00    -0.002 A 
ATOM     11  C   UNL     1       4.187   6.661 -10.261  0.00  0.00    -0.000 A 
ATOM     12  C   UNL     1       5.461   6.120 -10.386  0.00  0.00    -0.000 A 
ATOM     13  C   UNL     1       6.082   5.539  -9.287  0.00  0.00    -0.000 A 
ATOM     14  C   UNL     1       5.329   5.276  -8.147  0.00  0.00    -0.002 A 
ENDBRANCH   1   9
BRANCH   1  15
ATOM     15  O   UNL     1       2.674   7.155  -6.689  0.00  0.00    -0.346 OA
BRANCH  15  16
ATOM     16  C   UNL     1       1.378   6.844  -6.272  0.00  0.00    +0.160 C 
BRANCH  16  17
ATOM     17  C   UNL     1       1.004   5.430  -6.702  0.00  0.00    +0.105 C 
BRANCH  17  18
ATOM     18  N   UNL     1      -0.080   4.983  -5.854  0.00  0.00    -0.268 NA
ATOM     19  C   UNL     1      -1.332   5.531  -6.315  0.00  0.00    +0.090 C 
ATOM     20  C   UNL     1       0.197   5.389  -4.483  0.00  0.00    +0.090 C 
ENDBRANCH  17  18
ENDBRANCH  16  17
ENDBRANCH  15  16
ENDBRANCH   1  15
TORSDOF 6
ENDMDL
MODEL 6
REMARK VINA RESULT:      -6.2      5.276      8.357
REMARK  Name = 
REMARK  6 active torsions:
REMARK  status: ('A' for Active; 'I' for Inactive)
REMARK    1  A    between atoms: C_7  and  C_8
REMARK    2  A    between atoms: C_8  and  O_9
REMARK    3  A    between atoms: C_8  and  C_15
REMARK    4  A    between atoms: O_9  and  C_10
REMARK    5  A    between atoms: C_10  and  C_11
REMARK    6  A    between atoms: C_11  and  N_12
REMARK                            x       y       z     vdW  Elec       q    Type
REMARK                         _______ _______ _______ _____ _____    ______ ____
ROOT
ATOM      1  C   UNL     1       0.709   5.236  -4.354  0.00  0.00    +0.159 C 
ENDROOT
BRANCH   1   4
ATOM      2  C   UNL     1       2.111   3.951  -6.368  0.00  0.00    +0.031 C 
ATOM      3  C   UNL     1       2.628   5.092  -5.856  0.00  0.00    -0.023 A 
ATOM      4  C   UNL     1       1.865   6.067  -5.217  0.00  0.00    +0.005 A 
ATOM      5  C   UNL     1       2.649   6.880  -4.403  0.00  0.00    -0.002 A 
ATOM      6  C   UNL     1       3.905   7.264  -4.851  0.00  0.00    -0.000 A 
ATOM      7  C   UNL     1       4.648   6.292  -5.463  0.00  0.00    -0.000 A 
ATOM      8  C   UNL     1       4.014   5.132  -5.891  0.00  0.00    -0.004 A 
ENDBRANCH   1   4
BRANCH   1   9
ATOM      9  C   UNL     1      -0.537   6.088  -5.031  0.00  0.00    +0.009 A 
ATOM     10  C   UNL     1      -0.782   7.294  -4.440  0.00  0.00    -0.002 A 
ATOM     11  C   UNL     1      -2.042   7.848  -4.640  0.00  0.00    -0.000 A 
ATOM     12  C   UNL     1      -2.884   7.274  -5.585  0.00  0.00    -0.000 A 
ATOM     13  C   UNL     1      -2.519   6.091  -6.216  0.00  0.00    -0.000 A 
ATOM     14  C   UNL     1      -1.445   5.361  -5.714  0.00  0.00    -0.002 A 
ENDBRANCH   1   9
BRANCH   1  15
ATOM     15  O   UNL     1       0.775   6.199  -3.128  0.00  0.00    -0.346 OA
BRANCH  15  16
ATOM     16  C   UNL     1       0.784   5.249  -2.103  0.00  0.00    +0.160 C 
BRANCH  16  17
ATOM     17  C   UNL     1       0.998   5.924  -0.753  0.00  0.00    +0.105 C 
BRANCH  17  18
ATOM     18  N   UNL     1       2.215   6.702  -0.837  0.00  0.00    -0.268 NA
ATOM     19  C   UNL     1       3.364   5.831  -0.847  0.00  0.00    +0.090 C 
ATOM     20  C   UNL     1       2.264   7.622   0.291  0.00  0.00    +0.090 C 
ENDBRANCH  17  18
ENDBRANCH  16  17
ENDBRANCH  15  16
ENDBRANCH   1  15
TORSDOF 6
ENDMDL
MODEL 7
REMARK VINA RESULT:      -6.2      3.039      4.728
REMARK  Name = 
REMARK  6 active torsions:
REMARK  status: ('A' for Active; 'I' for Inactive)
REMARK    1  A    between atoms: C_7  and  C_8
REMARK    2  A    between atoms: C_8  and  O_9
REMARK    3  A    between atoms: C_8  and  C_15
REMARK    4  A    between atoms: O_9  and  C_10
REMARK    5  A    between atoms: C_10  and  C_11
REMARK    6  A    between atoms: C_11  and  N_12
REMARK                            x       y       z     vdW  Elec       q    Type
REMARK                         _______ _______ _______ _____ _____    ______ ____
ROOT
ATOM      1  C   UNL     1       1.446   5.939  -6.717  0.00  0.00    +0.159 C 
ENDROOT
BRANCH   1   4
ATOM      2  C   UNL     1      -0.904   4.593  -7.295  0.00  0.00    +0.031 C 
ATOM      3  C   UNL     1      -0.931   5.543  -6.332  0.00  0.00    -0.023 A 
ATOM      4  C   UNL     1       0.195   5.954  -5.621  0.00  0.00    +0.005 A 
ATOM      5  C   UNL     1       0.009   7.209  -5.047  0.00  0.00    -0.002 A 
ATOM      6  C   UNL     1      -1.226   7.516  -4.494  0.00  0.00    -0.000 A 
ATOM      7  C   UNL     1      -2.322   7.120  -5.211  0.00  0.00    -0.000 A 
ATOM      8  C   UNL     1      -2.158   6.181  -6.223  0.00  0.00    -0.004 A 
ENDBRANCH   1   4
BRANCH   1   9
ATOM      9  C   UNL     1       2.602   5.898  -5.534  0.00  0.00    +0.009 A 
ATOM     10  C   UNL     1       3.333   7.045  -5.421  0.00  0.00    -0.002 A 
ATOM     11  C   UNL     1       4.570   6.943  -4.790  0.00  0.00    -0.000 A 
ATOM     12  C   UNL     1       4.888   5.763  -4.129  0.00  0.00    -0.000 A 
ATOM     13  C   UNL     1       4.041   4.665  -4.215  0.00  0.00    -0.000 A 
ATOM     14  C   UNL     1       3.021   4.671  -5.162  0.00  0.00    -0.002 A 
ENDBRANCH   1   9
BRANCH   1  15
ATOM     15  O   UNL     1       1.523   7.494  -6.816  0.00  0.00    -0.346 OA
BRANCH  15  16
ATOM     16  C   UNL     1       2.004   7.609  -8.122  0.00  0.00    +0.160 C 
BRANCH  16  17
ATOM     17  C   UNL     1       1.773   6.312  -8.891  0.00  0.00    +0.105 C 
BRANCH  17  18
ATOM     18  N   UNL     1       1.393   6.663 -10.243  0.00  0.00    -0.268 NA
ATOM     19  C   UNL     1       0.003   6.354 -10.467  0.00  0.00    +0.090 C 
ATOM     20  C   UNL     1       2.249   5.940 -11.174  0.00  0.00    +0.090 C 
ENDBRANCH  17  18
ENDBRANCH  16  17
ENDBRANCH  15  16
ENDBRANCH   1  15
TORSDOF 6
ENDMDL
MODEL 8
REMARK VINA RESULT:      -6.2      4.498      7.418
REMARK  Name = 
REMARK  6 active torsions:
REMARK  status: ('A' for Active; 'I' for Inactive)
REMARK    1  A    between atoms: C_7  and  C_8
REMARK    2  A    between atoms: C_8  and  O_9
REMARK    3  A    between atoms: C_8  and  C_15
REMARK    4  A    between atoms: O_9  and  C_10
REMARK    5  A    between atoms: C_10  and  C_11
REMARK    6  A    between atoms: C_11  and  N_12
REMARK                            x       y       z     vdW  Elec       q    Type
REMARK                         _______ _______ _______ _____ _____    ______ ____
ROOT
ATOM      1  C   UNL     1       0.375   7.018  -4.622  0.00  0.00    +0.159 C 
ENDROOT
BRANCH   1   4
ATOM      2  C   UNL     1      -1.889   8.613  -4.572  0.00  0.00    +0.031 C 
ATOM      3  C   UNL     1      -1.960   7.384  -4.011  0.00  0.00    -0.023 A 
ATOM      4  C   UNL     1      -1.116   6.329  -4.352  0.00  0.00    +0.005 A 
ATOM      5  C   UNL     1      -1.078   5.360  -3.354  0.00  0.00    -0.002 A 
ATOM      6  C   UNL     1      -2.253   5.030  -2.694  0.00  0.00    -0.000 A 
ATOM      7  C   UNL     1      -3.064   6.078  -2.352  0.00  0.00    -0.000 A 
ATOM      8  C   UNL     1      -2.853   7.314  -2.951  0.00  0.00    -0.004 A 
ENDBRANCH   1   4
BRANCH   1   9
ATOM      9  C   UNL     1       0.516   6.343  -6.125  0.00  0.00    +0.009 A 
ATOM     10  C   UNL     1       1.518   6.869  -6.888  0.00  0.00    -0.002 A 
ATOM     11  C   UNL     1       1.423   6.686  -8.264  0.00  0.00    -0.000 A 
ATOM     12  C   UNL     1       0.463   5.812  -8.759  0.00  0.00    -0.000 A 
ATOM     13  C   UNL     1      -0.467   5.240  -7.900  0.00  0.00    -0.000 A 
ATOM     14  C   UNL     1      -0.591   5.741  -6.607  0.00  0.00    -0.002 A 
ENDBRANCH   1   9
BRANCH   1  15
ATOM     15  O   UNL     1       1.159   5.844  -3.959  0.00  0.00    -0.346 OA
BRANCH  15  16
ATOM     16  C   UNL     1       2.209   6.572  -3.393  0.00  0.00    +0.160 C 
BRANCH  16  17
ATOM     17  C   UNL     1       3.382   5.653  -3.071  0.00  0.00    +0.105 C 
BRANCH  17  18
ATOM     18  N   UNL     1       4.485   6.029  -3.930  0.00  0.00    -0.268 NA
ATOM     19  C   UNL     1       4.322   7.387  -4.386  0.00  0.00    +0.090 C 
ATOM     20  C   UNL     1       4.544   5.102  -5.053  0.00  0.00    +0.090 C 
ENDBRANCH  17  18
ENDBRANCH  16  17
ENDBRANCH  15  16
ENDBRANCH   1  15
TORSDOF 6
ENDMDL
MODEL 9
REMARK VINA RESULT:      -6.2      4.195      6.682
REMARK  Name = 
REMARK  6 active torsions:
REMARK  status: ('A' for Active; 'I' for Inactive)
REMARK    1  A    between atoms: C_7  and  C_8
REMARK    2  A    between atoms: C_8  and  O_9
REMARK    3  A    between atoms: C_8  and  C_15
REMARK    4  A    between atoms: O_9  and  C_10
REMARK    5  A    between atoms: C_10  and  C_11
REMARK    6  A    between atoms: C_11  and  N_12
REMARK                            x       y       z     vdW  Elec       q    Type
REMARK                         _______ _______ _______ _____ _____    ______ ____
ROOT
ATOM      1  C   UNL     1       1.134   6.966  -4.988  0.00  0.00    +0.159 C 
ENDROOT
BRANCH   1   4
ATOM      2  C   UNL     1      -1.317   8.173  -4.537  0.00  0.00    +0.031 C 
ATOM      3  C   UNL     1      -1.274   7.101  -5.361  0.00  0.00    -0.023 A 
ATOM      4  C   UNL     1      -0.127   6.694  -6.040  0.00  0.00    +0.005 A 
ATOM      5  C   UNL     1      -0.209   5.361  -6.432  0.00  0.00    -0.002 A 
ATOM      6  C   UNL     1      -1.420   4.876  -6.906  0.00  0.00    -0.000 A 
ATOM      7  C   UNL     1      -2.536   5.272  -6.220  0.00  0.00    -0.000 A 
ATOM      8  C   UNL     1      -2.442   6.351  -5.350  0.00  0.00    -0.004 A 
ENDBRANCH   1   4
BRANCH   1   9
ATOM      9  C   UNL     1       2.270   6.894  -6.189  0.00  0.00    +0.009 A 
ATOM     10  C   UNL     1       1.947   7.597  -7.314  0.00  0.00    -0.002 A 
ATOM     11  C   UNL     1       2.600   7.239  -8.489  0.00  0.00    -0.000 A 
ATOM     12  C   UNL     1       3.676   6.363  -8.417  0.00  0.00    -0.000 A 
ATOM     13  C   UNL     1       4.002   5.758  -7.209  0.00  0.00    -0.000 A 
ATOM     14  C   UNL     1       3.101   5.832  -6.151  0.00  0.00    -0.002 A 
ENDBRANCH   1   9
BRANCH   1  15
ATOM     15  O   UNL     1       1.319   5.455  -4.646  0.00  0.00    -0.346 OA
BRANCH  15  16
ATOM     16  C   UNL     1       1.291   5.541  -3.252  0.00  0.00    +0.160 C 
BRANCH  16  17
ATOM     17  C   UNL     1       2.706   5.475  -2.686  0.00  0.00    +0.105 C 
BRANCH  17  18
ATOM     18  N   UNL     1       2.898   6.638  -1.845  0.00  0.00    -0.268 NA
ATOM     19  C   UNL     1       3.654   7.643  -2.550  0.00  0.00    +0.090 C 
ATOM     20  C   UNL     1       3.579   6.228  -0.625  0.00  0.00    +0.090 C 
ENDBRANCH  17  18
ENDBRANCH  16  17
ENDBRANCH  15  16
ENDBRANCH   1  15
TORSDOF 6
ENDMDL
