MODEL 1
REMARK VINA RESULT:      -8.3      0.000      0.000
REMARK  Name = 
REMARK  19 active torsions:
REMARK  status: ('A' for Active; 'I' for Inactive)
REMARK    1  A    between atoms: O_2  and  C_3
REMARK    2  A    between atoms: C_3  and  C_4
REMARK    3  A    between atoms: C_4  and  C_5
REMARK    4  A    between atoms: C_5  and  O_6
REMARK    5  A    between atoms: O_6  and  C_7
REMARK    6  A    between atoms: C_9  and  C_10
REMARK    7  A    between atoms: C_10  and  C_11
REMARK    8  A    between atoms: C_11  and  C_12
REMARK    9  A    between atoms: C_11  and  C_32
REMARK   10  A    between atoms: C_12  and  C_13
REMARK   11  A    between atoms: C_13  and  C_15
REMARK   12  A    between atoms: C_15  and  C_17
REMARK   13  A    between atoms: C_17  and  C_18
REMARK   14  A    between atoms: C_18  and  C_19
REMARK   15  A    between atoms: C_18  and  C_29
REMARK   16  A    between atoms: N_21  and  C_22
REMARK   17  A    between atoms: C_22  and  C_23
REMARK   18  A    between atoms: C_23  and  C_26
REMARK   19  A    between atoms: C_37  and  O_38
REMARK                            x       y       z     vdW  Elec       q    Type
REMARK                         _______ _______ _______ _____ _____    ______ ____
ROOT
ATOM      1  C   UNL     1       3.047   5.917  -5.918  0.00  0.00    +0.022 C 
ENDROOT
BRANCH   1   2
ATOM      2  C   UNL     1       2.015   5.094  -6.875  0.00  0.00    +0.122 C 
ATOM      3  N   UNL     1       2.228   3.800  -6.027  0.00  0.00    -0.130 NA
BRANCH   2   4
ATOM      4  C   UNL     1       3.217   4.795  -8.072  0.00  0.00    +0.170 C 
ATOM      5  O   UNL     1       2.481   3.664  -8.755  0.00  0.00    -0.222 OA
BRANCH   4   6
ATOM      6  C   UNL     1       2.607   5.861  -9.146  0.00  0.00    +0.044 C 
BRANCH   6   7
ATOM      7  C   UNL     1       2.416   5.007 -10.524  0.00  0.00    +0.081 C 
BRANCH   7   8
ATOM      8  C   UNL     1       3.449   5.918 -11.353  0.00  0.00    +0.241 C 
ATOM      9  N   UNL     1       4.734   6.103 -10.754  0.00  0.00    -0.205 NA
ATOM     10  O   UNL     1       3.536   5.644 -12.585  0.00  0.00    -0.273 OA
BRANCH   9  11
ATOM     11  C   UNL     1       5.784   6.764 -11.480  0.00  0.00    +0.124 C 
BRANCH  11  12
ATOM     12  C   UNL     1       7.170   6.448 -11.025  0.00  0.00    +0.092 C 
ATOM     13  C   UNL     1       7.908   7.670 -10.482  0.00  0.00    +0.011 C 
ATOM     14  C   UNL     1       7.058   5.518  -9.821  0.00  0.00    +0.011 C 
BRANCH  12  15
ATOM     15  C   UNL     1       7.994   5.753 -12.025  0.00  0.00    +0.261 C 
ATOM     16  O   UNL     1       9.232   5.988 -12.027  0.00  0.00    -0.272 OA
ATOM     17  N   UNL     1       7.565   4.693 -12.851  0.00  0.00    -0.088 NA
ENDBRANCH  12  15
ENDBRANCH  11  12
ENDBRANCH   9  11
ENDBRANCH   7   8
BRANCH   7  18
ATOM     18  C   UNL     1       1.091   5.777 -11.075  0.00  0.00    +0.009 C 
ATOM     19  C   UNL     1       0.093   4.882 -11.606  0.00  0.00    +0.000 C 
ATOM     20  C   UNL     1       0.687   6.778 -10.061  0.00  0.00    +0.000 C 
ENDBRANCH   7  18
ENDBRANCH   6   7
ENDBRANCH   4   6
ENDBRANCH   2   4
ENDBRANCH   1   2
BRANCH   1  21
ATOM     21  C   UNL     1       2.757   5.287  -4.441  0.00  0.00    +0.006 C 
BRANCH  21  22
ATOM     22  C   UNL     1       4.149   5.864  -3.817  0.00  0.00    +0.000 C 
ATOM     23  C   UNL     1       5.089   4.715  -4.179  0.00  0.00    +0.000 C 
ATOM     24  C   UNL     1       4.590   7.009  -4.693  0.00  0.00    +0.000 C 
ENDBRANCH  21  22
BRANCH  21  25
ATOM     25  C   UNL     1       1.808   6.519  -3.970  0.00  0.00    +0.026 C 
BRANCH  25  30
ATOM     26  C   UNL     1      -1.106   5.388  -2.064  0.00  0.00    +0.172 A 
ATOM     27  C   UNL     1      -0.927   5.922  -0.796  0.00  0.00    +0.172 A 
ATOM     28  C   UNL     1       0.381   6.281  -0.494  0.00  0.00    +0.040 A 
ATOM     29  C   UNL     1       1.350   6.375  -1.487  0.00  0.00    -0.001 A 
ATOM     30  C   UNL     1       1.016   6.204  -2.827  0.00  0.00    -0.019 A 
ATOM     31  C   UNL     1      -0.133   5.451  -3.045  0.00  0.00    +0.036 A 
BRANCH  27  32
ATOM     32  O   UNL     1      -2.025   6.637  -0.302  0.00  0.00    -0.468 OA
ATOM     33  C   UNL     1      -1.906   7.642   0.678  0.00  0.00    +0.253 C 
ENDBRANCH  27  32
BRANCH  26  34
ATOM     34  O   UNL     1      -2.301   4.798  -2.440  0.00  0.00    -0.472 OA
BRANCH  34  35
ATOM     35  C   UNL     1      -3.140   5.272  -3.455  0.00  0.00    +0.208 C 
BRANCH  35  36
ATOM     36  C   UNL     1      -2.890   6.747  -3.714  0.00  0.00    +0.079 C 
BRANCH  36  37
ATOM     37  C   UNL     1      -2.539   6.906  -5.189  0.00  0.00    +0.146 C 
BRANCH  37  39
ATOM     38  C   UNL     1      -1.527   5.539  -6.717  0.00  0.00    +0.174 C 
ATOM     39  O   UNL     1      -2.499   5.635  -5.740  0.00  0.00    -0.351 OA
ENDBRANCH  37  39
ENDBRANCH  36  37
ENDBRANCH  35  36
ENDBRANCH  34  35
ENDBRANCH  26  34
ENDBRANCH  25  30
ENDBRANCH  21  25
ENDBRANCH   1  21
TORSDOF 19
ENDMDL
MODEL 2
REMARK VINA RESULT:      -8.0      2.400     10.510
REMARK  Name = 
REMARK  19 active torsions:
REMARK  status: ('A' for Active; 'I' for Inactive)
REMARK    1  A    between atoms: O_2  and  C_3
REMARK    2  A    between atoms: C_3  and  C_4
REMARK    3  A    between atoms: C_4  and  C_5
REMARK    4  A    between atoms: C_5  and  O_6
REMARK    5  A    between atoms: O_6  and  C_7
REMARK    6  A    between atoms: C_9  and  C_10
REMARK    7  A    between atoms: C_10  and  C_11
REMARK    8  A    between atoms: C_11  and  C_12
REMARK    9  A    between atoms: C_11  and  C_32
REMARK   10  A    between atoms: C_12  and  C_13
REMARK   11  A    between atoms: C_13  and  C_15
REMARK   12  A    between atoms: C_15  and  C_17
REMARK   13  A    between atoms: C_17  and  C_18
REMARK   14  A    between atoms: C_18  and  C_19
REMARK   15  A    between atoms: C_18  and  C_29
REMARK   16  A    between atoms: N_21  and  C_22
REMARK   17  A    between atoms: C_22  and  C_23
REMARK   18  A    between atoms: C_23  and  C_26
REMARK   19  A    between atoms: C_37  and  O_38
REMARK                            x       y       z     vdW  Elec       q    Type
REMARK                         _______ _______ _______ _____ _____    ______ ____
ROOT
ATOM      1  C   UNL     1       1.983   5.740  -8.228  0.00  0.00    +0.022 C 
ENDROOT
BRANCH   1   2
ATOM      2  C   UNL     1       3.225   4.989  -7.486  0.00  0.00    +0.122 C 
ATOM      3  N   UNL     1       2.956   3.688  -8.307  0.00  0.00    -0.130 NA
BRANCH   2   4
ATOM      4  C   UNL     1       2.282   4.595  -6.100  0.00  0.00    +0.170 C 
ATOM      5  O   UNL     1       3.438   4.100  -5.259  0.00  0.00    -0.222 OA
BRANCH   4   6
ATOM      6  C   UNL     1       2.407   6.076  -5.427  0.00  0.00    +0.044 C 
BRANCH   6   7
ATOM      7  C   UNL     1       3.247   5.841  -4.047  0.00  0.00    +0.081 C 
BRANCH   7   8
ATOM      8  C   UNL     1       1.983   6.151  -3.103  0.00  0.00    +0.241 C 
ATOM      9  N   UNL     1       0.745   6.384  -3.779  0.00  0.00    -0.205 NA
ATOM     10  O   UNL     1       1.845   5.370  -2.117  0.00  0.00    -0.273 OA
BRANCH   9  11
ATOM     11  C   UNL     1      -0.477   6.513  -3.032  0.00  0.00    +0.124 C 
BRANCH  11  12
ATOM     12  C   UNL     1      -1.727   6.508  -3.848  0.00  0.00    +0.092 C 
ATOM     13  C   UNL     1      -2.106   7.896  -4.358  0.00  0.00    +0.011 C 
ATOM     14  C   UNL     1      -1.444   5.711  -5.117  0.00  0.00    +0.011 C 
BRANCH  12  15
ATOM     15  C   UNL     1      -2.877   5.870  -3.191  0.00  0.00    +0.261 C 
ATOM     16  O   UNL     1      -2.805   4.633  -2.959  0.00  0.00    -0.272 OA
ATOM     17  N   UNL     1      -3.970   6.545  -2.609  0.00  0.00    -0.088 NA
ENDBRANCH  12  15
ENDBRANCH  11  12
ENDBRANCH   9  11
ENDBRANCH   7   8
BRANCH   7  18
ATOM     18  C   UNL     1       3.876   7.337  -3.919  0.00  0.00    +0.009 C 
ATOM     19  C   UNL     1       3.784   7.881  -2.586  0.00  0.00    +0.000 C 
ATOM     20  C   UNL     1       5.189   7.344  -4.604  0.00  0.00    +0.000 C 
ENDBRANCH   7  18
ENDBRANCH   6   7
ENDBRANCH   4   6
ENDBRANCH   2   4
ENDBRANCH   1   2
BRANCH   1  21
ATOM     21  C   UNL     1       1.985   5.068  -9.715  0.00  0.00    +0.006 C 
BRANCH  21  22
ATOM     22  C   UNL     1       0.470   5.573 -10.049  0.00  0.00    +0.000 C 
ATOM     23  C   UNL     1      -0.026   4.380 -10.864  0.00  0.00    +0.000 C 
ATOM     24  C   UNL     1      -0.314   5.511  -8.764  0.00  0.00    +0.000 C 
ENDBRANCH  21  22
BRANCH  21  25
ATOM     25  C   UNL     1       2.762   6.314 -10.408  0.00  0.00    +0.026 C 
BRANCH  25  30
ATOM     26  C   UNL     1       5.086   5.330 -13.061  0.00  0.00    +0.172 A 
ATOM     27  C   UNL     1       4.512   5.813 -14.229  0.00  0.00    +0.172 A 
ATOM     28  C   UNL     1       3.149   6.072 -14.146  0.00  0.00    +0.040 A 
ATOM     29  C   UNL     1       2.501   6.129 -12.917  0.00  0.00    -0.001 A 
ATOM     30  C   UNL     1       3.216   6.021 -11.728  0.00  0.00    -0.019 A 
ATOM     31  C   UNL     1       4.432   5.356 -11.843  0.00  0.00    +0.036 A 
BRANCH  27  32
ATOM     32  O   UNL     1       5.367   6.587 -15.024  0.00  0.00    -0.468 OA
ATOM     33  C   UNL     1       4.948   7.211 -16.215  0.00  0.00    +0.253 C 
ENDBRANCH  27  32
BRANCH  26  34
ATOM     34  O   UNL     1       6.379   4.836 -13.039  0.00  0.00    -0.472 OA
BRANCH  34  35
ATOM     35  C   UNL     1       7.265   4.967 -11.964  0.00  0.00    +0.208 C 
BRANCH  35  36
ATOM     36  C   UNL     1       7.958   6.318 -12.000  0.00  0.00    +0.079 C 
BRANCH  36  37
ATOM     37  C   UNL     1       7.846   6.933 -10.610  0.00  0.00    +0.146 C 
BRANCH  37  39
ATOM     38  C   UNL     1       6.424   8.497 -11.481  0.00  0.00    +0.174 C 
ATOM     39  O   UNL     1       6.594   7.518 -10.520  0.00  0.00    -0.351 OA
ENDBRANCH  37  39
ENDBRANCH  36  37
ENDBRANCH  35  36
ENDBRANCH  34  35
ENDBRANCH  26  34
ENDBRANCH  25  30
ENDBRANCH  21  25
ENDBRANCH   1  21
TORSDOF 19
ENDMDL
MODEL 3
REMARK VINA RESULT:      -7.8      2.469     10.565
REMARK  Name = 
REMARK  19 active torsions:
REMARK  status: ('A' for Active; 'I' for Inactive)
REMARK    1  A    between atoms: O_2  and  C_3
REMARK    2  A    between atoms: C_3  and  C_4
REMARK    3  A    between atoms: C_4  and  C_5
REMARK    4  A    between atoms: C_5  and  O_6
REMARK    5  A    between atoms: O_6  and  C_7
REMARK    6  A    between atoms: C_9  and  C_10
REMARK    7  A    between atoms: C_10  and  C_11
REMARK    8  A    between atoms: C_11  and  C_12
REMARK    9  A    between atoms: C_11  and  C_32
REMARK   10  A    between atoms: C_12  and  C_13
REMARK   11  A    between atoms: C_13  and  C_15
REMARK   12  A    between atoms: C_15  and  C_17
REMARK   13  A    between atoms: C_17  and  C_18
REMARK   14  A    between atoms: C_18  and  C_19
REMARK   15  A    between atoms: C_18  and  C_29
REMARK   16  A    between atoms: N_21  and  C_22
REMARK   17  A    between atoms: C_22  and  C_23
REMARK   18  A    between atoms: C_23  and  C_26
REMARK   19  A    between atoms: C_37  and  O_38
REMARK                            x       y       z     vdW  Elec       q    Type
REMARK                         _______ _______ _______ _____ _____    ______ ____
ROOT
ATOM      1  C   UNL     1       1.207   5.319  -9.087  0.00  0.00    +0.022 C 
ENDROOT
BRANCH   1   2
ATOM      2  C   UNL     1       2.444   5.031  -8.064  0.00  0.00    +0.122 C 
ATOM      3  N   UNL     1       2.643   3.606  -8.672  0.00  0.00    -0.130 NA
BRANCH   2   4
ATOM      4  C   UNL     1       1.395   4.594  -6.770  0.00  0.00    +0.170 C 
ATOM      5  O   UNL     1       2.370   3.663  -6.085  0.00  0.00    -0.222 OA
BRANCH   4   6
ATOM      6  C   UNL     1       1.859   5.820  -5.800  0.00  0.00    +0.044 C 
BRANCH   6   7
ATOM      7  C   UNL     1       2.523   5.096  -4.496  0.00  0.00    +0.081 C 
BRANCH   7   8
ATOM      8  C   UNL     1       1.471   5.747  -3.469  0.00  0.00    +0.241 C 
ATOM      9  N   UNL     1       0.109   5.351  -3.641  0.00  0.00    -0.205 NA
ATOM     10  O   UNL     1       1.822   5.723  -2.254  0.00  0.00    -0.273 OA
BRANCH   9  11
ATOM     11  C   UNL     1      -0.888   5.746  -2.684  0.00  0.00    +0.124 C 
BRANCH  11  12
ATOM     12  C   UNL     1      -2.180   6.216  -3.265  0.00  0.00    +0.092 C 
ATOM     13  C   UNL     1      -3.170   5.078  -3.506  0.00  0.00    +0.011 C 
ATOM     14  C   UNL     1      -2.866   7.088  -2.218  0.00  0.00    +0.011 C 
BRANCH  12  15
ATOM     15  C   UNL     1      -2.037   7.038  -4.477  0.00  0.00    +0.261 C 
ATOM     16  O   UNL     1      -2.388   6.526  -5.573  0.00  0.00    -0.272 OA
ATOM     17  N   UNL     1      -1.738   8.415  -4.505  0.00  0.00    -0.088 NA
ENDBRANCH  12  15
ENDBRANCH  11  12
ENDBRANCH   9  11
ENDBRANCH   7   8
BRANCH   7  18
ATOM     18  C   UNL     1       3.688   6.197  -4.206  0.00  0.00    +0.009 C 
ATOM     19  C   UNL     1       4.955   5.604  -3.853  0.00  0.00    +0.000 C 
ATOM     20  C   UNL     1       3.648   7.205  -5.290  0.00  0.00    +0.000 C 
ENDBRANCH   7  18
ENDBRANCH   6   7
ENDBRANCH   4   6
ENDBRANCH   2   4
ENDBRANCH   1   2
BRANCH   1  21
ATOM     21  C   UNL     1       1.788   4.796 -10.520  0.00  0.00    +0.006 C 
BRANCH  21  22
ATOM     22  C   UNL     1       0.312   4.757 -11.212  0.00  0.00    +0.000 C 
ATOM     23  C   UNL     1      -0.121   6.203 -10.979  0.00  0.00    +0.000 C 
ATOM     24  C   UNL     1       0.519   4.654 -12.700  0.00  0.00    +0.000 C 
ENDBRANCH  21  22
BRANCH  21  25
ATOM     25  C   UNL     1       2.202   6.281 -11.030  0.00  0.00    +0.026 C 
BRANCH  25  30
ATOM     26  C   UNL     1       5.444   5.845 -12.674  0.00  0.00    +0.172 A 
ATOM     27  C   UNL     1       6.379   6.148 -11.695  0.00  0.00    +0.172 A 
ATOM     28  C   UNL     1       5.894   6.912 -10.641  0.00  0.00    +0.040 A 
ATOM     29  C   UNL     1       4.528   7.086 -10.448  0.00  0.00    -0.001 A 
ATOM     30  C   UNL     1       3.604   6.423 -11.249  0.00  0.00    -0.019 A 
ATOM     31  C   UNL     1       4.087   6.047 -12.497  0.00  0.00    +0.036 A 
BRANCH  27  32
ATOM     32  O   UNL     1       7.370   5.175 -11.512  0.00  0.00    -0.468 OA
ATOM     33  C   UNL     1       8.740   5.429 -11.719  0.00  0.00    +0.253 C 
ENDBRANCH  27  32
BRANCH  26  34
ATOM     34  O   UNL     1       5.814   5.271 -13.878  0.00  0.00    -0.472 OA
BRANCH  34  35
ATOM     35  C   UNL     1       6.723   5.831 -14.783  0.00  0.00    +0.208 C 
BRANCH  35  36
ATOM     36  C   UNL     1       6.493   7.325 -14.921  0.00  0.00    +0.079 C 
BRANCH  36  37
ATOM     37  C   UNL     1       5.472   7.537 -16.032  0.00  0.00    +0.146 C 
BRANCH  37  39
ATOM     38  C   UNL     1       6.057   9.179 -17.513  0.00  0.00    +0.174 C 
ATOM     39  O   UNL     1       5.442   8.895 -16.307  0.00  0.00    -0.351 OA
ENDBRANCH  37  39
ENDBRANCH  36  37
ENDBRANCH  35  36
ENDBRANCH  34  35
ENDBRANCH  26  34
ENDBRANCH  25  30
ENDBRANCH  21  25
ENDBRANCH   1  21
TORSDOF 19
ENDMDL
MODEL 4
REMARK VINA RESULT:      -7.8      3.704      8.964
REMARK  Name = 
REMARK  19 active torsions:
REMARK  status: ('A' for Active; 'I' for Inactive)
REMARK    1  A    between atoms: O_2  and  C_3
REMARK    2  A    between atoms: C_3  and  C_4
REMARK    3  A    between atoms: C_4  and  C_5
REMARK    4  A    between atoms: C_5  and  O_6
REMARK    5  A    between atoms: O_6  and  C_7
REMARK    6  A    between atoms: C_9  and  C_10
REMARK    7  A    between atoms: C_10  and  C_11
REMARK    8  A    between atoms: C_11  and  C_12
REMARK    9  A    between atoms: C_11  and  C_32
REMARK   10  A    between atoms: C_12  and  C_13
REMARK   11  A    between atoms: C_13  and  C_15
REMARK   12  A    between atoms: C_15  and  C_17
REMARK   13  A    between atoms: C_17  and  C_18
REMARK   14  A    between atoms: C_18  and  C_19
REMARK   15  A    between atoms: C_18  and  C_29
REMARK   16  A    between atoms: N_21  and  C_22
REMARK   17  A    between atoms: C_22  and  C_23
REMARK   18  A    between atoms: C_23  and  C_26
REMARK   19  A    between atoms: C_37  and  O_38
REMARK                            x       y       z     vdW  Elec       q    Type
REMARK                         _______ _______ _______ _____ _____    ______ ____
ROOT
ATOM      1  C   UNL     1       0.048   6.181  -3.325  0.00  0.00    +0.022 C 
ENDROOT
BRANCH   1   2
ATOM      2  C   UNL     1       0.412   4.870  -2.427  0.00  0.00    +0.122 C 
ATOM      3  N   UNL     1      -0.661   5.272  -1.366  0.00  0.00    -0.130 NA
BRANCH   2   4
ATOM      4  C   UNL     1       1.771   5.633  -1.694  0.00  0.00    +0.170 C 
ATOM      5  O   UNL     1       2.142   4.471  -0.800  0.00  0.00    -0.222 OA
BRANCH   4   6
ATOM      6  C   UNL     1       2.835   5.127  -2.821  0.00  0.00    +0.044 C 
BRANCH   6   7
ATOM      7  C   UNL     1       4.223   5.913  -2.472  0.00  0.00    +0.081 C 
BRANCH   7   8
ATOM      8  C   UNL     1       3.481   7.308  -2.179  0.00  0.00    +0.241 C 
ATOM      9  N   UNL     1       4.072   8.126  -1.166  0.00  0.00    -0.205 NA
ATOM     10  O   UNL     1       3.171   7.978  -3.206  0.00  0.00    -0.273 OA
BRANCH   9  11
ATOM     11  C   UNL     1       3.587   9.459  -0.935  0.00  0.00    +0.124 C 
BRANCH  11  12
ATOM     12  C   UNL     1       3.266   9.783   0.487  0.00  0.00    +0.092 C 
ATOM     13  C   UNL     1       4.356   9.335   1.456  0.00  0.00    +0.011 C 
ATOM     14  C   UNL     1       3.254  11.303   0.620  0.00  0.00    +0.011 C 
BRANCH  12  15
ATOM     15  C   UNL     1       1.950   9.305   0.936  0.00  0.00    +0.261 C 
ATOM     16  O   UNL     1       1.903   8.187   1.517  0.00  0.00    -0.272 OA
ATOM     17  N   UNL     1       0.764  10.067   0.963  0.00  0.00    -0.088 NA
ENDBRANCH  12  15
ENDBRANCH  11  12
ENDBRANCH   9  11
ENDBRANCH   7   8
BRANCH   7  18
ATOM     18  C   UNL     1       4.640   6.304  -3.996  0.00  0.00    +0.009 C 
ATOM     19  C   UNL     1       5.842   7.098  -4.071  0.00  0.00    +0.000 C 
ATOM     20  C   UNL     1       4.538   5.084  -4.829  0.00  0.00    +0.000 C 
ENDBRANCH   7  18
ENDBRANCH   6   7
ENDBRANCH   4   6
ENDBRANCH   2   4
ENDBRANCH   1   2
BRANCH   1  21
ATOM     21  C   UNL     1      -0.260   5.543  -4.795  0.00  0.00    +0.006 C 
BRANCH  21  22
ATOM     22  C   UNL     1      -1.868   5.780  -4.666  0.00  0.00    +0.000 C 
ATOM     23  C   UNL     1      -1.890   7.292  -4.451  0.00  0.00    +0.000 C 
ATOM     24  C   UNL     1      -2.460   5.581  -6.038  0.00  0.00    +0.000 C 
ENDBRANCH  21  22
BRANCH  21  25
ATOM     25  C   UNL     1       0.076   6.916  -5.594  0.00  0.00    +0.026 C 
BRANCH  25  30
ATOM     26  C   UNL     1       1.682   5.490  -8.559  0.00  0.00    +0.172 A 
ATOM     27  C   UNL     1       3.014   5.865  -8.453  0.00  0.00    +0.172 A 
ATOM     28  C   UNL     1       3.250   6.953  -7.621  0.00  0.00    +0.040 A 
ATOM     29  C   UNL     1       2.272   7.414  -6.745  0.00  0.00    -0.001 A 
ATOM     30  C   UNL     1       1.062   6.741  -6.610  0.00  0.00    -0.019 A 
ATOM     31  C   UNL     1       0.702   5.972  -7.710  0.00  0.00    +0.036 A 
BRANCH  27  32
ATOM     32  O   UNL     1       3.930   4.812  -8.576  0.00  0.00    -0.468 OA
ATOM     33  C   UNL     1       5.325   5.003  -8.527  0.00  0.00    +0.253 C 
ENDBRANCH  27  32
BRANCH  26  34
ATOM     34  O   UNL     1       1.262   4.565  -9.499  0.00  0.00    -0.472 OA
BRANCH  34  35
ATOM     35  C   UNL     1       0.155   4.727 -10.339  0.00  0.00    +0.208 C 
BRANCH  35  36
ATOM     36  C   UNL     1       0.372   5.883 -11.299  0.00  0.00    +0.079 C 
BRANCH  36  37
ATOM     37  C   UNL     1       1.327   5.409 -12.388  0.00  0.00    +0.146 C 
BRANCH  37  39
ATOM     38  C   UNL     1       3.548   5.843 -12.053  0.00  0.00    +0.174 C 
ATOM     39  O   UNL     1       2.338   6.352 -12.486  0.00  0.00    -0.351 OA
ENDBRANCH  37  39
ENDBRANCH  36  37
ENDBRANCH  35  36
ENDBRANCH  34  35
ENDBRANCH  26  34
ENDBRANCH  25  30
ENDBRANCH  21  25
ENDBRANCH   1  21
TORSDOF 19
ENDMDL
MODEL 5
REMARK VINA RESULT:      -7.8      2.936      5.712
REMARK  Name = 
REMARK  19 active torsions:
REMARK  status: ('A' for Active; 'I' for Inactive)
REMARK    1  A    between atoms: O_2  and  C_3
REMARK    2  A    between atoms: C_3  and  C_4
REMARK    3  A    between atoms: C_4  and  C_5
REMARK    4  A    between atoms: C_5  and  O_6
REMARK    5  A    between atoms: O_6  and  C_7
REMARK    6  A    between atoms: C_9  and  C_10
REMARK    7  A    between atoms: C_10  and  C_11
REMARK    8  A    between atoms: C_11  and  C_12
REMARK    9  A    between atoms: C_11  and  C_32
REMARK   10  A    between atoms: C_12  and  C_13
REMARK   11  A    between atoms: C_13  and  C_15
REMARK   12  A    between atoms: C_15  and  C_17
REMARK   13  A    between atoms: C_17  and  C_18
REMARK   14  A    between atoms: C_18  and  C_19
REMARK   15  A    between atoms: C_18  and  C_29
REMARK   16  A    between atoms: N_21  and  C_22
REMARK   17  A    between atoms: C_22  and  C_23
REMARK   18  A    between atoms: C_23  and  C_26
REMARK   19  A    between atoms: C_37  and  O_38
REMARK                            x       y       z     vdW  Elec       q    Type
REMARK                         _______ _______ _______ _____ _____    ______ ____
ROOT
ATOM      1  C   UNL     1       2.218   5.300  -9.985  0.00  0.00    +0.022 C 
ENDROOT
BRANCH   1   2
ATOM      2  C   UNL     1       3.634   5.947  -9.503  0.00  0.00    +0.122 C 
ATOM      3  N   UNL     1       2.898   7.217  -8.970  0.00  0.00    -0.130 NA
BRANCH   2   4
ATOM      4  C   UNL     1       4.011   6.532 -11.078  0.00  0.00    +0.170 C 
ATOM      5  O   UNL     1       4.931   7.641 -10.618  0.00  0.00    -0.222 OA
BRANCH   4   6
ATOM      6  C   UNL     1       5.289   5.540 -11.289  0.00  0.00    +0.044 C 
BRANCH   6   7
ATOM      7  C   UNL     1       6.484   6.505 -11.840  0.00  0.00    +0.081 C 
BRANCH   7   8
ATOM      8  C   UNL     1       6.405   5.924 -13.337  0.00  0.00    +0.241 C 
ATOM      9  N   UNL     1       6.766   6.834 -14.378  0.00  0.00    -0.205 NA
ATOM     10  O   UNL     1       6.933   4.785 -13.499  0.00  0.00    -0.273 OA
BRANCH   9  11
ATOM     11  C   UNL     1       6.884   6.375 -15.735  0.00  0.00    +0.124 C 
BRANCH  11  12
ATOM     12  C   UNL     1       6.400   7.330 -16.776  0.00  0.00    +0.092 C 
ATOM     13  C   UNL     1       7.439   8.388 -17.137  0.00  0.00    +0.011 C 
ATOM     14  C   UNL     1       6.207   6.543 -18.068  0.00  0.00    +0.011 C 
BRANCH  12  15
ATOM     15  C   UNL     1       5.109   7.963 -16.465  0.00  0.00    +0.261 C 
ATOM     16  O   UNL     1       5.063   9.222 -16.458  0.00  0.00    -0.272 OA
ATOM     17  N   UNL     1       3.869   7.298 -16.374  0.00  0.00    -0.088 NA
ENDBRANCH  12  15
ENDBRANCH  11  12
ENDBRANCH   9  11
ENDBRANCH   7   8
BRANCH   7  18
ATOM     18  C   UNL     1       7.741   5.567 -11.402  0.00  0.00    +0.009 C 
ATOM     19  C   UNL     1       8.992   5.983 -11.985  0.00  0.00    +0.000 C 
ATOM     20  C   UNL     1       7.669   5.357  -9.938  0.00  0.00    +0.000 C 
ENDBRANCH   7  18
ENDBRANCH   6   7
ENDBRANCH   4   6
ENDBRANCH   2   4
ENDBRANCH   1   2
BRANCH   1  21
ATOM     21  C   UNL     1       1.115   6.192  -9.176  0.00  0.00    +0.006 C 
BRANCH  21  22
ATOM     22  C   UNL     1      -0.052   5.925 -10.284  0.00  0.00    +0.000 C 
ATOM     23  C   UNL     1       0.161   7.142 -11.182  0.00  0.00    +0.000 C 
ATOM     24  C   UNL     1       0.385   4.751 -11.120  0.00  0.00    +0.000 C 
ENDBRANCH  21  22
BRANCH  21  25
ATOM     25  C   UNL     1       0.705   4.987  -8.167  0.00  0.00    +0.026 C 
BRANCH  25  30
ATOM     26  C   UNL     1      -0.023   6.154  -4.774  0.00  0.00    +0.172 A 
ATOM     27  C   UNL     1      -1.374   5.895  -4.595  0.00  0.00    +0.172 A 
ATOM     28  C   UNL     1      -2.099   5.739  -5.770  0.00  0.00    +0.040 A 
ATOM     29  C   UNL     1      -1.460   5.557  -6.991  0.00  0.00    -0.001 A 
ATOM     30  C   UNL     1      -0.076   5.431  -7.060  0.00  0.00    -0.019 A 
ATOM     31  C   UNL     1       0.610   6.004  -5.995  0.00  0.00    +0.036 A 
BRANCH  27  32
ATOM     32  O   UNL     1      -1.683   5.178  -3.431  0.00  0.00    -0.468 OA
ATOM     33  C   UNL     1      -2.656   5.604  -2.506  0.00  0.00    +0.253 C 
ENDBRANCH  27  32
BRANCH  26  34
ATOM     34  O   UNL     1       0.789   6.532  -3.719  0.00  0.00    -0.472 OA
BRANCH  34  35
ATOM     35  C   UNL     1       2.080   6.042  -3.490  0.00  0.00    +0.208 C 
BRANCH  35  36
ATOM     36  C   UNL     1       2.964   7.118  -2.885  0.00  0.00    +0.079 C 
BRANCH  36  37
ATOM     37  C   UNL     1       4.312   6.483  -2.562  0.00  0.00    +0.146 C 
BRANCH  37  39
ATOM     38  C   UNL     1       5.185   7.758  -4.248  0.00  0.00    +0.174 C 
ATOM     39  O   UNL     1       5.054   6.482  -3.732  0.00  0.00    -0.351 OA
ENDBRANCH  37  39
ENDBRANCH  36  37
ENDBRANCH  35  36
ENDBRANCH  34  35
ENDBRANCH  26  34
ENDBRANCH  25  30
ENDBRANCH  21  25
ENDBRANCH   1  21
TORSDOF 19
ENDMDL
MODEL 6
REMARK VINA RESULT:      -7.7      2.012      2.850
REMARK  Name = 
REMARK  19 active torsions:
REMARK  status: ('A' for Active; 'I' for Inactive)
REMARK    1  A    between atoms: O_2  and  C_3
REMARK    2  A    between atoms: C_3  and  C_4
REMARK    3  A    between atoms: C_4  and  C_5
REMARK    4  A    between atoms: C_5  and  O_6
REMARK    5  A    between atoms: O_6  and  C_7
REMARK    6  A    between atoms: C_9  and  C_10
REMARK    7  A    between atoms: C_10  and  C_11
REMARK    8  A    between atoms: C_11  and  C_12
REMARK    9  A    between atoms: C_11  and  C_32
REMARK   10  A    between atoms: C_12  and  C_13
REMARK   11  A    between atoms: C_13  and  C_15
REMARK   12  A    between atoms: C_15  and  C_17
REMARK   13  A    between atoms: C_17  and  C_18
REMARK   14  A    between atoms: C_18  and  C_19
REMARK   15  A    between atoms: C_18  and  C_29
REMARK   16  A    between atoms: N_21  and  C_22
REMARK   17  A    between atoms: C_22  and  C_23
REMARK   18  A    between atoms: C_23  and  C_26
REMARK   19  A    between atoms: C_37  and  O_38
REMARK                            x       y       z     vdW  Elec       q    Type
REMARK                         _______ _______ _______ _____ _____    ______ ____
ROOT
ATOM      1  C   UNL     1       2.981   7.084  -6.318  0.00  0.00    +0.022 C 
ENDROOT
BRANCH   1   2
ATOM      2  C   UNL     1       1.391   7.088  -6.681  0.00  0.00    +0.122 C 
ATOM      3  N   UNL     1       1.058   6.392  -5.322  0.00  0.00    -0.130 NA
BRANCH   2   4
ATOM      4  C   UNL     1       1.514   5.670  -7.651  0.00  0.00    +0.170 C 
ATOM      5  O   UNL     1       0.024   5.456  -7.805  0.00  0.00    -0.222 OA
BRANCH   4   6
ATOM      6  C   UNL     1       1.559   6.479  -9.066  0.00  0.00    +0.044 C 
BRANCH   6   7
ATOM      7  C   UNL     1       1.919   5.346 -10.186  0.00  0.00    +0.081 C 
BRANCH   7   8
ATOM      8  C   UNL     1       2.980   6.285 -10.945  0.00  0.00    +0.241 C 
ATOM      9  N   UNL     1       4.155   6.621 -10.202  0.00  0.00    -0.205 NA
ATOM     10  O   UNL     1       3.253   5.937 -12.131  0.00  0.00    -0.273 OA
BRANCH   9  11
ATOM     11  C   UNL     1       5.239   7.320 -10.837  0.00  0.00    +0.124 C 
BRANCH  11  12
ATOM     12  C   UNL     1       6.534   6.579 -10.886  0.00  0.00    +0.092 C 
ATOM     13  C   UNL     1       7.730   7.451 -10.511  0.00  0.00    +0.011 C 
ATOM     14  C   UNL     1       6.496   5.514  -9.795  0.00  0.00    +0.011 C 
BRANCH  12  15
ATOM     15  C   UNL     1       6.785   5.880 -12.156  0.00  0.00    +0.261 C 
ATOM     16  O   UNL     1       6.343   6.410 -13.210  0.00  0.00    -0.272 OA
ATOM     17  N   UNL     1       7.649   4.780 -12.331  0.00  0.00    -0.088 NA
ENDBRANCH  12  15
ENDBRANCH  11  12
ENDBRANCH   9  11
ENDBRANCH   7   8
BRANCH   7  18
ATOM     18  C   UNL     1       0.700   5.667 -11.218  0.00  0.00    +0.009 C 
ATOM     19  C   UNL     1      -0.225   4.570 -11.364  0.00  0.00    +0.000 C 
ATOM     20  C   UNL     1       0.168   7.012 -10.898  0.00  0.00    +0.000 C 
ENDBRANCH   7  18
ENDBRANCH   6   7
ENDBRANCH   4   6
ENDBRANCH   2   4
ENDBRANCH   1   2
BRANCH   1  21
ATOM     21  C   UNL     1       3.029   6.285  -4.896  0.00  0.00    +0.006 C 
BRANCH  21  22
ATOM     22  C   UNL     1       4.511   5.668  -5.185  0.00  0.00    +0.000 C 
ATOM     23  C   UNL     1       4.344   4.287  -4.554  0.00  0.00    +0.000 C 
ATOM     24  C   UNL     1       4.604   5.404  -6.665  0.00  0.00    +0.000 C 
ENDBRANCH  21  22
BRANCH  21  25
ATOM     25  C   UNL     1       3.519   7.580  -4.048  0.00  0.00    +0.026 C 
BRANCH  25  30
ATOM     26  C   UNL     1       2.530   6.761  -0.619  0.00  0.00    +0.172 A 
ATOM     27  C   UNL     1       3.597   7.177   0.164  0.00  0.00    +0.172 A 
ATOM     28  C   UNL     1       4.800   7.321  -0.516  0.00  0.00    +0.040 A 
ATOM     29  C   UNL     1       4.842   7.339  -1.906  0.00  0.00    -0.001 A 
ATOM     30  C   UNL     1       3.671   7.309  -2.656  0.00  0.00    -0.019 A 
ATOM     31  C   UNL     1       2.580   6.748  -2.002  0.00  0.00    +0.036 A 
BRANCH  27  32
ATOM     32  O   UNL     1       3.246   8.010   1.235  0.00  0.00    -0.468 OA
ATOM     33  C   UNL     1       4.016   9.124   1.621  0.00  0.00    +0.253 C 
ENDBRANCH  27  32
BRANCH  26  34
ATOM     34  O   UNL     1       1.324   6.378  -0.058  0.00  0.00    -0.472 OA
BRANCH  34  35
ATOM     35  C   UNL     1       0.067   6.629  -0.620  0.00  0.00    +0.208 C 
BRANCH  35  36
ATOM     36  C   UNL     1      -0.552   5.347  -1.148  0.00  0.00    +0.079 C 
BRANCH  36  37
ATOM     37  C   UNL     1      -1.161   5.653  -2.511  0.00  0.00    +0.146 C 
BRANCH  37  39
ATOM     38  C   UNL     1      -3.344   5.558  -3.188  0.00  0.00    +0.174 C 
ATOM     39  O   UNL     1      -2.285   4.853  -2.646  0.00  0.00    -0.351 OA
ENDBRANCH  37  39
ENDBRANCH  36  37
ENDBRANCH  35  36
ENDBRANCH  34  35
ENDBRANCH  26  34
ENDBRANCH  25  30
ENDBRANCH  21  25
ENDBRANCH   1  21
TORSDOF 19
ENDMDL
MODEL 7
REMARK VINA RESULT:      -7.6      2.178      3.797
REMARK  Name = 
REMARK  19 active torsions:
REMARK  status: ('A' for Active; 'I' for Inactive)
REMARK    1  A    between atoms: O_2  and  C_3
REMARK    2  A    between atoms: C_3  and  C_4
REMARK    3  A    between atoms: C_4  and  C_5
REMARK    4  A    between atoms: C_5  and  O_6
REMARK    5  A    between atoms: O_6  and  C_7
REMARK    6  A    between atoms: C_9  and  C_10
REMARK    7  A    between atoms: C_10  and  C_11
REMARK    8  A    between atoms: C_11  and  C_12
REMARK    9  A    between atoms: C_11  and  C_32
REMARK   10  A    between atoms: C_12  and  C_13
REMARK   11  A    between atoms: C_13  and  C_15
REMARK   12  A    between atoms: C_15  and  C_17
REMARK   13  A    between atoms: C_17  and  C_18
REMARK   14  A    between atoms: C_18  and  C_19
REMARK   15  A    between atoms: C_18  and  C_29
REMARK   16  A    between atoms: N_21  and  C_22
REMARK   17  A    between atoms: C_22  and  C_23
REMARK   18  A    between atoms: C_23  and  C_26
REMARK   19  A    between atoms: C_37  and  O_38
REMARK                            x       y       z     vdW  Elec       q    Type
REMARK                         _______ _______ _______ _____ _____    ______ ____
ROOT
ATOM      1  C   UNL     1       1.742   6.153  -8.627  0.00  0.00    +0.022 C 
ENDROOT
BRANCH   1   2
ATOM      2  C   UNL     1       0.410   6.267  -9.560  0.00  0.00    +0.122 C 
ATOM      3  N   UNL     1      -0.346   5.255  -8.640  0.00  0.00    -0.130 NA
BRANCH   2   4
ATOM      4  C   UNL     1       1.008   5.138 -10.714  0.00  0.00    +0.170 C 
ATOM      5  O   UNL     1      -0.294   4.979 -11.468  0.00  0.00    -0.222 OA
BRANCH   4   6
ATOM      6  C   UNL     1       1.500   6.276 -11.774  0.00  0.00    +0.044 C 
BRANCH   6   7
ATOM      7  C   UNL     1       1.220   5.629 -13.247  0.00  0.00    +0.081 C 
BRANCH   7   8
ATOM      8  C   UNL     1       2.775   5.619 -13.652  0.00  0.00    +0.241 C 
ATOM      9  N   UNL     1       3.700   5.525 -12.566  0.00  0.00    -0.205 NA
ATOM     10  O   UNL     1       3.078   4.838 -14.600  0.00  0.00    -0.273 OA
BRANCH   9  11
ATOM     11  C   UNL     1       5.104   5.348 -12.821  0.00  0.00    +0.124 C 
BRANCH  11  12
ATOM     12  C   UNL     1       6.017   5.925 -11.790  0.00  0.00    +0.092 C 
ATOM     13  C   UNL     1       6.070   7.450 -11.834  0.00  0.00    +0.011 C 
ATOM     14  C   UNL     1       5.421   5.614 -10.422  0.00  0.00    +0.011 C 
BRANCH  12  15
ATOM     15  C   UNL     1       7.376   5.364 -11.802  0.00  0.00    +0.261 C 
ATOM     16  O   UNL     1       7.647   4.509 -12.687  0.00  0.00    -0.272 OA
ATOM     17  N   UNL     1       8.468   5.839 -11.046  0.00  0.00    -0.088 NA
ENDBRANCH  12  15
ENDBRANCH  11  12
ENDBRANCH   9  11
ENDBRANCH   7   8
BRANCH   7  18
ATOM     18  C   UNL     1       0.888   7.016 -14.034  0.00  0.00    +0.009 C 
ATOM     19  C   UNL     1       0.220   6.808 -15.295  0.00  0.00    +0.000 C 
ATOM     20  C   UNL     1       0.302   7.967 -13.062  0.00  0.00    +0.000 C 
ENDBRANCH   7  18
ENDBRANCH   6   7
ENDBRANCH   4   6
ENDBRANCH   2   4
ENDBRANCH   1   2
BRANCH   1  21
ATOM     21  C   UNL     1       1.180   5.439  -7.271  0.00  0.00    +0.006 C 
BRANCH  21  22
ATOM     22  C   UNL     1       2.627   4.783  -6.903  0.00  0.00    +0.000 C 
ATOM     23  C   UNL     1       2.801   3.853  -8.103  0.00  0.00    +0.000 C 
ATOM     24  C   UNL     1       3.666   5.856  -7.097  0.00  0.00    +0.000 C 
ENDBRANCH  21  22
BRANCH  21  25
ATOM     25  C   UNL     1       1.334   6.774  -6.360  0.00  0.00    +0.026 C 
BRANCH  25  30
ATOM     26  C   UNL     1      -0.115   5.744  -3.160  0.00  0.00    +0.172 A 
ATOM     27  C   UNL     1      -1.391   6.287  -3.159  0.00  0.00    +0.172 A 
ATOM     28  C   UNL     1      -1.574   7.348  -4.038  0.00  0.00    +0.040 A 
ATOM     29  C   UNL     1      -0.645   7.625  -5.035  0.00  0.00    -0.001 A 
ATOM     30  C   UNL     1       0.448   6.790  -5.243  0.00  0.00    -0.019 A 
ATOM     31  C   UNL     1       0.823   6.041  -4.132  0.00  0.00    +0.036 A 
BRANCH  27  32
ATOM     32  O   UNL     1      -2.416   5.375  -2.874  0.00  0.00    -0.468 OA
ATOM     33  C   UNL     1      -3.453   5.082  -3.781  0.00  0.00    +0.253 C 
ENDBRANCH  27  32
BRANCH  26  34
ATOM     34  O   UNL     1       0.282   4.824  -2.204  0.00  0.00    -0.472 OA
BRANCH  34  35
ATOM     35  C   UNL     1       1.303   5.033  -1.270  0.00  0.00    +0.208 C 
BRANCH  35  36
ATOM     36  C   UNL     1       1.016   6.262  -0.426  0.00  0.00    +0.079 C 
BRANCH  36  37
ATOM     37  C   UNL     1       2.279   7.115  -0.404  0.00  0.00    +0.146 C 
BRANCH  37  39
ATOM     38  C   UNL     1       4.523   6.690  -0.304  0.00  0.00    +0.174 C 
ATOM     39  O   UNL     1       3.275   6.356   0.188  0.00  0.00    -0.351 OA
ENDBRANCH  37  39
ENDBRANCH  36  37
ENDBRANCH  35  36
ENDBRANCH  34  35
ENDBRANCH  26  34
ENDBRANCH  25  30
ENDBRANCH  21  25
ENDBRANCH   1  21
TORSDOF 19
ENDMDL
MODEL 8
REMARK VINA RESULT:      -7.6      3.606      9.360
REMARK  Name = 
REMARK  19 active torsions:
REMARK  status: ('A' for Active; 'I' for Inactive)
REMARK    1  A    between atoms: O_2  and  C_3
REMARK    2  A    between atoms: C_3  and  C_4
REMARK    3  A    between atoms: C_4  and  C_5
REMARK    4  A    between atoms: C_5  and  O_6
REMARK    5  A    between atoms: O_6  and  C_7
REMARK    6  A    between atoms: C_9  and  C_10
REMARK    7  A    between atoms: C_10  and  C_11
REMARK    8  A    between atoms: C_11  and  C_12
REMARK    9  A    between atoms: C_11  and  C_32
REMARK   10  A    between atoms: C_12  and  C_13
REMARK   11  A    between atoms: C_13  and  C_15
REMARK   12  A    between atoms: C_15  and  C_17
REMARK   13  A    between atoms: C_17  and  C_18
REMARK   14  A    between atoms: C_18  and  C_19
REMARK   15  A    between atoms: C_18  and  C_29
REMARK   16  A    between atoms: N_21  and  C_22
REMARK   17  A    between atoms: C_22  and  C_23
REMARK   18  A    between atoms: C_23  and  C_26
REMARK   19  A    between atoms: C_37  and  O_38
REMARK                            x       y       z     vdW  Elec       q    Type
REMARK                         _______ _______ _______ _____ _____    ______ ____
ROOT
ATOM      1  C   UNL     1       0.002   6.522  -3.160  0.00  0.00    +0.022 C 
ENDROOT
BRANCH   1   2
ATOM      2  C   UNL     1       0.495   5.069  -2.608  0.00  0.00    +0.122 C 
ATOM      3  N   UNL     1      -0.545   5.135  -1.444  0.00  0.00    -0.130 NA
BRANCH   2   4
ATOM      4  C   UNL     1       1.838   5.741  -1.766  0.00  0.00    +0.170 C 
ATOM      5  O   UNL     1       2.072   4.548  -0.866  0.00  0.00    -0.222 OA
BRANCH   4   6
ATOM      6  C   UNL     1       2.951   5.183  -2.820  0.00  0.00    +0.044 C 
BRANCH   6   7
ATOM      7  C   UNL     1       4.320   5.996  -2.455  0.00  0.00    +0.081 C 
BRANCH   7   8
ATOM      8  C   UNL     1       3.540   7.354  -2.094  0.00  0.00    +0.241 C 
ATOM      9  N   UNL     1       4.099   8.126  -1.028  0.00  0.00    -0.205 NA
ATOM     10  O   UNL     1       3.228   8.074  -3.086  0.00  0.00    -0.273 OA
BRANCH   9  11
ATOM     11  C   UNL     1       3.578   9.432  -0.728  0.00  0.00    +0.124 C 
BRANCH  11  12
ATOM     12  C   UNL     1       3.190   9.652   0.697  0.00  0.00    +0.092 C 
ATOM     13  C   UNL     1       4.254   9.171   1.681  0.00  0.00    +0.011 C 
ATOM     14  C   UNL     1       3.126  11.158   0.928  0.00  0.00    +0.011 C 
BRANCH  12  15
ATOM     15  C   UNL     1       1.873   9.109   1.058  0.00  0.00    +0.261 C 
ATOM     16  O   UNL     1       0.859   9.804   0.783  0.00  0.00    -0.272 OA
ATOM     17  N   UNL     1       1.619   7.793   1.497  0.00  0.00    -0.088 NA
ENDBRANCH  12  15
ENDBRANCH  11  12
ENDBRANCH   9  11
ENDBRANCH   7   8
BRANCH   7  18
ATOM     18  C   UNL     1       4.704   6.463  -3.967  0.00  0.00    +0.009 C 
ATOM     19  C   UNL     1       5.943   7.197  -4.038  0.00  0.00    +0.000 C 
ATOM     20  C   UNL     1       4.506   5.306  -4.870  0.00  0.00    +0.000 C 
ENDBRANCH   7  18
ENDBRANCH   6   7
ENDBRANCH   4   6
ENDBRANCH   2   4
ENDBRANCH   1   2
BRANCH   1  21
ATOM     21  C   UNL     1      -0.519   6.181  -4.669  0.00  0.00    +0.006 C 
BRANCH  21  22
ATOM     22  C   UNL     1      -1.505   7.480  -4.724  0.00  0.00    +0.000 C 
ATOM     23  C   UNL     1      -2.653   6.897  -5.545  0.00  0.00    +0.000 C 
ATOM     24  C   UNL     1      -2.078   7.664  -3.342  0.00  0.00    +0.000 C 
ENDBRANCH  21  22
BRANCH  21  25
ATOM     25  C   UNL     1       0.757   6.875  -5.395  0.00  0.00    +0.026 C 
BRANCH  25  30
ATOM     26  C   UNL     1       2.303   6.612  -8.704  0.00  0.00    +0.172 A 
ATOM     27  C   UNL     1       1.332   6.021  -9.500  0.00  0.00    +0.172 A 
ATOM     28  C   UNL     1       0.348   5.329  -8.804  0.00  0.00    +0.040 A 
ATOM     29  C   UNL     1       0.195   5.484  -7.431  0.00  0.00    -0.001 A 
ATOM     30  C   UNL     1       0.960   6.408  -6.727  0.00  0.00    -0.019 A 
ATOM     31  C   UNL     1       2.167   6.739  -7.333  0.00  0.00    +0.036 A 
BRANCH  27  32
ATOM     32  O   UNL     1       1.057   6.705 -10.691  0.00  0.00    -0.468 OA
ATOM     33  C   UNL     1      -0.224   7.194 -11.014  0.00  0.00    +0.253 C 
ENDBRANCH  27  32
BRANCH  26  34
ATOM     34  O   UNL     1       3.452   7.159  -9.247  0.00  0.00    -0.472 OA
BRANCH  34  35
ATOM     35  C   UNL     1       4.467   6.425  -9.873  0.00  0.00    +0.208 C 
BRANCH  35  36
ATOM     36  C   UNL     1       5.203   7.282 -10.887  0.00  0.00    +0.079 C 
BRANCH  36  37
ATOM     37  C   UNL     1       5.963   6.346 -11.820  0.00  0.00    +0.146 C 
BRANCH  37  39
ATOM     38  C   UNL     1       4.757   5.154 -13.353  0.00  0.00    +0.174 C 
ATOM     39  O   UNL     1       5.159   5.238 -12.033  0.00  0.00    -0.351 OA
ENDBRANCH  37  39
ENDBRANCH  36  37
ENDBRANCH  35  36
ENDBRANCH  34  35
ENDBRANCH  26  34
ENDBRANCH  25  30
ENDBRANCH  21  25
ENDBRANCH   1  21
TORSDOF 19
ENDMDL
MODEL 9
REMARK VINA RESULT:      -7.6      4.548      7.490
REMARK  Name = 
REMARK  19 active torsions:
REMARK  status: ('A' for Active; 'I' for Inactive)
REMARK    1  A    between atoms: O_2  and  C_3
REMARK    2  A    between atoms: C_3  and  C_4
REMARK    3  A    between atoms: C_4  and  C_5
REMARK    4  A    between atoms: C_5  and  O_6
REMARK    5  A    between atoms: O_6  and  C_7
REMARK    6  A    between atoms: C_9  and  C_10
REMARK    7  A    between atoms: C_10  and  C_11
REMARK    8  A    between atoms: C_11  and  C_12
REMARK    9  A    between atoms: C_11  and  C_32
REMARK   10  A    between atoms: C_12  and  C_13
REMARK   11  A    between atoms: C_13  and  C_15
REMARK   12  A    between atoms: C_15  and  C_17
REMARK   13  A    between atoms: C_17  and  C_18
REMARK   14  A    between atoms: C_18  and  C_19
REMARK   15  A    between atoms: C_18  and  C_29
REMARK   16  A    between atoms: N_21  and  C_22
REMARK   17  A    between atoms: C_22  and  C_23
REMARK   18  A    between atoms: C_23  and  C_26
REMARK   19  A    between atoms: C_37  and  O_38
REMARK                            x       y       z     vdW  Elec       q    Type
REMARK                         _______ _______ _______ _____ _____    ______ ____
ROOT
ATOM      1  C   UNL     1       2.619   6.303  -2.955  0.00  0.00    +0.022 C 
ENDROOT
BRANCH   1   2
ATOM      2  C   UNL     1       1.493   6.172  -1.783  0.00  0.00    +0.122 C 
ATOM      3  N   UNL     1       2.363   5.111  -1.037  0.00  0.00    -0.130 NA
BRANCH   2   4
ATOM      4  C   UNL     1       0.527   5.083  -2.703  0.00  0.00    +0.170 C 
ATOM      5  O   UNL     1      -0.565   4.928  -1.668  0.00  0.00    -0.222 OA
BRANCH   4   6
ATOM      6  C   UNL     1      -0.326   6.256  -3.449  0.00  0.00    +0.044 C 
BRANCH   6   7
ATOM      7  C   UNL     1      -1.659   5.508  -4.022  0.00  0.00    +0.081 C 
BRANCH   7   8
ATOM      8  C   UNL     1      -1.340   5.886  -5.552  0.00  0.00    +0.241 C 
ATOM      9  N   UNL     1       0.003   5.651  -5.983  0.00  0.00    -0.205 NA
ATOM     10  O   UNL     1      -2.187   5.471  -6.395  0.00  0.00    -0.273 OA
BRANCH   9  11
ATOM     11  C   UNL     1       0.357   5.803  -7.368  0.00  0.00    +0.124 C 
BRANCH  11  12
ATOM     12  C   UNL     1       1.794   5.556  -7.689  0.00  0.00    +0.092 C 
ATOM     13  C   UNL     1       2.492   4.686  -6.647  0.00  0.00    +0.011 C 
ATOM     14  C   UNL     1       1.843   4.720  -8.964  0.00  0.00    +0.011 C 
BRANCH  12  15
ATOM     15  C   UNL     1       2.576   6.775  -7.948  0.00  0.00    +0.261 C 
ATOM     16  O   UNL     1       3.652   6.652  -8.591  0.00  0.00    -0.272 OA
ATOM     17  N   UNL     1       2.136   8.096  -7.725  0.00  0.00    -0.088 NA
ENDBRANCH  12  15
ENDBRANCH  11  12
ENDBRANCH   9  11
ENDBRANCH   7   8
BRANCH   7  18
ATOM     18  C   UNL     1      -2.708   6.734  -3.800  0.00  0.00    +0.009 C 
ATOM     19  C   UNL     1      -3.551   6.558  -2.643  0.00  0.00    +0.000 C 
ATOM     20  C   UNL     1      -1.968   8.006  -3.959  0.00  0.00    +0.000 C 
ENDBRANCH   7  18
ENDBRANCH   6   7
ENDBRANCH   4   6
ENDBRANCH   2   4
ENDBRANCH   1   2
BRANCH   1  21
ATOM     21  C   UNL     1       3.987   6.597  -2.116  0.00  0.00    +0.006 C 
BRANCH  21  22
ATOM     22  C   UNL     1       4.922   6.581  -3.452  0.00  0.00    +0.000 C 
ATOM     23  C   UNL     1       4.785   5.111  -3.846  0.00  0.00    +0.000 C 
ATOM     24  C   UNL     1       4.180   7.335  -4.525  0.00  0.00    +0.000 C 
ENDBRANCH  21  22
BRANCH  21  25
ATOM     25  C   UNL     1       3.752   8.203  -2.062  0.00  0.00    +0.026 C 
BRANCH  25  30
ATOM     26  C   UNL     1       3.974  10.722   0.585  0.00  0.00    +0.172 A 
ATOM     27  C   UNL     1       4.388  10.019   1.707  0.00  0.00    +0.172 A 
ATOM     28  C   UNL     1       4.159   8.649   1.654  0.00  0.00    +0.040 A 
ATOM     29  C   UNL     1       3.828   8.021   0.459  0.00  0.00    -0.001 A 
ATOM     30  C   UNL     1       3.809   8.729  -0.738  0.00  0.00    -0.019 A 
ATOM     31  C   UNL     1       3.614  10.099  -0.596  0.00  0.00    +0.036 A 
BRANCH  27  32
ATOM     32  O   UNL     1       5.504  10.560   2.358  0.00  0.00    -0.468 OA
ATOM     33  C   UNL     1       6.689   9.832   2.579  0.00  0.00    +0.253 C 
ENDBRANCH  27  32
BRANCH  26  34
ATOM     34  O   UNL     1       3.946  12.107   0.566  0.00  0.00    -0.472 OA
BRANCH  34  35
ATOM     35  C   UNL     1       4.555  12.904  -0.409  0.00  0.00    +0.208 C 
BRANCH  35  36
ATOM     36  C   UNL     1       5.891  13.430   0.084  0.00  0.00    +0.079 C 
BRANCH  36  37
ATOM     37  C   UNL     1       6.393  14.449  -0.933  0.00  0.00    +0.146 C 
BRANCH  37  39
ATOM     38  C   UNL     1       6.401  14.228  -3.209  0.00  0.00    +0.174 C 
ATOM     39  O   UNL     1       5.618  14.305  -2.073  0.00  0.00    -0.351 OA
ENDBRANCH  37  39
ENDBRANCH  36  37
ENDBRANCH  35  36
ENDBRANCH  34  35
ENDBRANCH  26  34
ENDBRANCH  25  30
ENDBRANCH  21  25
ENDBRANCH   1  21
TORSDOF 19
ENDMDL
