MODEL 1
REMARK VINA RESULT:      -7.0      0.000      0.000
REMARK  Name = 
REMARK  8 active torsions:
REMARK  status: ('A' for Active; 'I' for Inactive)
REMARK    1  A    between atoms: C_2  and  C_4
REMARK    2  A    between atoms: C_4  and  C_6
REMARK    3  A    between atoms: C_6  and  O_8
REMARK    4  A    between atoms: O_8  and  C_9
REMARK    5  A    between atoms: C_9  and  C_10
REMARK    6  A    between atoms: C_10  and  O_11
REMARK    7  A    between atoms: O_11  and  C_12
REMARK    8  A    between atoms: C_12  and  N_13
REMARK                            x       y       z     vdW  Elec       q    Type
REMARK                         _______ _______ _______ _____ _____    ______ ____
ROOT
ATOM      1  C   UNL     1       3.933   5.579  -9.086  0.00  0.00    +0.258 C 
ENDROOT
BRANCH   1   2
ATOM      2  N   UNL     1       5.134   5.973  -9.801  0.00  0.00    -0.268 N 
ATOM      3  C   UNL     1       5.202   5.917 -11.153  0.00  0.00    +0.172 A 
ATOM      4  N   UNL     1       4.298   5.961 -12.154  0.00  0.00    -0.192 NA
ATOM      5  C   UNL     1       4.519   5.429 -13.377  0.00  0.00    +0.261 A 
ATOM      6  N   UNL     1       5.766   5.052 -13.696  0.00  0.00    -0.171 NA
ATOM      7  C   UNL     1       6.764   5.237 -12.831  0.00  0.00    +0.302 A 
ATOM      8  O   UNL     1       7.894   4.737 -13.101  0.00  0.00    -0.263 OA
ATOM      9  N   UNL     1       3.380   4.907 -14.072  0.00  0.00    -0.086 NA
ATOM     10  C   UNL     1       6.507   5.608 -11.516  0.00  0.00    +0.175 A 
ATOM     11  N   UNL     1       7.223   5.573 -10.366  0.00  0.00    -0.217 NA
ATOM     12  C   UNL     1       6.372   5.719  -9.340  0.00  0.00    +0.182 A 
ENDBRANCH   1   2
BRANCH   1  13
ATOM     13  O   UNL     1       3.844   4.203  -8.930  0.00  0.00    -0.328 OA
BRANCH  13  14
ATOM     14  C   UNL     1       2.508   3.916  -8.669  0.00  0.00    +0.192 C 
BRANCH  14  15
ATOM     15  C   UNL     1       1.601   5.073  -9.011  0.00  0.00    +0.240 C 
BRANCH  15  16
ATOM     16  O   UNL     1       0.541   5.024  -8.065  0.00  0.00    -0.445 OA
BRANCH  16  17
ATOM     17  C   UNL     1       0.507   5.904  -7.055  0.00  0.00    +0.335 C 
ATOM     18  O   UNL     1       1.354   6.803  -6.854  0.00  0.00    -0.248 OA
BRANCH  17  19
ATOM     19  C   UNL     1      -0.009   5.417  -5.581  0.00  0.00    +0.190 C 
ATOM     20  N   UNL     1       0.822   6.527  -4.778  0.00  0.00    -0.121 NA
BRANCH  19  22
ATOM     21  C   UNL     1      -1.515   6.603  -4.773  0.00  0.00    +0.002 C 
ATOM     22  C   UNL     1      -1.354   6.406  -5.649  0.00  0.00    +0.029 C 
ATOM     23  C   UNL     1      -2.375   5.515  -6.306  0.00  0.00    +0.002 C 
ENDBRANCH  19  22
ENDBRANCH  17  19
ENDBRANCH  16  17
ENDBRANCH  15  16
ENDBRANCH  14  15
ENDBRANCH  13  14
ENDBRANCH   1  13
TORSDOF 8
ENDMDL
MODEL 2
REMARK VINA RESULT:      -6.9      1.996      2.709
REMARK  Name = 
REMARK  8 active torsions:
REMARK  status: ('A' for Active; 'I' for Inactive)
REMARK    1  A    between atoms: C_2  and  C_4
REMARK    2  A    between atoms: C_4  and  C_6
REMARK    3  A    between atoms: C_6  and  O_8
REMARK    4  A    between atoms: O_8  and  C_9
REMARK    5  A    between atoms: C_9  and  C_10
REMARK    6  A    between atoms: C_10  and  O_11
REMARK    7  A    between atoms: O_11  and  C_12
REMARK    8  A    between atoms: C_12  and  N_13
REMARK                            x       y       z     vdW  Elec       q    Type
REMARK                         _______ _______ _______ _____ _____    ______ ____
ROOT
ATOM      1  C   UNL     1       3.699   5.605  -9.201  0.00  0.00    +0.258 C 
ENDROOT
BRANCH   1   2
ATOM      2  N   UNL     1       4.943   5.984  -9.847  0.00  0.00    -0.268 N 
ATOM      3  C   UNL     1       5.087   5.928 -11.193  0.00  0.00    +0.172 A 
ATOM      4  N   UNL     1       4.241   5.982 -12.244  0.00  0.00    -0.192 NA
ATOM      5  C   UNL     1       4.525   5.448 -13.452  0.00  0.00    +0.261 A 
ATOM      6  N   UNL     1       5.783   5.056 -13.701  0.00  0.00    -0.171 NA
ATOM      7  C   UNL     1       6.733   5.229 -12.781  0.00  0.00    +0.302 A 
ATOM      8  O   UNL     1       7.871   4.715 -12.987  0.00  0.00    -0.263 OA
ATOM      9  N   UNL     1       3.420   4.940 -14.211  0.00  0.00    -0.086 NA
ATOM     10  C   UNL     1       6.407   5.602 -11.482  0.00  0.00    +0.175 A 
ATOM     11  N   UNL     1       7.056   5.559 -10.294  0.00  0.00    -0.217 NA
ATOM     12  C   UNL     1       6.150   5.715  -9.317  0.00  0.00    +0.182 A 
ENDBRANCH   1   2
BRANCH   1  13
ATOM     13  O   UNL     1       3.696   4.272  -8.812  0.00  0.00    -0.328 OA
BRANCH  13  14
ATOM     14  C   UNL     1       2.684   4.134  -7.869  0.00  0.00    +0.192 C 
BRANCH  14  15
ATOM     15  C   UNL     1       1.790   5.348  -7.812  0.00  0.00    +0.240 C 
BRANCH  15  16
ATOM     16  O   UNL     1       1.662   5.667  -6.432  0.00  0.00    -0.445 OA
BRANCH  16  17
ATOM     17  C   UNL     1       2.211   6.792  -5.952  0.00  0.00    +0.335 C 
ATOM     18  O   UNL     1       2.853   7.625  -6.630  0.00  0.00    -0.248 OA
BRANCH  17  19
ATOM     19  C   UNL     1       2.889   6.784  -4.464  0.00  0.00    +0.190 C 
ATOM     20  N   UNL     1       2.607   5.229  -4.200  0.00  0.00    -0.121 NA
BRANCH  19  22
ATOM     21  C   UNL     1       4.546   5.584  -4.840  0.00  0.00    +0.002 C 
ATOM     22  C   UNL     1       4.406   6.452  -5.083  0.00  0.00    +0.029 C 
ATOM     23  C   UNL     1       5.269   7.464  -4.378  0.00  0.00    +0.002 C 
ENDBRANCH  19  22
ENDBRANCH  17  19
ENDBRANCH  16  17
ENDBRANCH  15  16
ENDBRANCH  14  15
ENDBRANCH  13  14
ENDBRANCH   1  13
TORSDOF 8
ENDMDL
MODEL 3
REMARK VINA RESULT:      -6.9      3.613      8.420
REMARK  Name = 
REMARK  8 active torsions:
REMARK  status: ('A' for Active; 'I' for Inactive)
REMARK    1  A    between atoms: C_2  and  C_4
REMARK    2  A    between atoms: C_4  and  C_6
REMARK    3  A    between atoms: C_6  and  O_8
REMARK    4  A    between atoms: O_8  and  C_9
REMARK    5  A    between atoms: C_9  and  C_10
REMARK    6  A    between atoms: C_10  and  O_11
REMARK    7  A    between atoms: O_11  and  C_12
REMARK    8  A    between atoms: C_12  and  N_13
REMARK                            x       y       z     vdW  Elec       q    Type
REMARK                         _______ _______ _______ _____ _____    ______ ____
ROOT
ATOM      1  C   UNL     1       1.194   4.674  -6.342  0.00  0.00    +0.258 C 
ENDROOT
BRANCH   1   2
ATOM      2  N   UNL     1      -0.005   5.389  -5.941  0.00  0.00    -0.268 N 
ATOM      3  C   UNL     1      -0.338   5.536  -4.636  0.00  0.00    +0.172 A 
ATOM      4  N   UNL     1       0.348   5.540  -3.474  0.00  0.00    -0.192 NA
ATOM      5  C   UNL     1      -0.212   5.237  -2.282  0.00  0.00    +0.261 A 
ATOM      6  N   UNL     1      -1.549   5.157  -2.202  0.00  0.00    -0.171 NA
ATOM      7  C   UNL     1      -2.300   5.412  -3.274  0.00  0.00    +0.302 A 
ATOM      8  O   UNL     1      -3.542   5.184  -3.206  0.00  0.00    -0.263 OA
ATOM      9  N   UNL     1       0.633   4.605  -1.312  0.00  0.00    -0.086 NA
ATOM     10  C   UNL     1      -1.724   5.539  -4.533  0.00  0.00    +0.175 A 
ATOM     11  N   UNL     1      -2.199   5.486  -5.801  0.00  0.00    -0.217 NA
ATOM     12  C   UNL     1      -1.158   5.320  -6.630  0.00  0.00    +0.182 A 
ENDBRANCH   1   2
BRANCH   1  13
ATOM     13  O   UNL     1       2.323   5.479  -6.298  0.00  0.00    -0.328 OA
BRANCH  13  14
ATOM     14  C   UNL     1       3.245   4.922  -7.178  0.00  0.00    +0.192 C 
BRANCH  14  15
ATOM     15  C   UNL     1       2.599   3.963  -8.147  0.00  0.00    +0.240 C 
BRANCH  15  16
ATOM     16  O   UNL     1       3.054   4.354  -9.437  0.00  0.00    -0.445 OA
BRANCH  16  17
ATOM     17  C   UNL     1       2.450   5.362 -10.081  0.00  0.00    +0.335 C 
ATOM     18  O   UNL     1       2.993   6.447 -10.391  0.00  0.00    -0.248 OA
BRANCH  17  19
ATOM     19  C   UNL     1       0.887   5.707  -9.748  0.00  0.00    +0.190 C 
ATOM     20  N   UNL     1       1.177   7.219  -9.307  0.00  0.00    -0.121 NA
BRANCH  19  22
ATOM     21  C   UNL     1      -0.156   6.705 -11.247  0.00  0.00    +0.002 C 
ATOM     22  C   UNL     1       0.583   6.176 -11.323  0.00  0.00    +0.029 C 
ATOM     23  C   UNL     1       0.360   4.857 -12.014  0.00  0.00    +0.002 C 
ENDBRANCH  19  22
ENDBRANCH  17  19
ENDBRANCH  16  17
ENDBRANCH  15  16
ENDBRANCH  14  15
ENDBRANCH  13  14
ENDBRANCH   1  13
TORSDOF 8
ENDMDL
MODEL 4
REMARK VINA RESULT:      -6.9      5.509      7.659
REMARK  Name = 
REMARK  8 active torsions:
REMARK  status: ('A' for Active; 'I' for Inactive)
REMARK    1  A    between atoms: C_2  and  C_4
REMARK    2  A    between atoms: C_4  and  C_6
REMARK    3  A    between atoms: C_6  and  O_8
REMARK    4  A    between atoms: O_8  and  C_9
REMARK    5  A    between atoms: C_9  and  C_10
REMARK    6  A    between atoms: C_10  and  O_11
REMARK    7  A    between atoms: O_11  and  C_12
REMARK    8  A    between atoms: C_12  and  N_13
REMARK                            x       y       z     vdW  Elec       q    Type
REMARK                         _______ _______ _______ _____ _____    ______ ____
ROOT
ATOM      1  C   UNL     1       3.799   4.864  -5.441  0.00  0.00    +0.258 C 
ENDROOT
BRANCH   1   2
ATOM      2  N   UNL     1       4.463   5.813  -4.565  0.00  0.00    -0.268 N 
ATOM      3  C   UNL     1       4.218   5.836  -3.232  0.00  0.00    +0.172 A 
ATOM      4  N   UNL     1       3.785   4.933  -2.328  0.00  0.00    -0.192 NA
ATOM      5  C   UNL     1       3.174   5.274  -1.173  0.00  0.00    +0.261 A 
ATOM      6  N   UNL     1       3.205   6.559  -0.786  0.00  0.00    -0.171 NA
ATOM      7  C   UNL     1       3.860   7.462  -1.516  0.00  0.00    +0.302 A 
ATOM      8  O   UNL     1       3.745   8.684  -1.207  0.00  0.00    -0.263 OA
ATOM      9  N   UNL     1       2.186   4.367  -0.669  0.00  0.00    -0.086 NA
ATOM     10  C   UNL     1       4.325   7.148  -2.789  0.00  0.00    +0.175 A 
ATOM     11  N   UNL     1       4.725   7.879  -3.856  0.00  0.00    -0.217 NA
ATOM     12  C   UNL     1       4.731   7.079  -4.932  0.00  0.00    +0.182 A 
ENDBRANCH   1   2
BRANCH   1  13
ATOM     13  O   UNL     1       2.831   5.470  -6.230  0.00  0.00    -0.328 OA
BRANCH  13  14
ATOM     14  C   UNL     1       1.603   4.978  -5.803  0.00  0.00    +0.192 C 
BRANCH  14  15
ATOM     15  C   UNL     1       0.904   5.930  -4.864  0.00  0.00    +0.240 C 
BRANCH  15  16
ATOM     16  O   UNL     1       0.534   5.154  -3.731  0.00  0.00    -0.445 OA
BRANCH  16  17
ATOM     17  C   UNL     1      -0.574   5.461  -3.044  0.00  0.00    +0.335 C 
ATOM     18  O   UNL     1      -0.836   5.067  -1.886  0.00  0.00    -0.248 OA
BRANCH  17  19
ATOM     19  C   UNL     1      -2.004   5.566  -3.831  0.00  0.00    +0.190 C 
ATOM     20  N   UNL     1      -2.812   4.700  -2.752  0.00  0.00    -0.121 NA
BRANCH  19  22
ATOM     21  C   UNL     1      -3.311   6.939  -2.975  0.00  0.00    +0.002 C 
ATOM     22  C   UNL     1      -2.404   6.991  -3.057  0.00  0.00    +0.029 C 
ATOM     23  C   UNL     1      -1.905   8.032  -4.024  0.00  0.00    +0.002 C 
ENDBRANCH  19  22
ENDBRANCH  17  19
ENDBRANCH  16  17
ENDBRANCH  15  16
ENDBRANCH  14  15
ENDBRANCH  13  14
ENDBRANCH   1  13
TORSDOF 8
ENDMDL
MODEL 5
REMARK VINA RESULT:      -6.7      2.407      9.108
REMARK  Name = 
REMARK  8 active torsions:
REMARK  status: ('A' for Active; 'I' for Inactive)
REMARK    1  A    between atoms: C_2  and  C_4
REMARK    2  A    between atoms: C_4  and  C_6
REMARK    3  A    between atoms: C_6  and  O_8
REMARK    4  A    between atoms: O_8  and  C_9
REMARK    5  A    between atoms: C_9  and  C_10
REMARK    6  A    between atoms: C_10  and  O_11
REMARK    7  A    between atoms: O_11  and  C_12
REMARK    8  A    between atoms: C_12  and  N_13
REMARK                            x       y       z     vdW  Elec       q    Type
REMARK                         _______ _______ _______ _____ _____    ______ ____
ROOT
ATOM      1  C   UNL     1       1.482   4.589  -6.320  0.00  0.00    +0.258 C 
ENDROOT
BRANCH   1   2
ATOM      2  N   UNL     1       0.270   5.312  -5.974  0.00  0.00    -0.268 N 
ATOM      3  C   UNL     1      -0.111   5.476  -4.684  0.00  0.00    +0.172 A 
ATOM      4  N   UNL     1       0.530   5.496  -3.497  0.00  0.00    -0.192 NA
ATOM      5  C   UNL     1      -0.074   5.210  -2.323  0.00  0.00    +0.261 A 
ATOM      6  N   UNL     1      -1.413   5.133  -2.292  0.00  0.00    -0.171 NA
ATOM      7  C   UNL     1      -2.123   5.374  -3.395  0.00  0.00    +0.302 A 
ATOM      8  O   UNL     1      -3.368   5.149  -3.371  0.00  0.00    -0.263 OA
ATOM      9  N   UNL     1       0.732   4.590  -1.314  0.00  0.00    -0.086 NA
ATOM     10  C   UNL     1      -1.500   5.484  -4.634  0.00  0.00    +0.175 A 
ATOM     11  N   UNL     1      -1.927   5.413  -5.917  0.00  0.00    -0.217 NA
ATOM     12  C   UNL     1      -0.857   5.235  -6.704  0.00  0.00    +0.182 A 
ENDBRANCH   1   2
BRANCH   1  13
ATOM     13  O   UNL     1       2.109   5.123  -7.436  0.00  0.00    -0.328 OA
BRANCH  13  14
ATOM     14  C   UNL     1       2.662   4.054  -8.133  0.00  0.00    +0.192 C 
BRANCH  14  15
ATOM     15  C   UNL     1       3.200   4.470  -9.479  0.00  0.00    +0.240 C 
BRANCH  15  16
ATOM     16  O   UNL     1       4.484   5.026  -9.227  0.00  0.00    -0.445 OA
BRANCH  16  17
ATOM     17  C   UNL     1       4.818   6.207  -9.765  0.00  0.00    +0.335 C 
ATOM     18  O   UNL     1       4.104   7.235  -9.745  0.00  0.00    -0.248 OA
BRANCH  17  19
ATOM     19  C   UNL     1       5.640   6.242 -11.179  0.00  0.00    +0.190 C 
ATOM     20  N   UNL     1       5.910   7.821 -11.134  0.00  0.00    -0.121 NA
BRANCH  19  22
ATOM     21  C   UNL     1       7.403   6.754 -10.200  0.00  0.00    +0.002 C 
ATOM     22  C   UNL     1       7.094   5.925 -10.420  0.00  0.00    +0.029 C 
ATOM     23  C   UNL     1       7.870   5.215 -11.498  0.00  0.00    +0.002 C 
ENDBRANCH  19  22
ENDBRANCH  17  19
ENDBRANCH  16  17
ENDBRANCH  15  16
ENDBRANCH  14  15
ENDBRANCH  13  14
ENDBRANCH   1  13
TORSDOF 8
ENDMDL
MODEL 6
REMARK VINA RESULT:      -6.7      2.758      4.196
REMARK  Name = 
REMARK  8 active torsions:
REMARK  status: ('A' for Active; 'I' for Inactive)
REMARK    1  A    between atoms: C_2  and  C_4
REMARK    2  A    between atoms: C_4  and  C_6
REMARK    3  A    between atoms: C_6  and  O_8
REMARK    4  A    between atoms: O_8  and  C_9
REMARK    5  A    between atoms: C_9  and  C_10
REMARK    6  A    between atoms: C_10  and  O_11
REMARK    7  A    between atoms: O_11  and  C_12
REMARK    8  A    between atoms: C_12  and  N_13
REMARK                            x       y       z     vdW  Elec       q    Type
REMARK                         _______ _______ _______ _____ _____    ______ ____
ROOT
ATOM      1  C   UNL     1       2.247   5.325  -7.055  0.00  0.00    +0.258 C 
ENDROOT
BRANCH   1   2
ATOM      2  N   UNL     1       1.718   5.084  -8.386  0.00  0.00    -0.268 N 
ATOM      3  C   UNL     1       2.521   5.089  -9.478  0.00  0.00    +0.172 A 
ATOM      4  N   UNL     1       3.834   4.865  -9.694  0.00  0.00    -0.192 NA
ATOM      5  C   UNL     1       4.508   5.368 -10.752  0.00  0.00    +0.261 A 
ATOM      6  N   UNL     1       3.808   5.915 -11.758  0.00  0.00    -0.171 NA
ATOM      7  C   UNL     1       2.474   5.920 -11.719  0.00  0.00    +0.302 A 
ATOM      8  O   UNL     1       1.850   6.572 -12.606  0.00  0.00    -0.263 OA
ATOM      9  N   UNL     1       5.891   5.681 -10.549  0.00  0.00    -0.086 NA
ATOM     10  C   UNL     1       1.794   5.575 -10.557  0.00  0.00    +0.175 A 
ATOM     11  N   UNL     1       0.530   5.768 -10.108  0.00  0.00    -0.217 NA
ATOM     12  C   UNL     1       0.518   5.542  -8.786  0.00  0.00    +0.182 A 
ENDBRANCH   1   2
BRANCH   1  13
ATOM     13  O   UNL     1       2.006   4.261  -6.196  0.00  0.00    -0.328 OA
BRANCH  13  14
ATOM     14  C   UNL     1       1.981   4.787  -4.908  0.00  0.00    +0.192 C 
BRANCH  14  15
ATOM     15  C   UNL     1       0.990   5.916  -4.773  0.00  0.00    +0.240 C 
BRANCH  15  16
ATOM     16  O   UNL     1       0.844   6.135  -3.376  0.00  0.00    -0.445 OA
BRANCH  16  17
ATOM     17  C   UNL     1      -0.232   5.661  -2.734  0.00  0.00    +0.335 C 
ATOM     18  O   UNL     1      -0.217   4.743  -1.883  0.00  0.00    -0.248 OA
BRANCH  17  19
ATOM     19  C   UNL     1      -1.651   5.524  -3.536  0.00  0.00    +0.190 C 
ATOM     20  N   UNL     1      -2.442   4.890  -2.296  0.00  0.00    -0.121 NA
BRANCH  19  22
ATOM     21  C   UNL     1      -2.922   6.937  -2.691  0.00  0.00    +0.002 C 
ATOM     22  C   UNL     1      -2.121   7.069  -3.107  0.00  0.00    +0.029 C 
ATOM     23  C   UNL     1      -2.196   7.763  -4.441  0.00  0.00    +0.002 C 
ENDBRANCH  19  22
ENDBRANCH  17  19
ENDBRANCH  16  17
ENDBRANCH  15  16
ENDBRANCH  14  15
ENDBRANCH  13  14
ENDBRANCH   1  13
TORSDOF 8
ENDMDL
MODEL 7
REMARK VINA RESULT:      -6.6      2.291      8.352
REMARK  Name = 
REMARK  8 active torsions:
REMARK  status: ('A' for Active; 'I' for Inactive)
REMARK    1  A    between atoms: C_2  and  C_4
REMARK    2  A    between atoms: C_4  and  C_6
REMARK    3  A    between atoms: C_6  and  O_8
REMARK    4  A    between atoms: O_8  and  C_9
REMARK    5  A    between atoms: C_9  and  C_10
REMARK    6  A    between atoms: C_10  and  O_11
REMARK    7  A    between atoms: O_11  and  C_12
REMARK    8  A    between atoms: C_12  and  N_13
REMARK                            x       y       z     vdW  Elec       q    Type
REMARK                         _______ _______ _______ _____ _____    ______ ____
ROOT
ATOM      1  C   UNL     1       1.063   5.508  -8.699  0.00  0.00    +0.258 C 
ENDROOT
BRANCH   1   2
ATOM      2  N   UNL     1       1.216   4.797  -7.442  0.00  0.00    -0.268 N 
ATOM      3  C   UNL     1       0.361   4.994  -6.409  0.00  0.00    +0.172 A 
ATOM      4  N   UNL     1      -0.918   5.410  -6.299  0.00  0.00    -0.192 NA
ATOM      5  C   UNL     1      -1.420   5.974  -5.178  0.00  0.00    +0.261 A 
ATOM      6  N   UNL     1      -0.699   5.908  -4.048  0.00  0.00    -0.171 NA
ATOM      7  C   UNL     1       0.469   5.264  -4.035  0.00  0.00    +0.302 A 
ATOM      8  O   UNL     1       1.190   5.347  -3.000  0.00  0.00    -0.263 OA
ATOM      9  N   UNL     1      -2.446   6.959  -5.352  0.00  0.00    -0.086 NA
ATOM     10  C   UNL     1       1.067   4.849  -5.221  0.00  0.00    +0.175 A 
ATOM     11  N   UNL     1       2.321   4.475  -5.566  0.00  0.00    -0.217 NA
ATOM     12  C   UNL     1       2.418   4.521  -6.903  0.00  0.00    +0.182 A 
ENDBRANCH   1   2
BRANCH   1  13
ATOM     13  O   UNL     1       1.855   4.970  -9.704  0.00  0.00    -0.328 OA
BRANCH  13  14
ATOM     14  C   UNL     1       2.526   6.035 -10.296  0.00  0.00    +0.192 C 
BRANCH  14  15
ATOM     15  C   UNL     1       4.024   5.871 -10.231  0.00  0.00    +0.240 C 
BRANCH  15  16
ATOM     16  O   UNL     1       4.565   7.158 -10.501  0.00  0.00    -0.445 OA
BRANCH  16  17
ATOM     17  C   UNL     1       5.796   7.269 -11.019  0.00  0.00    +0.335 C 
ATOM     18  O   UNL     1       6.278   8.313 -11.512  0.00  0.00    -0.248 OA
BRANCH  17  19
ATOM     19  C   UNL     1       6.424   6.023 -11.872  0.00  0.00    +0.190 C 
ATOM     20  N   UNL     1       6.854   6.924 -13.125  0.00  0.00    -0.121 NA
BRANCH  19  22
ATOM     21  C   UNL     1       8.475   5.717 -11.706  0.00  0.00    +0.002 C 
ATOM     22  C   UNL     1       7.927   6.206 -11.165  0.00  0.00    +0.029 C 
ATOM     23  C   UNL     1       7.706   5.637  -9.789  0.00  0.00    +0.002 C 
ENDBRANCH  19  22
ENDBRANCH  17  19
ENDBRANCH  16  17
ENDBRANCH  15  16
ENDBRANCH  14  15
ENDBRANCH  13  14
ENDBRANCH   1  13
TORSDOF 8
ENDMDL
MODEL 8
REMARK VINA RESULT:      -6.6      2.732      8.195
REMARK  Name = 
REMARK  8 active torsions:
REMARK  status: ('A' for Active; 'I' for Inactive)
REMARK    1  A    between atoms: C_2  and  C_4
REMARK    2  A    between atoms: C_4  and  C_6
REMARK    3  A    between atoms: C_6  and  O_8
REMARK    4  A    between atoms: O_8  and  C_9
REMARK    5  A    between atoms: C_9  and  C_10
REMARK    6  A    between atoms: C_10  and  O_11
REMARK    7  A    between atoms: O_11  and  C_12
REMARK    8  A    between atoms: C_12  and  N_13
REMARK                            x       y       z     vdW  Elec       q    Type
REMARK                         _______ _______ _______ _____ _____    ______ ____
ROOT
ATOM      1  C   UNL     1       3.896   5.225  -8.361  0.00  0.00    +0.258 C 
ENDROOT
BRANCH   1   2
ATOM      2  N   UNL     1       2.763   5.319  -7.456  0.00  0.00    -0.268 N 
ATOM      3  C   UNL     1       2.818   6.069  -6.330  0.00  0.00    +0.172 A 
ATOM      4  N   UNL     1       3.532   7.145  -5.936  0.00  0.00    -0.192 NA
ATOM      5  C   UNL     1       3.770   7.443  -4.640  0.00  0.00    +0.261 A 
ATOM      6  N   UNL     1       3.078   6.790  -3.694  0.00  0.00    -0.171 NA
ATOM      7  C   UNL     1       2.152   5.895  -4.040  0.00  0.00    +0.302 A 
ATOM      8  O   UNL     1       1.625   5.192  -3.129  0.00  0.00    -0.263 OA
ATOM      9  N   UNL     1       5.012   8.093  -4.342  0.00  0.00    -0.086 NA
ATOM     10  C   UNL     1       2.040   5.457  -5.355  0.00  0.00    +0.175 A 
ATOM     11  N   UNL     1       1.456   4.390  -5.950  0.00  0.00    -0.217 NA
ATOM     12  C   UNL     1       1.957   4.275  -7.188  0.00  0.00    +0.182 A 
ENDBRANCH   1   2
BRANCH   1  13
ATOM     13  O   UNL     1       3.966   6.308  -9.226  0.00  0.00    -0.328 OA
BRANCH  13  14
ATOM     14  C   UNL     1       3.026   6.081 -10.226  0.00  0.00    +0.192 C 
BRANCH  14  15
ATOM     15  C   UNL     1       3.668   5.672 -11.528  0.00  0.00    +0.240 C 
BRANCH  15  16
ATOM     16  O   UNL     1       4.588   6.709 -11.847  0.00  0.00    -0.445 OA
BRANCH  16  17
ATOM     17  C   UNL     1       5.689   6.429 -12.558  0.00  0.00    +0.335 C 
ATOM     18  O   UNL     1       5.755   6.414 -13.808  0.00  0.00    -0.248 OA
BRANCH  17  19
ATOM     19  C   UNL     1       6.716   5.272 -12.027  0.00  0.00    +0.190 C 
ATOM     20  N   UNL     1       7.284   4.922 -13.484  0.00  0.00    -0.121 NA
BRANCH  19  22
ATOM     21  C   UNL     1       8.697   5.899 -11.924  0.00  0.00    +0.002 C 
ATOM     22  C   UNL     1       7.938   6.381 -11.765  0.00  0.00    +0.029 C 
ATOM     23  C   UNL     1       7.715   6.772 -10.329  0.00  0.00    +0.002 C 
ENDBRANCH  19  22
ENDBRANCH  17  19
ENDBRANCH  16  17
ENDBRANCH  15  16
ENDBRANCH  14  15
ENDBRANCH  13  14
ENDBRANCH   1  13
TORSDOF 8
ENDMDL
MODEL 9
REMARK VINA RESULT:      -6.5      2.449      3.184
REMARK  Name = 
REMARK  8 active torsions:
REMARK  status: ('A' for Active; 'I' for Inactive)
REMARK    1  A    between atoms: C_2  and  C_4
REMARK    2  A    between atoms: C_4  and  C_6
REMARK    3  A    between atoms: C_6  and  O_8
REMARK    4  A    between atoms: O_8  and  C_9
REMARK    5  A    between atoms: C_9  and  C_10
REMARK    6  A    between atoms: C_10  and  O_11
REMARK    7  A    between atoms: O_11  and  C_12
REMARK    8  A    between atoms: C_12  and  N_13
REMARK                            x       y       z     vdW  Elec       q    Type
REMARK                         _______ _______ _______ _____ _____    ______ ____
ROOT
ATOM      1  C   UNL     1       2.609   4.105  -7.641  0.00  0.00    +0.258 C 
ENDROOT
BRANCH   1   2
ATOM      2  N   UNL     1       3.398   5.020  -8.446  0.00  0.00    -0.268 N 
ATOM      3  C   UNL     1       2.968   5.446  -9.658  0.00  0.00    +0.172 A 
ATOM      4  N   UNL     1       1.761   5.586 -10.245  0.00  0.00    -0.192 NA
ATOM      5  C   UNL     1       1.581   5.579 -11.584  0.00  0.00    +0.261 A 
ATOM      6  N   UNL     1       2.660   5.676 -12.376  0.00  0.00    -0.171 NA
ATOM      7  C   UNL     1       3.873   5.814 -11.841  0.00  0.00    +0.302 A 
ATOM      8  O   UNL     1       4.879   5.752 -12.607  0.00  0.00    -0.263 OA
ATOM      9  N   UNL     1       0.344   5.043 -12.069  0.00  0.00    -0.086 NA
ATOM     10  C   UNL     1       4.075   5.634 -10.477  0.00  0.00    +0.175 A 
ATOM     11  N   UNL     1       5.163   5.402  -9.704  0.00  0.00    -0.217 NA
ATOM     12  C   UNL     1       4.741   4.962  -8.510  0.00  0.00    +0.182 A 
ENDBRANCH   1   2
BRANCH   1  13
ATOM     13  O   UNL     1       2.514   4.519  -6.319  0.00  0.00    -0.328 OA
BRANCH  13  14
ATOM     14  C   UNL     1       1.225   4.213  -5.897  0.00  0.00    +0.192 C 
BRANCH  14  15
ATOM     15  C   UNL     1       0.409   5.451  -5.619  0.00  0.00    +0.240 C 
BRANCH  15  16
ATOM     16  O   UNL     1       0.679   5.794  -4.265  0.00  0.00    -0.445 OA
BRANCH  16  17
ATOM     17  C   UNL     1      -0.215   5.502  -3.311  0.00  0.00    +0.335 C 
ATOM     18  O   UNL     1      -0.039   4.675  -2.388  0.00  0.00    -0.248 OA
BRANCH  17  19
ATOM     19  C   UNL     1      -1.804   5.439  -3.691  0.00  0.00    +0.190 C 
ATOM     20  N   UNL     1      -2.277   5.044  -2.212  0.00  0.00    -0.121 NA
BRANCH  19  22
ATOM     21  C   UNL     1      -2.688   7.075  -2.758  0.00  0.00    +0.002 C 
ATOM     22  C   UNL     1      -2.015   7.066  -3.374  0.00  0.00    +0.029 C 
ATOM     23  C   UNL     1      -2.377   7.612  -4.729  0.00  0.00    +0.002 C 
ENDBRANCH  19  22
ENDBRANCH  17  19
ENDBRANCH  16  17
ENDBRANCH  15  16
ENDBRANCH  14  15
ENDBRANCH  13  14
ENDBRANCH   1  13
TORSDOF 8
ENDMDL
