MODEL 1
REMARK VINA RESULT:      -4.8      0.000      0.000
REMARK  Name = 
REMARK  1 active torsions:
REMARK  status: ('A' for Active; 'I' for Inactive)
REMARK    1  A    between atoms: C_2  and  C_3
REMARK                            x       y       z     vdW  Elec       q    Type
REMARK                         _______ _______ _______ _____ _____    ______ ____
ROOT
ATOM      1  N   UNL     1       7.690   5.508  -9.721  0.00  0.00    -0.123 NA
ATOM      2  C   UNL     1       7.242   6.052 -10.995  0.00  0.00    +0.175 C 
ATOM      3  C   UNL     1       7.000   7.512 -10.944  0.00  0.00    +0.064 C 
ATOM      4  C   UNL     1       5.469   7.201 -11.544  0.00  0.00    +0.165 C 
ATOM      5  F   UNL     1       4.841   7.376 -10.147  0.00  0.00    -0.237 F 
ATOM      6  C   UNL     1       5.847   5.603 -11.224  0.00  0.00    +0.064 C 
ENDROOT
BRANCH   2   7
ATOM      7  C   UNL     1       8.156   5.593 -12.067  0.00  0.00    +0.380 C 
ATOM      8  O   UNL     1       7.716   4.568 -12.903  0.00  0.00    -0.244 OA
ATOM      9  O   UNL     1       9.402   5.831 -12.056  0.00  0.00    -0.244 OA
ENDBRANCH   2   7
TORSDOF 1
ENDMDL
MODEL 2
REMARK VINA RESULT:      -4.6     11.175     11.647
REMARK  Name = 
REMARK  1 active torsions:
REMARK  status: ('A' for Active; 'I' for Inactive)
REMARK    1  A    between atoms: C_2  and  C_3
REMARK                            x       y       z     vdW  Elec       q    Type
REMARK                         _______ _______ _______ _____ _____    ______ ____
ROOT
ATOM      1  N   UNL     1      -2.747   4.907  -2.998  0.00  0.00    -0.123 NA
ATOM      2  C   UNL     1      -1.667   5.818  -3.351  0.00  0.00    +0.175 C 
ATOM      3  C   UNL     1      -2.023   7.240  -3.147  0.00  0.00    +0.064 C 
ATOM      4  C   UNL     1      -1.576   7.500  -4.738  0.00  0.00    +0.165 C 
ATOM      5  F   UNL     1      -3.050   7.532  -5.191  0.00  0.00    -0.237 F 
ATOM      6  C   UNL     1      -1.537   5.830  -4.828  0.00  0.00    +0.064 C 
ENDROOT
BRANCH   2   7
ATOM      7  C   UNL     1      -0.420   5.370  -2.687  0.00  0.00    +0.380 C 
ATOM      8  O   UNL     1       0.696   5.135  -3.489  0.00  0.00    -0.244 OA
ATOM      9  O   UNL     1      -0.402   4.877  -1.519  0.00  0.00    -0.244 OA
ENDBRANCH   2   7
TORSDOF 1
ENDMDL
MODEL 3
REMARK VINA RESULT:      -4.5      2.434      2.736
REMARK  Name = 
REMARK  1 active torsions:
REMARK  status: ('A' for Active; 'I' for Inactive)
REMARK    1  A    between atoms: C_2  and  C_3
REMARK                            x       y       z     vdW  Elec       q    Type
REMARK                         _______ _______ _______ _____ _____    ______ ____
ROOT
ATOM      1  N   UNL     1       7.659   4.707 -12.571  0.00  0.00    -0.123 NA
ATOM      2  C   UNL     1       6.592   5.694 -12.489  0.00  0.00    +0.175 C 
ATOM      3  C   UNL     1       7.096   7.084 -12.429  0.00  0.00    +0.064 C 
ATOM      4  C   UNL     1       6.179   7.274 -11.042  0.00  0.00    +0.165 C 
ATOM      5  F   UNL     1       7.426   7.127 -10.147  0.00  0.00    -0.237 F 
ATOM      6  C   UNL     1       5.993   5.614 -11.134  0.00  0.00    +0.064 C 
ENDROOT
BRANCH   2   7
ATOM      7  C   UNL     1       5.596   5.421 -13.553  0.00  0.00    +0.380 C 
ATOM      8  O   UNL     1       5.361   6.419 -14.496  0.00  0.00    -0.244 OA
ATOM      9  O   UNL     1       4.728   4.501 -13.461  0.00  0.00    -0.244 OA
ENDBRANCH   2   7
TORSDOF 1
ENDMDL
MODEL 4
REMARK VINA RESULT:      -4.4      1.477      1.868
REMARK  Name = 
REMARK  1 active torsions:
REMARK  status: ('A' for Active; 'I' for Inactive)
REMARK    1  A    between atoms: C_2  and  C_3
REMARK                            x       y       z     vdW  Elec       q    Type
REMARK                         _______ _______ _______ _____ _____    ______ ____
ROOT
ATOM      1  N   UNL     1       6.573   7.654 -12.599  0.00  0.00    -0.123 NA
ATOM      2  C   UNL     1       6.916   6.465 -11.831  0.00  0.00    +0.175 C 
ATOM      3  C   UNL     1       5.739   5.623 -11.517  0.00  0.00    +0.064 C 
ATOM      4  C   UNL     1       6.198   5.716  -9.911  0.00  0.00    +0.165 C 
ATOM      5  F   UNL     1       5.113   6.772  -9.619  0.00  0.00    -0.237 F 
ATOM      6  C   UNL     1       7.260   6.890 -10.452  0.00  0.00    +0.064 C 
ENDROOT
BRANCH   2   7
ATOM      7  C   UNL     1       8.043   5.768 -12.494  0.00  0.00    +0.380 C 
ATOM      8  O   UNL     1       7.743   4.691 -13.327  0.00  0.00    -0.244 OA
ATOM      9  O   UNL     1       9.243   5.870 -12.096  0.00  0.00    -0.244 OA
ENDBRANCH   2   7
TORSDOF 1
ENDMDL
MODEL 5
REMARK VINA RESULT:      -4.3     10.935     11.494
REMARK  Name = 
REMARK  1 active torsions:
REMARK  status: ('A' for Active; 'I' for Inactive)
REMARK    1  A    between atoms: C_2  and  C_3
REMARK                            x       y       z     vdW  Elec       q    Type
REMARK                         _______ _______ _______ _____ _____    ______ ____
ROOT
ATOM      1  N   UNL     1      -1.965   7.594  -3.673  0.00  0.00    -0.123 NA
ATOM      2  C   UNL     1      -1.422   6.258  -3.872  0.00  0.00    +0.175 C 
ATOM      3  C   UNL     1       0.036   6.261  -4.128  0.00  0.00    +0.064 C 
ATOM      4  C   UNL     1      -0.285   5.379  -5.513  0.00  0.00    +0.165 C 
ATOM      5  F   UNL     1      -0.115   6.629  -6.399  0.00  0.00    -0.237 F 
ATOM      6  C   UNL     1      -1.881   5.765  -5.194  0.00  0.00    +0.064 C 
ENDROOT
BRANCH   2   7
ATOM      7  C   UNL     1      -1.875   5.381  -2.766  0.00  0.00    +0.380 C 
ATOM      8  O   UNL     1      -0.944   5.031  -1.789  0.00  0.00    -0.244 OA
ATOM      9  O   UNL     1      -2.928   4.678  -2.834  0.00  0.00    -0.244 OA
ENDBRANCH   2   7
TORSDOF 1
ENDMDL
MODEL 6
REMARK VINA RESULT:      -4.1      2.971      3.481
REMARK  Name = 
REMARK  1 active torsions:
REMARK  status: ('A' for Active; 'I' for Inactive)
REMARK    1  A    between atoms: C_2  and  C_3
REMARK                            x       y       z     vdW  Elec       q    Type
REMARK                         _______ _______ _______ _____ _____    ______ ____
ROOT
ATOM      1  N   UNL     1       5.760   7.653 -11.227  0.00  0.00    -0.123 NA
ATOM      2  C   UNL     1       6.330   6.359 -10.881  0.00  0.00    +0.175 C 
ATOM      3  C   UNL     1       7.729   6.455 -10.405  0.00  0.00    +0.064 C 
ATOM      4  C   UNL     1       8.123   5.327 -11.576  0.00  0.00    +0.165 C 
ATOM      5  F   UNL     1       8.703   6.421 -12.495  0.00  0.00    -0.237 F 
ATOM      6  C   UNL     1       6.574   5.611 -12.139  0.00  0.00    +0.064 C 
ENDROOT
BRANCH   2   7
ATOM      7  C   UNL     1       5.397   5.642  -9.981  0.00  0.00    +0.380 C 
ATOM      8  O   UNL     1       5.858   5.282  -8.716  0.00  0.00    -0.244 OA
ATOM      9  O   UNL     1       4.353   5.055 -10.400  0.00  0.00    -0.244 OA
ENDBRANCH   2   7
TORSDOF 1
ENDMDL
MODEL 7
REMARK VINA RESULT:      -4.1      2.114      2.847
REMARK  Name = 
REMARK  1 active torsions:
REMARK  status: ('A' for Active; 'I' for Inactive)
REMARK    1  A    between atoms: C_2  and  C_3
REMARK                            x       y       z     vdW  Elec       q    Type
REMARK                         _______ _______ _______ _____ _____    ______ ____
ROOT
ATOM      1  N   UNL     1       6.143   7.643 -11.657  0.00  0.00    -0.123 NA
ATOM      2  C   UNL     1       6.451   6.261 -11.319  0.00  0.00    +0.175 C 
ATOM      3  C   UNL     1       6.063   5.906  -9.935  0.00  0.00    +0.064 C 
ATOM      4  C   UNL     1       7.637   5.387  -9.709  0.00  0.00    +0.165 C 
ATOM      5  F   UNL     1       7.994   6.671  -8.934  0.00  0.00    -0.237 F 
ATOM      6  C   UNL     1       7.923   6.139 -11.176  0.00  0.00    +0.064 C 
ENDROOT
BRANCH   2   7
ATOM      7  C   UNL     1       5.921   5.372 -12.380  0.00  0.00    +0.380 C 
ATOM      8  O   UNL     1       6.815   4.894 -13.336  0.00  0.00    -0.244 OA
ATOM      9  O   UNL     1       4.686   5.298 -12.659  0.00  0.00    -0.244 OA
ENDBRANCH   2   7
TORSDOF 1
ENDMDL
MODEL 8
REMARK VINA RESULT:      -4.0     11.359     11.900
REMARK  Name = 
REMARK  1 active torsions:
REMARK  status: ('A' for Active; 'I' for Inactive)
REMARK    1  A    between atoms: C_2  and  C_3
REMARK                            x       y       z     vdW  Elec       q    Type
REMARK                         _______ _______ _______ _____ _____    ______ ____
ROOT
ATOM      1  N   UNL     1      -2.554   7.086  -5.278  0.00  0.00    -0.123 NA
ATOM      2  C   UNL     1      -2.050   6.350  -4.128  0.00  0.00    +0.175 C 
ATOM      3  C   UNL     1      -2.993   5.314  -3.648  0.00  0.00    +0.064 C 
ATOM      4  C   UNL     1      -2.877   6.020  -2.135  0.00  0.00    +0.165 C 
ATOM      5  F   UNL     1      -4.240   6.719  -2.310  0.00  0.00    -0.237 F 
ATOM      6  C   UNL     1      -2.089   7.251  -2.950  0.00  0.00    +0.064 C 
ENDROOT
BRANCH   2   7
ATOM      7  C   UNL     1      -0.676   5.876  -4.418  0.00  0.00    +0.380 C 
ATOM      8  O   UNL     1       0.376   6.453  -3.709  0.00  0.00    -0.244 OA
ATOM      9  O   UNL     1      -0.377   5.245  -5.477  0.00  0.00    -0.244 OA
ENDBRANCH   2   7
TORSDOF 1
ENDMDL
MODEL 9
REMARK VINA RESULT:      -3.9     10.248     10.760
REMARK  Name = 
REMARK  1 active torsions:
REMARK  status: ('A' for Active; 'I' for Inactive)
REMARK    1  A    between atoms: C_2  and  C_3
REMARK                            x       y       z     vdW  Elec       q    Type
REMARK                         _______ _______ _______ _____ _____    ______ ____
ROOT
ATOM      1  N   UNL     1      -0.345   7.446  -4.995  0.00  0.00    -0.123 NA
ATOM      2  C   UNL     1      -0.968   6.136  -4.877  0.00  0.00    +0.175 C 
ATOM      3  C   UNL     1      -1.055   5.420  -6.171  0.00  0.00    +0.064 C 
ATOM      4  C   UNL     1      -2.693   5.249  -5.877  0.00  0.00    +0.165 C 
ATOM      5  F   UNL     1      -3.031   6.391  -6.856  0.00  0.00    -0.237 F 
ATOM      6  C   UNL     1      -2.418   6.334  -4.634  0.00  0.00    +0.064 C 
ENDROOT
BRANCH   2   7
ATOM      7  C   UNL     1      -0.317   5.387  -3.776  0.00  0.00    +0.380 C 
ATOM      8  O   UNL     1      -1.084   5.086  -2.651  0.00  0.00    -0.244 OA
ATOM      9  O   UNL     1       0.942   5.305  -3.651  0.00  0.00    -0.244 OA
ENDBRANCH   2   7
TORSDOF 1
ENDMDL
