MODEL 1
REMARK VINA RESULT:     -10.0      0.000      0.000
REMARK  Name = 
REMARK  5 active torsions:
REMARK  status: ('A' for Active; 'I' for Inactive)
REMARK    1  A    between atoms: C_4  and  C_5
REMARK    2  A    between atoms: C_15  and  C_16
REMARK    3  A    between atoms: C_16  and  C_18
REMARK    4  A    between atoms: C_19  and  C_20
REMARK    5  A    between atoms: C_20  and  C_22
REMARK                            x       y       z     vdW  Elec       q    Type
REMARK                         _______ _______ _______ _____ _____    ______ ____
ROOT
ATOM      1  C   UNL     1       1.993   5.741  -5.114  0.00  0.00    -0.009 C 
ATOM      2  C   UNL     1       2.057   6.089  -6.404  0.00  0.00    -0.045 C 
ATOM      3  C   UNL     1       2.356   4.869  -7.400  0.00  0.00    +0.018 C 
ATOM      4  C   UNL     1       3.880   5.362  -7.725  0.00  0.00    +0.004 C 
ATOM      5  C   UNL     1       3.950   4.457  -8.886  0.00  0.00    +0.001 C 
ATOM      6  C   UNL     1       2.681   4.832  -9.819  0.00  0.00    +0.004 C 
ATOM      7  C   UNL     1       1.893   5.707  -8.717  0.00  0.00    +0.004 C 
ATOM      8  C   UNL     1       2.346   7.078  -8.642  0.00  0.00    +0.000 C 
ATOM      9  C   UNL     1       0.457   5.416  -8.727  0.00  0.00    +0.001 C 
ATOM     10  C   UNL     1      -0.096   5.664  -7.329  0.00  0.00    +0.004 C 
ATOM     11  C   UNL     1       0.703   6.720  -6.568  0.00  0.00    +0.022 C 
ENDROOT
BRANCH   1  21
ATOM     12  C   UNL     1       0.383   5.884  -3.289  0.00  0.00    -0.002 C 
ATOM     13  C   UNL     1       1.208   5.897  -2.645  0.00  0.00    +0.004 C 
ATOM     14  C   UNL     1       1.306   6.108  -1.046  0.00  0.00    +0.176 C 
ATOM     15  O   UNL     1      -0.064   5.486  -0.821  0.00  0.00    -0.218 OA
ATOM     16  C   UNL     1       2.068   4.673  -0.854  0.00  0.00    +0.071 C 
ATOM     17  C   UNL     1       3.471   4.790  -1.700  0.00  0.00    +0.159 C 
ATOM     18  O   UNL     1       4.269   4.972  -0.418  0.00  0.00    -0.223 OA
ATOM     19  C   UNL     1       3.491   6.417  -2.001  0.00  0.00    +0.059 C 
ATOM     20  C   UNL     1       2.480   6.533  -3.050  0.00  0.00    -0.021 C 
ATOM     21  C   UNL     1       2.563   6.848  -4.317  0.00  0.00    -0.005 C 
ENDBRANCH   1  21
BRANCH   6  22
ATOM     22  C   UNL     1       3.491   6.165 -10.503  0.00  0.00    +0.022 C 
ATOM     23  C   UNL     1       2.435   6.231 -11.738  0.00  0.00    +0.005 C 
BRANCH  22  24
ATOM     24  C   UNL     1       4.548   5.337 -11.358  0.00  0.00    -0.031 C 
ATOM     25  C   UNL     1       5.740   5.629 -11.570  0.00  0.00    -0.031 C 
BRANCH  25  26
ATOM     26  C   UNL     1       6.269   6.751 -12.579  0.00  0.00    +0.022 C 
ATOM     27  C   UNL     1       6.646   5.671 -13.746  0.00  0.00    +0.005 C 
BRANCH  26  28
ATOM     28  C   UNL     1       7.783   6.704 -11.958  0.00  0.00    +0.004 C 
ATOM     29  C   UNL     1       7.499   7.122 -10.521  0.00  0.00    +0.000 C 
ATOM     30  C   UNL     1       8.182   5.248 -11.983  0.00  0.00    +0.000 C 
ENDBRANCH  26  28
ENDBRANCH  25  26
ENDBRANCH  22  24
ENDBRANCH   6  22
TORSDOF 5
ENDMDL
MODEL 2
REMARK VINA RESULT:      -9.6      1.506      2.466
REMARK  Name = 
REMARK  5 active torsions:
REMARK  status: ('A' for Active; 'I' for Inactive)
REMARK    1  A    between atoms: C_4  and  C_5
REMARK    2  A    between atoms: C_15  and  C_16
REMARK    3  A    between atoms: C_16  and  C_18
REMARK    4  A    between atoms: C_19  and  C_20
REMARK    5  A    between atoms: C_20  and  C_22
REMARK                            x       y       z     vdW  Elec       q    Type
REMARK                         _______ _______ _______ _____ _____    ______ ____
ROOT
ATOM      1  C   UNL     1       0.067   5.640  -3.271  0.00  0.00    -0.009 C 
ATOM      2  C   UNL     1       0.283   6.028  -4.532  0.00  0.00    -0.045 C 
ATOM      3  C   UNL     1       0.706   4.842  -5.523  0.00  0.00    +0.018 C 
ATOM      4  C   UNL     1       2.255   5.346  -5.647  0.00  0.00    +0.004 C 
ATOM      5  C   UNL     1       2.469   4.479  -6.819  0.00  0.00    +0.001 C 
ATOM      6  C   UNL     1       1.319   4.882  -7.886  0.00  0.00    +0.004 C 
ATOM      7  C   UNL     1       0.400   5.720  -6.859  0.00  0.00    +0.004 C 
ATOM      8  C   UNL     1       0.834   7.088  -6.687  0.00  0.00    +0.000 C 
ATOM      9  C   UNL     1      -1.024   5.429  -7.051  0.00  0.00    +0.001 C 
ATOM     10  C   UNL     1      -1.741   5.631  -5.722  0.00  0.00    +0.004 C 
ATOM     11  C   UNL     1      -1.044   6.663  -4.838  0.00  0.00    +0.022 C 
ENDROOT
BRANCH   1  21
ATOM     12  C   UNL     1       1.266   4.364  -1.574  0.00  0.00    -0.002 C 
ATOM     13  C   UNL     1       2.045   5.053  -1.696  0.00  0.00    +0.004 C 
ATOM     14  C   UNL     1       3.435   5.239  -0.893  0.00  0.00    +0.176 C 
ATOM     15  O   UNL     1       3.523   3.751  -0.584  0.00  0.00    -0.218 OA
ATOM     16  C   UNL     1       4.306   5.076  -2.268  0.00  0.00    +0.071 C 
ATOM     17  C   UNL     1       3.847   6.316  -3.243  0.00  0.00    +0.159 C 
ATOM     18  O   UNL     1       5.133   7.071  -2.948  0.00  0.00    -0.223 OA
ATOM     19  C   UNL     1       3.000   7.237  -2.159  0.00  0.00    +0.059 C 
ATOM     20  C   UNL     1       1.766   6.467  -2.024  0.00  0.00    -0.021 C 
ATOM     21  C   UNL     1       0.531   6.721  -2.377  0.00  0.00    -0.005 C 
ENDBRANCH   1  21
BRANCH   6  22
ATOM     22  C   UNL     1       2.198   6.237  -8.425  0.00  0.00    +0.022 C 
ATOM     23  C   UNL     1       1.248   6.389  -9.736  0.00  0.00    +0.005 C 
BRANCH  22  24
ATOM     24  C   UNL     1       3.312   5.439  -9.237  0.00  0.00    -0.031 C 
ATOM     25  C   UNL     1       4.471   5.816  -9.492  0.00  0.00    -0.031 C 
BRANCH  25  26
ATOM     26  C   UNL     1       4.888   6.899 -10.592  0.00  0.00    +0.022 C 
ATOM     27  C   UNL     1       4.356   5.989 -11.841  0.00  0.00    +0.005 C 
BRANCH  26  28
ATOM     28  C   UNL     1       6.406   6.298 -10.718  0.00  0.00    +0.004 C 
ATOM     29  C   UNL     1       7.185   7.583 -10.969  0.00  0.00    +0.000 C 
ATOM     30  C   UNL     1       6.745   5.771  -9.345  0.00  0.00    +0.000 C 
ENDBRANCH  26  28
ENDBRANCH  25  26
ENDBRANCH  22  24
ENDBRANCH   6  22
TORSDOF 5
ENDMDL
MODEL 3
REMARK VINA RESULT:      -9.5      2.679      4.974
REMARK  Name = 
REMARK  5 active torsions:
REMARK  status: ('A' for Active; 'I' for Inactive)
REMARK    1  A    between atoms: C_4  and  C_5
REMARK    2  A    between atoms: C_15  and  C_16
REMARK    3  A    between atoms: C_16  and  C_18
REMARK    4  A    between atoms: C_19  and  C_20
REMARK    5  A    between atoms: C_20  and  C_22
REMARK                            x       y       z     vdW  Elec       q    Type
REMARK                         _______ _______ _______ _____ _____    ______ ____
ROOT
ATOM      1  C   UNL     1       1.682   6.042  -2.260  0.00  0.00    -0.009 C 
ATOM      2  C   UNL     1       2.334   5.677  -3.368  0.00  0.00    -0.045 C 
ATOM      3  C   UNL     1       2.668   6.887  -4.365  0.00  0.00    +0.018 C 
ATOM      4  C   UNL     1       1.566   6.424  -5.479  0.00  0.00    +0.004 C 
ATOM      5  C   UNL     1       2.173   7.313  -6.485  0.00  0.00    +0.001 C 
ATOM      6  C   UNL     1       3.736   6.896  -6.559  0.00  0.00    +0.004 C 
ATOM      7  C   UNL     1       3.760   6.021  -5.205  0.00  0.00    +0.004 C 
ATOM      8  C   UNL     1       3.305   4.662  -5.392  0.00  0.00    +0.000 C 
ATOM      9  C   UNL     1       4.969   6.280  -4.418  0.00  0.00    +0.001 C 
ATOM     10  C   UNL     1       4.649   6.041  -2.948  0.00  0.00    +0.004 C 
ATOM     11  C   UNL     1       3.535   5.014  -2.756  0.00  0.00    +0.022 C 
ENDROOT
BRANCH   1  21
ATOM     12  C   UNL     1       0.930   6.766  -0.056  0.00  0.00    -0.002 C 
ATOM     13  C   UNL     1      -0.042   6.584  -0.397  0.00  0.00    +0.004 C 
ATOM     14  C   UNL     1      -1.463   6.626   0.372  0.00  0.00    +0.176 C 
ATOM     15  O   UNL     1      -0.979   7.705   1.330  0.00  0.00    -0.218 OA
ATOM     16  C   UNL     1      -2.055   7.728  -0.683  0.00  0.00    +0.071 C 
ATOM     17  C   UNL     1      -2.035   7.000  -2.155  0.00  0.00    +0.159 C 
ATOM     18  O   UNL     1      -3.538   6.778  -2.105  0.00  0.00    -0.223 OA
ATOM     19  C   UNL     1      -1.740   5.436  -1.700  0.00  0.00    +0.059 C 
ATOM     20  C   UNL     1      -0.321   5.495  -1.357  0.00  0.00    -0.021 C 
ATOM     21  C   UNL     1       0.737   4.960  -1.911  0.00  0.00    -0.005 C 
ENDBRANCH   1  21
BRANCH   6  22
ATOM     22  C   UNL     1       3.406   5.571  -7.576  0.00  0.00    +0.022 C 
ATOM     23  C   UNL     1       4.981   5.398  -7.941  0.00  0.00    +0.005 C 
BRANCH  22  24
ATOM     24  C   UNL     1       3.118   6.406  -8.901  0.00  0.00    -0.031 C 
ATOM     25  C   UNL     1       2.097   6.362  -9.612  0.00  0.00    -0.031 C 
BRANCH  25  26
ATOM     26  C   UNL     1       1.712   5.196 -10.636  0.00  0.00    +0.022 C 
ATOM     27  C   UNL     1       1.928   6.139 -11.953  0.00  0.00    +0.005 C 
BRANCH  26  28
ATOM     28  C   UNL     1       0.116   5.554 -10.563  0.00  0.00    +0.004 C 
ATOM     29  C   UNL     1      -0.107   5.486  -9.057  0.00  0.00    +0.000 C 
ATOM     30  C   UNL     1       0.005   6.990 -11.017  0.00  0.00    +0.000 C 
ENDBRANCH  26  28
ENDBRANCH  25  26
ENDBRANCH  22  24
ENDBRANCH   6  22
TORSDOF 5
ENDMDL
MODEL 4
REMARK VINA RESULT:      -9.4      4.112      9.522
REMARK  Name = 
REMARK  5 active torsions:
REMARK  status: ('A' for Active; 'I' for Inactive)
REMARK    1  A    between atoms: C_4  and  C_5
REMARK    2  A    between atoms: C_15  and  C_16
REMARK    3  A    between atoms: C_16  and  C_18
REMARK    4  A    between atoms: C_19  and  C_20
REMARK    5  A    between atoms: C_20  and  C_22
REMARK                            x       y       z     vdW  Elec       q    Type
REMARK                         _______ _______ _______ _____ _____    ______ ____
ROOT
ATOM      1  C   UNL     1       2.276   5.539 -10.013  0.00  0.00    -0.009 C 
ATOM      2  C   UNL     1       2.321   5.974  -8.750  0.00  0.00    -0.045 C 
ATOM      3  C   UNL     1       2.201   4.815  -7.649  0.00  0.00    +0.018 C 
ATOM      4  C   UNL     1       0.690   5.244  -7.199  0.00  0.00    +0.004 C 
ATOM      5  C   UNL     1       0.794   4.422  -5.980  0.00  0.00    +0.001 C 
ATOM      6  C   UNL     1       2.124   4.933  -5.212  0.00  0.00    +0.004 C 
ATOM      7  C   UNL     1       2.741   5.769  -6.446  0.00  0.00    +0.004 C 
ATOM      8  C   UNL     1       2.198   7.103  -6.563  0.00  0.00    +0.000 C 
ATOM      9  C   UNL     1       4.186   5.560  -6.567  0.00  0.00    +0.001 C 
ATOM     10  C   UNL     1       4.578   5.737  -8.029  0.00  0.00    +0.004 C 
ATOM     11  C   UNL     1       3.642   6.689  -8.770  0.00  0.00    +0.022 C 
ENDROOT
BRANCH   1  21
ATOM     12  C   UNL     1       3.868   5.916 -11.821  0.00  0.00    -0.002 C 
ATOM     13  C   UNL     1       3.057   5.809 -12.474  0.00  0.00    +0.004 C 
ATOM     14  C   UNL     1       2.946   6.006 -14.074  0.00  0.00    +0.176 C 
ATOM     15  O   UNL     1       4.395   5.588 -14.284  0.00  0.00    -0.218 OA
ATOM     16  C   UNL     1       2.403   4.475 -14.273  0.00  0.00    +0.071 C 
ATOM     17  C   UNL     1       0.988   4.387 -13.442  0.00  0.00    +0.159 C 
ATOM     18  O   UNL     1       0.187   4.452 -14.732  0.00  0.00    -0.223 OA
ATOM     19  C   UNL     1       0.729   5.994 -13.142  0.00  0.00    +0.059 C 
ATOM     20  C   UNL     1       1.702   6.253 -12.083  0.00  0.00    -0.021 C 
ATOM     21  C   UNL     1       1.560   6.552 -10.817  0.00  0.00    -0.005 C 
ENDBRANCH   1  21
BRANCH   6  22
ATOM     22  C   UNL     1       1.306   6.265  -4.536  0.00  0.00    +0.022 C 
ATOM     23  C   UNL     1       2.479   6.484  -3.432  0.00  0.00    +0.005 C 
BRANCH  22  24
ATOM     24  C   UNL     1       0.401   5.443  -3.516  0.00  0.00    -0.031 C 
ATOM     25  C   UNL     1      -0.816   5.593  -3.301  0.00  0.00    -0.031 C 
BRANCH  25  26
ATOM     26  C   UNL     1      -1.486   6.776  -2.459  0.00  0.00    +0.022 C 
ATOM     27  C   UNL     1      -2.092   5.766  -1.325  0.00  0.00    +0.005 C 
BRANCH  26  28
ATOM     28  C   UNL     1      -2.867   6.721  -3.336  0.00  0.00    +0.004 C 
ATOM     29  C   UNL     1      -2.375   7.311  -4.652  0.00  0.00    +0.000 C 
ATOM     30  C   UNL     1      -3.163   5.253  -3.529  0.00  0.00    +0.000 C 
ENDBRANCH  26  28
ENDBRANCH  25  26
ENDBRANCH  22  24
ENDBRANCH   6  22
TORSDOF 5
ENDMDL
MODEL 5
REMARK VINA RESULT:      -9.0      1.866      3.794
REMARK  Name = 
REMARK  5 active torsions:
REMARK  status: ('A' for Active; 'I' for Inactive)
REMARK    1  A    between atoms: C_4  and  C_5
REMARK    2  A    between atoms: C_15  and  C_16
REMARK    3  A    between atoms: C_16  and  C_18
REMARK    4  A    between atoms: C_19  and  C_20
REMARK    5  A    between atoms: C_20  and  C_22
REMARK                            x       y       z     vdW  Elec       q    Type
REMARK                         _______ _______ _______ _____ _____    ______ ____
ROOT
ATOM      1  C   UNL     1       1.195   6.124  -3.467  0.00  0.00    -0.009 C 
ATOM      2  C   UNL     1       2.064   5.747  -4.409  0.00  0.00    -0.045 C 
ATOM      3  C   UNL     1       2.484   6.915  -5.423  0.00  0.00    +0.018 C 
ATOM      4  C   UNL     1       1.643   6.285  -6.675  0.00  0.00    +0.004 C 
ATOM      5  C   UNL     1       2.356   7.157  -7.624  0.00  0.00    +0.001 C 
ATOM      6  C   UNL     1       3.933   6.876  -7.387  0.00  0.00    +0.004 C 
ATOM      7  C   UNL     1       3.773   6.096  -5.985  0.00  0.00    +0.004 C 
ATOM      8  C   UNL     1       3.464   4.692  -6.141  0.00  0.00    +0.000 C 
ATOM      9  C   UNL     1       4.795   6.511  -5.019  0.00  0.00    +0.001 C 
ATOM     10  C   UNL     1       4.229   6.340  -3.615  0.00  0.00    +0.004 C 
ATOM     11  C   UNL     1       3.179   5.234  -3.543  0.00  0.00    +0.022 C 
ENDROOT
BRANCH   1  21
ATOM     12  C   UNL     1       0.795   6.379  -1.074  0.00  0.00    -0.002 C 
ATOM     13  C   UNL     1      -0.221   6.264  -1.295  0.00  0.00    +0.004 C 
ATOM     14  C   UNL     1      -1.512   6.140  -0.330  0.00  0.00    +0.176 C 
ATOM     15  O   UNL     1      -0.865   7.005   0.742  0.00  0.00    -0.218 OA
ATOM     16  C   UNL     1      -2.226   7.431  -1.040  0.00  0.00    +0.071 C 
ATOM     17  C   UNL     1      -2.442   7.018  -2.615  0.00  0.00    +0.159 C 
ATOM     18  O   UNL     1      -3.926   6.781  -2.385  0.00  0.00    -0.223 OA
ATOM     19  C   UNL     1      -2.121   5.396  -2.534  0.00  0.00    +0.059 C 
ATOM     20  C   UNL     1      -0.666   5.392  -2.404  0.00  0.00    -0.021 C 
ATOM     21  C   UNL     1       0.286   4.988  -3.206  0.00  0.00    -0.005 C 
ENDBRANCH   1  21
BRANCH   6  22
ATOM     22  C   UNL     1       3.895   5.464  -8.338  0.00  0.00    +0.022 C 
ATOM     23  C   UNL     1       5.498   5.250  -8.166  0.00  0.00    +0.005 C 
BRANCH  22  24
ATOM     24  C   UNL     1       4.070   6.174  -9.753  0.00  0.00    -0.031 C 
ATOM     25  C   UNL     1       4.968   5.972 -10.591  0.00  0.00    -0.031 C 
BRANCH  25  26
ATOM     26  C   UNL     1       6.480   6.485 -10.494  0.00  0.00    +0.022 C 
ATOM     27  C   UNL     1       6.178   7.853 -11.337  0.00  0.00    +0.005 C 
BRANCH  26  28
ATOM     28  C   UNL     1       6.922   5.675 -11.846  0.00  0.00    +0.004 C 
ATOM     29  C   UNL     1       6.217   6.512 -12.906  0.00  0.00    +0.000 C 
ATOM     30  C   UNL     1       8.414   5.875 -11.966  0.00  0.00    +0.000 C 
ENDBRANCH  26  28
ENDBRANCH  25  26
ENDBRANCH  22  24
ENDBRANCH   6  22
TORSDOF 5
ENDMDL
MODEL 6
REMARK VINA RESULT:      -9.0      3.784      9.265
REMARK  Name = 
REMARK  5 active torsions:
REMARK  status: ('A' for Active; 'I' for Inactive)
REMARK    1  A    between atoms: C_4  and  C_5
REMARK    2  A    between atoms: C_15  and  C_16
REMARK    3  A    between atoms: C_16  and  C_18
REMARK    4  A    between atoms: C_19  and  C_20
REMARK    5  A    between atoms: C_20  and  C_22
REMARK                            x       y       z     vdW  Elec       q    Type
REMARK                         _______ _______ _______ _____ _____    ______ ____
ROOT
ATOM      1  C   UNL     1       4.200   5.945  -7.629  0.00  0.00    -0.009 C 
ATOM      2  C   UNL     1       3.968   5.702  -6.335  0.00  0.00    -0.045 C 
ATOM      3  C   UNL     1       3.665   7.013  -5.463  0.00  0.00    +0.018 C 
ATOM      4  C   UNL     1       5.101   6.964  -4.684  0.00  0.00    +0.004 C 
ATOM      5  C   UNL     1       4.613   7.921  -3.676  0.00  0.00    +0.001 C 
ATOM      6  C   UNL     1       3.256   7.276  -3.071  0.00  0.00    +0.004 C 
ATOM      7  C   UNL     1       3.055   6.160  -4.218  0.00  0.00    +0.004 C 
ATOM      8  C   UNL     1       3.824   4.958  -3.991  0.00  0.00    +0.000 C 
ATOM      9  C   UNL     1       1.651   6.058  -4.627  0.00  0.00    +0.001 C 
ATOM     10  C   UNL     1       1.604   5.591  -6.077  0.00  0.00    +0.004 C 
ATOM     11  C   UNL     1       2.817   4.744  -6.454  0.00  0.00    +0.022 C 
ENDROOT
BRANCH   1  21
ATOM     12  C   UNL     1       3.401   5.459  -9.881  0.00  0.00    -0.002 C 
ATOM     13  C   UNL     1       4.385   5.623 -10.198  0.00  0.00    +0.004 C 
ATOM     14  C   UNL     1       5.082   5.437 -11.645  0.00  0.00    +0.176 C 
ATOM     15  O   UNL     1       3.784   5.752 -12.375  0.00  0.00    -0.218 OA
ATOM     16  C   UNL     1       5.558   7.002 -11.670  0.00  0.00    +0.071 C 
ATOM     17  C   UNL     1       6.565   7.188 -10.387  0.00  0.00    +0.159 C 
ATOM     18  O   UNL     1       7.783   7.181 -11.297  0.00  0.00    -0.223 OA
ATOM     19  C   UNL     1       6.803   5.603  -9.974  0.00  0.00    +0.059 C 
ATOM     20  C   UNL     1       5.532   5.275  -9.333  0.00  0.00    -0.021 C 
ATOM     21  C   UNL     1       5.224   4.985  -8.095  0.00  0.00    -0.005 C 
ENDBRANCH   1  21
BRANCH   6  22
ATOM     22  C   UNL     1       4.127   6.248  -2.029  0.00  0.00    +0.022 C 
ATOM     23  C   UNL     1       2.818   6.012  -1.093  0.00  0.00    +0.005 C 
BRANCH  22  24
ATOM     24  C   UNL     1       4.698   7.382  -1.066  0.00  0.00    -0.031 C 
ATOM     25  C   UNL     1       4.227   7.749   0.026  0.00  0.00    -0.031 C 
BRANCH  25  26
ATOM     26  C   UNL     1       2.930   8.661   0.234  0.00  0.00    +0.022 C 
ATOM     27  C   UNL     1       3.581   9.945  -0.540  0.00  0.00    +0.005 C 
BRANCH  26  28
ATOM     28  C   UNL     1       3.447   9.198   1.691  0.00  0.00    +0.004 C 
ATOM     29  C   UNL     1       3.952  10.582   1.306  0.00  0.00    +0.000 C 
ATOM     30  C   UNL     1       2.201   9.340   2.533  0.00  0.00    +0.000 C 
ENDBRANCH  26  28
ENDBRANCH  25  26
ENDBRANCH  22  24
ENDBRANCH   6  22
TORSDOF 5
ENDMDL
MODEL 7
REMARK VINA RESULT:      -8.7      3.434      8.483
REMARK  Name = 
REMARK  5 active torsions:
REMARK  status: ('A' for Active; 'I' for Inactive)
REMARK    1  A    between atoms: C_4  and  C_5
REMARK    2  A    between atoms: C_15  and  C_16
REMARK    3  A    between atoms: C_16  and  C_18
REMARK    4  A    between atoms: C_19  and  C_20
REMARK    5  A    between atoms: C_20  and  C_22
REMARK                            x       y       z     vdW  Elec       q    Type
REMARK                         _______ _______ _______ _____ _____    ______ ____
ROOT
ATOM      1  C   UNL     1       3.237   5.752  -9.768  0.00  0.00    -0.009 C 
ATOM      2  C   UNL     1       2.501   5.388  -8.713  0.00  0.00    -0.045 C 
ATOM      3  C   UNL     1       1.852   6.614  -7.909  0.00  0.00    +0.018 C 
ATOM      4  C   UNL     1       2.845   6.443  -6.623  0.00  0.00    +0.004 C 
ATOM      5  C   UNL     1       1.976   7.308  -5.806  0.00  0.00    +0.001 C 
ATOM      6  C   UNL     1       0.499   6.648  -5.877  0.00  0.00    +0.004 C 
ATOM      7  C   UNL     1       0.798   5.659  -7.117  0.00  0.00    +0.004 C 
ATOM      8  C   UNL     1       1.423   4.417  -6.722  0.00  0.00    +0.000 C 
ATOM      9  C   UNL     1      -0.315   5.642  -8.070  0.00  0.00    +0.001 C 
ATOM     10  C   UNL     1       0.239   5.324  -9.453  0.00  0.00    +0.004 C 
ATOM     11  C   UNL     1       1.511   4.483  -9.389  0.00  0.00    +0.022 C 
ENDROOT
BRANCH   1  21
ATOM     12  C   UNL     1       3.635   5.763 -12.174  0.00  0.00    -0.002 C 
ATOM     13  C   UNL     1       4.647   5.901 -11.943  0.00  0.00    +0.004 C 
ATOM     14  C   UNL     1       5.959   5.929 -12.886  0.00  0.00    +0.176 C 
ATOM     15  O   UNL     1       5.170   6.482 -14.065  0.00  0.00    -0.218 OA
ATOM     16  C   UNL     1       6.362   7.426 -12.363  0.00  0.00    +0.071 C 
ATOM     17  C   UNL     1       6.620   7.284 -10.747  0.00  0.00    +0.159 C 
ATOM     18  O   UNL     1       8.126   7.344 -10.947  0.00  0.00    -0.223 OA
ATOM     19  C   UNL     1       6.655   5.636 -10.603  0.00  0.00    +0.059 C 
ATOM     20  C   UNL     1       5.238   5.302 -10.727  0.00  0.00    -0.021 C 
ATOM     21  C   UNL     1       4.375   4.814  -9.874  0.00  0.00    -0.005 C 
ENDBRANCH   1  21
BRANCH   6  22
ATOM     22  C   UNL     1       0.882   5.494  -4.684  0.00  0.00    +0.022 C 
ATOM     23  C   UNL     1      -0.673   5.390  -4.220  0.00  0.00    +0.005 C 
BRANCH  22  24
ATOM     24  C   UNL     1       1.234   6.524  -3.521  0.00  0.00    -0.031 C 
ATOM     25  C   UNL     1       2.243   6.520  -2.792  0.00  0.00    -0.031 C 
BRANCH  25  26
ATOM     26  C   UNL     1       2.521   5.525  -1.572  0.00  0.00    +0.022 C 
ATOM     27  C   UNL     1       2.528   6.724  -0.461  0.00  0.00    +0.005 C 
BRANCH  26  28
ATOM     28  C   UNL     1       4.144   5.614  -1.769  0.00  0.00    +0.004 C 
ATOM     29  C   UNL     1       4.285   4.970  -3.143  0.00  0.00    +0.000 C 
ATOM     30  C   UNL     1       4.456   7.088  -1.876  0.00  0.00    +0.000 C 
ENDBRANCH  26  28
ENDBRANCH  25  26
ENDBRANCH  22  24
ENDBRANCH   6  22
TORSDOF 5
ENDMDL
MODEL 8
REMARK VINA RESULT:      -8.5      3.511      9.109
REMARK  Name = 
REMARK  5 active torsions:
REMARK  status: ('A' for Active; 'I' for Inactive)
REMARK    1  A    between atoms: C_4  and  C_5
REMARK    2  A    between atoms: C_15  and  C_16
REMARK    3  A    between atoms: C_16  and  C_18
REMARK    4  A    between atoms: C_19  and  C_20
REMARK    5  A    between atoms: C_20  and  C_22
REMARK                            x       y       z     vdW  Elec       q    Type
REMARK                         _______ _______ _______ _____ _____    ______ ____
ROOT
ATOM      1  C   UNL     1       3.282   5.869  -9.374  0.00  0.00    -0.009 C 
ATOM      2  C   UNL     1       2.344   5.485  -8.502  0.00  0.00    -0.045 C 
ATOM      3  C   UNL     1       1.450   6.685  -7.926  0.00  0.00    +0.018 C 
ATOM      4  C   UNL     1       2.124   6.623  -6.439  0.00  0.00    +0.004 C 
ATOM      5  C   UNL     1       1.037   7.448  -5.885  0.00  0.00    +0.001 C 
ATOM      6  C   UNL     1      -0.339   6.684  -6.265  0.00  0.00    +0.004 C 
ATOM      7  C   UNL     1       0.301   5.682  -7.356  0.00  0.00    +0.004 C 
ATOM      8  C   UNL     1       0.893   4.500  -6.772  0.00  0.00    +0.000 C 
ATOM      9  C   UNL     1      -0.555   5.558  -8.539  0.00  0.00    +0.001 C 
ATOM     10  C   UNL     1       0.325   5.240  -9.741  0.00  0.00    +0.004 C 
ATOM     11  C   UNL     1       1.597   4.492  -9.347  0.00  0.00    +0.022 C 
ENDROOT
BRANCH   1  21
ATOM     12  C   UNL     1       3.918   5.393 -11.679  0.00  0.00    -0.002 C 
ATOM     13  C   UNL     1       4.894   5.646 -11.396  0.00  0.00    +0.004 C 
ATOM     14  C   UNL     1       6.291   5.563 -12.205  0.00  0.00    +0.176 C 
ATOM     15  O   UNL     1       5.599   5.795 -13.540  0.00  0.00    -0.218 OA
ATOM     16  C   UNL     1       6.566   7.161 -11.989  0.00  0.00    +0.071 C 
ATOM     17  C   UNL     1       6.668   7.387 -10.366  0.00  0.00    +0.159 C 
ATOM     18  O   UNL     1       8.181   7.507 -10.441  0.00  0.00    -0.223 OA
ATOM     19  C   UNL     1       6.768   5.814  -9.861  0.00  0.00    +0.059 C 
ATOM     20  C   UNL     1       5.389   5.364 -10.032  0.00  0.00    -0.021 C 
ATOM     21  C   UNL     1       4.468   5.011  -9.171  0.00  0.00    -0.005 C 
ENDBRANCH   1  21
BRANCH   6  22
ATOM     22  C   UNL     1      -0.175   5.596  -4.965  0.00  0.00    +0.022 C 
ATOM     23  C   UNL     1      -1.727   5.131  -5.097  0.00  0.00    +0.005 C 
BRANCH  22  24
ATOM     24  C   UNL     1      -0.509   6.630  -3.800  0.00  0.00    -0.031 C 
ATOM     25  C   UNL     1      -0.477   6.418  -2.574  0.00  0.00    -0.031 C 
BRANCH  25  26
ATOM     26  C   UNL     1      -1.558   5.594  -1.731  0.00  0.00    +0.022 C 
ATOM     27  C   UNL     1      -2.757   6.664  -2.029  0.00  0.00    +0.005 C 
BRANCH  26  28
ATOM     28  C   UNL     1      -1.151   6.344  -0.333  0.00  0.00    +0.004 C 
ATOM     29  C   UNL     1       0.368   6.285  -0.427  0.00  0.00    +0.000 C 
ATOM     30  C   UNL     1      -1.604   7.775  -0.498  0.00  0.00    +0.000 C 
ENDBRANCH  26  28
ENDBRANCH  25  26
ENDBRANCH  22  24
ENDBRANCH   6  22
TORSDOF 5
ENDMDL
MODEL 9
REMARK VINA RESULT:      -8.3      3.496      9.946
REMARK  Name = 
REMARK  5 active torsions:
REMARK  status: ('A' for Active; 'I' for Inactive)
REMARK    1  A    between atoms: C_4  and  C_5
REMARK    2  A    between atoms: C_15  and  C_16
REMARK    3  A    between atoms: C_16  and  C_18
REMARK    4  A    between atoms: C_19  and  C_20
REMARK    5  A    between atoms: C_20  and  C_22
REMARK                            x       y       z     vdW  Elec       q    Type
REMARK                         _______ _______ _______ _____ _____    ______ ____
ROOT
ATOM      1  C   UNL     1       2.992   6.070  -6.529  0.00  0.00    -0.009 C 
ATOM      2  C   UNL     1       3.108   6.445  -5.251  0.00  0.00    -0.045 C 
ATOM      3  C   UNL     1       2.546   5.375  -4.198  0.00  0.00    +0.018 C 
ATOM      4  C   UNL     1       1.241   6.276  -3.807  0.00  0.00    +0.004 C 
ATOM      5  C   UNL     1       0.996   5.448  -2.614  0.00  0.00    +0.001 C 
ATOM      6  C   UNL     1       2.375   5.473  -1.765  0.00  0.00    +0.004 C 
ATOM      7  C   UNL     1       3.303   6.075  -2.938  0.00  0.00    +0.004 C 
ATOM      8  C   UNL     1       3.242   7.516  -3.036  0.00  0.00    +0.000 C 
ATOM      9  C   UNL     1       4.602   5.398  -2.997  0.00  0.00    +0.001 C 
ATOM     10  C   UNL     1       5.113   5.457  -4.431  0.00  0.00    +0.004 C 
ATOM     11  C   UNL     1       4.590   6.679  -5.183  0.00  0.00    +0.022 C 
ENDROOT
BRANCH   1  21
ATOM     12  C   UNL     1       4.266   5.606  -8.557  0.00  0.00    -0.002 C 
ATOM     13  C   UNL     1       3.402   5.873  -9.085  0.00  0.00    +0.004 C 
ATOM     14  C   UNL     1       3.138   6.053 -10.669  0.00  0.00    +0.176 C 
ATOM     15  O   UNL     1       4.180   5.000 -11.021  0.00  0.00    -0.218 OA
ATOM     16  C   UNL     1       1.930   4.949 -10.642  0.00  0.00    +0.071 C 
ATOM     17  C   UNL     1       0.787   5.557  -9.631  0.00  0.00    +0.159 C 
ATOM     18  O   UNL     1      -0.092   5.953 -10.807  0.00  0.00    -0.223 OA
ATOM     19  C   UNL     1       1.344   7.106  -9.463  0.00  0.00    +0.059 C 
ATOM     20  C   UNL     1       2.484   6.911  -8.569  0.00  0.00    -0.021 C 
ATOM     21  C   UNL     1       2.701   7.277  -7.332  0.00  0.00    -0.005 C 
ENDBRANCH   1  21
BRANCH   6  22
ATOM     22  C   UNL     1       2.009   6.991  -1.084  0.00  0.00    +0.022 C 
ATOM     23  C   UNL     1       3.143   6.801   0.065  0.00  0.00    +0.005 C 
BRANCH  22  24
ATOM     24  C   UNL     1       0.845   6.497  -0.116  0.00  0.00    -0.031 C 
ATOM     25  C   UNL     1      -0.127   7.160   0.292  0.00  0.00    -0.031 C 
BRANCH  25  26
ATOM     26  C   UNL     1      -0.088   8.289   1.424  0.00  0.00    +0.022 C 
ATOM     27  C   UNL     1      -0.557   7.264   2.608  0.00  0.00    +0.005 C 
BRANCH  26  28
ATOM     28  C   UNL     1      -1.630   8.749   1.125  0.00  0.00    +0.004 C 
ATOM     29  C   UNL     1      -2.375   7.490   1.549  0.00  0.00    +0.000 C 
ATOM     30  C   UNL     1      -1.919   9.854   2.114  0.00  0.00    +0.000 C 
ENDBRANCH  26  28
ENDBRANCH  25  26
ENDBRANCH  22  24
ENDBRANCH   6  22
TORSDOF 5
ENDMDL
