MODEL 1
REMARK VINA RESULT:      -9.1      0.000      0.000
REMARK  Name = 
REMARK  7 active torsions:
REMARK  status: ('A' for Active; 'I' for Inactive)
REMARK    1  A    between atoms: C_7  and  O_8
REMARK    2  A    between atoms: O_8  and  C_9
REMARK    3  A    between atoms: C_9  and  C_10
REMARK    4  A    between atoms: C_10  and  C_11
REMARK    5  A    between atoms: C_11  and  C_12
REMARK    6  A    between atoms: C_12  and  C_13
REMARK    7  A    between atoms: N_17  and  C_18
REMARK                            x       y       z     vdW  Elec       q    Type
REMARK                         _______ _______ _______ _____ _____    ______ ____
ROOT
ATOM      1  C   UNL     1       3.701   5.415  -5.452  0.00  0.00    +0.048 C 
ENDROOT
BRANCH   1   2
ATOM      2  C   UNL     1       2.821   4.824  -6.517  0.00  0.00    +0.205 C 
BRANCH   2   3
ATOM      3  O   UNL     1       3.592   4.580  -7.666  0.00  0.00    -0.475 OA
BRANCH   3  10
ATOM      4  O   UNL     1       7.133   4.742 -13.290  0.00  0.00    -0.273 OA
ATOM      5  C   UNL     1       7.089   5.526 -12.297  0.00  0.00    +0.246 C 
ATOM      6  N   UNL     1       5.954   6.357 -12.031  0.00  0.00    -0.180 NA
ATOM      7  C   UNL     1       5.548   6.522 -10.667  0.00  0.00    +0.070 A 
ATOM      8  C   UNL     1       6.264   5.775  -9.738  0.00  0.00    -0.003 A 
ATOM      9  C   UNL     1       5.640   5.453  -8.540  0.00  0.00    +0.034 A 
ATOM     10  C   UNL     1       4.280   5.583  -8.356  0.00  0.00    +0.138 A 
ATOM     11  C   UNL     1       3.630   6.488  -9.182  0.00  0.00    +0.038 A 
ATOM     12  C   UNL     1       7.734   5.748  -9.901  0.00  0.00    +0.037 C 
ATOM     13  C   UNL     1       4.275   6.949 -10.324  0.00  0.00    +0.019 A 
ATOM     14  C   UNL     1       8.174   5.393 -11.292  0.00  0.00    +0.092 C 
ENDBRANCH   3  10
ENDBRANCH   2   3
ENDBRANCH   1   2
BRANCH   1  15
ATOM     15  C   UNL     1       3.309   4.987  -4.060  0.00  0.00    +0.012 C 
BRANCH  15  16
ATOM     16  C   UNL     1       2.367   5.961  -3.407  0.00  0.00    +0.068 C 
BRANCH  16  17
ATOM     17  C   UNL     1       1.054   5.335  -3.063  0.00  0.00    +0.161 A 
ATOM     18  N   UNL     1      -0.152   5.546  -3.641  0.00  0.00    -0.219 N 
ATOM     19  N   UNL     1      -1.054   5.276  -2.708  0.00  0.00    -0.043 NA
ATOM     20  N   UNL     1      -0.484   4.917  -1.581  0.00  0.00    -0.023 NA
ATOM     21  N   UNL     1       0.796   4.721  -1.883  0.00  0.00    -0.113 NA
BRANCH  18  22
ATOM     22  C   UNL     1      -0.284   6.379  -4.828  0.00  0.00    +0.108 C 
ATOM     23  C   UNL     1      -0.509   5.582  -6.077  0.00  0.00    +0.024 C 
ATOM     24  C   UNL     1      -1.957   5.319  -6.377  0.00  0.00    +0.002 C 
ATOM     25  C   UNL     1      -2.809   6.579  -6.274  0.00  0.00    +0.000 C 
ATOM     26  C   UNL     1      -2.715   7.013  -4.815  0.00  0.00    +0.002 C 
ATOM     27  C   UNL     1      -1.279   7.484  -4.622  0.00  0.00    +0.024 C 
ENDBRANCH  18  22
ENDBRANCH  16  17
ENDBRANCH  15  16
ENDBRANCH   1  15
TORSDOF 7
ENDMDL
MODEL 2
REMARK VINA RESULT:      -9.0      1.422      1.997
REMARK  Name = 
REMARK  7 active torsions:
REMARK  status: ('A' for Active; 'I' for Inactive)
REMARK    1  A    between atoms: C_7  and  O_8
REMARK    2  A    between atoms: O_8  and  C_9
REMARK    3  A    between atoms: C_9  and  C_10
REMARK    4  A    between atoms: C_10  and  C_11
REMARK    5  A    between atoms: C_11  and  C_12
REMARK    6  A    between atoms: C_12  and  C_13
REMARK    7  A    between atoms: N_17  and  C_18
REMARK                            x       y       z     vdW  Elec       q    Type
REMARK                         _______ _______ _______ _____ _____    ______ ____
ROOT
ATOM      1  C   UNL     1       1.420   4.576  -7.267  0.00  0.00    +0.048 C 
ENDROOT
BRANCH   1   2
ATOM      2  C   UNL     1       2.333   4.240  -8.412  0.00  0.00    +0.205 C 
BRANCH   2   3
ATOM      3  O   UNL     1       3.650   4.582  -8.065  0.00  0.00    -0.475 OA
BRANCH   3  10
ATOM      4  O   UNL     1       7.431   4.820 -13.528  0.00  0.00    -0.273 OA
ATOM      5  C   UNL     1       7.350   5.585 -12.523  0.00  0.00    +0.246 C 
ATOM      6  N   UNL     1       6.211   6.420 -12.290  0.00  0.00    -0.180 NA
ATOM      7  C   UNL     1       5.749   6.564 -10.942  0.00  0.00    +0.070 A 
ATOM      8  C   UNL     1       6.417   5.794  -9.998  0.00  0.00    -0.003 A 
ATOM      9  C   UNL     1       5.740   5.454  -8.834  0.00  0.00    +0.034 A 
ATOM     10  C   UNL     1       4.375   5.592  -8.706  0.00  0.00    +0.138 A 
ATOM     11  C   UNL     1       3.768   6.518  -9.541  0.00  0.00    +0.038 A 
ATOM     12  C   UNL     1       7.893   5.756 -10.098  0.00  0.00    +0.037 C 
ATOM     13  C   UNL     1       4.465   6.995 -10.645  0.00  0.00    +0.019 A 
ATOM     14  C   UNL     1       8.390   5.424 -11.475  0.00  0.00    +0.092 C 
ENDBRANCH   3  10
ENDBRANCH   2   3
ENDBRANCH   1   2
BRANCH   1  15
ATOM     15  C   UNL     1       0.709   5.893  -7.447  0.00  0.00    +0.012 C 
BRANCH  15  16
ATOM     16  C   UNL     1       1.072   6.889  -6.381  0.00  0.00    +0.068 C 
BRANCH  16  17
ATOM     17  C   UNL     1       1.022   6.295  -5.010  0.00  0.00    +0.161 A 
ATOM     18  N   UNL     1      -0.021   6.265  -4.148  0.00  0.00    -0.219 N 
ATOM     19  N   UNL     1       0.510   6.197  -2.936  0.00  0.00    -0.043 NA
ATOM     20  N   UNL     1       1.823   6.190  -2.989  0.00  0.00    -0.023 NA
ATOM     21  N   UNL     1       2.120   6.004  -4.272  0.00  0.00    -0.113 NA
BRANCH  18  22
ATOM     22  C   UNL     1      -1.341   6.738  -4.543  0.00  0.00    +0.108 C 
ATOM     23  C   UNL     1      -2.306   5.624  -4.806  0.00  0.00    +0.024 C 
ATOM     24  C   UNL     1      -3.075   5.187  -3.593  0.00  0.00    +0.002 C 
ATOM     25  C   UNL     1      -3.669   6.365  -2.828  0.00  0.00    +0.000 C 
ATOM     26  C   UNL     1      -2.474   7.178  -2.345  0.00  0.00    +0.002 C 
ATOM     27  C   UNL     1      -1.859   7.785  -3.600  0.00  0.00    +0.024 C 
ENDBRANCH  18  22
ENDBRANCH  16  17
ENDBRANCH  15  16
ENDBRANCH   1  15
TORSDOF 7
ENDMDL
MODEL 3
REMARK VINA RESULT:      -8.9      2.121      3.305
REMARK  Name = 
REMARK  7 active torsions:
REMARK  status: ('A' for Active; 'I' for Inactive)
REMARK    1  A    between atoms: C_7  and  O_8
REMARK    2  A    between atoms: O_8  and  C_9
REMARK    3  A    between atoms: C_9  and  C_10
REMARK    4  A    between atoms: C_10  and  C_11
REMARK    5  A    between atoms: C_11  and  C_12
REMARK    6  A    between atoms: C_12  and  C_13
REMARK    7  A    between atoms: N_17  and  C_18
REMARK                            x       y       z     vdW  Elec       q    Type
REMARK                         _______ _______ _______ _____ _____    ______ ____
ROOT
ATOM      1  C   UNL     1       4.027   6.799  -5.290  0.00  0.00    +0.048 C 
ENDROOT
BRANCH   1   2
ATOM      2  C   UNL     1       3.968   5.502  -6.046  0.00  0.00    +0.205 C 
BRANCH   2   3
ATOM      3  O   UNL     1       4.794   5.593  -7.179  0.00  0.00    -0.475 OA
BRANCH   3  10
ATOM      4  O   UNL     1      -0.113   7.612 -11.185  0.00  0.00    -0.273 OA
ATOM      5  C   UNL     1       0.592   6.560 -11.176  0.00  0.00    +0.246 C 
ATOM      6  N   UNL     1       1.979   6.568 -11.528  0.00  0.00    -0.180 NA
ATOM      7  C   UNL     1       2.869   5.742 -10.768  0.00  0.00    +0.070 A 
ATOM      8  C   UNL     1       2.291   5.074  -9.695  0.00  0.00    -0.003 A 
ATOM      9  C   UNL     1       3.110   4.714  -8.632  0.00  0.00    +0.034 A 
ATOM     10  C   UNL     1       4.375   5.235  -8.465  0.00  0.00    +0.138 A 
ATOM     11  C   UNL     1       4.998   5.720  -9.604  0.00  0.00    +0.038 A 
ATOM     12  C   UNL     1       0.982   4.431  -9.942  0.00  0.00    +0.037 C 
ATOM     13  C   UNL     1       4.238   5.963 -10.742  0.00  0.00    +0.019 A 
ATOM     14  C   UNL     1      -0.024   5.349 -10.575  0.00  0.00    +0.092 C 
ENDBRANCH   3  10
ENDBRANCH   2   3
ENDBRANCH   1   2
BRANCH   1  15
ATOM     15  C   UNL     1       3.946   6.614  -3.795  0.00  0.00    +0.012 C 
BRANCH  15  16
ATOM     16  C   UNL     1       2.630   7.076  -3.233  0.00  0.00    +0.068 C 
BRANCH  16  17
ATOM     17  C   UNL     1       1.659   5.951  -3.068  0.00  0.00    +0.161 A 
ATOM     18  N   UNL     1       0.496   5.745  -3.729  0.00  0.00    -0.219 N 
ATOM     19  N   UNL     1      -0.266   5.034  -2.910  0.00  0.00    -0.043 NA
ATOM     20  N   UNL     1       0.349   4.791  -1.775  0.00  0.00    -0.023 NA
ATOM     21  N   UNL     1       1.613   5.147  -1.979  0.00  0.00    -0.113 NA
BRANCH  18  22
ATOM     22  C   UNL     1       0.097   6.599  -4.839  0.00  0.00    +0.108 C 
ATOM     23  C   UNL     1       0.317   5.958  -6.175  0.00  0.00    +0.024 C 
ATOM     24  C   UNL     1      -0.854   5.157  -6.666  0.00  0.00    +0.002 C 
ATOM     25  C   UNL     1      -2.169   5.920  -6.544  0.00  0.00    +0.000 C 
ATOM     26  C   UNL     1      -2.366   6.152  -5.050  0.00  0.00    +0.002 C 
ATOM     27  C   UNL     1      -1.286   7.149  -4.647  0.00  0.00    +0.024 C 
ENDBRANCH  18  22
ENDBRANCH  16  17
ENDBRANCH  15  16
ENDBRANCH   1  15
TORSDOF 7
ENDMDL
MODEL 4
REMARK VINA RESULT:      -8.8      1.404      3.505
REMARK  Name = 
REMARK  7 active torsions:
REMARK  status: ('A' for Active; 'I' for Inactive)
REMARK    1  A    between atoms: C_7  and  O_8
REMARK    2  A    between atoms: O_8  and  C_9
REMARK    3  A    between atoms: C_9  and  C_10
REMARK    4  A    between atoms: C_10  and  C_11
REMARK    5  A    between atoms: C_11  and  C_12
REMARK    6  A    between atoms: C_12  and  C_13
REMARK    7  A    between atoms: N_17  and  C_18
REMARK                            x       y       z     vdW  Elec       q    Type
REMARK                         _______ _______ _______ _____ _____    ______ ____
ROOT
ATOM      1  C   UNL     1       1.281   4.364  -6.292  0.00  0.00    +0.048 C 
ENDROOT
BRANCH   1   2
ATOM      2  C   UNL     1       2.774   4.481  -6.422  0.00  0.00    +0.205 C 
BRANCH   2   3
ATOM      3  O   UNL     1       3.121   4.452  -7.783  0.00  0.00    -0.475 OA
BRANCH   3  10
ATOM      4  O   UNL     1       7.274   4.671 -12.969  0.00  0.00    -0.273 OA
ATOM      5  C   UNL     1       7.084   5.470 -12.006  0.00  0.00    +0.246 C 
ATOM      6  N   UNL     1       5.891   6.254 -11.890  0.00  0.00    -0.180 NA
ATOM      7  C   UNL     1       5.325   6.426 -10.585  0.00  0.00    +0.070 A 
ATOM      8  C   UNL     1       5.960   5.728  -9.564  0.00  0.00    -0.003 A 
ATOM      9  C   UNL     1       5.217   5.400  -8.438  0.00  0.00    +0.034 A 
ATOM     10  C   UNL     1       3.841   5.473  -8.413  0.00  0.00    +0.138 A 
ATOM     11  C   UNL     1       3.252   6.333  -9.328  0.00  0.00    +0.038 A 
ATOM     12  C   UNL     1       7.439   5.763  -9.557  0.00  0.00    +0.037 C 
ATOM     13  C   UNL     1       4.004   6.802 -10.399  0.00  0.00    +0.019 A 
ATOM     14  C   UNL     1       8.051   5.403 -10.881  0.00  0.00    +0.092 C 
ENDBRANCH   3  10
ENDBRANCH   2   3
ENDBRANCH   1   2
BRANCH   1  15
ATOM     15  C   UNL     1       0.573   5.688  -6.433  0.00  0.00    +0.012 C 
BRANCH  15  16
ATOM     16  C   UNL     1       1.074   6.710  -5.449  0.00  0.00    +0.068 C 
BRANCH  16  17
ATOM     17  C   UNL     1       0.706   6.369  -4.041  0.00  0.00    +0.161 A 
ATOM     18  N   UNL     1       1.530   6.065  -3.011  0.00  0.00    -0.219 N 
ATOM     19  N   UNL     1       0.821   5.302  -2.191  0.00  0.00    -0.043 NA
ATOM     20  N   UNL     1      -0.393   5.105  -2.652  0.00  0.00    -0.023 NA
ATOM     21  N   UNL     1      -0.528   5.961  -3.660  0.00  0.00    -0.113 NA
BRANCH  18  22
ATOM     22  C   UNL     1       2.977   6.165  -3.147  0.00  0.00    +0.108 C 
ATOM     23  C   UNL     1       3.473   7.576  -3.073  0.00  0.00    +0.024 C 
ATOM     24  C   UNL     1       3.799   8.034  -1.680  0.00  0.00    +0.002 C 
ATOM     25  C   UNL     1       4.659   7.025  -0.925  0.00  0.00    +0.000 C 
ATOM     26  C   UNL     1       3.800   5.771  -0.806  0.00  0.00    +0.002 C 
ATOM     27  C   UNL     1       3.687   5.219  -2.222  0.00  0.00    +0.024 C 
ENDBRANCH  18  22
ENDBRANCH  16  17
ENDBRANCH  15  16
ENDBRANCH   1  15
TORSDOF 7
ENDMDL
MODEL 5
REMARK VINA RESULT:      -8.7      3.253      5.535
REMARK  Name = 
REMARK  7 active torsions:
REMARK  status: ('A' for Active; 'I' for Inactive)
REMARK    1  A    between atoms: C_7  and  O_8
REMARK    2  A    between atoms: O_8  and  C_9
REMARK    3  A    between atoms: C_9  and  C_10
REMARK    4  A    between atoms: C_10  and  C_11
REMARK    5  A    between atoms: C_11  and  C_12
REMARK    6  A    between atoms: C_12  and  C_13
REMARK    7  A    between atoms: N_17  and  C_18
REMARK                            x       y       z     vdW  Elec       q    Type
REMARK                         _______ _______ _______ _____ _____    ______ ____
ROOT
ATOM      1  C   UNL     1      -0.868   5.623  -1.715  0.00  0.00    +0.048 C 
ENDROOT
BRANCH   1   2
ATOM      2  C   UNL     1      -0.885   5.331  -3.190  0.00  0.00    +0.205 C 
BRANCH   2   3
ATOM      3  O   UNL     1      -0.420   6.459  -3.887  0.00  0.00    -0.475 OA
BRANCH   3  10
ATOM      4  O   UNL     1       3.659   4.302  -8.672  0.00  0.00    -0.273 OA
ATOM      5  C   UNL     1       2.770   5.203  -8.663  0.00  0.00    +0.246 C 
ATOM      6  N   UNL     1       1.374   4.896  -8.590  0.00  0.00    -0.180 NA
ATOM      7  C   UNL     1       0.543   5.735  -7.780  0.00  0.00    +0.070 A 
ATOM      8  C   UNL     1       1.211   6.726  -7.069  0.00  0.00    -0.003 A 
ATOM      9  C   UNL     1       0.623   7.204  -5.906  0.00  0.00    +0.034 A 
ATOM     10  C   UNL     1      -0.419   6.552  -5.282  0.00  0.00    +0.138 A 
ATOM     11  C   UNL     1      -1.185   5.713  -6.077  0.00  0.00    +0.038 A 
ATOM     12  C   UNL     1       2.249   7.482  -7.804  0.00  0.00    +0.037 C 
ATOM     13  C   UNL     1      -0.696   5.319  -7.317  0.00  0.00    +0.019 A 
ATOM     14  C   UNL     1       3.240   6.604  -8.512  0.00  0.00    +0.092 C 
ENDBRANCH   3  10
ENDBRANCH   2   3
ENDBRANCH   1   2
BRANCH   1  15
ATOM     15  C   UNL     1       0.503   5.485  -1.103  0.00  0.00    +0.012 C 
BRANCH  15  16
ATOM     16  C   UNL     1       1.128   6.818  -0.797  0.00  0.00    +0.068 C 
BRANCH  16  17
ATOM     17  C   UNL     1       2.621   6.748  -0.759  0.00  0.00    +0.161 A 
ATOM     18  N   UNL     1       3.480   6.616  -1.798  0.00  0.00    -0.219 N 
ATOM     19  N   UNL     1       4.562   6.034  -1.303  0.00  0.00    -0.043 NA
ATOM     20  N   UNL     1       4.427   5.787  -0.020  0.00  0.00    -0.023 NA
ATOM     21  N   UNL     1       3.335   6.448   0.351  0.00  0.00    -0.113 NA
BRANCH  18  22
ATOM     22  C   UNL     1       3.009   6.653  -3.176  0.00  0.00    +0.108 C 
ATOM     23  C   UNL     1       3.793   7.595  -4.036  0.00  0.00    +0.024 C 
ATOM     24  C   UNL     1       4.985   6.965  -4.698  0.00  0.00    +0.002 C 
ATOM     25  C   UNL     1       4.641   5.640  -5.370  0.00  0.00    +0.000 C 
ATOM     26  C   UNL     1       4.202   4.715  -4.240  0.00  0.00    +0.002 C 
ATOM     27  C   UNL     1       2.871   5.272  -3.751  0.00  0.00    +0.024 C 
ENDBRANCH  18  22
ENDBRANCH  16  17
ENDBRANCH  15  16
ENDBRANCH   1  15
TORSDOF 7
ENDMDL
MODEL 6
REMARK VINA RESULT:      -8.6      4.700      8.314
REMARK  Name = 
REMARK  7 active torsions:
REMARK  status: ('A' for Active; 'I' for Inactive)
REMARK    1  A    between atoms: C_7  and  O_8
REMARK    2  A    between atoms: O_8  and  C_9
REMARK    3  A    between atoms: C_9  and  C_10
REMARK    4  A    between atoms: C_10  and  C_11
REMARK    5  A    between atoms: C_11  and  C_12
REMARK    6  A    between atoms: C_12  and  C_13
REMARK    7  A    between atoms: N_17  and  C_18
REMARK                            x       y       z     vdW  Elec       q    Type
REMARK                         _______ _______ _______ _____ _____    ______ ____
ROOT
ATOM      1  C   UNL     1      -2.177   5.409  -5.693  0.00  0.00    +0.048 C 
ENDROOT
BRANCH   1   2
ATOM      2  C   UNL     1      -2.575   5.642  -4.262  0.00  0.00    +0.205 C 
BRANCH   2   3
ATOM      3  O   UNL     1      -1.562   6.370  -3.616  0.00  0.00    -0.475 OA
BRANCH   3  10
ATOM      4  O   UNL     1       4.114   7.702  -0.421  0.00  0.00    -0.273 OA
ATOM      5  C   UNL     1       3.245   6.796  -0.258  0.00  0.00    +0.246 C 
ATOM      6  N   UNL     1       1.940   7.075   0.260  0.00  0.00    -0.180 NA
ATOM      7  C   UNL     1       0.827   6.380  -0.315  0.00  0.00    +0.070 A 
ATOM      8  C   UNL     1       1.132   5.557  -1.393  0.00  0.00    -0.003 A 
ATOM      9  C   UNL     1       0.127   5.289  -2.314  0.00  0.00    +0.034 A 
ATOM     10  C   UNL     1      -1.040   6.018  -2.367  0.00  0.00    +0.138 A 
ATOM     11  C   UNL     1      -1.412   6.674  -1.203  0.00  0.00    +0.038 A 
ATOM     12  C   UNL     1       2.333   4.704  -1.257  0.00  0.00    +0.037 C 
ATOM     13  C   UNL     1      -0.474   6.842  -0.191  0.00  0.00    +0.019 A 
ATOM     14  C   UNL     1       3.558   5.461  -0.829  0.00  0.00    +0.092 C 
ENDBRANCH   3  10
ENDBRANCH   2   3
ENDBRANCH   1   2
BRANCH   1  15
ATOM     15  C   UNL     1      -0.965   6.206  -6.104  0.00  0.00    +0.012 C 
BRANCH  15  16
ATOM     16  C   UNL     1       0.126   5.337  -6.666  0.00  0.00    +0.068 C 
BRANCH  16  17
ATOM     17  C   UNL     1       1.310   6.132  -7.113  0.00  0.00    +0.161 A 
ATOM     18  N   UNL     1       2.371   6.538  -6.376  0.00  0.00    -0.219 N 
ATOM     19  N   UNL     1       2.828   7.631  -6.970  0.00  0.00    -0.043 NA
ATOM     20  N   UNL     1       2.111   7.936  -8.028  0.00  0.00    -0.023 NA
ATOM     21  N   UNL     1       1.338   6.876  -8.244  0.00  0.00    -0.113 NA
BRANCH  18  22
ATOM     22  C   UNL     1       2.541   6.108  -4.996  0.00  0.00    +0.108 C 
ATOM     23  C   UNL     1       3.347   4.852  -4.871  0.00  0.00    +0.024 C 
ATOM     24  C   UNL     1       4.824   5.087  -4.742  0.00  0.00    +0.002 C 
ATOM     25  C   UNL     1       5.152   6.149  -3.698  0.00  0.00    +0.000 C 
ATOM     26  C   UNL     1       4.527   7.437  -4.221  0.00  0.00    +0.002 C 
ATOM     27  C   UNL     1       3.021   7.230  -4.120  0.00  0.00    +0.024 C 
ENDBRANCH  18  22
ENDBRANCH  16  17
ENDBRANCH  15  16
ENDBRANCH   1  15
TORSDOF 7
ENDMDL
MODEL 7
REMARK VINA RESULT:      -8.6      1.790      3.853
REMARK  Name = 
REMARK  7 active torsions:
REMARK  status: ('A' for Active; 'I' for Inactive)
REMARK    1  A    between atoms: C_7  and  O_8
REMARK    2  A    between atoms: O_8  and  C_9
REMARK    3  A    between atoms: C_9  and  C_10
REMARK    4  A    between atoms: C_10  and  C_11
REMARK    5  A    between atoms: C_11  and  C_12
REMARK    6  A    between atoms: C_12  and  C_13
REMARK    7  A    between atoms: N_17  and  C_18
REMARK                            x       y       z     vdW  Elec       q    Type
REMARK                         _______ _______ _______ _____ _____    ______ ____
ROOT
ATOM      1  C   UNL     1      -0.043   5.568  -8.515  0.00  0.00    +0.048 C 
ENDROOT
BRANCH   1   2
ATOM      2  C   UNL     1       1.333   6.170  -8.564  0.00  0.00    +0.205 C 
BRANCH   2   3
ATOM      3  O   UNL     1       2.119   5.445  -9.476  0.00  0.00    -0.475 OA
BRANCH   3  10
ATOM      4  O   UNL     1       7.944   4.547 -12.551  0.00  0.00    -0.273 OA
ATOM      5  C   UNL     1       7.118   5.506 -12.570  0.00  0.00    +0.246 C 
ATOM      6  N   UNL     1       5.841   5.400 -13.208  0.00  0.00    -0.180 NA
ATOM      7  C   UNL     1       4.716   6.011 -12.564  0.00  0.00    +0.070 A 
ATOM      8  C   UNL     1       4.977   6.578 -11.322  0.00  0.00    -0.003 A 
ATOM      9  C   UNL     1       3.924   6.695 -10.424  0.00  0.00    +0.034 A 
ATOM     10  C   UNL     1       2.732   6.024 -10.592  0.00  0.00    +0.138 A 
ATOM     11  C   UNL     1       2.416   5.641 -11.886  0.00  0.00    +0.038 A 
ATOM     12  C   UNL     1       6.212   7.385 -11.208  0.00  0.00    +0.037 C 
ATOM     13  C   UNL     1       3.412   5.644 -12.857  0.00  0.00    +0.019 A 
ATOM     14  C   UNL     1       7.436   6.678 -11.715  0.00  0.00    +0.092 C 
ENDBRANCH   3  10
ENDBRANCH   2   3
ENDBRANCH   1   2
BRANCH   1  15
ATOM     15  C   UNL     1      -0.593   5.469  -7.115  0.00  0.00    +0.012 C 
BRANCH  15  16
ATOM     16  C   UNL     1       0.282   4.638  -6.216  0.00  0.00    +0.068 C 
BRANCH  16  17
ATOM     17  C   UNL     1       0.528   5.298  -4.898  0.00  0.00    +0.161 A 
ATOM     18  N   UNL     1       1.706   5.721  -4.380  0.00  0.00    -0.219 N 
ATOM     19  N   UNL     1       1.558   5.684  -3.064  0.00  0.00    -0.043 NA
ATOM     20  N   UNL     1       0.362   5.256  -2.729  0.00  0.00    -0.023 NA
ATOM     21  N   UNL     1      -0.339   5.256  -3.859  0.00  0.00    -0.113 NA
BRANCH  18  22
ATOM     22  C   UNL     1       2.932   5.683  -5.165  0.00  0.00    +0.108 C 
ATOM     23  C   UNL     1       3.442   7.047  -5.515  0.00  0.00    +0.024 C 
ATOM     24  C   UNL     1       4.380   7.626  -4.495  0.00  0.00    +0.002 C 
ATOM     25  C   UNL     1       5.464   6.638  -4.079  0.00  0.00    +0.000 C 
ATOM     26  C   UNL     1       4.724   5.481  -3.416  0.00  0.00    +0.002 C 
ATOM     27  C   UNL     1       3.963   4.788  -4.540  0.00  0.00    +0.024 C 
ENDBRANCH  18  22
ENDBRANCH  16  17
ENDBRANCH  15  16
ENDBRANCH   1  15
TORSDOF 7
ENDMDL
MODEL 8
REMARK VINA RESULT:      -8.6      2.525      9.510
REMARK  Name = 
REMARK  7 active torsions:
REMARK  status: ('A' for Active; 'I' for Inactive)
REMARK    1  A    between atoms: C_7  and  O_8
REMARK    2  A    between atoms: O_8  and  C_9
REMARK    3  A    between atoms: C_9  and  C_10
REMARK    4  A    between atoms: C_10  and  C_11
REMARK    5  A    between atoms: C_11  and  C_12
REMARK    6  A    between atoms: C_12  and  C_13
REMARK    7  A    between atoms: N_17  and  C_18
REMARK                            x       y       z     vdW  Elec       q    Type
REMARK                         _______ _______ _______ _____ _____    ______ ____
ROOT
ATOM      1  C   UNL     1       0.188   5.873 -10.003  0.00  0.00    +0.048 C 
ENDROOT
BRANCH   1   2
ATOM      2  C   UNL     1       1.190   6.343  -8.986  0.00  0.00    +0.205 C 
BRANCH   2   3
ATOM      3  O   UNL     1       1.175   5.468  -7.887  0.00  0.00    -0.475 OA
BRANCH   3  10
ATOM      4  O   UNL     1      -2.982   4.674  -2.760  0.00  0.00    -0.273 OA
ATOM      5  C   UNL     1      -2.067   5.521  -2.982  0.00  0.00    +0.246 C 
ATOM      6  N   UNL     1      -0.680   5.168  -2.962  0.00  0.00    -0.180 NA
ATOM      7  C   UNL     1       0.177   5.757  -3.946  0.00  0.00    +0.070 A 
ATOM      8  C   UNL     1      -0.460   6.558  -4.887  0.00  0.00    -0.003 A 
ATOM      9  C   UNL     1       0.146   6.718  -6.127  0.00  0.00    +0.034 A 
ATOM     10  C   UNL     1       1.171   5.904  -6.558  0.00  0.00    +0.138 A 
ATOM     11  C   UNL     1       1.910   5.268  -5.572  0.00  0.00    +0.038 A 
ATOM     12  C   UNL     1      -1.479   7.501  -4.374  0.00  0.00    +0.037 C 
ATOM     13  C   UNL     1       1.405   5.207  -4.278  0.00  0.00    +0.019 A 
ATOM     14  C   UNL     1      -2.497   6.852  -3.481  0.00  0.00    +0.092 C 
ENDBRANCH   3  10
ENDBRANCH   2   3
ENDBRANCH   1   2
BRANCH   1  15
ATOM     15  C   UNL     1       0.804   5.595 -11.351  0.00  0.00    +0.012 C 
BRANCH  15  16
ATOM     16  C   UNL     1       1.922   6.547 -11.675  0.00  0.00    +0.068 C 
BRANCH  16  17
ATOM     17  C   UNL     1       3.093   5.855 -12.296  0.00  0.00    +0.161 A 
ATOM     18  N   UNL     1       4.407   6.012 -12.010  0.00  0.00    -0.219 N 
ATOM     19  N   UNL     1       5.060   5.691 -13.117  0.00  0.00    -0.043 NA
ATOM     20  N   UNL     1       4.233   5.351 -14.079  0.00  0.00    -0.023 NA
ATOM     21  N   UNL     1       3.048   5.220 -13.492  0.00  0.00    -0.113 NA
BRANCH  18  22
ATOM     22  C   UNL     1       4.843   6.846 -10.899  0.00  0.00    +0.108 C 
ATOM     23  C   UNL     1       5.124   6.061  -9.655  0.00  0.00    +0.024 C 
ATOM     24  C   UNL     1       6.541   5.575  -9.551  0.00  0.00    +0.002 C 
ATOM     25  C   UNL     1       7.555   6.677  -9.840  0.00  0.00    +0.000 C 
ATOM     26  C   UNL     1       7.313   7.077 -11.292  0.00  0.00    +0.002 C 
ATOM     27  C   UNL     1       5.956   7.770 -11.303  0.00  0.00    +0.024 C 
ENDBRANCH  18  22
ENDBRANCH  16  17
ENDBRANCH  15  16
ENDBRANCH   1  15
TORSDOF 7
ENDMDL
MODEL 9
REMARK VINA RESULT:      -8.4      3.195      8.606
REMARK  Name = 
REMARK  7 active torsions:
REMARK  status: ('A' for Active; 'I' for Inactive)
REMARK    1  A    between atoms: C_7  and  O_8
REMARK    2  A    between atoms: O_8  and  C_9
REMARK    3  A    between atoms: C_9  and  C_10
REMARK    4  A    between atoms: C_10  and  C_11
REMARK    5  A    between atoms: C_11  and  C_12
REMARK    6  A    between atoms: C_12  and  C_13
REMARK    7  A    between atoms: N_17  and  C_18
REMARK                            x       y       z     vdW  Elec       q    Type
REMARK                         _______ _______ _______ _____ _____    ______ ____
ROOT
ATOM      1  C   UNL     1       0.360   6.217 -10.388  0.00  0.00    +0.048 C 
ENDROOT
BRANCH   1   2
ATOM      2  C   UNL     1       1.354   6.831  -9.443  0.00  0.00    +0.205 C 
BRANCH   2   3
ATOM      3  O   UNL     1       1.117   6.344  -8.147  0.00  0.00    -0.475 OA
BRANCH   3  10
ATOM      4  O   UNL     1       2.737   7.152  -1.750  0.00  0.00    -0.273 OA
ATOM      5  C   UNL     1       3.398   6.723  -2.741  0.00  0.00    +0.246 C 
ATOM      6  N   UNL     1       3.122   5.459  -3.353  0.00  0.00    -0.180 NA
ATOM      7  C   UNL     1       3.198   5.373  -4.780  0.00  0.00    +0.070 A 
ATOM      8  C   UNL     1       3.454   6.571  -5.436  0.00  0.00    -0.003 A 
ATOM      9  C   UNL     1       3.026   6.701  -6.751  0.00  0.00    +0.034 A 
ATOM     10  C   UNL     1       2.124   5.830  -7.323  0.00  0.00    +0.138 A 
ATOM     11  C   UNL     1       2.037   4.569  -6.753  0.00  0.00    +0.038 A 
ATOM     12  C   UNL     1       4.507   7.433  -4.855  0.00  0.00    +0.037 C 
ATOM     13  C   UNL     1       2.579   4.356  -5.491  0.00  0.00    +0.019 A 
ATOM     14  C   UNL     1       4.333   7.681  -3.385  0.00  0.00    +0.092 C 
ENDBRANCH   3  10
ENDBRANCH   2   3
ENDBRANCH   1   2
BRANCH   1  15
ATOM     15  C   UNL     1       0.999   5.662 -11.636  0.00  0.00    +0.012 C 
BRANCH  15  16
ATOM     16  C   UNL     1       2.201   6.458 -12.065  0.00  0.00    +0.068 C 
BRANCH  16  17
ATOM     17  C   UNL     1       3.373   5.587 -12.385  0.00  0.00    +0.161 A 
ATOM     18  N   UNL     1       4.617   5.630 -11.854  0.00  0.00    -0.219 N 
ATOM     19  N   UNL     1       5.425   5.134 -12.781  0.00  0.00    -0.043 NA
ATOM     20  N   UNL     1       4.760   4.792 -13.861  0.00  0.00    -0.023 NA
ATOM     21  N   UNL     1       3.477   4.847 -13.515  0.00  0.00    -0.113 NA
BRANCH  18  22
ATOM     22  C   UNL     1       4.934   6.517 -10.744  0.00  0.00    +0.108 C 
ATOM     23  C   UNL     1       5.378   5.782  -9.518  0.00  0.00    +0.024 C 
ATOM     24  C   UNL     1       6.860   5.543  -9.455  0.00  0.00    +0.002 C 
ATOM     25  C   UNL     1       7.663   6.804  -9.755  0.00  0.00    +0.000 C 
ATOM     26  C   UNL     1       7.318   7.169 -11.195  0.00  0.00    +0.002 C 
ATOM     27  C   UNL     1       5.863   7.620 -11.164  0.00  0.00    +0.024 C 
ENDBRANCH  18  22
ENDBRANCH  16  17
ENDBRANCH  15  16
ENDBRANCH   1  15
TORSDOF 7
ENDMDL
