MODEL 1
REMARK VINA RESULT:      -3.8      0.000      0.000
REMARK  Name = 
REMARK  28 active torsions:
REMARK  status: ('A' for Active; 'I' for Inactive)
REMARK    1  A    between atoms: C_2  and  C_4
REMARK    2  A    between atoms: C_4  and  O_5
REMARK    3  A    between atoms: O_5  and  C_6
REMARK    4  A    between atoms: C_7  and  O_8
REMARK    5  A    between atoms: O_8  and  C_9
REMARK    6  A    between atoms: C_9  and  C_10
REMARK    7  A    between atoms: C_13  and  O_14
REMARK    8  A    between atoms: O_14  and  C_15
REMARK    9  A    between atoms: C_15  and  C_16
REMARK   10  A    between atoms: C_19  and  O_20
REMARK   11  A    between atoms: O_20  and  C_21
REMARK   12  A    between atoms: C_22  and  O_23
REMARK   13  A    between atoms: O_23  and  C_24
REMARK   14  A    between atoms: C_24  and  C_25
REMARK   15  A    between atoms: C_28  and  O_29
REMARK   16  A    between atoms: O_29  and  C_30
REMARK   17  A    between atoms: C_30  and  C_31
REMARK   18  A    between atoms: C_34  and  O_35
REMARK   19  A    between atoms: O_35  and  C_36
REMARK   20  A    between atoms: C_36  and  C_37
REMARK   21  A    between atoms: C_41  and  C_42
REMARK   22  A    between atoms: C_42  and  O_43
REMARK   23  A    between atoms: O_43  and  C_44
REMARK   24  A    between atoms: C_44  and  C_45
REMARK   25  A    between atoms: C_49  and  C_50
REMARK   26  A    between atoms: C_50  and  O_51
REMARK   27  A    between atoms: O_51  and  C_52
REMARK   28  A    between atoms: C_52  and  C_53
REMARK                            x       y       z     vdW  Elec       q    Type
REMARK                         _______ _______ _______ _____ _____    ______ ____
ROOT
ATOM      1  O   UNL     1       1.909   5.860  -8.225  0.00  0.00    -0.326 OA
ENDROOT
BRANCH   1   2
ATOM      2  C   UNL     1       1.460   6.628  -9.400  0.00  0.00    +0.177 C 
ATOM      3  C   UNL     1       1.685   5.677 -10.740  0.00  0.00    +0.177 C 
ATOM      4  O   UNL     1       0.439   5.280 -11.252  0.00  0.00    -0.326 OA
ATOM      5  C   UNL     1       1.807   4.786 -11.852  0.00  0.00    +0.266 C 
ATOM      6  C   UNL     1       2.997   6.043 -11.595  0.00  0.00    +0.201 C 
ATOM      7  C   UNL     1       3.132   6.510  -9.951  0.00  0.00    +0.177 C 
BRANCH   3   8
ATOM      8  C   UNL     1       1.498   7.153 -11.594  0.00  0.00    +0.174 C 
BRANCH   8   9
ATOM      9  O   UNL     1       0.362   7.418 -11.890  0.00  0.00    -0.348 OA
BRANCH   9  10
ATOM     10  C   UNL     1      -0.335   8.136 -12.726  0.00  0.00    +0.175 C 
BRANCH  10  11
ATOM     11  C   UNL     1       0.808   8.036 -13.919  0.00  0.00    +0.181 C 
ATOM     12  O   UNL     1      -0.238   7.525 -14.888  0.00  0.00    -0.220 OA
ATOM     13  C   UNL     1       0.559   9.615 -14.307  0.00  0.00    +0.038 C 
ENDBRANCH  10  11
ENDBRANCH   9  10
ENDBRANCH   8   9
ENDBRANCH   3   8
BRANCH   6  14
ATOM     14  O   UNL     1       4.035   4.972 -11.533  0.00  0.00    -0.346 OA
BRANCH  14  15
ATOM     15  C   UNL     1       4.790   4.829 -12.595  0.00  0.00    +0.175 C 
BRANCH  15  16
ATOM     16  C   UNL     1       5.220   6.398 -12.917  0.00  0.00    +0.181 C 
ATOM     17  O   UNL     1       6.721   6.167 -12.938  0.00  0.00    -0.220 OA
ATOM     18  C   UNL     1       5.136   6.334 -14.567  0.00  0.00    +0.038 C 
ENDBRANCH  15  16
ENDBRANCH  14  15
ENDBRANCH   6  14
BRANCH   7  19
ATOM     19  O   UNL     1       3.488   5.205  -9.325  0.00  0.00    -0.348 OA
BRANCH  19  20
ATOM     20  C   UNL     1       4.653   4.891  -9.165  0.00  0.00    +0.175 C 
BRANCH  20  21
ATOM     21  C   UNL     1       5.778   5.835  -8.540  0.00  0.00    +0.181 C 
ATOM     22  O   UNL     1       6.229   4.718  -7.597  0.00  0.00    -0.220 OA
ATOM     23  C   UNL     1       6.893   5.418  -9.686  0.00  0.00    +0.038 C 
ENDBRANCH  20  21
ENDBRANCH  19  20
ENDBRANCH   7  19
BRANCH   5  24
ATOM     24  O   UNL     1       1.497   5.432 -13.205  0.00  0.00    -0.326 OA
BRANCH  24  25
ATOM     25  C   UNL     1       1.535   4.538 -14.163  0.00  0.00    +0.178 C 
BRANCH  25  26
ATOM     26  C   UNL     1       0.451   3.341 -13.849  0.00  0.00    +0.182 C 
ATOM     27  O   UNL     1      -0.244   3.452 -15.194  0.00  0.00    -0.220 OA
ATOM     28  C   UNL     1       1.403   2.108 -14.379  0.00  0.00    +0.038 C 
ENDBRANCH  25  26
ENDBRANCH  24  25
ENDBRANCH   5  24
ENDBRANCH   1   2
BRANCH   1  32
ATOM     29  C   UNL     1       2.642   5.512  -4.491  0.00  0.00    +0.174 C 
ATOM     30  C   UNL     1       3.291   5.129  -6.047  0.00  0.00    +0.177 C 
ATOM     31  O   UNL     1       2.128   4.439  -6.621  0.00  0.00    -0.326 OA
ATOM     32  C   UNL     1       1.015   5.222  -7.269  0.00  0.00    +0.266 C 
ATOM     33  C   UNL     1       0.835   6.334  -5.979  0.00  0.00    +0.201 C 
ATOM     34  C   UNL     1       1.043   5.065  -4.845  0.00  0.00    +0.177 C 
BRANCH  29  35
ATOM     35  O   UNL     1       3.041   4.242  -3.826  0.00  0.00    -0.348 OA
BRANCH  35  36
ATOM     36  C   UNL     1       3.902   4.389  -2.885  0.00  0.00    +0.175 C 
BRANCH  36  38
ATOM     37  C   UNL     1       2.503   3.717  -0.983  0.00  0.00    +0.038 C 
ATOM     38  C   UNL     1       3.231   5.086  -1.552  0.00  0.00    +0.181 C 
ATOM     39  O   UNL     1       4.456   4.841  -0.690  0.00  0.00    -0.220 OA
ENDBRANCH  36  38
ENDBRANCH  35  36
ENDBRANCH  29  35
BRANCH  33  40
ATOM     40  O   UNL     1      -0.646   6.125  -6.059  0.00  0.00    -0.346 OA
BRANCH  40  41
ATOM     41  C   UNL     1      -1.326   7.227  -5.675  0.00  0.00    +0.175 C 
BRANCH  41  42
ATOM     42  C   UNL     1      -2.780   6.808  -5.042  0.00  0.00    +0.181 C 
ATOM     43  O   UNL     1      -3.534   7.683  -6.032  0.00  0.00    -0.220 OA
ATOM     44  C   UNL     1      -2.882   5.491  -6.027  0.00  0.00    +0.038 C 
ENDBRANCH  41  42
ENDBRANCH  40  41
ENDBRANCH  33  40
BRANCH  30  45
ATOM     45  C   UNL     1       3.068   6.701  -6.386  0.00  0.00    +0.174 C 
BRANCH  45  46
ATOM     46  O   UNL     1       3.885   7.519  -5.813  0.00  0.00    -0.348 OA
BRANCH  46  47
ATOM     47  C   UNL     1       5.039   7.166  -5.236  0.00  0.00    +0.175 C 
BRANCH  47  48
ATOM     48  C   UNL     1       5.008   8.330  -4.067  0.00  0.00    +0.181 C 
ATOM     49  O   UNL     1       3.634   7.882  -3.612  0.00  0.00    -0.220 OA
ATOM     50  C   UNL     1       5.772   7.345  -2.990  0.00  0.00    +0.038 C 
ENDBRANCH  47  48
ENDBRANCH  46  47
ENDBRANCH  45  46
ENDBRANCH  30  45
BRANCH  34  51
ATOM     51  O   UNL     1       0.521   5.883  -3.711  0.00  0.00    -0.348 OA
BRANCH  51  52
ATOM     52  C   UNL     1      -0.218   5.134  -2.877  0.00  0.00    +0.175 C 
BRANCH  52  53
ATOM     53  C   UNL     1      -1.282   6.127  -2.107  0.00  0.00    +0.181 C 
ATOM     54  O   UNL     1      -2.254   5.017  -1.745  0.00  0.00    -0.220 OA
ATOM     55  C   UNL     1      -0.493   5.969  -0.668  0.00  0.00    +0.038 C 
ENDBRANCH  52  53
ENDBRANCH  51  52
ENDBRANCH  34  51
ENDBRANCH   1  32
TORSDOF 28
ENDMDL
MODEL 2
REMARK VINA RESULT:      -3.8      2.645      7.407
REMARK  Name = 
REMARK  28 active torsions:
REMARK  status: ('A' for Active; 'I' for Inactive)
REMARK    1  A    between atoms: C_2  and  C_4
REMARK    2  A    between atoms: C_4  and  O_5
REMARK    3  A    between atoms: O_5  and  C_6
REMARK    4  A    between atoms: C_7  and  O_8
REMARK    5  A    between atoms: O_8  and  C_9
REMARK    6  A    between atoms: C_9  and  C_10
REMARK    7  A    between atoms: C_13  and  O_14
REMARK    8  A    between atoms: O_14  and  C_15
REMARK    9  A    between atoms: C_15  and  C_16
REMARK   10  A    between atoms: C_19  and  O_20
REMARK   11  A    between atoms: O_20  and  C_21
REMARK   12  A    between atoms: C_22  and  O_23
REMARK   13  A    between atoms: O_23  and  C_24
REMARK   14  A    between atoms: C_24  and  C_25
REMARK   15  A    between atoms: C_28  and  O_29
REMARK   16  A    between atoms: O_29  and  C_30
REMARK   17  A    between atoms: C_30  and  C_31
REMARK   18  A    between atoms: C_34  and  O_35
REMARK   19  A    between atoms: O_35  and  C_36
REMARK   20  A    between atoms: C_36  and  C_37
REMARK   21  A    between atoms: C_41  and  C_42
REMARK   22  A    between atoms: C_42  and  O_43
REMARK   23  A    between atoms: O_43  and  C_44
REMARK   24  A    between atoms: C_44  and  C_45
REMARK   25  A    between atoms: C_49  and  C_50
REMARK   26  A    between atoms: C_50  and  O_51
REMARK   27  A    between atoms: O_51  and  C_52
REMARK   28  A    between atoms: C_52  and  C_53
REMARK                            x       y       z     vdW  Elec       q    Type
REMARK                         _______ _______ _______ _____ _____    ______ ____
ROOT
ATOM      1  O   UNL     1       1.502   6.216  -2.851  0.00  0.00    -0.326 OA
ENDROOT
BRANCH   1   2
ATOM      2  C   UNL     1       2.267   5.713  -4.007  0.00  0.00    +0.177 C 
ATOM      3  C   UNL     1       1.485   6.209  -5.383  0.00  0.00    +0.177 C 
ATOM      4  O   UNL     1       2.257   7.183  -6.039  0.00  0.00    -0.326 OA
ATOM      5  C   UNL     1       0.832   6.740  -6.539  0.00  0.00    +0.266 C 
ATOM      6  C   UNL     1       0.591   5.069  -6.081  0.00  0.00    +0.201 C 
ATOM      7  C   UNL     1       0.812   4.797  -4.403  0.00  0.00    +0.177 C 
BRANCH   3   8
ATOM      8  C   UNL     1       2.455   5.015  -6.144  0.00  0.00    +0.174 C 
BRANCH   8   9
ATOM      9  O   UNL     1       3.569   5.378  -6.420  0.00  0.00    -0.348 OA
BRANCH   9  10
ATOM     10  C   UNL     1       4.707   4.930  -6.872  0.00  0.00    +0.175 C 
BRANCH  10  11
ATOM     11  C   UNL     1       4.535   5.684  -8.335  0.00  0.00    +0.181 C 
ATOM     12  O   UNL     1       6.009   5.483  -8.621  0.00  0.00    -0.220 OA
ATOM     13  C   UNL     1       4.091   4.260  -9.030  0.00  0.00    +0.038 C 
ENDBRANCH  10  11
ENDBRANCH   9  10
ENDBRANCH   8   9
ENDBRANCH   3   8
BRANCH   6  14
ATOM     14  O   UNL     1      -0.870   5.358  -5.996  0.00  0.00    -0.346 OA
BRANCH  14  15
ATOM     15  C   UNL     1      -1.598   4.998  -7.025  0.00  0.00    +0.175 C 
BRANCH  15  16
ATOM     16  C   UNL     1      -3.052   5.715  -6.675  0.00  0.00    +0.181 C 
ATOM     17  O   UNL     1      -3.343   4.918  -5.417  0.00  0.00    -0.220 OA
ATOM     18  C   UNL     1      -2.482   6.994  -5.795  0.00  0.00    +0.038 C 
ENDBRANCH  15  16
ENDBRANCH  14  15
ENDBRANCH   6  14
BRANCH   7  19
ATOM     19  O   UNL     1      -0.206   5.729  -3.839  0.00  0.00    -0.348 OA
BRANCH  19  20
ATOM     20  C   UNL     1      -0.951   5.369  -2.947  0.00  0.00    +0.175 C 
BRANCH  20  21
ATOM     21  C   UNL     1      -2.526   5.622  -2.910  0.00  0.00    +0.181 C 
ATOM     22  O   UNL     1      -2.618   5.009  -1.511  0.00  0.00    -0.220 OA
ATOM     23  C   UNL     1      -2.359   7.151  -2.309  0.00  0.00    +0.038 C 
ENDBRANCH  20  21
ENDBRANCH  19  20
ENDBRANCH   7  19
BRANCH   5  24
ATOM     24  O   UNL     1       1.405   6.237  -7.866  0.00  0.00    -0.326 OA
BRANCH  24  25
ATOM     25  C   UNL     1       1.038   7.018  -8.853  0.00  0.00    +0.178 C 
BRANCH  25  26
ATOM     26  C   UNL     1       1.247   6.239 -10.286  0.00  0.00    +0.182 C 
ATOM     27  O   UNL     1       0.438   5.021  -9.881  0.00  0.00    -0.220 OA
ATOM     28  C   UNL     1      -0.049   6.920 -11.038  0.00  0.00    +0.038 C 
ENDBRANCH  25  26
ENDBRANCH  24  25
ENDBRANCH   5  24
ENDBRANCH   1   2
BRANCH   1  32
ATOM     29  C   UNL     1       1.658   7.015   0.881  0.00  0.00    +0.174 C 
ATOM     30  C   UNL     1       0.672   6.233  -0.303  0.00  0.00    +0.177 C 
ATOM     31  O   UNL     1       0.555   7.332  -1.271  0.00  0.00    -0.326 OA
ATOM     32  C   UNL     1       1.629   7.560  -2.305  0.00  0.00    +0.266 C 
ATOM     33  C   UNL     1       2.931   7.495  -1.194  0.00  0.00    +0.201 C 
ATOM     34  C   UNL     1       2.014   8.388  -0.054  0.00  0.00    +0.177 C 
BRANCH  29  35
ATOM     35  O   UNL     1       0.541   7.613   1.662  0.00  0.00    -0.348 OA
BRANCH  35  36
ATOM     36  C   UNL     1       0.547   7.305   2.908  0.00  0.00    +0.175 C 
BRANCH  36  38
ATOM     37  C   UNL     1      -1.371   8.789   2.522  0.00  0.00    +0.038 C 
ATOM     38  C   UNL     1      -0.891   7.661   3.629  0.00  0.00    +0.181 C 
ATOM     39  O   UNL     1      -1.641   6.563   2.896  0.00  0.00    -0.220 OA
ENDBRANCH  36  38
ENDBRANCH  35  36
ENDBRANCH  29  35
BRANCH  33  40
ATOM     40  O   UNL     1       3.485   8.731  -1.833  0.00  0.00    -0.346 OA
BRANCH  40  41
ATOM     41  C   UNL     1       4.733   8.529  -2.308  0.00  0.00    +0.175 C 
BRANCH  41  42
ATOM     42  C   UNL     1       4.732   7.321  -3.418  0.00  0.00    +0.181 C 
ATOM     43  O   UNL     1       4.821   8.301  -4.577  0.00  0.00    -0.220 OA
ATOM     44  C   UNL     1       6.372   7.176  -3.328  0.00  0.00    +0.038 C 
ENDBRANCH  41  42
ENDBRANCH  40  41
ENDBRANCH  33  40
BRANCH  30  45
ATOM     45  C   UNL     1       2.024   5.436  -0.717  0.00  0.00    +0.174 C 
BRANCH  45  46
ATOM     46  O   UNL     1       1.946   4.149  -0.692  0.00  0.00    -0.348 OA
BRANCH  46  47
ATOM     47  C   UNL     1       2.973   3.318  -0.901  0.00  0.00    +0.175 C 
BRANCH  47  48
ATOM     48  C   UNL     1       4.129   4.493  -0.980  0.00  0.00    +0.181 C 
ATOM     49  O   UNL     1       5.156   3.569  -0.355  0.00  0.00    -0.220 OA
ATOM     50  C   UNL     1       4.550   4.050  -2.511  0.00  0.00    +0.038 C 
ENDBRANCH  47  48
ENDBRANCH  46  47
ENDBRANCH  45  46
ENDBRANCH  30  45
BRANCH  34  51
ATOM     51  O   UNL     1       3.208   8.699   0.785  0.00  0.00    -0.348 OA
BRANCH  51  52
ATOM     52  C   UNL     1       3.078   9.895   1.382  0.00  0.00    +0.175 C 
BRANCH  52  53
ATOM     53  C   UNL     1       4.475  10.735   1.149  0.00  0.00    +0.181 C 
ATOM     54  O   UNL     1       4.150  11.810   2.173  0.00  0.00    -0.220 OA
ATOM     55  C   UNL     1       5.280   9.841   2.277  0.00  0.00    +0.038 C 
ENDBRANCH  52  53
ENDBRANCH  51  52
ENDBRANCH  34  51
ENDBRANCH   1  32
TORSDOF 28
ENDMDL
MODEL 3
REMARK VINA RESULT:      -3.8      2.085      9.475
REMARK  Name = 
REMARK  28 active torsions:
REMARK  status: ('A' for Active; 'I' for Inactive)
REMARK    1  A    between atoms: C_2  and  C_4
REMARK    2  A    between atoms: C_4  and  O_5
REMARK    3  A    between atoms: O_5  and  C_6
REMARK    4  A    between atoms: C_7  and  O_8
REMARK    5  A    between atoms: O_8  and  C_9
REMARK    6  A    between atoms: C_9  and  C_10
REMARK    7  A    between atoms: C_13  and  O_14
REMARK    8  A    between atoms: O_14  and  C_15
REMARK    9  A    between atoms: C_15  and  C_16
REMARK   10  A    between atoms: C_19  and  O_20
REMARK   11  A    between atoms: O_20  and  C_21
REMARK   12  A    between atoms: C_22  and  O_23
REMARK   13  A    between atoms: O_23  and  C_24
REMARK   14  A    between atoms: C_24  and  C_25
REMARK   15  A    between atoms: C_28  and  O_29
REMARK   16  A    between atoms: O_29  and  C_30
REMARK   17  A    between atoms: C_30  and  C_31
REMARK   18  A    between atoms: C_34  and  O_35
REMARK   19  A    between atoms: O_35  and  C_36
REMARK   20  A    between atoms: C_36  and  C_37
REMARK   21  A    between atoms: C_41  and  C_42
REMARK   22  A    between atoms: C_42  and  O_43
REMARK   23  A    between atoms: O_43  and  C_44
REMARK   24  A    between atoms: C_44  and  C_45
REMARK   25  A    between atoms: C_49  and  C_50
REMARK   26  A    between atoms: C_50  and  O_51
REMARK   27  A    between atoms: O_51  and  C_52
REMARK   28  A    between atoms: C_52  and  C_53
REMARK                            x       y       z     vdW  Elec       q    Type
REMARK                         _______ _______ _______ _____ _____    ______ ____
ROOT
ATOM      1  O   UNL     1       1.800   6.195  -6.273  0.00  0.00    -0.326 OA
ENDROOT
BRANCH   1   2
ATOM      2  C   UNL     1       2.232   6.884  -5.044  0.00  0.00    +0.177 C 
ATOM      3  C   UNL     1       1.318   6.301  -3.790  0.00  0.00    +0.177 C 
ATOM      4  O   UNL     1       2.123   5.525  -2.940  0.00  0.00    -0.326 OA
ATOM      5  C   UNL     1       0.574   5.699  -2.727  0.00  0.00    +0.266 C 
ATOM      6  C   UNL     1       0.115   7.271  -3.344  0.00  0.00    +0.201 C 
ATOM      7  C   UNL     1       0.585   7.512  -4.975  0.00  0.00    +0.177 C 
BRANCH   3   8
ATOM      8  C   UNL     1       1.892   7.692  -2.965  0.00  0.00    +0.174 C 
BRANCH   8   9
ATOM      9  O   UNL     1       3.080   7.702  -2.772  0.00  0.00    -0.348 OA
BRANCH   9  10
ATOM     10  C   UNL     1       4.010   8.386  -2.165  0.00  0.00    +0.175 C 
BRANCH  10  11
ATOM     11  C   UNL     1       3.227   8.347  -0.708  0.00  0.00    +0.181 C 
ATOM     12  O   UNL     1       4.496   7.873  -0.030  0.00  0.00    -0.220 OA
ATOM     13  C   UNL     1       3.562   9.940  -0.472  0.00  0.00    +0.038 C 
ENDBRANCH  10  11
ENDBRANCH   9  10
ENDBRANCH   8   9
ENDBRANCH   3   8
BRANCH   6  14
ATOM     14  O   UNL     1      -1.226   6.696  -3.657  0.00  0.00    -0.346 OA
BRANCH  14  15
ATOM     15  C   UNL     1      -2.266   7.413  -3.304  0.00  0.00    +0.175 C 
BRANCH  15  16
ATOM     16  C   UNL     1      -2.999   6.420  -2.196  0.00  0.00    +0.181 C 
ATOM     17  O   UNL     1      -4.427   6.700  -2.627  0.00  0.00    -0.220 OA
ATOM     18  C   UNL     1      -2.957   5.017  -3.070  0.00  0.00    +0.038 C 
ENDBRANCH  15  16
ENDBRANCH  14  15
ENDBRANCH   6  14
BRANCH   7  19
ATOM     19  O   UNL     1      -0.122   6.376  -5.633  0.00  0.00    -0.348 OA
BRANCH  19  20
ATOM     20  C   UNL     1      -1.038   6.580  -6.407  0.00  0.00    +0.175 C 
BRANCH  20  21
ATOM     21  C   UNL     1      -1.703   5.478  -7.351  0.00  0.00    +0.181 C 
ATOM     22  O   UNL     1      -0.909   4.369  -6.660  0.00  0.00    -0.220 OA
ATOM     23  C   UNL     1      -3.002   5.274  -6.353  0.00  0.00    +0.038 C 
ENDBRANCH  20  21
ENDBRANCH  19  20
ENDBRANCH   7  19
BRANCH   5  24
ATOM     24  O   UNL     1       0.790   6.359  -1.362  0.00  0.00    -0.326 OA
BRANCH  24  25
ATOM     25  C   UNL     1      -0.119   5.959  -0.508  0.00  0.00    +0.178 C 
BRANCH  25  26
ATOM     26  C   UNL     1      -0.228   7.034   0.732  0.00  0.00    +0.182 C 
ATOM     27  O   UNL     1      -0.700   8.181  -0.143  0.00  0.00    -0.220 OA
ATOM     28  C   UNL     1      -1.771   6.647   1.155  0.00  0.00    +0.038 C 
ENDBRANCH  25  26
ENDBRANCH  24  25
ENDBRANCH   5  24
ENDBRANCH   1   2
BRANCH   1  32
ATOM     29  C   UNL     1       4.690   5.384  -8.637  0.00  0.00    +0.174 C 
ATOM     30  C   UNL     1       4.355   6.007  -7.059  0.00  0.00    +0.177 C 
ATOM     31  O   UNL     1       3.401   7.063  -7.424  0.00  0.00    -0.326 OA
ATOM     32  C   UNL     1       1.940   6.742  -7.615  0.00  0.00    +0.266 C 
ATOM     33  C   UNL     1       2.209   5.400  -8.644  0.00  0.00    +0.201 C 
ATOM     34  C   UNL     1       3.468   6.250  -9.438  0.00  0.00    +0.177 C 
BRANCH  29  35
ATOM     35  O   UNL     1       5.807   6.316  -8.951  0.00  0.00    -0.348 OA
BRANCH  35  36
ATOM     36  C   UNL     1       6.827   5.751  -9.486  0.00  0.00    +0.175 C 
BRANCH  36  38
ATOM     37  C   UNL     1       8.272   6.014 -11.454  0.00  0.00    +0.038 C 
ATOM     38  C   UNL     1       7.892   6.856 -10.084  0.00  0.00    +0.181 C 
ATOM     39  O   UNL     1       6.816   7.639 -10.816  0.00  0.00    -0.220 OA
ENDBRANCH  36  38
ENDBRANCH  35  36
ENDBRANCH  29  35
BRANCH  33  40
ATOM     40  O   UNL     1       1.158   5.944  -9.562  0.00  0.00    -0.346 OA
BRANCH  40  41
ATOM     41  C   UNL     1       0.402   4.959 -10.094  0.00  0.00    +0.175 C 
BRANCH  41  42
ATOM     42  C   UNL     1      -0.474   5.531 -11.357  0.00  0.00    +0.181 C 
ATOM     43  O   UNL     1       0.371   6.792 -11.454  0.00  0.00    -0.220 OA
ATOM     44  C   UNL     1       0.478   4.731 -12.439  0.00  0.00    +0.038 C 
ENDBRANCH  41  42
ENDBRANCH  40  41
ENDBRANCH  33  40
BRANCH  30  45
ATOM     45  C   UNL     1       3.460   4.667  -6.859  0.00  0.00    +0.174 C 
BRANCH  45  46
ATOM     46  O   UNL     1       3.796   3.911  -5.870  0.00  0.00    -0.348 OA
BRANCH  46  47
ATOM     47  C   UNL     1       3.576   4.198  -4.582  0.00  0.00    +0.175 C 
BRANCH  47  48
ATOM     48  C   UNL     1       5.165   4.210  -4.137  0.00  0.00    +0.181 C 
ATOM     49  O   UNL     1       5.198   5.725  -4.179  0.00  0.00    -0.220 OA
ATOM     50  C   UNL     1       4.773   4.187  -2.536  0.00  0.00    +0.038 C 
ENDBRANCH  47  48
ENDBRANCH  46  47
ENDBRANCH  45  46
ENDBRANCH  30  45
BRANCH  34  51
ATOM     51  O   UNL     1       3.494   5.300 -10.589  0.00  0.00    -0.348 OA
BRANCH  51  52
ATOM     52  C   UNL     1       3.757   5.943 -11.738  0.00  0.00    +0.175 C 
BRANCH  52  53
ATOM     53  C   UNL     1       4.814   5.025 -12.606  0.00  0.00    +0.181 C 
ATOM     54  O   UNL     1       3.792   4.606 -13.649  0.00  0.00    -0.220 OA
ATOM     55  C   UNL     1       5.287   6.313 -13.520  0.00  0.00    +0.038 C 
ENDBRANCH  52  53
ENDBRANCH  51  52
ENDBRANCH  34  51
ENDBRANCH   1  32
TORSDOF 28
ENDMDL
MODEL 4
REMARK VINA RESULT:      -3.8      2.778     10.010
REMARK  Name = 
REMARK  28 active torsions:
REMARK  status: ('A' for Active; 'I' for Inactive)
REMARK    1  A    between atoms: C_2  and  C_4
REMARK    2  A    between atoms: C_4  and  O_5
REMARK    3  A    between atoms: O_5  and  C_6
REMARK    4  A    between atoms: C_7  and  O_8
REMARK    5  A    between atoms: O_8  and  C_9
REMARK    6  A    between atoms: C_9  and  C_10
REMARK    7  A    between atoms: C_13  and  O_14
REMARK    8  A    between atoms: O_14  and  C_15
REMARK    9  A    between atoms: C_15  and  C_16
REMARK   10  A    between atoms: C_19  and  O_20
REMARK   11  A    between atoms: O_20  and  C_21
REMARK   12  A    between atoms: C_22  and  O_23
REMARK   13  A    between atoms: O_23  and  C_24
REMARK   14  A    between atoms: C_24  and  C_25
REMARK   15  A    between atoms: C_28  and  O_29
REMARK   16  A    between atoms: O_29  and  C_30
REMARK   17  A    between atoms: C_30  and  C_31
REMARK   18  A    between atoms: C_34  and  O_35
REMARK   19  A    between atoms: O_35  and  C_36
REMARK   20  A    between atoms: C_36  and  C_37
REMARK   21  A    between atoms: C_41  and  C_42
REMARK   22  A    between atoms: C_42  and  O_43
REMARK   23  A    between atoms: O_43  and  C_44
REMARK   24  A    between atoms: C_44  and  C_45
REMARK   25  A    between atoms: C_49  and  C_50
REMARK   26  A    between atoms: C_50  and  O_51
REMARK   27  A    between atoms: O_51  and  C_52
REMARK   28  A    between atoms: C_52  and  C_53
REMARK                            x       y       z     vdW  Elec       q    Type
REMARK                         _______ _______ _______ _____ _____    ______ ____
ROOT
ATOM      1  O   UNL     1       2.112   6.970  -2.734  0.00  0.00    -0.326 OA
ENDROOT
BRANCH   1   2
ATOM      2  C   UNL     1       1.006   6.311  -2.017  0.00  0.00    +0.177 C 
ATOM      3  C   UNL     1       0.377   7.407  -0.943  0.00  0.00    +0.177 C 
ATOM      4  O   UNL     1      -0.905   7.797  -1.365  0.00  0.00    -0.326 OA
ATOM      5  C   UNL     1      -0.194   8.415  -0.104  0.00  0.00    +0.266 C 
ATOM      6  C   UNL     1       0.860   7.194   0.576  0.00  0.00    +0.201 C 
ATOM      7  C   UNL     1       1.974   6.563  -0.564  0.00  0.00    +0.177 C 
BRANCH   3   8
ATOM      8  C   UNL     1      -0.344   6.022  -0.233  0.00  0.00    +0.174 C 
BRANCH   8   9
ATOM      9  O   UNL     1      -1.146   5.461  -0.934  0.00  0.00    -0.348 OA
BRANCH   9  10
ATOM     10  C   UNL     1      -2.431   5.333  -1.115  0.00  0.00    +0.175 C 
BRANCH  10  11
ATOM     11  C   UNL     1      -2.344   5.727  -2.720  0.00  0.00    +0.181 C 
ATOM     12  O   UNL     1      -2.996   4.409  -3.087  0.00  0.00    -0.220 OA
ATOM     13  C   UNL     1      -3.774   6.534  -2.612  0.00  0.00    +0.038 C 
ENDBRANCH  10  11
ENDBRANCH   9  10
ENDBRANCH   8   9
ENDBRANCH   3   8
BRANCH   6  14
ATOM     14  O   UNL     1       1.742   8.299   1.054  0.00  0.00    -0.346 OA
BRANCH  14  15
ATOM     15  C   UNL     1       1.896   8.404   2.351  0.00  0.00    +0.175 C 
BRANCH  15  16
ATOM     16  C   UNL     1       2.426   9.969   2.502  0.00  0.00    +0.181 C 
ATOM     17  O   UNL     1       2.035  10.421   1.106  0.00  0.00    -0.220 OA
ATOM     18  C   UNL     1       1.054  10.623   3.153  0.00  0.00    +0.038 C 
ENDBRANCH  15  16
ENDBRANCH  14  15
ENDBRANCH   6  14
BRANCH   7  19
ATOM     19  O   UNL     1       2.682   7.810  -0.973  0.00  0.00    -0.348 OA
BRANCH  19  20
ATOM     20  C   UNL     1       3.866   7.959  -0.735  0.00  0.00    +0.175 C 
BRANCH  20  21
ATOM     21  C   UNL     1       4.780   6.914   0.053  0.00  0.00    +0.181 C 
ATOM     22  O   UNL     1       5.956   7.197  -0.884  0.00  0.00    -0.220 OA
ATOM     23  C   UNL     1       5.285   8.044   1.148  0.00  0.00    +0.038 C 
ENDBRANCH  20  21
ENDBRANCH  19  20
ENDBRANCH   7  19
BRANCH   5  24
ATOM     24  O   UNL     1      -1.297   7.901   0.825  0.00  0.00    -0.326 OA
BRANCH  24  25
ATOM     25  C   UNL     1      -1.861   8.896   1.465  0.00  0.00    +0.178 C 
BRANCH  25  26
ATOM     26  C   UNL     1      -2.148   8.463   3.026  0.00  0.00    +0.182 C 
ATOM     27  O   UNL     1      -3.633   8.772   2.966  0.00  0.00    -0.220 OA
ATOM     28  C   UNL     1      -2.409   6.869   2.713  0.00  0.00    +0.038 C 
ENDBRANCH  25  26
ENDBRANCH  24  25
ENDBRANCH   5  24
ENDBRANCH   1   2
BRANCH   1  32
ATOM     29  C   UNL     1       3.686   5.555  -5.915  0.00  0.00    +0.174 C 
ATOM     30  C   UNL     1       4.086   6.090  -4.320  0.00  0.00    +0.177 C 
ATOM     31  O   UNL     1       3.457   7.418  -4.357  0.00  0.00    -0.326 OA
ATOM     32  C   UNL     1       1.989   7.579  -4.052  0.00  0.00    +0.266 C 
ATOM     33  C   UNL     1       1.473   6.328  -5.101  0.00  0.00    +0.201 C 
ATOM     34  C   UNL     1       2.620   6.827  -6.273  0.00  0.00    +0.177 C 
BRANCH  29  35
ATOM     35  O   UNL     1       4.883   6.128  -6.589  0.00  0.00    -0.348 OA
BRANCH  35  36
ATOM     36  C   UNL     1       5.386   5.373  -7.496  0.00  0.00    +0.175 C 
BRANCH  36  38
ATOM     37  C   UNL     1       6.967   5.730  -9.340  0.00  0.00    +0.038 C 
ATOM     38  C   UNL     1       5.405   6.118  -8.965  0.00  0.00    +0.181 C 
ATOM     39  O   UNL     1       4.884   4.896  -9.699  0.00  0.00    -0.220 OA
ENDBRANCH  36  38
ENDBRANCH  35  36
ENDBRANCH  29  35
BRANCH  33  40
ATOM     40  O   UNL     1       0.420   7.255  -5.623  0.00  0.00    -0.346 OA
BRANCH  40  41
ATOM     41  C   UNL     1      -0.818   6.737  -5.473  0.00  0.00    +0.175 C 
BRANCH  41  42
ATOM     42  C   UNL     1      -1.311   6.025  -6.867  0.00  0.00    +0.181 C 
ATOM     43  O   UNL     1      -0.949   4.638  -6.361  0.00  0.00    -0.220 OA
ATOM     44  C   UNL     1      -2.857   5.898  -6.309  0.00  0.00    +0.038 C 
ENDBRANCH  41  42
ENDBRANCH  40  41
ENDBRANCH  33  40
BRANCH  30  45
ATOM     45  C   UNL     1       2.919   5.075  -3.825  0.00  0.00    +0.174 C 
BRANCH  45  46
ATOM     46  O   UNL     1       3.264   4.226  -2.918  0.00  0.00    -0.348 OA
BRANCH  46  47
ATOM     47  C   UNL     1       4.505   4.080  -2.441  0.00  0.00    +0.175 C 
BRANCH  47  48
ATOM     48  C   UNL     1       4.093   4.218  -0.849  0.00  0.00    +0.181 C 
ATOM     49  O   UNL     1       3.126   3.058  -0.966  0.00  0.00    -0.220 OA
ATOM     50  C   UNL     1       5.334   3.237  -0.387  0.00  0.00    +0.038 C 
ENDBRANCH  47  48
ENDBRANCH  46  47
ENDBRANCH  45  46
ENDBRANCH  30  45
BRANCH  34  51
ATOM     51  O   UNL     1       1.975   6.034  -7.360  0.00  0.00    -0.348 OA
BRANCH  51  52
ATOM     52  C   UNL     1       1.901   6.746  -8.497  0.00  0.00    +0.175 C 
BRANCH  52  53
ATOM     53  C   UNL     1       0.977   5.902  -9.567  0.00  0.00    +0.181 C 
ATOM     54  O   UNL     1       1.946   6.061 -10.726  0.00  0.00    -0.220 OA
ATOM     55  C   UNL     1       1.663   4.467  -9.132  0.00  0.00    +0.038 C 
ENDBRANCH  52  53
ENDBRANCH  51  52
ENDBRANCH  34  51
ENDBRANCH   1  32
TORSDOF 28
ENDMDL
MODEL 5
REMARK VINA RESULT:      -3.4      1.448      4.061
REMARK  Name = 
REMARK  28 active torsions:
REMARK  status: ('A' for Active; 'I' for Inactive)
REMARK    1  A    between atoms: C_2  and  C_4
REMARK    2  A    between atoms: C_4  and  O_5
REMARK    3  A    between atoms: O_5  and  C_6
REMARK    4  A    between atoms: C_7  and  O_8
REMARK    5  A    between atoms: O_8  and  C_9
REMARK    6  A    between atoms: C_9  and  C_10
REMARK    7  A    between atoms: C_13  and  O_14
REMARK    8  A    between atoms: O_14  and  C_15
REMARK    9  A    between atoms: C_15  and  C_16
REMARK   10  A    between atoms: C_19  and  O_20
REMARK   11  A    between atoms: O_20  and  C_21
REMARK   12  A    between atoms: C_22  and  O_23
REMARK   13  A    between atoms: O_23  and  C_24
REMARK   14  A    between atoms: C_24  and  C_25
REMARK   15  A    between atoms: C_28  and  O_29
REMARK   16  A    between atoms: O_29  and  C_30
REMARK   17  A    between atoms: C_30  and  C_31
REMARK   18  A    between atoms: C_34  and  O_35
REMARK   19  A    between atoms: O_35  and  C_36
REMARK   20  A    between atoms: C_36  and  C_37
REMARK   21  A    between atoms: C_41  and  C_42
REMARK   22  A    between atoms: C_42  and  O_43
REMARK   23  A    between atoms: O_43  and  C_44
REMARK   24  A    between atoms: C_44  and  C_45
REMARK   25  A    between atoms: C_49  and  C_50
REMARK   26  A    between atoms: C_50  and  O_51
REMARK   27  A    between atoms: O_51  and  C_52
REMARK   28  A    between atoms: C_52  and  C_53
REMARK                            x       y       z     vdW  Elec       q    Type
REMARK                         _______ _______ _______ _____ _____    ______ ____
ROOT
ATOM      1  O   UNL     1       2.004   5.881  -8.119  0.00  0.00    -0.326 OA
ENDROOT
BRANCH   1   2
ATOM      2  C   UNL     1       3.385   5.483  -8.445  0.00  0.00    +0.177 C 
ATOM      3  C   UNL     1       3.784   6.185  -9.894  0.00  0.00    +0.177 C 
ATOM      4  O   UNL     1       4.744   7.188  -9.683  0.00  0.00    -0.326 OA
ATOM      5  C   UNL     1       4.115   6.888 -11.094  0.00  0.00    +0.266 C 
ATOM      6  C   UNL     1       3.703   5.188 -11.153  0.00  0.00    +0.201 C 
ATOM      7  C   UNL     1       2.684   4.702  -9.863  0.00  0.00    +0.177 C 
BRANCH   3   8
ATOM      8  C   UNL     1       5.064   5.042  -9.887  0.00  0.00    +0.174 C 
BRANCH   8   9
ATOM      9  O   UNL     1       5.770   5.090  -8.913  0.00  0.00    -0.348 OA
BRANCH   9  10
ATOM     10  C   UNL     1       6.978   5.412  -8.541  0.00  0.00    +0.175 C 
BRANCH  10  11
ATOM     11  C   UNL     1       7.540   5.494 -10.095  0.00  0.00    +0.181 C 
ATOM     12  O   UNL     1       8.019   6.912  -9.856  0.00  0.00    -0.220 OA
ATOM     13  C   UNL     1       8.964   4.814  -9.628  0.00  0.00    +0.038 C 
ENDBRANCH  10  11
ENDBRANCH   9  10
ENDBRANCH   8   9
ENDBRANCH   3   8
BRANCH   6  14
ATOM     14  O   UNL     1       2.598   5.544 -12.092  0.00  0.00    -0.346 OA
BRANCH  14  15
ATOM     15  C   UNL     1       2.807   5.295 -13.362  0.00  0.00    +0.175 C 
BRANCH  15  16
ATOM     16  C   UNL     1       2.001   6.550 -14.088  0.00  0.00    +0.181 C 
ATOM     17  O   UNL     1       2.736   6.486 -15.415  0.00  0.00    -0.220 OA
ATOM     18  C   UNL     1       0.725   5.693 -14.695  0.00  0.00    +0.038 C 
ENDBRANCH  15  16
ENDBRANCH  14  15
ENDBRANCH   6  14
BRANCH   7  19
ATOM     19  O   UNL     1       1.522   5.612 -10.076  0.00  0.00    -0.348 OA
BRANCH  19  20
ATOM     20  C   UNL     1       0.520   5.216 -10.640  0.00  0.00    +0.175 C 
BRANCH  20  21
ATOM     21  C   UNL     1      -0.847   6.032 -10.758  0.00  0.00    +0.181 C 
ATOM     22  O   UNL     1      -0.728   6.495  -9.305  0.00  0.00    -0.220 OA
ATOM     23  C   UNL     1      -0.096   7.387 -11.330  0.00  0.00    +0.038 C 
ENDBRANCH  20  21
ENDBRANCH  19  20
ENDBRANCH   7  19
BRANCH   5  24
ATOM     24  O   UNL     1       5.483   6.520 -11.675  0.00  0.00    -0.326 OA
BRANCH  24  25
ATOM     25  C   UNL     1       5.732   7.226 -12.751  0.00  0.00    +0.178 C 
BRANCH  25  26
ATOM     26  C   UNL     1       6.935   6.515 -13.618  0.00  0.00    +0.182 C 
ATOM     27  O   UNL     1       6.340   5.121 -13.529  0.00  0.00    -0.220 OA
ATOM     28  C   UNL     1       6.255   6.773 -15.093  0.00  0.00    +0.038 C 
ENDBRANCH  25  26
ENDBRANCH  24  25
ENDBRANCH   5  24
ENDBRANCH   1   2
BRANCH   1  32
ATOM     29  C   UNL     1       2.836   5.509  -4.409  0.00  0.00    +0.174 C 
ATOM     30  C   UNL     1       3.463   5.174  -5.984  0.00  0.00    +0.177 C 
ATOM     31  O   UNL     1       2.315   4.447  -6.542  0.00  0.00    -0.326 OA
ATOM     32  C   UNL     1       1.157   5.194  -7.153  0.00  0.00    +0.266 C 
ATOM     33  C   UNL     1       0.964   6.280  -5.843  0.00  0.00    +0.201 C 
ATOM     34  C   UNL     1       1.247   5.004  -4.733  0.00  0.00    +0.177 C 
BRANCH  29  35
ATOM     35  O   UNL     1       3.299   4.245  -3.772  0.00  0.00    -0.348 OA
BRANCH  35  36
ATOM     36  C   UNL     1       4.106   4.418  -2.789  0.00  0.00    +0.175 C 
BRANCH  36  38
ATOM     37  C   UNL     1       2.753   3.579  -0.920  0.00  0.00    +0.038 C 
ATOM     38  C   UNL     1       3.332   5.026  -1.467  0.00  0.00    +0.181 C 
ATOM     39  O   UNL     1       4.559   4.916  -0.580  0.00  0.00    -0.220 OA
ENDBRANCH  36  38
ENDBRANCH  35  36
ENDBRANCH  29  35
BRANCH  33  40
ATOM     40  O   UNL     1      -0.509   6.014  -5.892  0.00  0.00    -0.346 OA
BRANCH  40  41
ATOM     41  C   UNL     1      -1.225   7.114  -5.574  0.00  0.00    +0.175 C 
BRANCH  41  42
ATOM     42  C   UNL     1      -2.707   6.688  -5.013  0.00  0.00    +0.181 C 
ATOM     43  O   UNL     1      -3.404   7.712  -5.895  0.00  0.00    -0.220 OA
ATOM     44  C   UNL     1      -2.851   5.509  -6.156  0.00  0.00    +0.038 C 
ENDBRANCH  41  42
ENDBRANCH  40  41
ENDBRANCH  33  40
BRANCH  30  45
ATOM     45  C   UNL     1       3.171   6.741  -6.293  0.00  0.00    +0.174 C 
BRANCH  45  46
ATOM     46  O   UNL     1       3.974   7.581  -5.735  0.00  0.00    -0.348 OA
BRANCH  46  47
ATOM     47  C   UNL     1       5.127   7.255  -5.140  0.00  0.00    +0.175 C 
BRANCH  47  48
ATOM     48  C   UNL     1       5.026   8.386  -3.942  0.00  0.00    +0.181 C 
ATOM     49  O   UNL     1       3.655   7.881  -3.538  0.00  0.00    -0.220 OA
ATOM     50  C   UNL     1       5.791   7.396  -2.869  0.00  0.00    +0.038 C 
ENDBRANCH  47  48
ENDBRANCH  46  47
ENDBRANCH  45  46
ENDBRANCH  30  45
BRANCH  34  51
ATOM     51  O   UNL     1       0.720   5.785  -3.576  0.00  0.00    -0.348 OA
BRANCH  51  52
ATOM     52  C   UNL     1      -0.110   5.038  -2.829  0.00  0.00    +0.175 C 
BRANCH  52  53
ATOM     53  C   UNL     1      -1.165   6.050  -2.072  0.00  0.00    +0.181 C 
ATOM     54  O   UNL     1      -2.155   4.957  -1.710  0.00  0.00    -0.220 OA
ATOM     55  C   UNL     1      -0.388   5.888  -0.627  0.00  0.00    +0.038 C 
ENDBRANCH  52  53
ENDBRANCH  51  52
ENDBRANCH  34  51
ENDBRANCH   1  32
TORSDOF 28
ENDMDL
MODEL 6
REMARK VINA RESULT:      -3.4      3.674     10.986
REMARK  Name = 
REMARK  28 active torsions:
REMARK  status: ('A' for Active; 'I' for Inactive)
REMARK    1  A    between atoms: C_2  and  C_4
REMARK    2  A    between atoms: C_4  and  O_5
REMARK    3  A    between atoms: O_5  and  C_6
REMARK    4  A    between atoms: C_7  and  O_8
REMARK    5  A    between atoms: O_8  and  C_9
REMARK    6  A    between atoms: C_9  and  C_10
REMARK    7  A    between atoms: C_13  and  O_14
REMARK    8  A    between atoms: O_14  and  C_15
REMARK    9  A    between atoms: C_15  and  C_16
REMARK   10  A    between atoms: C_19  and  O_20
REMARK   11  A    between atoms: O_20  and  C_21
REMARK   12  A    between atoms: C_22  and  O_23
REMARK   13  A    between atoms: O_23  and  C_24
REMARK   14  A    between atoms: C_24  and  C_25
REMARK   15  A    between atoms: C_28  and  O_29
REMARK   16  A    between atoms: O_29  and  C_30
REMARK   17  A    between atoms: C_30  and  C_31
REMARK   18  A    between atoms: C_34  and  O_35
REMARK   19  A    between atoms: O_35  and  C_36
REMARK   20  A    between atoms: C_36  and  C_37
REMARK   21  A    between atoms: C_41  and  C_42
REMARK   22  A    between atoms: C_42  and  O_43
REMARK   23  A    between atoms: O_43  and  C_44
REMARK   24  A    between atoms: C_44  and  C_45
REMARK   25  A    between atoms: C_49  and  C_50
REMARK   26  A    between atoms: C_50  and  O_51
REMARK   27  A    between atoms: O_51  and  C_52
REMARK   28  A    between atoms: C_52  and  C_53
REMARK                            x       y       z     vdW  Elec       q    Type
REMARK                         _______ _______ _______ _____ _____    ______ ____
ROOT
ATOM      1  O   UNL     1       1.599   6.938  -1.561  0.00  0.00    -0.326 OA
ENDROOT
BRANCH   1   2
ATOM      2  C   UNL     1       0.641   6.698  -0.466  0.00  0.00    +0.177 C 
ATOM      3  C   UNL     1       0.475   8.117   0.377  0.00  0.00    +0.177 C 
ATOM      4  O   UNL     1      -0.807   8.648   0.156  0.00  0.00    -0.326 OA
ATOM      5  C   UNL     1       0.290   9.385   1.011  0.00  0.00    +0.266 C 
ATOM      6  C   UNL     1       1.307   8.169   1.752  0.00  0.00    +0.201 C 
ATOM      7  C   UNL     1       1.984   7.081   0.614  0.00  0.00    +0.177 C 
BRANCH   3   8
ATOM      8  C   UNL     1      -0.217   7.108   1.580  0.00  0.00    +0.174 C 
BRANCH   8   9
ATOM      9  O   UNL     1      -1.413   6.991   1.506  0.00  0.00    -0.348 OA
BRANCH   9  10
ATOM     10  C   UNL     1      -2.371   6.136   1.733  0.00  0.00    +0.175 C 
BRANCH  10  11
ATOM     11  C   UNL     1      -2.536   6.591   3.315  0.00  0.00    +0.181 C 
ATOM     12  O   UNL     1      -4.006   6.880   3.086  0.00  0.00    -0.220 OA
ATOM     13  C   UNL     1      -2.797   5.025   3.750  0.00  0.00    +0.038 C 
ENDBRANCH  10  11
ENDBRANCH   9  10
ENDBRANCH   8   9
ENDBRANCH   3   8
BRANCH   6  14
ATOM     14  O   UNL     1       2.427   9.154   1.703  0.00  0.00    -0.346 OA
BRANCH  14  15
ATOM     15  C   UNL     1       2.903   9.556   2.856  0.00  0.00    +0.175 C 
BRANCH  15  16
ATOM     16  C   UNL     1       3.858  10.833   2.400  0.00  0.00    +0.181 C 
ATOM     17  O   UNL     1       3.113  11.160   1.118  0.00  0.00    -0.220 OA
ATOM     18  C   UNL     1       3.067  12.029   3.224  0.00  0.00    +0.038 C 
ENDBRANCH  15  16
ENDBRANCH  14  15
ENDBRANCH   6  14
BRANCH   7  19
ATOM     19  O   UNL     1       2.723   8.030  -0.267  0.00  0.00    -0.348 OA
BRANCH  19  20
ATOM     20  C   UNL     1       3.938   8.087  -0.238  0.00  0.00    +0.175 C 
BRANCH  20  21
ATOM     21  C   UNL     1       4.901   6.883   0.176  0.00  0.00    +0.181 C 
ATOM     22  O   UNL     1       5.956   7.346  -0.831  0.00  0.00    -0.220 OA
ATOM     23  C   UNL     1       5.593   7.739   1.407  0.00  0.00    +0.038 C 
ENDBRANCH  20  21
ENDBRANCH  19  20
ENDBRANCH   7  19
BRANCH   5  24
ATOM     24  O   UNL     1      -0.589   9.334   2.264  0.00  0.00    -0.326 OA
BRANCH  24  25
ATOM     25  C   UNL     1      -0.644  10.511   2.838  0.00  0.00    +0.178 C 
BRANCH  25  26
ATOM     26  C   UNL     1      -2.008  10.623   3.750  0.00  0.00    +0.182 C 
ATOM     27  O   UNL     1      -2.264  12.079   3.407  0.00  0.00    -0.220 OA
ATOM     28  C   UNL     1      -3.038  10.106   2.576  0.00  0.00    +0.038 C 
ENDBRANCH  25  26
ENDBRANCH  24  25
ENDBRANCH   5  24
ENDBRANCH   1   2
BRANCH   1  32
ATOM     29  C   UNL     1       3.101   5.536  -4.782  0.00  0.00    +0.174 C 
ATOM     30  C   UNL     1       3.541   6.297  -3.294  0.00  0.00    +0.177 C 
ATOM     31  O   UNL     1       2.656   7.468  -3.361  0.00  0.00    -0.326 OA
ATOM     32  C   UNL     1       1.224   7.374  -2.899  0.00  0.00    +0.266 C 
ATOM     33  C   UNL     1       0.870   5.947  -3.777  0.00  0.00    +0.201 C 
ATOM     34  C   UNL     1       1.768   6.536  -5.113  0.00  0.00    +0.177 C 
BRANCH  29  35
ATOM     35  O   UNL     1       4.083   6.257  -5.637  0.00  0.00    -0.348 OA
BRANCH  35  36
ATOM     36  C   UNL     1       4.746   5.497  -6.430  0.00  0.00    +0.175 C 
BRANCH  36  38
ATOM     37  C   UNL     1       5.826   5.369  -8.631  0.00  0.00    +0.038 C 
ATOM     38  C   UNL     1       4.351   5.771  -8.006  0.00  0.00    +0.181 C 
ATOM     39  O   UNL     1       3.831   4.361  -8.220  0.00  0.00    -0.220 OA
ENDBRANCH  36  38
ENDBRANCH  35  36
ENDBRANCH  29  35
BRANCH  33  40
ATOM     40  O   UNL     1      -0.397   6.596  -4.243  0.00  0.00    -0.346 OA
BRANCH  40  41
ATOM     41  C   UNL     1      -1.485   5.887  -3.875  0.00  0.00    +0.175 C 
BRANCH  41  42
ATOM     42  C   UNL     1      -2.792   6.870  -3.750  0.00  0.00    +0.181 C 
ATOM     43  O   UNL     1      -2.392   7.329  -2.356  0.00  0.00    -0.220 OA
ATOM     44  C   UNL     1      -1.981   8.115  -4.464  0.00  0.00    +0.038 C 
ENDBRANCH  41  42
ENDBRANCH  40  41
ENDBRANCH  33  40
BRANCH  30  45
ATOM     45  C   UNL     1       2.660   5.132  -2.585  0.00  0.00    +0.174 C 
BRANCH  45  46
ATOM     46  O   UNL     1       3.303   4.354  -1.783  0.00  0.00    -0.348 OA
BRANCH  46  47
ATOM     47  C   UNL     1       4.610   4.446  -1.514  0.00  0.00    +0.175 C 
BRANCH  47  48
ATOM     48  C   UNL     1       4.853   2.829  -1.294  0.00  0.00    +0.181 C 
ATOM     49  O   UNL     1       5.492   3.077   0.058  0.00  0.00    -0.220 OA
ATOM     50  C   UNL     1       3.354   2.639  -0.635  0.00  0.00    +0.038 C 
ENDBRANCH  47  48
ENDBRANCH  46  47
ENDBRANCH  45  46
ENDBRANCH  30  45
BRANCH  34  51
ATOM     51  O   UNL     1       1.192   5.528  -6.049  0.00  0.00    -0.348 OA
BRANCH  51  52
ATOM     52  C   UNL     1       0.649   6.123  -7.124  0.00  0.00    +0.175 C 
BRANCH  52  53
ATOM     53  C   UNL     1       0.602   5.022  -8.347  0.00  0.00    +0.181 C 
ATOM     54  O   UNL     1      -0.877   5.213  -8.634  0.00  0.00    -0.220 OA
ATOM     55  C   UNL     1       1.014   6.154  -9.472  0.00  0.00    +0.038 C 
ENDBRANCH  52  53
ENDBRANCH  51  52
ENDBRANCH  34  51
ENDBRANCH   1  32
TORSDOF 28
ENDMDL
MODEL 7
REMARK VINA RESULT:      -3.3      1.961      9.805
REMARK  Name = 
REMARK  28 active torsions:
REMARK  status: ('A' for Active; 'I' for Inactive)
REMARK    1  A    between atoms: C_2  and  C_4
REMARK    2  A    between atoms: C_4  and  O_5
REMARK    3  A    between atoms: O_5  and  C_6
REMARK    4  A    between atoms: C_7  and  O_8
REMARK    5  A    between atoms: O_8  and  C_9
REMARK    6  A    between atoms: C_9  and  C_10
REMARK    7  A    between atoms: C_13  and  O_14
REMARK    8  A    between atoms: O_14  and  C_15
REMARK    9  A    between atoms: C_15  and  C_16
REMARK   10  A    between atoms: C_19  and  O_20
REMARK   11  A    between atoms: O_20  and  C_21
REMARK   12  A    between atoms: C_22  and  O_23
REMARK   13  A    between atoms: O_23  and  C_24
REMARK   14  A    between atoms: C_24  and  C_25
REMARK   15  A    between atoms: C_28  and  O_29
REMARK   16  A    between atoms: O_29  and  C_30
REMARK   17  A    between atoms: C_30  and  C_31
REMARK   18  A    between atoms: C_34  and  O_35
REMARK   19  A    between atoms: O_35  and  C_36
REMARK   20  A    between atoms: C_36  and  C_37
REMARK   21  A    between atoms: C_41  and  C_42
REMARK   22  A    between atoms: C_42  and  O_43
REMARK   23  A    between atoms: O_43  and  C_44
REMARK   24  A    between atoms: C_44  and  C_45
REMARK   25  A    between atoms: C_49  and  C_50
REMARK   26  A    between atoms: C_50  and  O_51
REMARK   27  A    between atoms: O_51  and  C_52
REMARK   28  A    between atoms: C_52  and  C_53
REMARK                            x       y       z     vdW  Elec       q    Type
REMARK                         _______ _______ _______ _____ _____    ______ ____
ROOT
ATOM      1  O   UNL     1       2.275   5.507  -5.276  0.00  0.00    -0.326 OA
ENDROOT
BRANCH   1   2
ATOM      2  C   UNL     1       1.399   4.996  -4.207  0.00  0.00    +0.177 C 
ATOM      3  C   UNL     1       1.556   6.006  -2.901  0.00  0.00    +0.177 C 
ATOM      4  O   UNL     1       0.369   6.735  -2.723  0.00  0.00    -0.326 OA
ATOM      5  C   UNL     1       1.650   6.957  -1.837  0.00  0.00    +0.266 C 
ATOM      6  C   UNL     1       2.511   5.437  -1.739  0.00  0.00    +0.201 C 
ATOM      7  C   UNL     1       2.882   4.778  -3.277  0.00  0.00    +0.177 C 
BRANCH   3   8
ATOM      8  C   UNL     1       0.819   4.714  -2.045  0.00  0.00    +0.174 C 
BRANCH   8   9
ATOM      9  O   UNL     1      -0.377   4.650  -2.170  0.00  0.00    -0.348 OA
BRANCH   9  10
ATOM     10  C   UNL     1      -1.485   4.905  -1.533  0.00  0.00    +0.175 C 
BRANCH  10  11
ATOM     11  C   UNL     1      -2.162   5.690  -2.823  0.00  0.00    +0.181 C 
ATOM     12  O   UNL     1      -3.151   4.557  -3.003  0.00  0.00    -0.220 OA
ATOM     13  C   UNL     1      -3.144   6.536  -1.809  0.00  0.00    +0.038 C 
ENDBRANCH  10  11
ENDBRANCH   9  10
ENDBRANCH   8   9
ENDBRANCH   3   8
BRANCH   6  14
ATOM     14  O   UNL     1       3.772   6.222  -1.602  0.00  0.00    -0.346 OA
BRANCH  14  15
ATOM     15  C   UNL     1       4.483   6.003  -0.523  0.00  0.00    +0.175 C 
BRANCH  15  16
ATOM     16  C   UNL     1       4.381   7.467   0.250  0.00  0.00    +0.181 C 
ATOM     17  O   UNL     1       3.588   6.977   1.449  0.00  0.00    -0.220 OA
ATOM     18  C   UNL     1       5.801   7.391   1.094  0.00  0.00    +0.038 C 
ENDBRANCH  15  16
ENDBRANCH  14  15
ENDBRANCH   6  14
BRANCH   7  19
ATOM     19  O   UNL     1       3.686   5.889  -3.863  0.00  0.00    -0.348 OA
BRANCH  19  20
ATOM     20  C   UNL     1       4.861   5.730  -4.132  0.00  0.00    +0.175 C 
BRANCH  20  21
ATOM     21  C   UNL     1       5.790   6.807  -4.857  0.00  0.00    +0.181 C 
ATOM     22  O   UNL     1       4.649   7.826  -4.863  0.00  0.00    -0.220 OA
ATOM     23  C   UNL     1       6.395   7.381  -3.431  0.00  0.00    +0.038 C 
ENDBRANCH  20  21
ENDBRANCH  19  20
ENDBRANCH   7  19
BRANCH   5  24
ATOM     24  O   UNL     1       0.897   6.550  -0.568  0.00  0.00    -0.326 OA
BRANCH  24  25
ATOM     25  C   UNL     1       0.517   7.610   0.103  0.00  0.00    +0.178 C 
BRANCH  25  26
ATOM     26  C   UNL     1      -0.611   7.186   1.222  0.00  0.00    +0.182 C 
ATOM     27  O   UNL     1       0.398   6.965   2.334  0.00  0.00    -0.220 OA
ATOM     28  C   UNL     1      -0.925   8.718   1.734  0.00  0.00    +0.038 C 
ENDBRANCH  25  26
ENDBRANCH  24  25
ENDBRANCH   5  24
ENDBRANCH   1   2
BRANCH   1  32
ATOM     29  C   UNL     1       0.978   6.053  -8.828  0.00  0.00    +0.174 C 
ATOM     30  C   UNL     1       0.441   5.713  -7.221  0.00  0.00    +0.177 C 
ATOM     31  O   UNL     1       1.289   4.548  -6.934  0.00  0.00    -0.326 OA
ATOM     32  C   UNL     1       2.699   4.730  -6.433  0.00  0.00    +0.266 C 
ATOM     33  C   UNL     1       3.143   5.873  -7.629  0.00  0.00    +0.201 C 
ATOM     34  C   UNL     1       2.290   4.974  -8.815  0.00  0.00    +0.177 C 
BRANCH  29  35
ATOM     35  O   UNL     1       0.014   5.154  -9.520  0.00  0.00    -0.348 OA
BRANCH  35  36
ATOM     36  C   UNL     1      -0.304   5.536 -10.703  0.00  0.00    +0.175 C 
BRANCH  36  38
ATOM     37  C   UNL     1       0.383   7.098 -12.468  0.00  0.00    +0.038 C 
ATOM     38  C   UNL     1      -0.106   7.160 -10.892  0.00  0.00    +0.181 C 
ATOM     39  O   UNL     1      -1.549   7.384 -11.306  0.00  0.00    -0.220 OA
ENDBRANCH  36  38
ENDBRANCH  35  36
ENDBRANCH  29  35
BRANCH  33  40
ATOM     40  O   UNL     1       4.408   5.099  -7.841  0.00  0.00    -0.346 OA
BRANCH  40  41
ATOM     41  C   UNL     1       5.449   5.913  -8.118  0.00  0.00    +0.175 C 
BRANCH  41  42
ATOM     42  C   UNL     1       6.198   5.433  -9.496  0.00  0.00    +0.181 C 
ATOM     43  O   UNL     1       6.070   6.813 -10.122  0.00  0.00    -0.220 OA
ATOM     44  C   UNL     1       7.681   5.783  -8.867  0.00  0.00    +0.038 C 
ENDBRANCH  41  42
ENDBRANCH  40  41
ENDBRANCH  33  40
BRANCH  30  45
ATOM     45  C   UNL     1       1.326   7.005  -6.790  0.00  0.00    +0.174 C 
BRANCH  45  46
ATOM     46  O   UNL     1       0.804   7.766  -5.889  0.00  0.00    -0.348 OA
BRANCH  46  47
ATOM     47  C   UNL     1      -0.371   8.396  -6.009  0.00  0.00    +0.175 C 
BRANCH  47  48
ATOM     48  C   UNL     1      -1.097   7.647  -4.731  0.00  0.00    +0.181 C 
ATOM     49  O   UNL     1      -1.717   8.953  -4.277  0.00  0.00    -0.220 OA
ATOM     50  C   UNL     1      -2.412   7.250  -5.641  0.00  0.00    +0.038 C 
ENDBRANCH  47  48
ENDBRANCH  46  47
ENDBRANCH  45  46
ENDBRANCH  30  45
BRANCH  34  51
ATOM     51  O   UNL     1       2.944   5.693  -9.947  0.00  0.00    -0.348 OA
BRANCH  51  52
ATOM     52  C   UNL     1       3.098   4.883 -11.007  0.00  0.00    +0.175 C 
BRANCH  52  53
ATOM     53  C   UNL     1       3.762   5.764 -12.230  0.00  0.00    +0.181 C 
ATOM     54  O   UNL     1       4.876   4.771 -12.513  0.00  0.00    -0.220 OA
ATOM     55  C   UNL     1       2.786   5.060 -13.357  0.00  0.00    +0.038 C 
ENDBRANCH  52  53
ENDBRANCH  51  52
ENDBRANCH  34  51
ENDBRANCH   1  32
TORSDOF 28
ENDMDL
MODEL 8
REMARK VINA RESULT:      -2.7      1.753      9.438
REMARK  Name = 
REMARK  28 active torsions:
REMARK  status: ('A' for Active; 'I' for Inactive)
REMARK    1  A    between atoms: C_2  and  C_4
REMARK    2  A    between atoms: C_4  and  O_5
REMARK    3  A    between atoms: O_5  and  C_6
REMARK    4  A    between atoms: C_7  and  O_8
REMARK    5  A    between atoms: O_8  and  C_9
REMARK    6  A    between atoms: C_9  and  C_10
REMARK    7  A    between atoms: C_13  and  O_14
REMARK    8  A    between atoms: O_14  and  C_15
REMARK    9  A    between atoms: C_15  and  C_16
REMARK   10  A    between atoms: C_19  and  O_20
REMARK   11  A    between atoms: O_20  and  C_21
REMARK   12  A    between atoms: C_22  and  O_23
REMARK   13  A    between atoms: O_23  and  C_24
REMARK   14  A    between atoms: C_24  and  C_25
REMARK   15  A    between atoms: C_28  and  O_29
REMARK   16  A    between atoms: O_29  and  C_30
REMARK   17  A    between atoms: C_30  and  C_31
REMARK   18  A    between atoms: C_34  and  O_35
REMARK   19  A    between atoms: O_35  and  C_36
REMARK   20  A    between atoms: C_36  and  C_37
REMARK   21  A    between atoms: C_41  and  C_42
REMARK   22  A    between atoms: C_42  and  O_43
REMARK   23  A    between atoms: O_43  and  C_44
REMARK   24  A    between atoms: C_44  and  C_45
REMARK   25  A    between atoms: C_49  and  C_50
REMARK   26  A    between atoms: C_50  and  O_51
REMARK   27  A    between atoms: O_51  and  C_52
REMARK   28  A    between atoms: C_52  and  C_53
REMARK                            x       y       z     vdW  Elec       q    Type
REMARK                         _______ _______ _______ _____ _____    ______ ____
ROOT
ATOM      1  O   UNL     1       3.340   5.831  -7.518  0.00  0.00    -0.326 OA
ENDROOT
BRANCH   1   2
ATOM      2  C   UNL     1       2.030   5.248  -7.173  0.00  0.00    +0.177 C 
ATOM      3  C   UNL     1       1.463   6.043  -5.832  0.00  0.00    +0.177 C 
ATOM      4  O   UNL     1       0.360   6.837  -6.187  0.00  0.00    -0.326 OA
ATOM      5  C   UNL     1       0.971   6.820  -4.737  0.00  0.00    +0.266 C 
ATOM      6  C   UNL     1       1.654   5.234  -4.456  0.00  0.00    +0.201 C 
ATOM      7  C   UNL     1       2.791   4.774  -5.653  0.00  0.00    +0.177 C 
BRANCH   3   8
ATOM      8  C   UNL     1       0.389   4.709  -5.721  0.00  0.00    +0.174 C 
BRANCH   8   9
ATOM      9  O   UNL     1      -0.460   4.679  -6.574  0.00  0.00    -0.348 OA
BRANCH   9  10
ATOM     10  C   UNL     1      -1.702   4.334  -6.767  0.00  0.00    +0.175 C 
BRANCH  10  11
ATOM     11  C   UNL     1      -2.296   5.737  -6.122  0.00  0.00    +0.181 C 
ATOM     12  O   UNL     1      -3.277   5.859  -7.271  0.00  0.00    -0.220 OA
ATOM     13  C   UNL     1      -3.335   4.877  -5.179  0.00  0.00    +0.038 C 
ENDBRANCH  10  11
ENDBRANCH   9  10
ENDBRANCH   8   9
ENDBRANCH   3   8
BRANCH   6  14
ATOM     14  O   UNL     1       2.646   5.881  -3.547  0.00  0.00    -0.346 OA
BRANCH  14  15
ATOM     15  C   UNL     1       2.790   5.343  -2.361  0.00  0.00    +0.175 C 
BRANCH  15  16
ATOM     16  C   UNL     1       2.568   6.652  -1.367  0.00  0.00    +0.181 C 
ATOM     17  O   UNL     1       1.626   5.973  -0.390  0.00  0.00    -0.220 OA
ATOM     18  C   UNL     1       3.861   6.413  -0.366  0.00  0.00    +0.038 C 
ENDBRANCH  15  16
ENDBRANCH  14  15
ENDBRANCH   6  14
BRANCH   7  19
ATOM     19  O   UNL     1       3.778   5.885  -5.533  0.00  0.00    -0.348 OA
BRANCH  19  20
ATOM     20  C   UNL     1       4.851   5.706  -4.989  0.00  0.00    +0.175 C 
BRANCH  20  21
ATOM     21  C   UNL     1       5.963   6.829  -4.763  0.00  0.00    +0.181 C 
ATOM     22  O   UNL     1       4.906   7.931  -4.850  0.00  0.00    -0.220 OA
ATOM     23  C   UNL     1       5.846   6.744  -3.118  0.00  0.00    +0.038 C 
ENDBRANCH  20  21
ENDBRANCH  19  20
ENDBRANCH   7  19
BRANCH   5  24
ATOM     24  O   UNL     1      -0.341   6.300  -4.142  0.00  0.00    -0.326 OA
BRANCH  24  25
ATOM     25  C   UNL     1      -0.588   6.881  -2.994  0.00  0.00    +0.178 C 
BRANCH  25  26
ATOM     26  C   UNL     1      -2.174   7.311  -2.918  0.00  0.00    +0.182 C 
ATOM     27  O   UNL     1      -1.990   8.239  -1.731  0.00  0.00    -0.220 OA
ATOM     28  C   UNL     1      -2.061   8.560  -3.984  0.00  0.00    +0.038 C 
ENDBRANCH  25  26
ENDBRANCH  24  25
ENDBRANCH   5  24
ENDBRANCH   1   2
BRANCH   1  32
ATOM     29  C   UNL     1       2.867   5.782 -11.309  0.00  0.00    +0.174 C 
ATOM     30  C   UNL     1       2.098   5.308  -9.835  0.00  0.00    +0.177 C 
ATOM     31  O   UNL     1       3.198   4.539  -9.236  0.00  0.00    -0.326 OA
ATOM     32  C   UNL     1       4.283   5.236  -8.455  0.00  0.00    +0.266 C 
ATOM     33  C   UNL     1       4.585   6.433  -9.641  0.00  0.00    +0.201 C 
ATOM     34  C   UNL     1       4.425   5.259 -10.879  0.00  0.00    +0.177 C 
BRANCH  29  35
ATOM     35  O   UNL     1       2.482   4.578 -12.094  0.00  0.00    -0.348 OA
BRANCH  35  36
ATOM     36  C   UNL     1       2.124   4.830 -13.300  0.00  0.00    +0.175 C 
BRANCH  36  38
ATOM     37  C   UNL     1       0.288   5.322 -14.855  0.00  0.00    +0.038 C 
ATOM     38  C   UNL     1       0.600   4.284 -13.608  0.00  0.00    +0.181 C 
ATOM     39  O   UNL     1       1.076   3.210 -14.569  0.00  0.00    -0.220 OA
ENDBRANCH  36  38
ENDBRANCH  35  36
ENDBRANCH  29  35
BRANCH  33  40
ATOM     40  O   UNL     1       6.050   6.171  -9.475  0.00  0.00    -0.346 OA
BRANCH  40  41
ATOM     41  C   UNL     1       6.798   7.150 -10.028  0.00  0.00    +0.175 C 
BRANCH  41  42
ATOM     42  C   UNL     1       8.394   6.812  -9.861  0.00  0.00    +0.181 C 
ATOM     43  O   UNL     1       8.109   5.399  -9.377  0.00  0.00    -0.220 OA
ATOM     44  C   UNL     1       8.503   6.323 -11.431  0.00  0.00    +0.038 C 
ENDBRANCH  41  42
ENDBRANCH  40  41
ENDBRANCH  33  40
BRANCH  30  45
ATOM     45  C   UNL     1       2.339   6.843  -9.365  0.00  0.00    +0.174 C 
BRANCH  45  46
ATOM     46  O   UNL     1       1.307   7.614  -9.418  0.00  0.00    -0.348 OA
BRANCH  46  47
ATOM     47  C   UNL     1       0.050   7.195  -9.600  0.00  0.00    +0.175 C 
BRANCH  47  48
ATOM     48  C   UNL     1       0.130   7.127 -11.247  0.00  0.00    +0.181 C 
ATOM     49  O   UNL     1      -0.653   5.829 -11.263  0.00  0.00    -0.220 OA
ATOM     50  C   UNL     1      -1.234   8.040 -11.404  0.00  0.00    +0.038 C 
ENDBRANCH  47  48
ENDBRANCH  46  47
ENDBRANCH  45  46
ENDBRANCH  30  45
BRANCH  34  51
ATOM     51  O   UNL     1       5.049   6.140 -11.909  0.00  0.00    -0.348 OA
BRANCH  51  52
ATOM     52  C   UNL     1       5.581   5.414 -12.906  0.00  0.00    +0.175 C 
BRANCH  52  53
ATOM     53  C   UNL     1       6.263   6.454 -13.985  0.00  0.00    +0.181 C 
ATOM     54  O   UNL     1       7.014   5.374 -14.746  0.00  0.00    -0.220 OA
ATOM     55  C   UNL     1       4.975   6.343 -15.009  0.00  0.00    +0.038 C 
ENDBRANCH  52  53
ENDBRANCH  51  52
ENDBRANCH  34  51
ENDBRANCH   1  32
TORSDOF 28
ENDMDL
MODEL 9
REMARK VINA RESULT:      -2.4      2.033      8.870
REMARK  Name = 
REMARK  28 active torsions:
REMARK  status: ('A' for Active; 'I' for Inactive)
REMARK    1  A    between atoms: C_2  and  C_4
REMARK    2  A    between atoms: C_4  and  O_5
REMARK    3  A    between atoms: O_5  and  C_6
REMARK    4  A    between atoms: C_7  and  O_8
REMARK    5  A    between atoms: O_8  and  C_9
REMARK    6  A    between atoms: C_9  and  C_10
REMARK    7  A    between atoms: C_13  and  O_14
REMARK    8  A    between atoms: O_14  and  C_15
REMARK    9  A    between atoms: C_15  and  C_16
REMARK   10  A    between atoms: C_19  and  O_20
REMARK   11  A    between atoms: O_20  and  C_21
REMARK   12  A    between atoms: C_22  and  O_23
REMARK   13  A    between atoms: O_23  and  C_24
REMARK   14  A    between atoms: C_24  and  C_25
REMARK   15  A    between atoms: C_28  and  O_29
REMARK   16  A    between atoms: O_29  and  C_30
REMARK   17  A    between atoms: C_30  and  C_31
REMARK   18  A    between atoms: C_34  and  O_35
REMARK   19  A    between atoms: O_35  and  C_36
REMARK   20  A    between atoms: C_36  and  C_37
REMARK   21  A    between atoms: C_41  and  C_42
REMARK   22  A    between atoms: C_42  and  O_43
REMARK   23  A    between atoms: O_43  and  C_44
REMARK   24  A    between atoms: C_44  and  C_45
REMARK   25  A    between atoms: C_49  and  C_50
REMARK   26  A    between atoms: C_50  and  O_51
REMARK   27  A    between atoms: O_51  and  C_52
REMARK   28  A    between atoms: C_52  and  C_53
REMARK                            x       y       z     vdW  Elec       q    Type
REMARK                         _______ _______ _______ _____ _____    ______ ____
ROOT
ATOM      1  O   UNL     1       1.775   6.866  -5.956  0.00  0.00    -0.326 OA
ENDROOT
BRANCH   1   2
ATOM      2  C   UNL     1       0.577   6.145  -5.489  0.00  0.00    +0.177 C 
ATOM      3  C   UNL     1       0.031   6.908  -4.121  0.00  0.00    +0.177 C 
ATOM      4  O   UNL     1      -1.184   7.557  -4.397  0.00  0.00    -0.326 OA
ATOM      5  C   UNL     1      -0.458   7.655  -3.004  0.00  0.00    +0.266 C 
ATOM      6  C   UNL     1       0.430   6.169  -2.750  0.00  0.00    +0.201 C 
ATOM      7  C   UNL     1       1.512   5.809  -4.030  0.00  0.00    +0.177 C 
BRANCH   3   8
ATOM      8  C   UNL     1      -0.863   5.461  -3.892  0.00  0.00    +0.174 C 
BRANCH   8   9
ATOM      9  O   UNL     1      -1.810   5.339  -4.626  0.00  0.00    -0.348 OA
BRANCH   9  10
ATOM     10  C   UNL     1      -3.048   4.928  -4.636  0.00  0.00    +0.175 C 
BRANCH  10  11
ATOM     11  C   UNL     1      -3.244   5.247  -6.247  0.00  0.00    +0.181 C 
ATOM     12  O   UNL     1      -2.869   6.696  -6.014  0.00  0.00    -0.220 OA
ATOM     13  C   UNL     1      -1.695   4.775  -6.542  0.00  0.00    +0.038 C 
ENDBRANCH  10  11
ENDBRANCH   9  10
ENDBRANCH   8   9
ENDBRANCH   3   8
BRANCH   6  14
ATOM     14  O   UNL     1       1.409   6.955  -1.943  0.00  0.00    -0.346 OA
BRANCH  14  15
ATOM     15  C   UNL     1       1.770   6.435  -0.795  0.00  0.00    +0.175 C 
BRANCH  15  16
ATOM     16  C   UNL     1       2.122   7.792   0.093  0.00  0.00    +0.181 C 
ATOM     17  O   UNL     1       1.493   7.321   1.391  0.00  0.00    -0.220 OA
ATOM     18  C   UNL     1       3.632   7.354   0.607  0.00  0.00    +0.038 C 
ENDBRANCH  15  16
ENDBRANCH  14  15
ENDBRANCH   6  14
BRANCH   7  19
ATOM     19  O   UNL     1       2.365   7.031  -4.018  0.00  0.00    -0.348 OA
BRANCH  19  20
ATOM     20  C   UNL     1       3.487   6.999  -3.548  0.00  0.00    +0.175 C 
BRANCH  20  21
ATOM     21  C   UNL     1       4.315   8.276  -3.065  0.00  0.00    +0.181 C 
ATOM     22  O   UNL     1       5.108   7.422  -2.076  0.00  0.00    -0.220 OA
ATOM     23  C   UNL     1       5.454   8.098  -4.248  0.00  0.00    +0.038 C 
ENDBRANCH  20  21
ENDBRANCH  19  20
ENDBRANCH   7  19
BRANCH   5  24
ATOM     24  O   UNL     1      -1.645   7.003  -2.289  0.00  0.00    -0.326 OA
BRANCH  24  25
ATOM     25  C   UNL     1      -2.217   7.856  -1.475  0.00  0.00    +0.178 C 
BRANCH  25  26
ATOM     26  C   UNL     1      -1.491   7.793  -0.001  0.00  0.00    +0.182 C 
ATOM     27  O   UNL     1      -2.755   8.123   0.771  0.00  0.00    -0.220 OA
ATOM     28  C   UNL     1      -1.708   6.177   0.224  0.00  0.00    +0.038 C 
ENDBRANCH  25  26
ENDBRANCH  24  25
ENDBRANCH   5  24
ENDBRANCH   1   2
BRANCH   1  32
ATOM     29  C   UNL     1       4.420   5.689  -8.449  0.00  0.00    +0.174 C 
ATOM     30  C   UNL     1       4.243   6.330  -6.853  0.00  0.00    +0.177 C 
ATOM     31  O   UNL     1       3.434   7.515  -7.168  0.00  0.00    -0.326 OA
ATOM     32  C   UNL     1       1.936   7.408  -7.299  0.00  0.00    +0.266 C 
ATOM     33  C   UNL     1       1.968   6.056  -8.350  0.00  0.00    +0.201 C 
ATOM     34  C   UNL     1       3.301   6.730  -9.190  0.00  0.00    +0.177 C 
BRANCH  29  35
ATOM     35  O   UNL     1       5.644   6.457  -8.804  0.00  0.00    -0.348 OA
BRANCH  35  36
ATOM     36  C   UNL     1       6.552   5.760  -9.383  0.00  0.00    +0.175 C 
BRANCH  36  38
ATOM     37  C   UNL     1       8.094   5.753 -11.293  0.00  0.00    +0.038 C 
ATOM     38  C   UNL     1       7.754   6.709  -9.990  0.00  0.00    +0.181 C 
ATOM     39  O   UNL     1       6.800   7.558 -10.811  0.00  0.00    -0.220 OA
ENDBRANCH  36  38
ENDBRANCH  35  36
ENDBRANCH  29  35
BRANCH  33  40
ATOM     40  O   UNL     1       0.968   6.756  -9.216  0.00  0.00    -0.346 OA
BRANCH  40  41
ATOM     41  C   UNL     1      -0.107   5.978  -9.465  0.00  0.00    +0.175 C 
BRANCH  41  42
ATOM     42  C   UNL     1      -0.749   6.344 -10.931  0.00  0.00    +0.181 C 
ATOM     43  O   UNL     1       0.392   7.291 -11.265  0.00  0.00    -0.220 OA
ATOM     44  C   UNL     1       0.017   5.066 -11.636  0.00  0.00    +0.038 C 
ENDBRANCH  41  42
ENDBRANCH  40  41
ENDBRANCH  33  40
BRANCH  30  45
ATOM     45  C   UNL     1       3.175   5.128  -6.626  0.00  0.00    +0.174 C 
BRANCH  45  46
ATOM     46  O   UNL     1       3.635   4.073  -6.045  0.00  0.00    -0.348 OA
BRANCH  46  47
ATOM     47  C   UNL     1       3.469   3.780  -4.750  0.00  0.00    +0.175 C 
BRANCH  47  48
ATOM     48  C   UNL     1       4.782   4.624  -4.216  0.00  0.00    +0.181 C 
ATOM     49  O   UNL     1       4.425   4.328  -2.773  0.00  0.00    -0.220 OA
ATOM     50  C   UNL     1       5.750   3.295  -4.330  0.00  0.00    +0.038 C 
ENDBRANCH  47  48
ENDBRANCH  46  47
ENDBRANCH  45  46
ENDBRANCH  30  45
BRANCH  34  51
ATOM     51  O   UNL     1       3.145   5.803 -10.348  0.00  0.00    -0.348 OA
BRANCH  51  52
ATOM     52  C   UNL     1       3.537   6.390 -11.491  0.00  0.00    +0.175 C 
BRANCH  52  53
ATOM     53  C   UNL     1       3.551   5.244 -12.673  0.00  0.00    +0.181 C 
ATOM     54  O   UNL     1       2.756   6.074 -13.667  0.00  0.00    -0.220 OA
ATOM     55  C   UNL     1       4.979   5.796 -13.285  0.00  0.00    +0.038 C 
ENDBRANCH  52  53
ENDBRANCH  51  52
ENDBRANCH  34  51
ENDBRANCH   1  32
TORSDOF 28
ENDMDL
