MODEL 1
REMARK VINA RESULT:      -7.7      0.000      0.000
REMARK  Name = 
REMARK  4 active torsions:
REMARK  status: ('A' for Active; 'I' for Inactive)
REMARK    1  A    between atoms: C_2  and  C_4
REMARK    2  A    between atoms: C_4  and  C_5
REMARK    3  A    between atoms: C_9  and  C_10
REMARK    4  A    between atoms: C_10  and  C_12
REMARK                            x       y       z     vdW  Elec       q    Type
REMARK                         _______ _______ _______ _____ _____    ______ ____
ROOT
ATOM      1  C   UNL     1      -1.457   6.549  -4.579  0.00  0.00    +0.004 A 
ATOM      2  C   UNL     1      -0.226   6.039  -4.961  0.00  0.00    +0.089 A 
ATOM      3  N   UNL     1       0.894   6.422  -4.156  0.00  0.00    -0.128 NA
ATOM      4  C   UNL     1      -0.067   5.329  -6.147  0.00  0.00    +0.055 A 
ATOM      5  C   UNL     1      -1.213   5.010  -6.859  0.00  0.00    +0.005 A 
ATOM      6  C   UNL     1      -2.319   5.818  -6.653  0.00  0.00    -0.000 A 
ATOM      7  C   UNL     1      -2.456   6.630  -5.543  0.00  0.00    -0.002 A 
ENDROOT
BRANCH   4   8
ATOM      8  C   UNL     1       1.248   4.784  -6.499  0.00  0.00    +0.197 C 
ATOM      9  O   UNL     1       1.508   3.601  -6.124  0.00  0.00    -0.287 OA
BRANCH   8  10
ATOM     10  C   UNL     1       1.992   5.261  -7.662  0.00  0.00    +0.039 A 
ATOM     11  C   UNL     1       2.751   4.302  -8.321  0.00  0.00    +0.003 A 
ATOM     12  C   UNL     1       3.691   4.705  -9.261  0.00  0.00    +0.000 A 
ATOM     13  C   UNL     1       3.704   6.023  -9.700  0.00  0.00    +0.000 A 
ATOM     14  C   UNL     1       3.077   6.943  -8.872  0.00  0.00    +0.000 A 
ATOM     15  C   UNL     1       2.542   6.539  -7.653  0.00  0.00    +0.003 A 
ENDBRANCH   8  10
ENDBRANCH   4   8
BRANCH   1  16
ATOM     16  C   UNL     1      -1.722   6.806  -3.134  0.00  0.00    +0.116 C 
BRANCH  16  18
ATOM     17  N   UNL     1      -1.190   5.432  -1.130  0.00  0.00    -0.087 NA
ATOM     18  C   UNL     1      -1.833   5.509  -2.400  0.00  0.00    +0.265 C 
ATOM     19  O   UNL     1      -2.883   4.819  -2.547  0.00  0.00    -0.271 OA
ENDBRANCH  16  18
ENDBRANCH   1  16
TORSDOF 4
ENDMDL
MODEL 2
REMARK VINA RESULT:      -7.6      4.976      8.704
REMARK  Name = 
REMARK  4 active torsions:
REMARK  status: ('A' for Active; 'I' for Inactive)
REMARK    1  A    between atoms: C_2  and  C_4
REMARK    2  A    between atoms: C_4  and  C_5
REMARK    3  A    between atoms: C_9  and  C_10
REMARK    4  A    between atoms: C_10  and  C_12
REMARK                            x       y       z     vdW  Elec       q    Type
REMARK                         _______ _______ _______ _____ _____    ______ ____
ROOT
ATOM      1  C   UNL     1       6.392   6.755 -11.347  0.00  0.00    +0.004 A 
ATOM      2  C   UNL     1       5.278   6.225 -10.712  0.00  0.00    +0.089 A 
ATOM      3  N   UNL     1       4.013   6.511 -11.316  0.00  0.00    -0.128 NA
ATOM      4  C   UNL     1       5.376   5.593  -9.477  0.00  0.00    +0.055 A 
ATOM      5  C   UNL     1       6.647   5.365  -8.974  0.00  0.00    +0.005 A 
ATOM      6  C   UNL     1       7.655   6.198  -9.429  0.00  0.00    -0.000 A 
ATOM      7  C   UNL     1       7.546   6.937 -10.592  0.00  0.00    -0.002 A 
ENDROOT
BRANCH   4   8
ATOM      8  C   UNL     1       4.176   5.024  -8.855  0.00  0.00    +0.197 C 
ATOM      9  O   UNL     1       3.918   3.805  -9.091  0.00  0.00    -0.287 OA
BRANCH   8  10
ATOM     10  C   UNL     1       3.626   5.561  -7.613  0.00  0.00    +0.039 A 
ATOM     11  C   UNL     1       2.650   6.539  -7.765  0.00  0.00    +0.003 A 
ATOM     12  C   UNL     1       2.265   7.293  -6.663  0.00  0.00    +0.000 A 
ATOM     13  C   UNL     1       2.678   6.916  -5.391  0.00  0.00    +0.000 A 
ATOM     14  C   UNL     1       3.785   6.081  -5.338  0.00  0.00    +0.000 A 
ATOM     15  C   UNL     1       4.452   5.724  -6.505  0.00  0.00    +0.003 A 
ENDBRANCH   8  10
ENDBRANCH   4   8
BRANCH   1  16
ATOM     16  C   UNL     1       6.374   6.923 -12.828  0.00  0.00    +0.116 C 
BRANCH  16  18
ATOM     17  N   UNL     1       7.740   4.863 -13.114  0.00  0.00    -0.087 NA
ATOM     18  C   UNL     1       6.578   5.599 -13.491  0.00  0.00    +0.265 C 
ATOM     19  O   UNL     1       5.561   4.923 -13.818  0.00  0.00    -0.271 OA
ENDBRANCH  16  18
ENDBRANCH   1  16
TORSDOF 4
ENDMDL
MODEL 3
REMARK VINA RESULT:      -7.4      2.758      4.437
REMARK  Name = 
REMARK  4 active torsions:
REMARK  status: ('A' for Active; 'I' for Inactive)
REMARK    1  A    between atoms: C_2  and  C_4
REMARK    2  A    between atoms: C_4  and  C_5
REMARK    3  A    between atoms: C_9  and  C_10
REMARK    4  A    between atoms: C_10  and  C_12
REMARK                            x       y       z     vdW  Elec       q    Type
REMARK                         _______ _______ _______ _____ _____    ______ ____
ROOT
ATOM      1  C   UNL     1       1.755   5.522  -6.868  0.00  0.00    +0.004 A 
ATOM      2  C   UNL     1       2.419   5.182  -8.037  0.00  0.00    +0.089 A 
ATOM      3  N   UNL     1       2.690   3.790  -8.227  0.00  0.00    -0.128 NA
ATOM      4  C   UNL     1       2.931   6.152  -8.893  0.00  0.00    +0.055 A 
ATOM      5  C   UNL     1       2.617   7.474  -8.621  0.00  0.00    +0.005 A 
ATOM      6  C   UNL     1       2.291   7.780  -7.310  0.00  0.00    -0.000 A 
ATOM      7  C   UNL     1       1.893   6.823  -6.396  0.00  0.00    -0.002 A 
ENDROOT
BRANCH   4   8
ATOM      8  C   UNL     1       3.603   5.747 -10.132  0.00  0.00    +0.197 C 
ATOM      9  O   UNL     1       2.879   5.574 -11.158  0.00  0.00    -0.287 OA
BRANCH   8  10
ATOM     10  C   UNL     1       5.003   6.074 -10.389  0.00  0.00    +0.039 A 
ATOM     11  C   UNL     1       5.916   5.553  -9.480  0.00  0.00    +0.003 A 
ATOM     12  C   UNL     1       7.223   6.022  -9.482  0.00  0.00    +0.000 A 
ATOM     13  C   UNL     1       7.665   6.825 -10.527  0.00  0.00    +0.000 A 
ATOM     14  C   UNL     1       6.674   7.456 -11.265  0.00  0.00    +0.000 A 
ATOM     15  C   UNL     1       5.338   7.322 -10.905  0.00  0.00    +0.003 A 
ENDBRANCH   8  10
ENDBRANCH   4   8
BRANCH   1  16
ATOM     16  C   UNL     1       0.782   4.559  -6.277  0.00  0.00    +0.116 C 
BRANCH  16  18
ATOM     17  N   UNL     1      -1.559   5.204  -6.818  0.00  0.00    -0.087 NA
ATOM     18  C   UNL     1      -0.473   5.276  -5.896  0.00  0.00    +0.265 C 
ATOM     19  O   UNL     1      -0.774   5.358  -4.671  0.00  0.00    -0.271 OA
ENDBRANCH  16  18
ENDBRANCH   1  16
TORSDOF 4
ENDMDL
MODEL 4
REMARK VINA RESULT:      -6.9      2.308      3.241
REMARK  Name = 
REMARK  4 active torsions:
REMARK  status: ('A' for Active; 'I' for Inactive)
REMARK    1  A    between atoms: C_2  and  C_4
REMARK    2  A    between atoms: C_4  and  C_5
REMARK    3  A    between atoms: C_9  and  C_10
REMARK    4  A    between atoms: C_10  and  C_12
REMARK                            x       y       z     vdW  Elec       q    Type
REMARK                         _______ _______ _______ _____ _____    ______ ____
ROOT
ATOM      1  C   UNL     1      -0.286   5.334  -6.031  0.00  0.00    +0.004 A 
ATOM      2  C   UNL     1       0.444   5.937  -7.044  0.00  0.00    +0.089 A 
ATOM      3  N   UNL     1      -0.012   5.697  -8.379  0.00  0.00    -0.128 NA
ATOM      4  C   UNL     1       1.639   6.600  -6.785  0.00  0.00    +0.055 A 
ATOM      5  C   UNL     1       1.997   6.778  -5.458  0.00  0.00    +0.005 A 
ATOM      6  C   UNL     1       1.466   5.882  -4.544  0.00  0.00    -0.000 A 
ATOM      7  C   UNL     1       0.348   5.116  -4.812  0.00  0.00    -0.002 A 
ENDROOT
BRANCH   4   8
ATOM      8  C   UNL     1       2.365   7.247  -7.883  0.00  0.00    +0.197 C 
ATOM      9  O   UNL     1       2.197   8.493  -8.039  0.00  0.00    -0.287 OA
BRANCH   8  10
ATOM     10  C   UNL     1       3.619   6.704  -8.400  0.00  0.00    +0.039 A 
ATOM     11  C   UNL     1       3.872   6.958  -9.743  0.00  0.00    +0.003 A 
ATOM     12  C   UNL     1       4.890   6.267 -10.387  0.00  0.00    +0.000 A 
ATOM     13  C   UNL     1       5.786   5.510  -9.643  0.00  0.00    +0.000 A 
ATOM     14  C   UNL     1       5.361   5.144  -8.373  0.00  0.00    +0.000 A 
ATOM     15  C   UNL     1       4.082   5.476  -7.939  0.00  0.00    +0.003 A 
ENDBRANCH   8  10
ENDBRANCH   4   8
BRANCH   1  16
ATOM     16  C   UNL     1      -1.751   5.123  -6.216  0.00  0.00    +0.116 C 
BRANCH  16  18
ATOM     17  N   UNL     1      -2.909   5.380  -4.029  0.00  0.00    -0.087 NA
ATOM     18  C   UNL     1      -2.512   5.983  -5.260  0.00  0.00    +0.265 C 
ATOM     19  O   UNL     1      -2.260   7.222  -5.229  0.00  0.00    -0.271 OA
ENDBRANCH  16  18
ENDBRANCH   1  16
TORSDOF 4
ENDMDL
MODEL 5
REMARK VINA RESULT:      -6.9      4.749      8.548
REMARK  Name = 
REMARK  4 active torsions:
REMARK  status: ('A' for Active; 'I' for Inactive)
REMARK    1  A    between atoms: C_2  and  C_4
REMARK    2  A    between atoms: C_4  and  C_5
REMARK    3  A    between atoms: C_9  and  C_10
REMARK    4  A    between atoms: C_10  and  C_12
REMARK                            x       y       z     vdW  Elec       q    Type
REMARK                         _______ _______ _______ _____ _____    ______ ____
ROOT
ATOM      1  C   UNL     1       6.762   6.328 -10.231  0.00  0.00    +0.004 A 
ATOM      2  C   UNL     1       5.433   6.713 -10.334  0.00  0.00    +0.089 A 
ATOM      3  N   UNL     1       5.176   7.894 -11.100  0.00  0.00    -0.128 NA
ATOM      4  C   UNL     1       4.433   6.081  -9.603  0.00  0.00    +0.055 A 
ATOM      5  C   UNL     1       4.784   4.946  -8.888  0.00  0.00    +0.005 A 
ATOM      6  C   UNL     1       6.116   4.824  -8.528  0.00  0.00    -0.000 A 
ATOM      7  C   UNL     1       7.127   5.530  -9.153  0.00  0.00    -0.002 A 
ENDROOT
BRANCH   4   8
ATOM      8  C   UNL     1       3.038   6.502  -9.763  0.00  0.00    +0.197 C 
ATOM      9  O   UNL     1       2.496   6.310 -10.893  0.00  0.00    -0.287 OA
BRANCH   8  10
ATOM     10  C   UNL     1       2.125   6.585  -8.626  0.00  0.00    +0.039 A 
ATOM     11  C   UNL     1       2.631   7.220  -7.498  0.00  0.00    +0.003 A 
ATOM     12  C   UNL     1       1.949   7.114  -6.293  0.00  0.00    +0.000 A 
ATOM     13  C   UNL     1       0.666   6.580  -6.272  0.00  0.00    +0.000 A 
ATOM     14  C   UNL     1       0.318   5.799  -7.366  0.00  0.00    +0.000 A 
ATOM     15  C   UNL     1       1.250   5.536  -8.364  0.00  0.00    +0.003 A 
ENDBRANCH   8  10
ENDBRANCH   4   8
BRANCH   1  16
ATOM     16  C   UNL     1       7.692   6.615 -11.361  0.00  0.00    +0.116 C 
BRANCH  16  18
ATOM     17  N   UNL     1       7.292   6.246 -13.788  0.00  0.00    -0.087 NA
ATOM     18  C   UNL     1       7.427   5.672 -12.489  0.00  0.00    +0.265 C 
ATOM     19  O   UNL     1       7.916   4.508 -12.432  0.00  0.00    -0.271 OA
ENDBRANCH  16  18
ENDBRANCH   1  16
TORSDOF 4
ENDMDL
MODEL 6
REMARK VINA RESULT:      -6.8      2.869      4.154
REMARK  Name = 
REMARK  4 active torsions:
REMARK  status: ('A' for Active; 'I' for Inactive)
REMARK    1  A    between atoms: C_2  and  C_4
REMARK    2  A    between atoms: C_4  and  C_5
REMARK    3  A    between atoms: C_9  and  C_10
REMARK    4  A    between atoms: C_10  and  C_12
REMARK                            x       y       z     vdW  Elec       q    Type
REMARK                         _______ _______ _______ _____ _____    ______ ____
ROOT
ATOM      1  C   UNL     1       2.551   6.832  -6.146  0.00  0.00    +0.004 A 
ATOM      2  C   UNL     1       3.513   6.132  -6.860  0.00  0.00    +0.089 A 
ATOM      3  N   UNL     1       4.722   5.828  -6.158  0.00  0.00    -0.128 NA
ATOM      4  C   UNL     1       3.372   5.883  -8.221  0.00  0.00    +0.055 A 
ATOM      5  C   UNL     1       2.163   6.218  -8.810  0.00  0.00    +0.005 A 
ATOM      6  C   UNL     1       1.417   7.203  -8.185  0.00  0.00    -0.000 A 
ATOM      7  C   UNL     1       1.611   7.562  -6.865  0.00  0.00    -0.002 A 
ENDROOT
BRANCH   4   8
ATOM      8  C   UNL     1       4.401   5.115  -8.931  0.00  0.00    +0.197 C 
ATOM      9  O   UNL     1       4.141   3.903  -9.201  0.00  0.00    -0.287 OA
BRANCH   8  10
ATOM     10  C   UNL     1       5.385   5.763  -9.793  0.00  0.00    +0.039 A 
ATOM     11  C   UNL     1       6.702   5.692  -9.356  0.00  0.00    +0.003 A 
ATOM     12  C   UNL     1       7.663   6.496  -9.956  0.00  0.00    +0.000 A 
ATOM     13  C   UNL     1       7.356   7.181 -11.124  0.00  0.00    +0.000 A 
ATOM     14  C   UNL     1       6.004   7.366 -11.380  0.00  0.00    +0.000 A 
ATOM     15  C   UNL     1       5.052   6.937 -10.461  0.00  0.00    +0.003 A 
ENDBRANCH   8  10
ENDBRANCH   4   8
BRANCH   1  16
ATOM     16  C   UNL     1       2.443   6.624  -4.674  0.00  0.00    +0.116 C 
BRANCH  16  18
ATOM     17  N   UNL     1       0.999   4.650  -5.128  0.00  0.00    -0.087 NA
ATOM     18  C   UNL     1       1.214   5.834  -4.362  0.00  0.00    +0.265 C 
ATOM     19  O   UNL     1       0.786   5.824  -3.172  0.00  0.00    -0.271 OA
ENDBRANCH  16  18
ENDBRANCH   1  16
TORSDOF 4
ENDMDL
MODEL 7
REMARK VINA RESULT:      -6.8      2.366      2.482
REMARK  Name = 
REMARK  4 active torsions:
REMARK  status: ('A' for Active; 'I' for Inactive)
REMARK    1  A    between atoms: C_2  and  C_4
REMARK    2  A    between atoms: C_4  and  C_5
REMARK    3  A    between atoms: C_9  and  C_10
REMARK    4  A    between atoms: C_10  and  C_12
REMARK                            x       y       z     vdW  Elec       q    Type
REMARK                         _______ _______ _______ _____ _____    ______ ____
ROOT
ATOM      1  C   UNL     1      -0.599   6.632  -4.875  0.00  0.00    +0.004 A 
ATOM      2  C   UNL     1       0.250   6.390  -5.945  0.00  0.00    +0.089 A 
ATOM      3  N   UNL     1       1.526   7.038  -5.897  0.00  0.00    -0.128 NA
ATOM      4  C   UNL     1      -0.175   5.691  -7.069  0.00  0.00    +0.055 A 
ATOM      5  C   UNL     1      -1.430   5.103  -7.020  0.00  0.00    +0.005 A 
ATOM      6  C   UNL     1      -2.342   5.657  -6.137  0.00  0.00    -0.000 A 
ATOM      7  C   UNL     1      -1.964   6.458  -5.076  0.00  0.00    -0.002 A 
ENDROOT
BRANCH   4   8
ATOM      8  C   UNL     1       0.765   5.434  -8.166  0.00  0.00    +0.197 C 
ATOM      9  O   UNL     1       1.671   4.571  -7.966  0.00  0.00    -0.287 OA
BRANCH   8  10
ATOM     10  C   UNL     1       0.398   5.661  -9.561  0.00  0.00    +0.039 A 
ATOM     11  C   UNL     1       0.553   4.568 -10.406  0.00  0.00    +0.003 A 
ATOM     12  C   UNL     1       0.489   4.756 -11.780  0.00  0.00    +0.000 A 
ATOM     13  C   UNL     1       0.046   5.970 -12.291  0.00  0.00    +0.000 A 
ATOM     14  C   UNL     1       0.107   7.050 -11.421  0.00  0.00    +0.000 A 
ATOM     15  C   UNL     1       0.650   6.896 -10.149  0.00  0.00    +0.003 A 
ENDBRANCH   8  10
ENDBRANCH   4   8
BRANCH   1  16
ATOM     16  C   UNL     1      -0.017   6.877  -3.525  0.00  0.00    +0.116 C 
BRANCH  16  18
ATOM     17  N   UNL     1       1.708   5.498  -2.379  0.00  0.00    -0.087 NA
ATOM     18  C   UNL     1       0.384   5.579  -2.903  0.00  0.00    +0.265 C 
ATOM     19  O   UNL     1      -0.500   4.891  -2.316  0.00  0.00    -0.271 OA
ENDBRANCH  16  18
ENDBRANCH   1  16
TORSDOF 4
ENDMDL
MODEL 8
REMARK VINA RESULT:      -6.7      2.652      6.627
REMARK  Name = 
REMARK  4 active torsions:
REMARK  status: ('A' for Active; 'I' for Inactive)
REMARK    1  A    between atoms: C_2  and  C_4
REMARK    2  A    between atoms: C_4  and  C_5
REMARK    3  A    between atoms: C_9  and  C_10
REMARK    4  A    between atoms: C_10  and  C_12
REMARK                            x       y       z     vdW  Elec       q    Type
REMARK                         _______ _______ _______ _____ _____    ______ ____
ROOT
ATOM      1  C   UNL     1       2.843   5.438  -8.362  0.00  0.00    +0.004 A 
ATOM      2  C   UNL     1       2.297   5.084  -7.136  0.00  0.00    +0.089 A 
ATOM      3  N   UNL     1       2.102   3.684  -6.913  0.00  0.00    -0.128 NA
ATOM      4  C   UNL     1       1.821   6.042  -6.247  0.00  0.00    +0.055 A 
ATOM      5  C   UNL     1       2.055   7.373  -6.556  0.00  0.00    +0.005 A 
ATOM      6  C   UNL     1       2.253   7.677  -7.893  0.00  0.00    -0.000 A 
ATOM      7  C   UNL     1       2.610   6.726  -8.830  0.00  0.00    -0.002 A 
ENDROOT
BRANCH   4   8
ATOM      8  C   UNL     1       1.277   5.625  -4.951  0.00  0.00    +0.197 C 
ATOM      9  O   UNL     1       2.086   5.542  -3.978  0.00  0.00    -0.287 OA
BRANCH   8  10
ATOM     10  C   UNL     1      -0.122   5.849  -4.597  0.00  0.00    +0.039 A 
ATOM     11  C   UNL     1      -0.484   5.456  -3.314  0.00  0.00    +0.003 A 
ATOM     12  C   UNL     1      -1.831   5.379  -2.980  0.00  0.00    +0.000 A 
ATOM     13  C   UNL     1      -2.785   5.910  -3.839  0.00  0.00    +0.000 A 
ATOM     14  C   UNL     1      -2.381   6.091  -5.155  0.00  0.00    +0.000 A 
ATOM     15  C   UNL     1      -1.113   5.688  -5.560  0.00  0.00    +0.003 A 
ENDBRANCH   8  10
ENDBRANCH   4   8
BRANCH   1  16
ATOM     16  C   UNL     1       3.800   4.509  -9.027  0.00  0.00    +0.116 C 
BRANCH  16  18
ATOM     17  N   UNL     1       6.084   5.494  -8.984  0.00  0.00    -0.087 NA
ATOM     18  C   UNL     1       4.874   5.291  -9.711  0.00  0.00    +0.265 C 
ATOM     19  O   UNL     1       4.976   5.207 -10.969  0.00  0.00    -0.271 OA
ENDBRANCH  16  18
ENDBRANCH   1  16
TORSDOF 4
ENDMDL
MODEL 9
REMARK VINA RESULT:      -6.7      3.723      7.485
REMARK  Name = 
REMARK  4 active torsions:
REMARK  status: ('A' for Active; 'I' for Inactive)
REMARK    1  A    between atoms: C_2  and  C_4
REMARK    2  A    between atoms: C_4  and  C_5
REMARK    3  A    between atoms: C_9  and  C_10
REMARK    4  A    between atoms: C_10  and  C_12
REMARK                            x       y       z     vdW  Elec       q    Type
REMARK                         _______ _______ _______ _____ _____    ______ ____
ROOT
ATOM      1  C   UNL     1       5.201   5.503  -9.560  0.00  0.00    +0.004 A 
ATOM      2  C   UNL     1       4.361   6.045  -8.598  0.00  0.00    +0.089 A 
ATOM      3  N   UNL     1       4.749   5.842  -7.236  0.00  0.00    -0.128 NA
ATOM      4  C   UNL     1       3.136   6.610  -8.936  0.00  0.00    +0.055 A 
ATOM      5  C   UNL     1       2.851   6.759 -10.284  0.00  0.00    +0.005 A 
ATOM      6  C   UNL     1       3.508   5.909 -11.157  0.00  0.00    -0.000 A 
ATOM      7  C   UNL     1       4.665   5.235 -10.815  0.00  0.00    -0.002 A 
ENDROOT
BRANCH   4   8
ATOM      8  C   UNL     1       2.292   7.196  -7.889  0.00  0.00    +0.197 C 
ATOM      9  O   UNL     1       2.126   8.453  -7.910  0.00  0.00    -0.287 OA
BRANCH   8  10
ATOM     10  C   UNL     1       1.242   6.426  -7.227  0.00  0.00    +0.039 A 
ATOM     11  C   UNL     1       0.343   5.790  -8.075  0.00  0.00    +0.003 A 
ATOM     12  C   UNL     1      -0.830   5.263  -7.551  0.00  0.00    +0.000 A 
ATOM     13  C   UNL     1      -0.989   5.169  -6.173  0.00  0.00    +0.000 A 
ATOM     14  C   UNL     1      -0.167   5.990  -5.413  0.00  0.00    +0.000 A 
ATOM     15  C   UNL     1       0.697   6.886  -6.033  0.00  0.00    +0.003 A 
ENDBRANCH   8  10
ENDBRANCH   4   8
BRANCH   1  16
ATOM     16  C   UNL     1       6.663   5.410  -9.281  0.00  0.00    +0.116 C 
BRANCH  16  18
ATOM     17  N   UNL     1       8.168   5.590 -11.254  0.00  0.00    -0.087 NA
ATOM     18  C   UNL     1       7.418   6.266 -10.246  0.00  0.00    +0.265 C 
ATOM     19  O   UNL     1       6.940   7.394 -10.556  0.00  0.00    -0.271 OA
ENDBRANCH  16  18
ENDBRANCH   1  16
TORSDOF 4
ENDMDL
