MODEL 1
REMARK VINA RESULT:      -5.2      0.000      0.000
REMARK  Name = 
REMARK  1 active torsions:
REMARK  status: ('A' for Active; 'I' for Inactive)
REMARK    1  A    between atoms: C_2  and  C_4
REMARK                            x       y       z     vdW  Elec       q    Type
REMARK                         _______ _______ _______ _____ _____    ______ ____
ROOT
ATOM      1  C   UNL     1       6.678   6.796 -12.941  0.00  0.00    +0.119 A 
ATOM      2  C   UNL     1       7.400   5.710 -12.480  0.00  0.00    +0.202 A 
ATOM      3  O   UNL     1       7.674   4.651 -13.323  0.00  0.00    -0.286 OA
ATOM      4  C   UNL     1       8.250   5.955 -11.407  0.00  0.00    +0.042 A 
ATOM      5  C   UNL     1       7.709   6.775 -10.424  0.00  0.00    +0.003 A 
ATOM      6  C   UNL     1       7.018   7.886 -10.894  0.00  0.00    +0.000 A 
ATOM      7  C   UNL     1       6.182   7.650 -11.979  0.00  0.00    +0.010 A 
ENDROOT
BRANCH   1   9
ATOM      8  O   UNL     1       5.009   6.288 -14.456  0.00  0.00    -0.240 OA
ATOM      9  C   UNL     1       6.174   6.742 -14.304  0.00  0.00    +0.391 C 
ATOM     10  O   UNL     1       6.858   7.418 -15.293  0.00  0.00    -0.240 OA
ENDBRANCH   1   9
TORSDOF 1
ENDMDL
MODEL 2
REMARK VINA RESULT:      -5.1     11.308     12.089
REMARK  Name = 
REMARK  1 active torsions:
REMARK  status: ('A' for Active; 'I' for Inactive)
REMARK    1  A    between atoms: C_2  and  C_4
REMARK                            x       y       z     vdW  Elec       q    Type
REMARK                         _______ _______ _______ _____ _____    ______ ____
ROOT
ATOM      1  C   UNL     1      -1.758   5.664  -4.582  0.00  0.00    +0.119 A 
ATOM      2  C   UNL     1      -0.377   5.660  -4.517  0.00  0.00    +0.202 A 
ATOM      3  O   UNL     1       0.261   5.717  -3.293  0.00  0.00    -0.286 OA
ATOM      4  C   UNL     1       0.283   5.076  -5.593  0.00  0.00    +0.042 A 
ATOM      5  C   UNL     1      -0.258   5.391  -6.834  0.00  0.00    +0.003 A 
ATOM      6  C   UNL     1      -1.646   5.353  -6.903  0.00  0.00    +0.000 A 
ATOM      7  C   UNL     1      -2.309   5.918  -5.820  0.00  0.00    +0.010 A 
ENDROOT
BRANCH   1   9
ATOM      8  O   UNL     1      -2.988   6.926  -3.088  0.00  0.00    -0.240 OA
ATOM      9  C   UNL     1      -2.492   5.795  -3.334  0.00  0.00    +0.391 C 
ATOM     10  O   UNL     1      -2.832   4.652  -2.639  0.00  0.00    -0.240 OA
ENDBRANCH   1   9
TORSDOF 1
ENDMDL
MODEL 3
REMARK VINA RESULT:      -5.1      1.077      1.264
REMARK  Name = 
REMARK  1 active torsions:
REMARK  status: ('A' for Active; 'I' for Inactive)
REMARK    1  A    between atoms: C_2  and  C_4
REMARK                            x       y       z     vdW  Elec       q    Type
REMARK                         _______ _______ _______ _____ _____    ______ ____
ROOT
ATOM      1  C   UNL     1       5.925   6.120 -12.601  0.00  0.00    +0.119 A 
ATOM      2  C   UNL     1       7.184   5.603 -12.358  0.00  0.00    +0.202 A 
ATOM      3  O   UNL     1       7.717   4.646 -13.201  0.00  0.00    -0.286 OA
ATOM      4  C   UNL     1       8.048   6.417 -11.633  0.00  0.00    +0.042 A 
ATOM      5  C   UNL     1       7.452   7.071 -10.562  0.00  0.00    +0.003 A 
ATOM      6  C   UNL     1       6.203   7.623 -10.824  0.00  0.00    +0.000 A 
ATOM      7  C   UNL     1       5.344   6.820 -11.566  0.00  0.00    +0.010 A 
ENDROOT
BRANCH   1   9
ATOM      8  O   UNL     1       4.568   4.489 -13.517  0.00  0.00    -0.240 OA
ATOM      9  C   UNL     1       5.176   5.573 -13.721  0.00  0.00    +0.391 C 
ATOM     10  O   UNL     1       4.949   6.373 -14.823  0.00  0.00    -0.240 OA
ENDBRANCH   1   9
TORSDOF 1
ENDMDL
MODEL 4
REMARK VINA RESULT:      -5.0      3.531      4.687
REMARK  Name = 
REMARK  1 active torsions:
REMARK  status: ('A' for Active; 'I' for Inactive)
REMARK    1  A    between atoms: C_2  and  C_4
REMARK                            x       y       z     vdW  Elec       q    Type
REMARK                         _______ _______ _______ _____ _____    ______ ____
ROOT
ATOM      1  C   UNL     1       5.539   5.926  -9.477  0.00  0.00    +0.119 A 
ATOM      2  C   UNL     1       4.968   6.604 -10.539  0.00  0.00    +0.202 A 
ATOM      3  O   UNL     1       3.595   6.628 -10.690  0.00  0.00    -0.286 OA
ATOM      4  C   UNL     1       5.722   7.643 -11.075  0.00  0.00    +0.042 A 
ATOM      5  C   UNL     1       7.076   7.358 -11.205  0.00  0.00    +0.003 A 
ATOM      6  C   UNL     1       7.653   6.711 -10.118  0.00  0.00    +0.000 A 
ATOM      7  C   UNL     1       6.893   5.686  -9.566  0.00  0.00    +0.010 A 
ENDROOT
BRANCH   1   9
ATOM      8  O   UNL     1       4.296   5.794  -7.534  0.00  0.00    -0.240 OA
ATOM      9  C   UNL     1       4.650   5.198  -8.585  0.00  0.00    +0.391 C 
ATOM     10  O   UNL     1       4.044   4.047  -9.045  0.00  0.00    -0.240 OA
ENDBRANCH   1   9
TORSDOF 1
ENDMDL
MODEL 5
REMARK VINA RESULT:      -4.9      2.323      3.022
REMARK  Name = 
REMARK  1 active torsions:
REMARK  status: ('A' for Active; 'I' for Inactive)
REMARK    1  A    between atoms: C_2  and  C_4
REMARK                            x       y       z     vdW  Elec       q    Type
REMARK                         _______ _______ _______ _____ _____    ______ ____
ROOT
ATOM      1  C   UNL     1       5.801   5.776 -11.253  0.00  0.00    +0.119 A 
ATOM      2  C   UNL     1       6.262   5.284 -12.460  0.00  0.00    +0.202 A 
ATOM      3  O   UNL     1       5.381   4.716 -13.360  0.00  0.00    -0.286 OA
ATOM      4  C   UNL     1       7.442   5.845 -12.936  0.00  0.00    +0.042 A 
ATOM      5  C   UNL     1       8.413   6.046 -11.962  0.00  0.00    +0.003 A 
ATOM      6  C   UNL     1       7.948   6.578 -10.764  0.00  0.00    +0.000 A 
ATOM      7  C   UNL     1       6.758   6.035 -10.295  0.00  0.00    +0.010 A 
ENDROOT
BRANCH   1   9
ATOM      8  O   UNL     1       4.097   4.777 -10.053  0.00  0.00    -0.240 OA
ATOM      9  C   UNL     1       4.388   5.610 -10.951  0.00  0.00    +0.391 C 
ATOM     10  O   UNL     1       3.490   6.533 -11.447  0.00  0.00    -0.240 OA
ENDBRANCH   1   9
TORSDOF 1
ENDMDL
MODEL 6
REMARK VINA RESULT:      -4.9      9.709     10.488
REMARK  Name = 
REMARK  1 active torsions:
REMARK  status: ('A' for Active; 'I' for Inactive)
REMARK    1  A    between atoms: C_2  and  C_4
REMARK                            x       y       z     vdW  Elec       q    Type
REMARK                         _______ _______ _______ _____ _____    ______ ____
ROOT
ATOM      1  C   UNL     1      -0.301   5.697  -6.024  0.00  0.00    +0.119 A 
ATOM      2  C   UNL     1      -0.214   6.566  -4.951  0.00  0.00    +0.202 A 
ATOM      3  O   UNL     1       1.009   6.816  -4.357  0.00  0.00    -0.286 OA
ATOM      4  C   UNL     1      -1.214   7.529  -4.864  0.00  0.00    +0.042 A 
ATOM      5  C   UNL     1      -2.489   7.056  -5.148  0.00  0.00    +0.003 A 
ATOM      6  C   UNL     1      -2.576   6.214  -6.252  0.00  0.00    +0.000 A 
ATOM      7  C   UNL     1      -1.567   5.264  -6.354  0.00  0.00    +0.010 A 
ENDROOT
BRANCH   1   9
ATOM      8  O   UNL     1       1.110   3.868  -5.978  0.00  0.00    -0.240 OA
ATOM      9  C   UNL     1       0.915   5.022  -6.445  0.00  0.00    +0.391 C 
ATOM     10  O   UNL     1       1.629   5.539  -7.506  0.00  0.00    -0.240 OA
ENDBRANCH   1   9
TORSDOF 1
ENDMDL
MODEL 7
REMARK VINA RESULT:      -4.9      2.002      3.260
REMARK  Name = 
REMARK  1 active torsions:
REMARK  status: ('A' for Active; 'I' for Inactive)
REMARK    1  A    between atoms: C_2  and  C_4
REMARK                            x       y       z     vdW  Elec       q    Type
REMARK                         _______ _______ _______ _____ _____    ______ ____
ROOT
ATOM      1  C   UNL     1       6.883   5.667 -11.119  0.00  0.00    +0.119 A 
ATOM      2  C   UNL     1       5.632   6.124 -11.490  0.00  0.00    +0.202 A 
ATOM      3  O   UNL     1       5.355   6.386 -12.818  0.00  0.00    -0.286 OA
ATOM      4  C   UNL     1       4.584   5.796 -10.636  0.00  0.00    +0.042 A 
ATOM      5  C   UNL     1       4.889   5.918  -9.286  0.00  0.00    +0.003 A 
ATOM      6  C   UNL     1       6.132   5.420  -8.912  0.00  0.00    +0.000 A 
ATOM      7  C   UNL     1       7.178   5.728  -9.774  0.00  0.00    +0.010 A 
ENDROOT
BRANCH   1   9
ATOM      8  O   UNL     1       9.000   6.099 -11.938  0.00  0.00    -0.240 OA
ATOM      9  C   UNL     1       7.892   5.542 -12.158  0.00  0.00    +0.391 C 
ATOM     10  O   UNL     1       7.694   4.625 -13.170  0.00  0.00    -0.240 OA
ENDBRANCH   1   9
TORSDOF 1
ENDMDL
MODEL 8
REMARK VINA RESULT:      -4.8      3.268      3.923
REMARK  Name = 
REMARK  1 active torsions:
REMARK  status: ('A' for Active; 'I' for Inactive)
REMARK    1  A    between atoms: C_2  and  C_4
REMARK                            x       y       z     vdW  Elec       q    Type
REMARK                         _______ _______ _______ _____ _____    ______ ____
ROOT
ATOM      1  C   UNL     1       5.054   6.502 -10.189  0.00  0.00    +0.119 A 
ATOM      2  C   UNL     1       5.961   5.857  -9.368  0.00  0.00    +0.202 A 
ATOM      3  O   UNL     1       5.518   4.969  -8.408  0.00  0.00    -0.286 OA
ATOM      4  C   UNL     1       7.248   5.715  -9.876  0.00  0.00    +0.042 A 
ATOM      5  C   UNL     1       7.731   6.839 -10.534  0.00  0.00    +0.003 A 
ATOM      6  C   UNL     1       6.826   7.460 -11.388  0.00  0.00    +0.000 A 
ATOM      7  C   UNL     1       5.534   7.586 -10.894  0.00  0.00    +0.010 A 
ENDROOT
BRANCH   1   9
ATOM      8  O   UNL     1       3.067   7.016  -9.129  0.00  0.00    -0.240 OA
ATOM      9  C   UNL     1       3.640   6.258  -9.956  0.00  0.00    +0.391 C 
ATOM     10  O   UNL     1       2.958   5.425 -10.819  0.00  0.00    -0.240 OA
ENDBRANCH   1   9
TORSDOF 1
ENDMDL
MODEL 9
REMARK VINA RESULT:      -4.7      1.827      2.229
REMARK  Name = 
REMARK  1 active torsions:
REMARK  status: ('A' for Active; 'I' for Inactive)
REMARK    1  A    between atoms: C_2  and  C_4
REMARK                            x       y       z     vdW  Elec       q    Type
REMARK                         _______ _______ _______ _____ _____    ______ ____
ROOT
ATOM      1  C   UNL     1       6.466   5.818 -11.745  0.00  0.00    +0.119 A 
ATOM      2  C   UNL     1       7.590   5.640 -10.958  0.00  0.00    +0.202 A 
ATOM      3  O   UNL     1       8.848   5.675 -11.527  0.00  0.00    -0.286 OA
ATOM      4  C   UNL     1       7.450   5.964  -9.613  0.00  0.00    +0.042 A 
ATOM      5  C   UNL     1       6.251   5.548  -9.047  0.00  0.00    +0.003 A 
ATOM      6  C   UNL     1       5.120   5.767  -9.826  0.00  0.00    +0.000 A 
ATOM      7  C   UNL     1       5.262   5.463 -11.175  0.00  0.00    +0.010 A 
ENDROOT
BRANCH   1   9
ATOM      8  O   UNL     1       6.595   7.147 -13.631  0.00  0.00    -0.240 OA
ATOM      9  C   UNL     1       6.663   5.974 -13.177  0.00  0.00    +0.391 C 
ATOM     10  O   UNL     1       7.166   4.911 -13.898  0.00  0.00    -0.240 OA
ENDBRANCH   1   9
TORSDOF 1
ENDMDL
