MODEL 1
REMARK VINA RESULT:      -6.1      0.000      0.000
REMARK  Name = 
REMARK  5 active torsions:
REMARK  status: ('A' for Active; 'I' for Inactive)
REMARK    1  A    between atoms: O_2  and  C_3
REMARK    2  A    between atoms: C_7  and  O_8
REMARK    3  A    between atoms: C_10  and  O_11
REMARK    4  A    between atoms: C_16  and  O_17
REMARK    5  A    between atoms: C_23  and  N_24
REMARK                            x       y       z     vdW  Elec       q    Type
REMARK                         _______ _______ _______ _____ _____    ______ ____
ROOT
ATOM      1  C   UNL     1       5.300   7.809   1.704  0.00  0.00    +0.175 A 
ATOM      2  C   UNL     1       4.381   8.849   1.631  0.00  0.00    +0.206 A 
ATOM      3  C   UNL     1       3.190   8.695   0.933  0.00  0.00    +0.175 A 
ATOM      4  C   UNL     1       3.139   7.600   0.081  0.00  0.00    +0.033 A 
ATOM      5  C   UNL     1       1.717   7.322  -0.166  0.00  0.00    +0.001 A 
ATOM      6  C   UNL     1       1.156   6.534  -1.097  0.00  0.00    +0.001 A 
ATOM      7  C   UNL     1       1.932   5.582  -2.179  0.00  0.00    +0.118 C 
ATOM      8  C   UNL     1       2.980   4.990  -1.014  0.00  0.00    +0.031 C 
ATOM      9  C   UNL     1       4.273   5.662  -1.142  0.00  0.00    +0.029 C 
ATOM     10  C   UNL     1      -0.133   6.154  -1.366  0.00  0.00    +0.043 A 
ATOM     11  C   UNL     1      -1.217   6.546  -0.583  0.00  0.00    +0.229 A 
ATOM     12  O   UNL     1      -2.311   6.771  -1.164  0.00  0.00    -0.283 OA
ATOM     13  C   UNL     1      -1.221   6.919   0.756  0.00  0.00    +0.177 A 
ATOM     14  C   UNL     1      -0.145   7.333   1.528  0.00  0.00    +0.040 A 
ATOM     15  C   UNL     1       1.110   7.674   1.035  0.00  0.00    +0.003 A 
ATOM     16  C   UNL     1       4.268   6.857  -0.242  0.00  0.00    -0.016 A 
ATOM     17  C   UNL     1       5.306   6.899   0.653  0.00  0.00    +0.036 A 
ENDROOT
BRANCH   7  18
ATOM     18  N   UNL     1       2.879   6.793  -2.650  0.00  0.00    -0.203 NA
ATOM     19  C   UNL     1       2.904   6.940  -4.076  0.00  0.00    +0.242 C 
ATOM     20  O   UNL     1       1.792   6.955  -4.677  0.00  0.00    -0.273 OA
ATOM     21  C   UNL     1       4.145   6.799  -4.888  0.00  0.00    +0.096 C 
ENDBRANCH   7  18
BRANCH   1  23
ATOM     22  C   UNL     1       7.157   7.780   3.150  0.00  0.00    +0.253 C 
ATOM     23  O   UNL     1       5.860   7.480   2.944  0.00  0.00    -0.468 OA
ENDBRANCH   1  23
BRANCH   2  24
ATOM     24  O   UNL     1       4.438   9.891   2.523  0.00  0.00    -0.465 OA
ATOM     25  C   UNL     1       5.372  10.939   2.454  0.00  0.00    +0.253 C 
ENDBRANCH   2  24
BRANCH   3  26
ATOM     26  O   UNL     1       2.448   9.803   0.509  0.00  0.00    -0.468 OA
ATOM     27  C   UNL     1       3.163  10.665  -0.375  0.00  0.00    +0.253 C 
ENDBRANCH   3  26
BRANCH  13  28
ATOM     28  O   UNL     1      -2.479   7.013   1.301  0.00  0.00    -0.468 OA
ATOM     29  C   UNL     1      -2.831   8.001   2.259  0.00  0.00    +0.253 C 
ENDBRANCH  13  28
TORSDOF 5
ENDMDL
MODEL 2
REMARK VINA RESULT:      -5.5      1.981      5.363
REMARK  Name = 
REMARK  5 active torsions:
REMARK  status: ('A' for Active; 'I' for Inactive)
REMARK    1  A    between atoms: O_2  and  C_3
REMARK    2  A    between atoms: C_7  and  O_8
REMARK    3  A    between atoms: C_10  and  O_11
REMARK    4  A    between atoms: C_16  and  O_17
REMARK    5  A    between atoms: C_23  and  N_24
REMARK                            x       y       z     vdW  Elec       q    Type
REMARK                         _______ _______ _______ _____ _____    ______ ____
ROOT
ATOM      1  C   UNL     1       4.811   6.677  -3.521  0.00  0.00    +0.175 A 
ATOM      2  C   UNL     1       4.130   5.501  -3.229  0.00  0.00    +0.206 A 
ATOM      3  C   UNL     1       3.144   5.477  -2.250  0.00  0.00    +0.175 A 
ATOM      4  C   UNL     1       3.124   6.574  -1.401  0.00  0.00    +0.033 A 
ATOM      5  C   UNL     1       1.785   6.619  -0.799  0.00  0.00    +0.001 A 
ATOM      6  C   UNL     1       1.350   7.333   0.253  0.00  0.00    +0.001 A 
ATOM      7  C   UNL     1       2.200   8.435   1.113  0.00  0.00    +0.118 C 
ATOM      8  C   UNL     1       2.806   9.155  -0.272  0.00  0.00    +0.031 C 
ATOM      9  C   UNL     1       4.184   8.713  -0.484  0.00  0.00    +0.029 C 
ATOM     10  C   UNL     1       0.125   7.501   0.844  0.00  0.00    +0.043 A 
ATOM     11  C   UNL     1      -1.038   6.908   0.356  0.00  0.00    +0.229 A 
ATOM     12  O   UNL     1      -1.896   6.524   1.193  0.00  0.00    -0.283 OA
ATOM     13  C   UNL     1      -1.316   6.497  -0.942  0.00  0.00    +0.177 A 
ATOM     14  C   UNL     1      -0.413   6.244  -1.966  0.00  0.00    +0.040 A 
ATOM     15  C   UNL     1       0.963   6.133  -1.811  0.00  0.00    +0.003 A 
ATOM     16  C   UNL     1       4.155   7.505  -1.366  0.00  0.00    -0.016 A 
ATOM     17  C   UNL     1       4.927   7.609  -2.496  0.00  0.00    +0.036 A 
ENDROOT
BRANCH   7  18
ATOM     18  N   UNL     1       3.427   7.415   1.315  0.00  0.00    -0.203 NA
ATOM     19  C   UNL     1       3.969   7.473   2.642  0.00  0.00    +0.242 C 
ATOM     20  O   UNL     1       3.151   7.418   3.605  0.00  0.00    -0.273 OA
ATOM     21  C   UNL     1       5.377   7.863   2.930  0.00  0.00    +0.096 C 
ENDBRANCH   7  18
BRANCH   1  23
ATOM     22  C   UNL     1       3.874   7.354  -5.570  0.00  0.00    +0.253 C 
ATOM     23  O   UNL     1       4.977   7.054  -4.858  0.00  0.00    -0.468 OA
ENDBRANCH   1  23
BRANCH   2  24
ATOM     24  O   UNL     1       4.137   4.454  -4.118  0.00  0.00    -0.465 OA
ATOM     25  C   UNL     1       3.152   4.244  -5.098  0.00  0.00    +0.253 C 
ENDBRANCH   2  24
BRANCH   3  26
ATOM     26  O   UNL     1       2.732   4.274  -1.665  0.00  0.00    -0.468 OA
ATOM     27  C   UNL     1       3.745   3.641  -0.886  0.00  0.00    +0.253 C 
ENDBRANCH   3  26
BRANCH  13  28
ATOM     28  O   UNL     1      -2.635   6.177  -1.152  0.00  0.00    -0.468 OA
ATOM     29  C   UNL     1      -3.271   6.321  -2.414  0.00  0.00    +0.253 C 
ENDBRANCH  13  28
TORSDOF 5
ENDMDL
MODEL 3
REMARK VINA RESULT:      -5.5      7.711     12.419
REMARK  Name = 
REMARK  5 active torsions:
REMARK  status: ('A' for Active; 'I' for Inactive)
REMARK    1  A    between atoms: O_2  and  C_3
REMARK    2  A    between atoms: C_7  and  O_8
REMARK    3  A    between atoms: C_10  and  O_11
REMARK    4  A    between atoms: C_16  and  O_17
REMARK    5  A    between atoms: C_23  and  N_24
REMARK                            x       y       z     vdW  Elec       q    Type
REMARK                         _______ _______ _______ _____ _____    ______ ____
ROOT
ATOM      1  C   UNL     1       1.010   6.241  -8.213  0.00  0.00    +0.175 A 
ATOM      2  C   UNL     1       2.072   5.344  -8.219  0.00  0.00    +0.206 A 
ATOM      3  C   UNL     1       2.816   5.134  -9.373  0.00  0.00    +0.175 A 
ATOM      4  C   UNL     1       2.244   5.612 -10.544  0.00  0.00    +0.033 A 
ATOM      5  C   UNL     1       3.332   5.752 -11.521  0.00  0.00    +0.001 A 
ATOM      6  C   UNL     1       3.261   5.941 -12.848  0.00  0.00    +0.001 A 
ATOM      7  C   UNL     1       1.907   6.155 -13.742  0.00  0.00    +0.118 C 
ATOM      8  C   UNL     1       1.269   7.247 -12.644  0.00  0.00    +0.031 C 
ATOM      9  C   UNL     1       0.255   6.578 -11.829  0.00  0.00    +0.029 C 
ATOM     10  C   UNL     1       4.197   6.152 -13.827  0.00  0.00    +0.043 A 
ATOM     11  C   UNL     1       5.560   6.262 -13.560  0.00  0.00    +0.229 A 
ATOM     12  O   UNL     1       6.364   5.791 -14.407  0.00  0.00    -0.283 OA
ATOM     13  C   UNL     1       6.177   6.656 -12.378  0.00  0.00    +0.177 A 
ATOM     14  C   UNL     1       5.631   6.688 -11.103  0.00  0.00    +0.040 A 
ATOM     15  C   UNL     1       4.423   6.106 -10.734  0.00  0.00    +0.003 A 
ATOM     16  C   UNL     1       0.923   6.042 -10.603  0.00  0.00    -0.016 A 
ATOM     17  C   UNL     1       0.360   6.455  -9.422  0.00  0.00    +0.036 A 
ENDROOT
BRANCH   7  18
ATOM     18  N   UNL     1       1.211   4.855 -13.100  0.00  0.00    -0.203 NA
ATOM     19  C   UNL     1       1.130   3.767 -14.031  0.00  0.00    +0.242 C 
ATOM     20  O   UNL     1       2.182   3.468 -14.666  0.00  0.00    -0.273 OA
ATOM     21  C   UNL     1      -0.159   3.170 -14.477  0.00  0.00    +0.096 C 
ENDBRANCH   7  18
BRANCH   1  23
ATOM     22  C   UNL     1       0.110   6.846  -6.124  0.00  0.00    +0.253 C 
ATOM     23  O   UNL     1       0.903   7.163  -7.166  0.00  0.00    -0.468 OA
ENDBRANCH   1  23
BRANCH   2  24
ATOM     24  O   UNL     1       2.641   4.932  -7.039  0.00  0.00    -0.465 OA
ATOM     25  C   UNL     1       2.154   3.871  -6.256  0.00  0.00    +0.253 C 
ENDBRANCH   2  24
BRANCH   3  26
ATOM     26  O   UNL     1       3.605   3.989  -9.530  0.00  0.00    -0.468 OA
ATOM     27  C   UNL     1       4.805   4.011  -8.760  0.00  0.00    +0.253 C 
ENDBRANCH   3  26
BRANCH  13  28
ATOM     28  O   UNL     1       7.523   6.897 -12.510  0.00  0.00    -0.468 OA
ATOM     29  C   UNL     1       8.514   6.094 -11.884  0.00  0.00    +0.253 C 
ENDBRANCH  13  28
TORSDOF 5
ENDMDL
MODEL 4
REMARK VINA RESULT:      -5.2      2.860      4.273
REMARK  Name = 
REMARK  5 active torsions:
REMARK  status: ('A' for Active; 'I' for Inactive)
REMARK    1  A    between atoms: O_2  and  C_3
REMARK    2  A    between atoms: C_7  and  O_8
REMARK    3  A    between atoms: C_10  and  O_11
REMARK    4  A    between atoms: C_16  and  O_17
REMARK    5  A    between atoms: C_23  and  N_24
REMARK                            x       y       z     vdW  Elec       q    Type
REMARK                         _______ _______ _______ _____ _____    ______ ____
ROOT
ATOM      1  C   UNL     1       4.201   4.582  -1.653  0.00  0.00    +0.175 A 
ATOM      2  C   UNL     1       3.729   5.837  -1.288  0.00  0.00    +0.206 A 
ATOM      3  C   UNL     1       2.756   6.477  -2.046  0.00  0.00    +0.175 A 
ATOM      4  C   UNL     1       2.543   5.945  -3.309  0.00  0.00    +0.033 A 
ATOM      5  C   UNL     1       1.211   6.394  -3.739  0.00  0.00    +0.001 A 
ATOM      6  C   UNL     1       0.654   6.352  -4.960  0.00  0.00    +0.001 A 
ATOM      7  C   UNL     1       1.298   5.693  -6.313  0.00  0.00    +0.118 C 
ATOM      8  C   UNL     1       1.780   4.312  -5.498  0.00  0.00    +0.031 C 
ATOM      9  C   UNL     1       3.215   4.388  -5.224  0.00  0.00    +0.029 C 
ATOM     10  C   UNL     1      -0.585   6.673  -5.449  0.00  0.00    +0.043 A 
ATOM     11  C   UNL     1      -1.626   7.119  -4.637  0.00  0.00    +0.229 A 
ATOM     12  O   UNL     1      -2.411   7.982  -5.111  0.00  0.00    -0.283 OA
ATOM     13  C   UNL     1      -1.821   6.886  -3.281  0.00  0.00    +0.177 A 
ATOM     14  C   UNL     1      -0.882   6.476  -2.344  0.00  0.00    +0.040 A 
ATOM     15  C   UNL     1       0.492   6.444  -2.549  0.00  0.00    +0.003 A 
ATOM     16  C   UNL     1       3.399   5.007  -3.874  0.00  0.00    -0.016 A 
ATOM     17  C   UNL     1       4.148   4.258  -3.003  0.00  0.00    +0.036 A 
ENDROOT
BRANCH   7  18
ATOM     18  N   UNL     1       2.679   6.491  -6.112  0.00  0.00    -0.203 NA
ATOM     19  C   UNL     1       3.260   6.893  -7.360  0.00  0.00    +0.242 C 
ATOM     20  O   UNL     1       2.503   7.471  -8.192  0.00  0.00    -0.273 OA
ATOM     21  C   UNL     1       4.598   6.431  -7.823  0.00  0.00    +0.096 C 
ENDBRANCH   7  18
BRANCH   1  23
ATOM     22  C   UNL     1       3.363   2.625  -0.649  0.00  0.00    +0.253 C 
ATOM     23  O   UNL     1       4.308   3.584  -0.677  0.00  0.00    -0.468 OA
ENDBRANCH   1  23
BRANCH   2  24
ATOM     24  O   UNL     1       3.921   6.308  -0.012  0.00  0.00    -0.465 OA
ATOM     25  C   UNL     1       5.127   6.859   0.453  0.00  0.00    +0.253 C 
ENDBRANCH   2  24
BRANCH   3  26
ATOM     26  O   UNL     1       2.552   7.858  -1.948  0.00  0.00    -0.468 OA
ATOM     27  C   UNL     1       3.723   8.628  -2.213  0.00  0.00    +0.253 C 
ENDBRANCH   3  26
BRANCH  13  28
ATOM     28  O   UNL     1      -3.065   7.254  -2.829  0.00  0.00    -0.468 OA
ATOM     29  C   UNL     1      -4.095   6.313  -2.559  0.00  0.00    +0.253 C 
ENDBRANCH  13  28
TORSDOF 5
ENDMDL
MODEL 5
REMARK VINA RESULT:      -5.0      3.402      6.808
REMARK  Name = 
REMARK  5 active torsions:
REMARK  status: ('A' for Active; 'I' for Inactive)
REMARK    1  A    between atoms: O_2  and  C_3
REMARK    2  A    between atoms: C_7  and  O_8
REMARK    3  A    between atoms: C_10  and  O_11
REMARK    4  A    between atoms: C_16  and  O_17
REMARK    5  A    between atoms: C_23  and  N_24
REMARK                            x       y       z     vdW  Elec       q    Type
REMARK                         _______ _______ _______ _____ _____    ______ ____
ROOT
ATOM      1  C   UNL     1       3.177   6.823  -7.228  0.00  0.00    +0.175 A 
ATOM      2  C   UNL     1       2.228   5.816  -7.094  0.00  0.00    +0.206 A 
ATOM      3  C   UNL     1       1.625   5.568  -5.867  0.00  0.00    +0.175 A 
ATOM      4  C   UNL     1       2.249   6.147  -4.772  0.00  0.00    +0.033 A 
ATOM      5  C   UNL     1       1.250   6.202  -3.696  0.00  0.00    +0.001 A 
ATOM      6  C   UNL     1       1.425   6.445  -2.387  0.00  0.00    +0.001 A 
ATOM      7  C   UNL     1       2.825   6.838  -1.637  0.00  0.00    +0.118 C 
ATOM      8  C   UNL     1       3.229   7.954  -2.819  0.00  0.00    +0.031 C 
ATOM      9  C   UNL     1       4.229   7.371  -3.713  0.00  0.00    +0.029 C 
ATOM     10  C   UNL     1       0.569   6.588  -1.326  0.00  0.00    +0.043 A 
ATOM     11  C   UNL     1      -0.817   6.538  -1.461  0.00  0.00    +0.229 A 
ATOM     12  O   UNL     1      -1.479   6.012  -0.527  0.00  0.00    -0.283 OA
ATOM     13  C   UNL     1      -1.584   6.819  -2.585  0.00  0.00    +0.177 A 
ATOM     14  C   UNL     1      -1.169   6.864  -3.909  0.00  0.00    +0.040 A 
ATOM     15  C   UNL     1       0.056   6.405  -4.380  0.00  0.00    +0.003 A 
ATOM     16  C   UNL     1       3.512   6.721  -4.854  0.00  0.00    -0.016 A 
ATOM     17  C   UNL     1       3.911   7.151  -6.094  0.00  0.00    +0.036 A 
ENDROOT
BRANCH   7  18
ATOM     18  N   UNL     1       3.599   5.600  -2.311  0.00  0.00    -0.203 NA
ATOM     19  C   UNL     1       3.757   4.500  -1.405  0.00  0.00    +0.242 C 
ATOM     20  O   UNL     1       2.731   4.121  -0.770  0.00  0.00    -0.273 OA
ATOM     21  C   UNL     1       5.086   3.978  -0.980  0.00  0.00    +0.096 C 
ENDBRANCH   7  18
BRANCH   1  23
ATOM     22  C   UNL     1       3.564   7.317  -9.496  0.00  0.00    +0.253 C 
ATOM     23  O   UNL     1       3.079   7.713  -8.304  0.00  0.00    -0.468 OA
ENDBRANCH   1  23
BRANCH   2  24
ATOM     24  O   UNL     1       1.600   5.302  -8.202  0.00  0.00    -0.465 OA
ATOM     25  C   UNL     1       0.306   5.663  -8.615  0.00  0.00    +0.253 C 
ENDBRANCH   2  24
BRANCH   3  26
ATOM     26  O   UNL     1       0.990   4.349  -5.605  0.00  0.00    -0.468 OA
ATOM     27  C   UNL     1       1.695   3.216  -6.109  0.00  0.00    +0.253 C 
ENDBRANCH   3  26
BRANCH  13  28
ATOM     28  O   UNL     1      -2.930   6.915  -2.328  0.00  0.00    -0.468 OA
ATOM     29  C   UNL     1      -3.898   6.103  -2.977  0.00  0.00    +0.253 C 
ENDBRANCH  13  28
TORSDOF 5
ENDMDL
MODEL 6
REMARK VINA RESULT:      -4.9      3.198      7.388
REMARK  Name = 
REMARK  5 active torsions:
REMARK  status: ('A' for Active; 'I' for Inactive)
REMARK    1  A    between atoms: O_2  and  C_3
REMARK    2  A    between atoms: C_7  and  O_8
REMARK    3  A    between atoms: C_10  and  O_11
REMARK    4  A    between atoms: C_16  and  O_17
REMARK    5  A    between atoms: C_23  and  N_24
REMARK                            x       y       z     vdW  Elec       q    Type
REMARK                         _______ _______ _______ _____ _____    ______ ____
ROOT
ATOM      1  C   UNL     1      -1.828   6.031  -5.011  0.00  0.00    +0.175 A 
ATOM      2  C   UNL     1      -1.201   5.386  -3.951  0.00  0.00    +0.206 A 
ATOM      3  C   UNL     1       0.179   5.444  -3.802  0.00  0.00    +0.175 A 
ATOM      4  C   UNL     1       0.878   5.891  -4.915  0.00  0.00    +0.033 A 
ATOM      5  C   UNL     1       2.190   6.348  -4.436  0.00  0.00    +0.001 A 
ATOM      6  C   UNL     1       3.297   6.636  -5.138  0.00  0.00    +0.001 A 
ATOM      7  C   UNL     1       3.457   6.635  -6.767  0.00  0.00    +0.118 C 
ATOM      8  C   UNL     1       2.017   7.463  -6.981  0.00  0.00    +0.031 C 
ATOM      9  C   UNL     1       0.974   6.523  -7.391  0.00  0.00    +0.029 C 
ATOM     10  C   UNL     1       4.531   7.129  -4.804  0.00  0.00    +0.043 A 
ATOM     11  C   UNL     1       4.870   7.503  -3.505  0.00  0.00    +0.229 A 
ATOM     12  O   UNL     1       6.051   7.293  -3.123  0.00  0.00    -0.283 OA
ATOM     13  C   UNL     1       4.026   7.912  -2.479  0.00  0.00    +0.177 A 
ATOM     14  C   UNL     1       2.657   7.711  -2.372  0.00  0.00    +0.040 A 
ATOM     15  C   UNL     1       1.909   6.855  -3.171  0.00  0.00    +0.003 A 
ATOM     16  C   UNL     1       0.278   6.034  -6.160  0.00  0.00    -0.016 A 
ATOM     17  C   UNL     1      -1.082   6.209  -6.170  0.00  0.00    +0.036 A 
ENDROOT
BRANCH   7  18
ATOM     18  N   UNL     1       2.817   5.164  -6.885  0.00  0.00    -0.203 NA
ATOM     19  C   UNL     1       3.248   4.479  -8.069  0.00  0.00    +0.242 C 
ATOM     20  O   UNL     1       4.488   4.471  -8.315  0.00  0.00    -0.273 OA
ATOM     21  C   UNL     1       2.312   4.028  -9.136  0.00  0.00    +0.096 C 
ENDBRANCH   7  18
BRANCH   1  23
ATOM     22  C   UNL     1      -2.839   8.150  -4.843  0.00  0.00    +0.253 C 
ATOM     23  O   UNL     1      -2.962   6.811  -4.758  0.00  0.00    -0.468 OA
ENDBRANCH   1  23
BRANCH   2  24
ATOM     24  O   UNL     1      -1.921   5.000  -2.847  0.00  0.00    -0.465 OA
ATOM     25  C   UNL     1      -2.421   5.889  -1.880  0.00  0.00    +0.253 C 
ENDBRANCH   2  24
BRANCH   3  26
ATOM     26  O   UNL     1       0.864   4.512  -3.014  0.00  0.00    -0.468 OA
ATOM     27  C   UNL     1       0.700   4.718  -1.612  0.00  0.00    +0.253 C 
ENDBRANCH   3  26
BRANCH  13  28
ATOM     28  O   UNL     1       4.686   8.445  -1.399  0.00  0.00    -0.468 OA
ATOM     29  C   UNL     1       4.279   8.215  -0.057  0.00  0.00    +0.253 C 
ENDBRANCH  13  28
TORSDOF 5
ENDMDL
MODEL 7
REMARK VINA RESULT:      -4.4      3.752      7.627
REMARK  Name = 
REMARK  5 active torsions:
REMARK  status: ('A' for Active; 'I' for Inactive)
REMARK    1  A    between atoms: O_2  and  C_3
REMARK    2  A    between atoms: C_7  and  O_8
REMARK    3  A    between atoms: C_10  and  O_11
REMARK    4  A    between atoms: C_16  and  O_17
REMARK    5  A    between atoms: C_23  and  N_24
REMARK                            x       y       z     vdW  Elec       q    Type
REMARK                         _______ _______ _______ _____ _____    ______ ____
ROOT
ATOM      1  C   UNL     1       1.699   5.464  -8.215  0.00  0.00    +0.175 A 
ATOM      2  C   UNL     1       2.673   6.248  -7.609  0.00  0.00    +0.206 A 
ATOM      3  C   UNL     1       2.625   6.512  -6.246  0.00  0.00    +0.175 A 
ATOM      4  C   UNL     1       1.415   6.227  -5.629  0.00  0.00    +0.033 A 
ATOM      5  C   UNL     1       1.694   6.091  -4.193  0.00  0.00    +0.001 A 
ATOM      6  C   UNL     1       0.836   6.060  -3.160  0.00  0.00    +0.001 A 
ATOM      7  C   UNL     1      -0.798   6.081  -3.239  0.00  0.00    +0.118 C 
ATOM      8  C   UNL     1      -0.826   4.940  -4.464  0.00  0.00    +0.031 C 
ATOM      9  C   UNL     1      -1.064   5.610  -5.743  0.00  0.00    +0.029 C 
ATOM     10  C   UNL     1       0.982   5.870  -1.811  0.00  0.00    +0.043 A 
ATOM     11  C   UNL     1       2.211   5.598  -1.214  0.00  0.00    +0.229 A 
ATOM     12  O   UNL     1       2.427   6.080  -0.071  0.00  0.00    -0.283 OA
ATOM     13  C   UNL     1       3.336   5.016  -1.786  0.00  0.00    +0.177 A 
ATOM     14  C   UNL     1       3.640   4.895  -3.135  0.00  0.00    +0.040 A 
ATOM     15  C   UNL     1       2.974   5.547  -4.166  0.00  0.00    +0.003 A 
ATOM     16  C   UNL     1       0.264   5.937  -6.351  0.00  0.00    -0.016 A 
ATOM     17  C   UNL     1       0.442   5.451  -7.621  0.00  0.00    +0.036 A 
ENDROOT
BRANCH   7  18
ATOM     18  N   UNL     1      -0.792   7.363  -4.210  0.00  0.00    -0.203 NA
ATOM     19  C   UNL     1      -1.919   8.220  -3.985  0.00  0.00    +0.242 C 
ATOM     20  O   UNL     1      -2.173   8.542  -2.788  0.00  0.00    -0.273 OA
ATOM     21  C   UNL     1      -2.939   8.517  -5.029  0.00  0.00    +0.096 C 
ENDBRANCH   7  18
BRANCH   1  23
ATOM     22  C   UNL     1       2.814   3.426  -8.589  0.00  0.00    +0.253 C 
ATOM     23  O   UNL     1       2.091   4.445  -9.091  0.00  0.00    -0.468 OA
ENDBRANCH   1  23
BRANCH   2  24
ATOM     24  O   UNL     1       3.876   6.468  -8.234  0.00  0.00    -0.465 OA
ATOM     25  C   UNL     1       4.009   6.857  -9.578  0.00  0.00    +0.253 C 
ENDBRANCH   2  24
BRANCH   3  26
ATOM     26  O   UNL     1       3.330   7.586  -5.689  0.00  0.00    -0.468 OA
ATOM     27  C   UNL     1       4.694   7.286  -5.402  0.00  0.00    +0.253 C 
ENDBRANCH   3  26
BRANCH  13  28
ATOM     28  O   UNL     1       4.300   4.661  -0.874  0.00  0.00    -0.468 OA
ATOM     29  C   UNL     1       4.756   3.324  -0.716  0.00  0.00    +0.253 C 
ENDBRANCH  13  28
TORSDOF 5
ENDMDL
MODEL 8
REMARK VINA RESULT:      -4.4      4.169      8.574
REMARK  Name = 
REMARK  5 active torsions:
REMARK  status: ('A' for Active; 'I' for Inactive)
REMARK    1  A    between atoms: O_2  and  C_3
REMARK    2  A    between atoms: C_7  and  O_8
REMARK    3  A    between atoms: C_10  and  O_11
REMARK    4  A    between atoms: C_16  and  O_17
REMARK    5  A    between atoms: C_23  and  N_24
REMARK                            x       y       z     vdW  Elec       q    Type
REMARK                         _______ _______ _______ _____ _____    ______ ____
ROOT
ATOM      1  C   UNL     1       0.648   5.135  -9.156  0.00  0.00    +0.175 A 
ATOM      2  C   UNL     1       1.713   5.950  -8.790  0.00  0.00    +0.206 A 
ATOM      3  C   UNL     1       1.895   6.326  -7.465  0.00  0.00    +0.175 A 
ATOM      4  C   UNL     1       0.805   6.114  -6.633  0.00  0.00    +0.033 A 
ATOM      5  C   UNL     1       1.321   6.093  -5.257  0.00  0.00    +0.001 A 
ATOM      6  C   UNL     1       0.648   6.162  -4.097  0.00  0.00    +0.001 A 
ATOM      7  C   UNL     1      -0.976   6.204  -3.903  0.00  0.00    +0.118 C 
ATOM      8  C   UNL     1      -1.213   4.966  -5.006  0.00  0.00    +0.031 C 
ATOM      9  C   UNL     1      -1.660   5.531  -6.279  0.00  0.00    +0.029 C 
ATOM     10  C   UNL     1       1.018   6.081  -2.780  0.00  0.00    +0.043 A 
ATOM     11  C   UNL     1       2.329   5.838  -2.376  0.00  0.00    +0.229 A 
ATOM     12  O   UNL     1       2.735   6.409  -1.330  0.00  0.00    -0.283 OA
ATOM     13  C   UNL     1       3.340   5.192  -3.076  0.00  0.00    +0.177 A 
ATOM     14  C   UNL     1       3.413   4.955  -4.442  0.00  0.00    +0.040 A 
ATOM     15  C   UNL     1       2.586   5.530  -5.399  0.00  0.00    +0.003 A 
ATOM     16  C   UNL     1      -0.452   5.785  -7.125  0.00  0.00    -0.016 A 
ATOM     17  C   UNL     1      -0.491   5.193  -8.362  0.00  0.00    +0.036 A 
ENDROOT
BRANCH   7  18
ATOM     18  N   UNL     1      -1.129   7.400  -4.966  0.00  0.00    -0.203 NA
ATOM     19  C   UNL     1      -2.107   8.367  -4.559  0.00  0.00    +0.242 C 
ATOM     20  O   UNL     1      -2.033   8.802  -3.373  0.00  0.00    -0.273 OA
ATOM     21  C   UNL     1      -3.333   8.669  -5.348  0.00  0.00    +0.096 C 
ENDBRANCH   7  18
BRANCH   1  23
ATOM     22  C   UNL     1       0.377   4.081 -11.243  0.00  0.00    +0.253 C 
ATOM     23  O   UNL     1       0.884   4.041  -9.996  0.00  0.00    -0.468 OA
ENDBRANCH   1  23
BRANCH   2  24
ATOM     24  O   UNL     1       2.794   6.097  -9.624  0.00  0.00    -0.465 OA
ATOM     25  C   UNL     1       3.948   5.297  -9.569  0.00  0.00    +0.253 C 
ENDBRANCH   2  24
BRANCH   3  26
ATOM     26  O   UNL     1       2.686   7.430  -7.127  0.00  0.00    -0.468 OA
ATOM     27  C   UNL     1       2.393   8.599  -7.890  0.00  0.00    +0.253 C 
ENDBRANCH   3  26
BRANCH  13  28
ATOM     28  O   UNL     1       4.443   4.897  -2.311  0.00  0.00    -0.468 OA
ATOM     29  C   UNL     1       4.381   4.071  -1.157  0.00  0.00    +0.253 C 
ENDBRANCH  13  28
TORSDOF 5
ENDMDL
MODEL 9
REMARK VINA RESULT:      -4.3      3.805      7.480
REMARK  Name = 
REMARK  5 active torsions:
REMARK  status: ('A' for Active; 'I' for Inactive)
REMARK    1  A    between atoms: O_2  and  C_3
REMARK    2  A    between atoms: C_7  and  O_8
REMARK    3  A    between atoms: C_10  and  O_11
REMARK    4  A    between atoms: C_16  and  O_17
REMARK    5  A    between atoms: C_23  and  N_24
REMARK                            x       y       z     vdW  Elec       q    Type
REMARK                         _______ _______ _______ _____ _____    ______ ____
ROOT
ATOM      1  C   UNL     1      -0.871   5.923  -2.051  0.00  0.00    +0.175 A 
ATOM      2  C   UNL     1      -1.346   6.831  -2.990  0.00  0.00    +0.206 A 
ATOM      3  C   UNL     1      -0.671   7.034  -4.187  0.00  0.00    +0.175 A 
ATOM      4  C   UNL     1       0.624   6.535  -4.229  0.00  0.00    +0.033 A 
ATOM      5  C   UNL     1       0.976   6.393  -5.649  0.00  0.00    +0.001 A 
ATOM      6  C   UNL     1       2.179   6.187  -6.208  0.00  0.00    +0.001 A 
ATOM      7  C   UNL     1       3.599   5.947  -5.429  0.00  0.00    +0.118 C 
ATOM      8  C   UNL     1       2.908   4.862  -4.356  0.00  0.00    +0.031 C 
ATOM      9  C   UNL     1       2.673   5.531  -3.076  0.00  0.00    +0.029 C 
ATOM     10  C   UNL     1       2.604   5.973  -7.493  0.00  0.00    +0.043 A 
ATOM     11  C   UNL     1       1.729   5.881  -8.573  0.00  0.00    +0.229 A 
ATOM     12  O   UNL     1       2.109   6.349  -9.678  0.00  0.00    -0.283 OA
ATOM     13  C   UNL     1       0.390   5.509  -8.568  0.00  0.00    +0.177 A 
ATOM     14  C   UNL     1      -0.483   5.488  -7.489  0.00  0.00    +0.040 A 
ATOM     15  C   UNL     1      -0.235   6.062  -6.247  0.00  0.00    +0.003 A 
ATOM     16  C   UNL     1       1.285   6.090  -3.092  0.00  0.00    -0.016 A 
ATOM     17  C   UNL     1       0.499   5.686  -2.043  0.00  0.00    +0.036 A 
ENDROOT
BRANCH   7  18
ATOM     18  N   UNL     1       3.378   7.247  -4.509  0.00  0.00    -0.203 NA
ATOM     19  C   UNL     1       4.597   7.693  -3.899  0.00  0.00    +0.242 C 
ATOM     20  O   UNL     1       5.609   7.816  -4.648  0.00  0.00    -0.273 OA
ATOM     21  C   UNL     1       4.797   7.751  -2.424  0.00  0.00    +0.096 C 
ENDBRANCH   7  18
BRANCH   1  23
ATOM     22  C   UNL     1      -2.335   5.352  -0.300  0.00  0.00    +0.253 C 
ATOM     23  O   UNL     1      -1.762   5.013  -1.470  0.00  0.00    -0.468 OA
ENDBRANCH   1  23
BRANCH   2  24
ATOM     24  O   UNL     1      -2.649   7.265  -2.940  0.00  0.00    -0.465 OA
ATOM     25  C   UNL     1      -3.763   6.451  -3.204  0.00  0.00    +0.253 C 
ENDBRANCH   2  24
BRANCH   3  26
ATOM     26  O   UNL     1      -0.882   8.185  -4.953  0.00  0.00    -0.468 OA
ATOM     27  C   UNL     1      -1.969   8.986  -4.494  0.00  0.00    +0.253 C 
ENDBRANCH   3  26
BRANCH  13  28
ATOM     28  O   UNL     1      -0.128   5.281  -9.820  0.00  0.00    -0.468 OA
ATOM     29  C   UNL     1       0.220   4.146 -10.601  0.00  0.00    +0.253 C 
ENDBRANCH  13  28
TORSDOF 5
ENDMDL
