MODEL 1
REMARK VINA RESULT:      -7.6      0.000      0.000
REMARK  Name = 
REMARK  4 active torsions:
REMARK  status: ('A' for Active; 'I' for Inactive)
REMARK    1  A    between atoms: C_5  and  C_6
REMARK    2  A    between atoms: C_6  and  C_14
REMARK    3  A    between atoms: C_7  and  C_8
REMARK    4  A    between atoms: C_8  and  N_9
REMARK                            x       y       z     vdW  Elec       q    Type
REMARK                         _______ _______ _______ _____ _____    ______ ____
ROOT
ATOM      1  C   UNL     1       3.584   5.988 -10.377  0.00  0.00    +0.015 C 
ATOM      2  C   UNL     1       4.527   6.344 -11.250  0.00  0.00    -0.007 C 
ENDROOT
BRANCH   1   7
ATOM      3  C   UNL     1       2.600   6.147  -4.871  0.00  0.00    +0.031 C 
ATOM      4  C   UNL     1       3.053   6.296  -6.281  0.00  0.00    -0.022 A 
ATOM      5  C   UNL     1       2.523   7.277  -7.112  0.00  0.00    -0.004 A 
ATOM      6  C   UNL     1       2.904   7.354  -8.428  0.00  0.00    -0.000 A 
ATOM      7  C   UNL     1       3.783   6.441  -8.994  0.00  0.00    +0.001 A 
ATOM      8  C   UNL     1       4.468   5.636  -8.093  0.00  0.00    -0.000 A 
ATOM      9  C   UNL     1       4.241   5.733  -6.726  0.00  0.00    -0.004 A 
ENDBRANCH   1   7
BRANCH   1  10
ATOM     10  C   UNL     1       2.246   5.613 -10.856  0.00  0.00    +0.081 A 
ATOM     11  N   UNL     1       1.568   6.451 -11.678  0.00  0.00    -0.244 NA
ATOM     12  C   UNL     1       0.564   5.883 -12.390  0.00  0.00    +0.099 A 
ATOM     13  C   UNL     1      -0.173   4.928 -11.701  0.00  0.00    +0.021 A 
ATOM     14  C   UNL     1       0.317   4.298 -10.567  0.00  0.00    +0.003 A 
ATOM     15  C   UNL     1       1.446   4.871  -9.995  0.00  0.00    +0.019 A 
ENDBRANCH   1  10
BRANCH   2  16
ATOM     16  C   UNL     1       5.435   7.489 -10.919  0.00  0.00    +0.099 C 
BRANCH  16  17
ATOM     17  N   UNL     1       6.745   7.211 -11.459  0.00  0.00    -0.269 NA
ATOM     18  C   UNL     1       7.374   6.210 -10.601  0.00  0.00    +0.072 C 
ATOM     19  C   UNL     1       8.458   5.588 -11.464  0.00  0.00    +0.019 C 
ATOM     20  C   UNL     1       8.154   6.071 -12.863  0.00  0.00    +0.019 C 
ATOM     21  C   UNL     1       6.705   6.520 -12.722  0.00  0.00    +0.072 C 
ENDBRANCH  16  17
ENDBRANCH   2  16
TORSDOF 4
ENDMDL
MODEL 2
REMARK VINA RESULT:      -7.6      2.696      5.261
REMARK  Name = 
REMARK  4 active torsions:
REMARK  status: ('A' for Active; 'I' for Inactive)
REMARK    1  A    between atoms: C_5  and  C_6
REMARK    2  A    between atoms: C_6  and  C_14
REMARK    3  A    between atoms: C_7  and  C_8
REMARK    4  A    between atoms: C_8  and  N_9
REMARK                            x       y       z     vdW  Elec       q    Type
REMARK                         _______ _______ _______ _____ _____    ______ ____
ROOT
ATOM      1  C   UNL     1       3.615   6.033  -6.730  0.00  0.00    +0.015 C 
ATOM      2  C   UNL     1       4.595   5.948  -7.630  0.00  0.00    -0.007 C 
ENDROOT
BRANCH   1   7
ATOM      3  C   UNL     1      -1.941   5.374  -6.638  0.00  0.00    +0.031 C 
ATOM      4  C   UNL     1      -0.467   5.344  -6.846  0.00  0.00    -0.022 A 
ATOM      5  C   UNL     1       0.349   4.481  -6.123  0.00  0.00    -0.004 A 
ATOM      6  C   UNL     1       1.712   4.517  -6.280  0.00  0.00    -0.000 A 
ATOM      7  C   UNL     1       2.332   5.434  -7.118  0.00  0.00    +0.001 A 
ATOM      8  C   UNL     1       1.488   6.107  -7.993  0.00  0.00    -0.000 A 
ATOM      9  C   UNL     1       0.117   5.885  -7.983  0.00  0.00    -0.004 A 
ENDBRANCH   1   7
BRANCH   1  10
ATOM     10  C   UNL     1       3.938   6.259  -5.314  0.00  0.00    +0.081 A 
ATOM     11  N   UNL     1       4.216   7.512  -4.880  0.00  0.00    -0.244 NA
ATOM     12  C   UNL     1       4.097   7.705  -3.543  0.00  0.00    +0.099 A 
ATOM     13  C   UNL     1       4.534   6.645  -2.758  0.00  0.00    +0.021 A 
ATOM     14  C   UNL     1       4.669   5.361  -3.265  0.00  0.00    +0.003 A 
ATOM     15  C   UNL     1       4.624   5.248  -4.649  0.00  0.00    +0.019 A 
ENDBRANCH   1  10
BRANCH   2  16
ATOM     16  C   UNL     1       4.502   4.922  -8.718  0.00  0.00    +0.099 C 
BRANCH  16  17
ATOM     17  N   UNL     1       5.222   5.405  -9.872  0.00  0.00    -0.269 NA
ATOM     18  C   UNL     1       4.652   6.699 -10.239  0.00  0.00    +0.072 C 
ATOM     19  C   UNL     1       5.731   7.375 -11.066  0.00  0.00    +0.019 C 
ATOM     20  C   UNL     1       6.965   6.535 -10.842  0.00  0.00    +0.019 C 
ATOM     21  C   UNL     1       6.585   5.766  -9.582  0.00  0.00    +0.072 C 
ENDBRANCH  16  17
ENDBRANCH   2  16
TORSDOF 4
ENDMDL
MODEL 3
REMARK VINA RESULT:      -7.6      3.971      8.569
REMARK  Name = 
REMARK  4 active torsions:
REMARK  status: ('A' for Active; 'I' for Inactive)
REMARK    1  A    between atoms: C_5  and  C_6
REMARK    2  A    between atoms: C_6  and  C_14
REMARK    3  A    between atoms: C_7  and  C_8
REMARK    4  A    between atoms: C_8  and  N_9
REMARK                            x       y       z     vdW  Elec       q    Type
REMARK                         _______ _______ _______ _____ _____    ______ ____
ROOT
ATOM      1  C   UNL     1       1.170   6.336  -5.273  0.00  0.00    +0.015 C 
ATOM      2  C   UNL     1       0.185   6.641  -4.427  0.00  0.00    -0.007 C 
ENDROOT
BRANCH   1   7
ATOM      3  C   UNL     1       1.865   5.698 -10.788  0.00  0.00    +0.031 C 
ATOM      4  C   UNL     1       1.486   6.051  -9.393  0.00  0.00    -0.022 A 
ATOM      5  C   UNL     1       2.057   7.137  -8.740  0.00  0.00    -0.004 A 
ATOM      6  C   UNL     1       1.745   7.405  -7.431  0.00  0.00    -0.000 A 
ATOM      7  C   UNL     1       0.898   6.588  -6.694  0.00  0.00    +0.001 A 
ATOM      8  C   UNL     1       0.169   5.665  -7.434  0.00  0.00    -0.000 A 
ATOM      9  C   UNL     1       0.324   5.563  -8.811  0.00  0.00    -0.004 A 
ENDBRANCH   1   7
BRANCH   1  10
ATOM     10  C   UNL     1       2.552   6.234  -4.782  0.00  0.00    +0.081 A 
ATOM     11  N   UNL     1       3.103   5.013  -4.577  0.00  0.00    -0.244 NA
ATOM     12  C   UNL     1       4.458   4.987  -4.529  0.00  0.00    +0.099 A 
ATOM     13  C   UNL     1       5.042   6.069  -3.883  0.00  0.00    +0.021 A 
ATOM     14  C   UNL     1       4.363   7.263  -3.689  0.00  0.00    +0.003 A 
ATOM     15  C   UNL     1       2.993   7.225  -3.912  0.00  0.00    +0.019 A 
ENDBRANCH   1  10
BRANCH   2  16
ATOM     16  C   UNL     1      -0.892   7.584  -4.869  0.00  0.00    +0.099 C 
BRANCH  16  17
ATOM     17  N   UNL     1      -2.128   7.207  -4.225  0.00  0.00    -0.269 NA
ATOM     18  C   UNL     1      -2.310   5.771  -4.421  0.00  0.00    +0.072 C 
ATOM     19  C   UNL     1      -3.279   5.352  -3.329  0.00  0.00    +0.019 C 
ATOM     20  C   UNL     1      -3.332   6.535  -2.393  0.00  0.00    +0.019 C 
ATOM     21  C   UNL     1      -2.071   7.294  -2.788  0.00  0.00    +0.072 C 
ENDBRANCH  16  17
ENDBRANCH   2  16
TORSDOF 4
ENDMDL
MODEL 4
REMARK VINA RESULT:      -7.5      3.499      7.949
REMARK  Name = 
REMARK  4 active torsions:
REMARK  status: ('A' for Active; 'I' for Inactive)
REMARK    1  A    between atoms: C_5  and  C_6
REMARK    2  A    between atoms: C_6  and  C_14
REMARK    3  A    between atoms: C_7  and  C_8
REMARK    4  A    between atoms: C_8  and  N_9
REMARK                            x       y       z     vdW  Elec       q    Type
REMARK                         _______ _______ _______ _____ _____    ______ ____
ROOT
ATOM      1  C   UNL     1       1.700   5.087  -5.638  0.00  0.00    +0.015 C 
ATOM      2  C   UNL     1       0.401   5.001  -5.346  0.00  0.00    -0.007 C 
ENDROOT
BRANCH   1   7
ATOM      3  C   UNL     1       5.093   5.503 -10.068  0.00  0.00    +0.031 C 
ATOM      4  C   UNL     1       3.987   5.405  -9.076  0.00  0.00    -0.022 A 
ATOM      5  C   UNL     1       3.378   6.541  -8.556  0.00  0.00    -0.004 A 
ATOM      6  C   UNL     1       2.408   6.431  -7.592  0.00  0.00    -0.000 A 
ATOM      7  C   UNL     1       2.030   5.204  -7.064  0.00  0.00    +0.001 A 
ATOM      8  C   UNL     1       2.478   4.091  -7.766  0.00  0.00    -0.000 A 
ATOM      9  C   UNL     1       3.277   4.226  -8.894  0.00  0.00    -0.004 A 
ENDBRANCH   1   7
BRANCH   1  10
ATOM     10  C   UNL     1       2.655   5.522  -4.610  0.00  0.00    +0.081 A 
ATOM     11  N   UNL     1       2.618   6.798  -4.154  0.00  0.00    -0.244 NA
ATOM     12  C   UNL     1       3.221   7.007  -2.958  0.00  0.00    +0.099 A 
ATOM     13  C   UNL     1       4.396   6.293  -2.763  0.00  0.00    +0.021 A 
ATOM     14  C   UNL     1       4.702   5.162  -3.507  0.00  0.00    +0.003 A 
ATOM     15  C   UNL     1       3.923   4.951  -4.637  0.00  0.00    +0.019 A 
ENDBRANCH   1  10
BRANCH   2  16
ATOM     16  C   UNL     1      -0.607   5.459  -6.353  0.00  0.00    +0.099 C 
BRANCH  16  17
ATOM     17  N   UNL     1      -1.521   6.374  -5.710  0.00  0.00    -0.269 NA
ATOM     18  C   UNL     1      -2.119   5.676  -4.575  0.00  0.00    +0.072 C 
ATOM     19  C   UNL     1      -2.625   6.783  -3.665  0.00  0.00    +0.019 C 
ATOM     20  C   UNL     1      -1.992   8.041  -4.208  0.00  0.00    +0.019 C 
ATOM     21  C   UNL     1      -0.859   7.471  -5.053  0.00  0.00    +0.072 C 
ENDBRANCH  16  17
ENDBRANCH   2  16
TORSDOF 4
ENDMDL
MODEL 5
REMARK VINA RESULT:      -7.4      1.176      5.166
REMARK  Name = 
REMARK  4 active torsions:
REMARK  status: ('A' for Active; 'I' for Inactive)
REMARK    1  A    between atoms: C_5  and  C_6
REMARK    2  A    between atoms: C_6  and  C_14
REMARK    3  A    between atoms: C_7  and  C_8
REMARK    4  A    between atoms: C_8  and  N_9
REMARK                            x       y       z     vdW  Elec       q    Type
REMARK                         _______ _______ _______ _____ _____    ______ ____
ROOT
ATOM      1  C   UNL     1       4.147   6.319 -10.465  0.00  0.00    +0.015 C 
ATOM      2  C   UNL     1       3.238   6.122 -11.422  0.00  0.00    -0.007 C 
ENDROOT
BRANCH   1   7
ATOM      3  C   UNL     1       4.152   7.059  -4.919  0.00  0.00    +0.031 C 
ATOM      4  C   UNL     1       3.941   6.689  -6.345  0.00  0.00    -0.022 A 
ATOM      5  C   UNL     1       4.545   5.566  -6.898  0.00  0.00    -0.004 A 
ATOM      6  C   UNL     1       4.394   5.280  -8.232  0.00  0.00    -0.000 A 
ATOM      7  C   UNL     1       3.683   6.112  -9.087  0.00  0.00    +0.001 A 
ATOM      8  C   UNL     1       2.904   7.080  -8.465  0.00  0.00    -0.000 A 
ATOM      9  C   UNL     1       2.885   7.207  -7.082  0.00  0.00    -0.004 A 
ENDBRANCH   1   7
BRANCH   1  10
ATOM     10  C   UNL     1       5.578   6.258 -10.791  0.00  0.00    +0.081 A 
ATOM     11  N   UNL     1       6.362   7.344 -10.583  0.00  0.00    -0.244 NA
ATOM     12  C   UNL     1       7.693   7.098 -10.511  0.00  0.00    +0.099 A 
ATOM     13  C   UNL     1       8.157   6.134 -11.397  0.00  0.00    +0.021 A 
ATOM     14  C   UNL     1       7.310   5.208 -11.988  0.00  0.00    +0.003 A 
ATOM     15  C   UNL     1       5.951   5.471 -11.875  0.00  0.00    +0.019 A 
ENDBRANCH   1  10
BRANCH   2  16
ATOM     16  C   UNL     1       2.016   5.313 -11.114  0.00  0.00    +0.099 C 
BRANCH  16  17
ATOM     17  N   UNL     1       0.888   5.903 -11.796  0.00  0.00    -0.269 NA
ATOM     18  C   UNL     1       0.151   6.704 -10.821  0.00  0.00    +0.072 C 
ATOM     19  C   UNL     1      -0.659   7.680 -11.657  0.00  0.00    +0.019 C 
ATOM     20  C   UNL     1      -0.078   7.566 -13.045  0.00  0.00    +0.019 C 
ATOM     21  C   UNL     1       1.265   6.904 -12.760  0.00  0.00    +0.072 C 
ENDBRANCH  16  17
ENDBRANCH   2  16
TORSDOF 4
ENDMDL
MODEL 6
REMARK VINA RESULT:      -7.4      3.521      5.460
REMARK  Name = 
REMARK  4 active torsions:
REMARK  status: ('A' for Active; 'I' for Inactive)
REMARK    1  A    between atoms: C_5  and  C_6
REMARK    2  A    between atoms: C_6  and  C_14
REMARK    3  A    between atoms: C_7  and  C_8
REMARK    4  A    between atoms: C_8  and  N_9
REMARK                            x       y       z     vdW  Elec       q    Type
REMARK                         _______ _______ _______ _____ _____    ______ ____
ROOT
ATOM      1  C   UNL     1       1.332   4.961  -6.606  0.00  0.00    +0.015 C 
ATOM      2  C   UNL     1       1.312   4.509  -7.861  0.00  0.00    -0.007 C 
ENDROOT
BRANCH   1   7
ATOM      3  C   UNL     1       4.903   7.059  -2.845  0.00  0.00    +0.031 C 
ATOM      4  C   UNL     1       4.173   6.492  -4.012  0.00  0.00    -0.022 A 
ATOM      5  C   UNL     1       3.643   7.312  -5.001  0.00  0.00    -0.004 A 
ATOM      6  C   UNL     1       2.914   6.775  -6.033  0.00  0.00    -0.000 A 
ATOM      7  C   UNL     1       2.636   5.417  -6.108  0.00  0.00    +0.001 A 
ATOM      8  C   UNL     1       3.371   4.610  -5.250  0.00  0.00    -0.000 A 
ATOM      9  C   UNL     1       4.290   5.154  -4.361  0.00  0.00    -0.004 A 
ENDBRANCH   1   7
BRANCH   1  10
ATOM     10  C   UNL     1       0.087   5.415  -5.971  0.00  0.00    +0.081 A 
ATOM     11  N   UNL     1      -0.045   5.346  -4.624  0.00  0.00    -0.244 NA
ATOM     12  C   UNL     1      -1.008   6.137  -4.092  0.00  0.00    +0.099 A 
ATOM     13  C   UNL     1      -2.173   6.228  -4.844  0.00  0.00    +0.021 A 
ATOM     14  C   UNL     1      -2.203   5.910  -6.194  0.00  0.00    +0.003 A 
ATOM     15  C   UNL     1      -1.094   5.229  -6.681  0.00  0.00    +0.019 A 
ENDBRANCH   1  10
BRANCH   2  16
ATOM     16  C   UNL     1       2.422   4.888  -8.792  0.00  0.00    +0.099 C 
BRANCH  16  17
ATOM     17  N   UNL     1       1.847   5.428 -10.002  0.00  0.00    -0.269 NA
ATOM     18  C   UNL     1       0.749   4.550 -10.400  0.00  0.00    +0.072 C 
ATOM     19  C   UNL     1      -0.117   5.403 -11.309  0.00  0.00    +0.019 C 
ATOM     20  C   UNL     1       0.390   6.811 -11.108  0.00  0.00    +0.019 C 
ATOM     21  C   UNL     1       1.155   6.674  -9.796  0.00  0.00    +0.072 C 
ENDBRANCH  16  17
ENDBRANCH   2  16
TORSDOF 4
ENDMDL
MODEL 7
REMARK VINA RESULT:      -7.4      3.041      6.554
REMARK  Name = 
REMARK  4 active torsions:
REMARK  status: ('A' for Active; 'I' for Inactive)
REMARK    1  A    between atoms: C_5  and  C_6
REMARK    2  A    between atoms: C_6  and  C_14
REMARK    3  A    between atoms: C_7  and  C_8
REMARK    4  A    between atoms: C_8  and  N_9
REMARK                            x       y       z     vdW  Elec       q    Type
REMARK                         _______ _______ _______ _____ _____    ______ ____
ROOT
ATOM      1  C   UNL     1       3.223   6.583  -6.389  0.00  0.00    +0.015 C 
ATOM      2  C   UNL     1       1.947   6.889  -6.145  0.00  0.00    -0.007 C 
ENDROOT
BRANCH   1   7
ATOM      3  C   UNL     1       4.366   6.298  -0.920  0.00  0.00    +0.031 C 
ATOM      4  C   UNL     1       4.329   6.310  -2.408  0.00  0.00    -0.022 A 
ATOM      5  C   UNL     1       4.667   7.447  -3.131  0.00  0.00    -0.004 A 
ATOM      6  C   UNL     1       4.560   7.459  -4.500  0.00  0.00    -0.000 A 
ATOM      7  C   UNL     1       4.070   6.370  -5.208  0.00  0.00    +0.001 A 
ATOM      8  C   UNL     1       3.971   5.186  -4.489  0.00  0.00    -0.000 A 
ATOM      9  C   UNL     1       4.311   5.132  -3.143  0.00  0.00    -0.004 A 
ENDBRANCH   1   7
BRANCH   1  10
ATOM     10  C   UNL     1       3.606   6.029  -7.695  0.00  0.00    +0.081 A 
ATOM     11  N   UNL     1       2.708   5.307  -8.409  0.00  0.00    -0.244 NA
ATOM     12  C   UNL     1       2.976   5.189  -9.732  0.00  0.00    +0.099 A 
ATOM     13  C   UNL     1       4.320   5.026 -10.045  0.00  0.00    +0.021 A 
ATOM     14  C   UNL     1       5.328   5.381  -9.161  0.00  0.00    +0.003 A 
ATOM     15  C   UNL     1       4.929   5.633  -7.855  0.00  0.00    +0.019 A 
ENDBRANCH   1  10
BRANCH   2  16
ATOM     16  C   UNL     1       1.363   6.571  -4.803  0.00  0.00    +0.099 C 
BRANCH  16  17
ATOM     17  N   UNL     1       0.012   6.097  -4.988  0.00  0.00    -0.269 NA
ATOM     18  C   UNL     1      -0.888   7.224  -4.753  0.00  0.00    +0.072 C 
ATOM     19  C   UNL     1      -2.181   6.837  -5.450  0.00  0.00    +0.019 C 
ATOM     20  C   UNL     1      -1.812   5.646  -6.302  0.00  0.00    +0.019 C 
ATOM     21  C   UNL     1      -0.294   5.769  -6.356  0.00  0.00    +0.072 C 
ENDBRANCH  16  17
ENDBRANCH   2  16
TORSDOF 4
ENDMDL
MODEL 8
REMARK VINA RESULT:      -7.2      2.424      3.668
REMARK  Name = 
REMARK  4 active torsions:
REMARK  status: ('A' for Active; 'I' for Inactive)
REMARK    1  A    between atoms: C_5  and  C_6
REMARK    2  A    between atoms: C_6  and  C_14
REMARK    3  A    between atoms: C_7  and  C_8
REMARK    4  A    between atoms: C_8  and  N_9
REMARK                            x       y       z     vdW  Elec       q    Type
REMARK                         _______ _______ _______ _____ _____    ______ ____
ROOT
ATOM      1  C   UNL     1       3.223   5.058  -7.036  0.00  0.00    +0.015 C 
ATOM      2  C   UNL     1       3.854   4.795  -8.182  0.00  0.00    -0.007 C 
ENDROOT
BRANCH   1   7
ATOM      3  C   UNL     1       4.298   6.988  -1.895  0.00  0.00    +0.031 C 
ATOM      4  C   UNL     1       4.270   6.555  -3.319  0.00  0.00    -0.022 A 
ATOM      5  C   UNL     1       3.932   7.438  -4.337  0.00  0.00    -0.004 A 
ATOM      6  C   UNL     1       3.845   7.003  -5.636  0.00  0.00    -0.000 A 
ATOM      7  C   UNL     1       4.039   5.672  -5.980  0.00  0.00    +0.001 A 
ATOM      8  C   UNL     1       4.604   4.877  -4.990  0.00  0.00    -0.000 A 
ATOM      9  C   UNL     1       4.908   5.396  -3.738  0.00  0.00    -0.004 A 
ENDBRANCH   1   7
BRANCH   1  10
ATOM     10  C   UNL     1       1.759   5.180  -7.016  0.00  0.00    +0.081 A 
ATOM     11  N   UNL     1       1.053   4.637  -5.995  0.00  0.00    -0.244 NA
ATOM     12  C   UNL     1      -0.200   5.128  -5.827  0.00  0.00    +0.099 A 
ATOM     13  C   UNL     1      -0.885   5.398  -7.005  0.00  0.00    +0.021 A 
ATOM     14  C   UNL     1      -0.228   5.570  -8.215  0.00  0.00    +0.003 A 
ATOM     15  C   UNL     1       1.104   5.176  -8.243  0.00  0.00    +0.019 A 
ENDBRANCH   1  10
BRANCH   2  16
ATOM     16  C   UNL     1       5.138   5.501  -8.489  0.00  0.00    +0.099 C 
BRANCH  16  17
ATOM     17  N   UNL     1       5.382   5.419  -9.909  0.00  0.00    -0.269 NA
ATOM     18  C   UNL     1       4.086   5.322 -10.577  0.00  0.00    +0.072 C 
ATOM     19  C   UNL     1       4.354   5.762 -12.005  0.00  0.00    +0.019 C 
ATOM     20  C   UNL     1       5.731   6.381 -11.961  0.00  0.00    +0.019 C 
ATOM     21  C   UNL     1       5.901   6.641 -10.469  0.00  0.00    +0.072 C 
ENDBRANCH  16  17
ENDBRANCH   2  16
TORSDOF 4
ENDMDL
MODEL 9
REMARK VINA RESULT:      -7.2      1.697      2.351
REMARK  Name = 
REMARK  4 active torsions:
REMARK  status: ('A' for Active; 'I' for Inactive)
REMARK    1  A    between atoms: C_5  and  C_6
REMARK    2  A    between atoms: C_6  and  C_14
REMARK    3  A    between atoms: C_7  and  C_8
REMARK    4  A    between atoms: C_8  and  N_9
REMARK                            x       y       z     vdW  Elec       q    Type
REMARK                         _______ _______ _______ _____ _____    ______ ____
ROOT
ATOM      1  C   UNL     1       2.433   5.593 -10.029  0.00  0.00    +0.015 C 
ATOM      2  C   UNL     1       3.585   5.093 -10.479  0.00  0.00    -0.007 C 
ENDROOT
BRANCH   1   7
ATOM      3  C   UNL     1      -0.033   7.046  -5.221  0.00  0.00    +0.031 C 
ATOM      4  C   UNL     1       0.847   6.621  -6.344  0.00  0.00    -0.022 A 
ATOM      5  C   UNL     1       1.655   7.531  -7.015  0.00  0.00    -0.004 A 
ATOM      6  C   UNL     1       2.408   7.133  -8.091  0.00  0.00    -0.000 A 
ATOM      7  C   UNL     1       2.360   5.835  -8.582  0.00  0.00    +0.001 A 
ATOM      8  C   UNL     1       1.738   4.908  -7.755  0.00  0.00    -0.000 A 
ATOM      9  C   UNL     1       1.180   5.287  -6.541  0.00  0.00    -0.004 A 
ENDBRANCH   1   7
BRANCH   1  10
ATOM     10  C   UNL     1       1.526   6.290 -10.952  0.00  0.00    +0.081 A 
ATOM     11  N   UNL     1       0.206   6.376 -10.660  0.00  0.00    -0.244 NA
ATOM     12  C   UNL     1      -0.473   7.352 -11.311  0.00  0.00    +0.099 A 
ATOM     13  C   UNL     1      -0.097   7.541 -12.636  0.00  0.00    +0.021 A 
ATOM     14  C   UNL     1       1.123   7.098 -13.124  0.00  0.00    +0.003 A 
ATOM     15  C   UNL     1       1.818   6.213 -12.309  0.00  0.00    +0.019 A 
ENDBRANCH   1  10
BRANCH   2  16
ATOM     16  C   UNL     1       4.818   5.226  -9.639  0.00  0.00    +0.099 C 
BRANCH  16  17
ATOM     17  N   UNL     1       5.868   5.799 -10.446  0.00  0.00    -0.269 NA
ATOM     18  C   UNL     1       5.458   7.153 -10.811  0.00  0.00    +0.072 C 
ATOM     19  C   UNL     1       6.750   7.862 -11.175  0.00  0.00    +0.019 C 
ATOM     20  C   UNL     1       7.841   6.942 -10.685  0.00  0.00    +0.019 C 
ATOM     21  C   UNL     1       7.077   6.057  -9.707  0.00  0.00    +0.072 C 
ENDBRANCH  16  17
ENDBRANCH   2  16
TORSDOF 4
ENDMDL
