MODEL 1
REMARK VINA RESULT:      -8.5      0.000      0.000
REMARK  Name = 
REMARK  1 active torsions:
REMARK  status: ('A' for Active; 'I' for Inactive)
REMARK    1  A    between atoms: C_8  and  C_9
REMARK                            x       y       z     vdW  Elec       q    Type
REMARK                         _______ _______ _______ _____ _____    ______ ____
ROOT
ATOM      1 CL   UNL     1       1.340   5.911  -7.407  0.00  0.00    -0.082 Cl
ATOM      2  C   UNL     1       1.501   6.310  -9.116  0.00  0.00    +0.058 A 
ATOM      3  C   UNL     1       2.664   5.897  -9.754  0.00  0.00    +0.014 A 
ATOM      4  C   UNL     1       2.646   5.876 -11.122  0.00  0.00    +0.034 A 
ATOM      5  C   UNL     1       4.028   5.740 -11.601  0.00  0.00    +0.078 C 
ATOM      6  N   UNL     1       4.321   5.553 -12.854  0.00  0.00    -0.262 NA
ATOM      7  C   UNL     1       3.524   5.264 -14.014  0.00  0.00    +0.191 C 
ATOM      8  C   UNL     1       2.335   6.132 -14.149  0.00  0.00    +0.172 A 
ATOM      9  N   UNL     1       1.320   6.300 -13.266  0.00  0.00    -0.273 N 
ATOM     10  C   UNL     1       0.500   7.235 -13.804  0.00  0.00    +0.207 A 
ATOM     11  N   UNL     1       0.891   7.450 -15.076  0.00  0.00    -0.125 NA
ATOM     12  N   UNL     1       1.865   6.582 -15.319  0.00  0.00    -0.131 NA
ATOM     13  C   UNL     1       1.490   6.127 -11.853  0.00  0.00    +0.068 A 
ATOM     14  C   UNL     1       0.341   6.506 -11.175  0.00  0.00    +0.019 A 
ATOM     15  C   UNL     1       0.451   6.862  -9.837  0.00  0.00    +0.013 A 
ENDROOT
BRANCH   5  16
ATOM     16  C   UNL     1       5.072   6.362 -10.777  0.00  0.00    +0.017 A 
ATOM     17  C   UNL     1       5.568   7.630 -11.053  0.00  0.00    +0.001 A 
ATOM     18  C   UNL     1       6.933   7.890 -11.054  0.00  0.00    +0.000 A 
ATOM     19  C   UNL     1       7.726   7.078 -10.261  0.00  0.00    +0.000 A 
ATOM     20  C   UNL     1       7.197   5.931  -9.698  0.00  0.00    +0.000 A 
ATOM     21  C   UNL     1       5.997   5.484 -10.225  0.00  0.00    +0.001 A 
ENDBRANCH   5  16
TORSDOF 1
ENDMDL
MODEL 2
REMARK VINA RESULT:      -8.4      4.492      7.435
REMARK  Name = 
REMARK  1 active torsions:
REMARK  status: ('A' for Active; 'I' for Inactive)
REMARK    1  A    between atoms: C_8  and  C_9
REMARK                            x       y       z     vdW  Elec       q    Type
REMARK                         _______ _______ _______ _____ _____    ______ ____
ROOT
ATOM      1 CL   UNL     1       3.180   5.388  -1.723  0.00  0.00    -0.082 Cl
ATOM      2  C   UNL     1       3.262   5.337  -3.482  0.00  0.00    +0.058 A 
ATOM      3  C   UNL     1       2.353   6.122  -4.180  0.00  0.00    +0.014 A 
ATOM      4  C   UNL     1       2.631   6.370  -5.497  0.00  0.00    +0.034 A 
ATOM      5  C   UNL     1       1.423   6.918  -6.129  0.00  0.00    +0.078 C 
ATOM      6  N   UNL     1       1.416   7.381  -7.344  0.00  0.00    -0.262 NA
ATOM      7  C   UNL     1       2.459   7.659  -8.292  0.00  0.00    +0.191 C 
ATOM      8  C   UNL     1       3.441   6.564  -8.434  0.00  0.00    +0.172 A 
ATOM      9  N   UNL     1       4.215   6.006  -7.470  0.00  0.00    -0.273 N 
ATOM     10  C   UNL     1       4.903   5.005  -8.068  0.00  0.00    +0.207 A 
ATOM     11  N   UNL     1       4.721   5.111  -9.400  0.00  0.00    -0.125 NA
ATOM     12  N   UNL     1       4.016   6.218  -9.592  0.00  0.00    -0.131 NA
ATOM     13  C   UNL     1       3.823   5.973  -6.091  0.00  0.00    +0.068 A 
ATOM     14  C   UNL     1       4.718   5.216  -5.350  0.00  0.00    +0.019 A 
ATOM     15  C   UNL     1       4.287   4.676  -4.145  0.00  0.00    +0.013 A 
ENDROOT
BRANCH   5  16
ATOM     16  C   UNL     1       0.136   6.439  -5.611  0.00  0.00    +0.017 A 
ATOM     17  C   UNL     1      -0.542   5.377  -6.195  0.00  0.00    +0.001 A 
ATOM     18  C   UNL     1      -1.905   5.444  -6.458  0.00  0.00    +0.000 A 
ATOM     19  C   UNL     1      -2.656   6.289  -5.660  0.00  0.00    +0.000 A 
ATOM     20  C   UNL     1      -2.027   7.184  -4.814  0.00  0.00    +0.000 A 
ATOM     21  C   UNL     1      -0.683   7.415  -5.054  0.00  0.00    +0.001 A 
ENDBRANCH   5  16
TORSDOF 1
ENDMDL
MODEL 3
REMARK VINA RESULT:      -8.4      7.099      9.904
REMARK  Name = 
REMARK  1 active torsions:
REMARK  status: ('A' for Active; 'I' for Inactive)
REMARK    1  A    between atoms: C_8  and  C_9
REMARK                            x       y       z     vdW  Elec       q    Type
REMARK                         _______ _______ _______ _____ _____    ______ ____
ROOT
ATOM      1 CL   UNL     1       3.348   4.873  -8.170  0.00  0.00    -0.082 Cl
ATOM      2  C   UNL     1       3.228   5.356  -6.480  0.00  0.00    +0.058 A 
ATOM      3  C   UNL     1       2.000   5.178  -5.857  0.00  0.00    +0.014 A 
ATOM      4  C   UNL     1       1.988   5.205  -4.489  0.00  0.00    +0.034 A 
ATOM      5  C   UNL     1       0.595   5.330  -4.041  0.00  0.00    +0.078 C 
ATOM      6  N   UNL     1       0.250   5.244  -2.789  0.00  0.00    -0.262 NA
ATOM      7  C   UNL     1       0.963   4.863  -1.601  0.00  0.00    +0.191 C 
ATOM      8  C   UNL     1       2.282   5.513  -1.466  0.00  0.00    +0.172 A 
ATOM      9  N   UNL     1       3.328   5.468  -2.328  0.00  0.00    -0.273 N 
ATOM     10  C   UNL     1       4.289   6.265  -1.801  0.00  0.00    +0.207 A 
ATOM     11  N   UNL     1       3.918   6.591  -0.547  0.00  0.00    -0.125 NA
ATOM     12  N   UNL     1       2.803   5.917  -0.300  0.00  0.00    -0.131 NA
ATOM     13  C   UNL     1       3.156   5.276  -3.738  0.00  0.00    +0.068 A 
ATOM     14  C   UNL     1       4.366   5.422  -4.399  0.00  0.00    +0.019 A 
ATOM     15  C   UNL     1       4.346   5.742  -5.751  0.00  0.00    +0.013 A 
ENDROOT
BRANCH   5  16
ATOM     16  C   UNL     1      -0.308   6.095  -4.910  0.00  0.00    +0.017 A 
ATOM     17  C   UNL     1      -0.580   7.439  -4.688  0.00  0.00    +0.001 A 
ATOM     18  C   UNL     1      -1.878   7.932  -4.730  0.00  0.00    +0.000 A 
ATOM     19  C   UNL     1      -2.785   7.243  -5.516  0.00  0.00    +0.000 A 
ATOM     20  C   UNL     1      -2.454   6.002  -6.029  0.00  0.00    +0.000 A 
ATOM     21  C   UNL     1      -1.362   5.372  -5.457  0.00  0.00    +0.001 A 
ENDBRANCH   5  16
TORSDOF 1
ENDMDL
MODEL 4
REMARK VINA RESULT:      -8.2      3.288      4.725
REMARK  Name = 
REMARK  1 active torsions:
REMARK  status: ('A' for Active; 'I' for Inactive)
REMARK    1  A    between atoms: C_8  and  C_9
REMARK                            x       y       z     vdW  Elec       q    Type
REMARK                         _______ _______ _______ _____ _____    ______ ____
ROOT
ATOM      1 CL   UNL     1       1.444   5.385 -14.039  0.00  0.00    -0.082 Cl
ATOM      2  C   UNL     1       1.345   5.316 -12.281  0.00  0.00    +0.058 A 
ATOM      3  C   UNL     1       2.247   6.094 -11.566  0.00  0.00    +0.014 A 
ATOM      4  C   UNL     1       1.956   6.329 -10.250  0.00  0.00    +0.034 A 
ATOM      5  C   UNL     1       3.158   6.870  -9.600  0.00  0.00    +0.078 C 
ATOM      6  N   UNL     1       3.154   7.320  -8.380  0.00  0.00    -0.262 NA
ATOM      7  C   UNL     1       2.101   7.589  -7.440  0.00  0.00    +0.191 C 
ATOM      8  C   UNL     1       1.118   6.494  -7.319  0.00  0.00    +0.172 A 
ATOM      9  N   UNL     1       0.353   5.946  -8.296  0.00  0.00    -0.273 N 
ATOM     10  C   UNL     1      -0.342   4.939  -7.714  0.00  0.00    +0.207 A 
ATOM     11  N   UNL     1      -0.173   5.032  -6.380  0.00  0.00    -0.125 NA
ATOM     12  N   UNL     1       0.531   6.137  -6.169  0.00  0.00    -0.131 NA
ATOM     13  C   UNL     1       0.758   5.926  -9.671  0.00  0.00    +0.068 A 
ATOM     14  C   UNL     1      -0.130   5.178 -10.428  0.00  0.00    +0.019 A 
ATOM     15  C   UNL     1       0.313   4.649 -11.635  0.00  0.00    +0.013 A 
ENDROOT
BRANCH   5  16
ATOM     16  C   UNL     1       4.450   6.395 -10.111  0.00  0.00    +0.017 A 
ATOM     17  C   UNL     1       5.198   5.436  -9.440  0.00  0.00    +0.001 A 
ATOM     18  C   UNL     1       6.564   5.594  -9.236  0.00  0.00    +0.000 A 
ATOM     19  C   UNL     1       7.246   6.379 -10.150  0.00  0.00    +0.000 A 
ATOM     20  C   UNL     1       6.547   7.145 -11.063  0.00  0.00    +0.000 A 
ATOM     21  C   UNL     1       5.201   7.340 -10.800  0.00  0.00    +0.001 A 
ENDBRANCH   5  16
TORSDOF 1
ENDMDL
MODEL 5
REMARK VINA RESULT:      -7.8      5.809      7.903
REMARK  Name = 
REMARK  1 active torsions:
REMARK  status: ('A' for Active; 'I' for Inactive)
REMARK    1  A    between atoms: C_8  and  C_9
REMARK                            x       y       z     vdW  Elec       q    Type
REMARK                         _______ _______ _______ _____ _____    ______ ____
ROOT
ATOM      1 CL   UNL     1      -2.343   6.166  -6.337  0.00  0.00    -0.082 Cl
ATOM      2  C   UNL     1      -0.821   5.958  -5.474  0.00  0.00    +0.058 A 
ATOM      3  C   UNL     1       0.317   6.494  -6.063  0.00  0.00    +0.014 A 
ATOM      4  C   UNL     1       1.412   6.658  -5.259  0.00  0.00    +0.034 A 
ATOM      5  C   UNL     1       2.579   6.914  -6.114  0.00  0.00    +0.078 C 
ATOM      6  N   UNL     1       3.741   7.247  -5.633  0.00  0.00    -0.262 NA
ATOM      7  C   UNL     1       4.188   7.615  -4.318  0.00  0.00    +0.191 C 
ATOM      8  C   UNL     1       3.714   6.707  -3.254  0.00  0.00    +0.172 A 
ATOM      9  N   UNL     1       2.435   6.395  -2.931  0.00  0.00    -0.273 N 
ATOM     10  C   UNL     1       2.507   5.480  -1.934  0.00  0.00    +0.207 A 
ATOM     11  N   UNL     1       3.787   5.421  -1.514  0.00  0.00    -0.125 NA
ATOM     12  N   UNL     1       4.443   6.359  -2.186  0.00  0.00    -0.131 NA
ATOM     13  C   UNL     1       1.368   6.426  -3.889  0.00  0.00    +0.068 A 
ATOM     14  C   UNL     1       0.202   5.920  -3.335  0.00  0.00    +0.019 A 
ATOM     15  C   UNL     1      -0.777   5.431  -4.190  0.00  0.00    +0.013 A 
ENDROOT
BRANCH   5  16
ATOM     16  C   UNL     1       2.584   6.264  -7.430  0.00  0.00    +0.017 A 
ATOM     17  C   UNL     1       2.947   4.932  -7.590  0.00  0.00    +0.001 A 
ATOM     18  C   UNL     1       3.821   4.535  -8.595  0.00  0.00    +0.000 A 
ATOM     19  C   UNL     1       3.874   5.328  -9.728  0.00  0.00    +0.000 A 
ATOM     20  C   UNL     1       3.262   6.568  -9.735  0.00  0.00    +0.000 A 
ATOM     21  C   UNL     1       2.912   7.087  -8.500  0.00  0.00    +0.001 A 
ENDBRANCH   5  16
TORSDOF 1
ENDMDL
MODEL 6
REMARK VINA RESULT:      -7.7      8.012     10.697
REMARK  Name = 
REMARK  1 active torsions:
REMARK  status: ('A' for Active; 'I' for Inactive)
REMARK    1  A    between atoms: C_8  and  C_9
REMARK                            x       y       z     vdW  Elec       q    Type
REMARK                         _______ _______ _______ _____ _____    ______ ____
ROOT
ATOM      1 CL   UNL     1       4.631   6.599  -6.032  0.00  0.00    -0.082 Cl
ATOM      2  C   UNL     1       3.721   6.944  -4.564  0.00  0.00    +0.058 A 
ATOM      3  C   UNL     1       2.495   6.308  -4.416  0.00  0.00    +0.014 A 
ATOM      4  C   UNL     1       1.959   6.280  -3.157  0.00  0.00    +0.034 A 
ATOM      5  C   UNL     1       0.551   5.873  -3.263  0.00  0.00    +0.078 C 
ATOM      6  N   UNL     1      -0.187   5.622  -2.222  0.00  0.00    -0.262 NA
ATOM      7  C   UNL     1       0.108   5.485  -0.823  0.00  0.00    +0.191 C 
ATOM      8  C   UNL     1       0.960   6.566  -0.286  0.00  0.00    +0.172 A 
ATOM      9  N   UNL     1       2.198   6.936  -0.698  0.00  0.00    -0.273 N 
ATOM     10  C   UNL     1       2.544   8.008   0.054  0.00  0.00    +0.207 A 
ATOM     11  N   UNL     1       1.638   8.132   1.045  0.00  0.00    -0.125 NA
ATOM     12  N   UNL     1       0.825   7.089   0.939  0.00  0.00    -0.131 NA
ATOM     13  C   UNL     1       2.651   6.745  -2.045  0.00  0.00    +0.068 A 
ATOM     14  C   UNL     1       3.887   7.346  -2.232  0.00  0.00    +0.019 A 
ATOM     15  C   UNL     1       4.268   7.685  -3.524  0.00  0.00    +0.013 A 
ENDROOT
BRANCH   5  16
ATOM     16  C   UNL     1      -0.162   6.287  -4.478  0.00  0.00    +0.017 A 
ATOM     17  C   UNL     1      -1.044   7.360  -4.484  0.00  0.00    +0.001 A 
ATOM     18  C   UNL     1      -2.292   7.270  -5.087  0.00  0.00    +0.000 A 
ATOM     19  C   UNL     1      -2.423   6.361  -6.123  0.00  0.00    +0.000 A 
ATOM     20  C   UNL     1      -1.422   5.438  -6.365  0.00  0.00    +0.000 A 
ATOM     21  C   UNL     1      -0.493   5.259  -5.353  0.00  0.00    +0.001 A 
ENDBRANCH   5  16
TORSDOF 1
ENDMDL
MODEL 7
REMARK VINA RESULT:      -7.6      2.481      4.460
REMARK  Name = 
REMARK  1 active torsions:
REMARK  status: ('A' for Active; 'I' for Inactive)
REMARK    1  A    between atoms: C_8  and  C_9
REMARK                            x       y       z     vdW  Elec       q    Type
REMARK                         _______ _______ _______ _____ _____    ______ ____
ROOT
ATOM      1 CL   UNL     1       7.850   6.610 -10.059  0.00  0.00    -0.082 Cl
ATOM      2  C   UNL     1       6.338   6.053 -10.772  0.00  0.00    +0.058 A 
ATOM      3  C   UNL     1       5.175   6.289 -10.050  0.00  0.00    +0.014 A 
ATOM      4  C   UNL     1       3.992   6.195 -10.732  0.00  0.00    +0.034 A 
ATOM      5  C   UNL     1       2.896   6.148  -9.754  0.00  0.00    +0.078 C 
ATOM      6  N   UNL     1       1.644   6.197 -10.101  0.00  0.00    -0.262 NA
ATOM      7  C   UNL     1       0.983   6.467 -11.348  0.00  0.00    +0.191 C 
ATOM      8  C   UNL     1       1.543   5.718 -12.492  0.00  0.00    +0.172 A 
ATOM      9  N   UNL     1       2.817   5.730 -12.954  0.00  0.00    -0.273 N 
ATOM     10  C   UNL     1       2.859   4.841 -13.976  0.00  0.00    +0.207 A 
ATOM     11  N   UNL     1       1.593   4.480 -14.267  0.00  0.00    -0.125 NA
ATOM     12  N   UNL     1       0.808   5.220 -13.494  0.00  0.00    -0.131 NA
ATOM     13  C   UNL     1       3.942   6.003 -12.108  0.00  0.00    +0.068 A 
ATOM     14  C   UNL     1       5.129   5.803 -12.797  0.00  0.00    +0.019 A 
ATOM     15  C   UNL     1       6.283   5.552 -12.066  0.00  0.00    +0.013 A 
ENDROOT
BRANCH   5  16
ATOM     16  C   UNL     1       3.189   5.495  -8.473  0.00  0.00    +0.017 A 
ATOM     17  C   UNL     1       2.800   4.188  -8.208  0.00  0.00    +0.001 A 
ATOM     18  C   UNL     1       2.190   3.841  -7.009  0.00  0.00    +0.000 A 
ATOM     19  C   UNL     1       2.476   4.633  -5.910  0.00  0.00    +0.000 A 
ATOM     20  C   UNL     1       3.142   5.833  -6.075  0.00  0.00    +0.000 A 
ATOM     21  C   UNL     1       3.195   6.334  -7.364  0.00  0.00    +0.001 A 
ENDBRANCH   5  16
TORSDOF 1
ENDMDL
MODEL 8
REMARK VINA RESULT:      -7.6      2.838      5.139
REMARK  Name = 
REMARK  1 active torsions:
REMARK  status: ('A' for Active; 'I' for Inactive)
REMARK    1  A    between atoms: C_8  and  C_9
REMARK                            x       y       z     vdW  Elec       q    Type
REMARK                         _______ _______ _______ _____ _____    ______ ____
ROOT
ATOM      1 CL   UNL     1      -0.196   4.670 -11.250  0.00  0.00    -0.082 Cl
ATOM      2  C   UNL     1       1.400   5.372 -10.992  0.00  0.00    +0.058 A 
ATOM      3  C   UNL     1       2.060   5.025  -9.820  0.00  0.00    +0.014 A 
ATOM      4  C   UNL     1       3.408   5.261  -9.776  0.00  0.00    +0.034 A 
ATOM      5  C   UNL     1       3.851   5.143  -8.380  0.00  0.00    +0.078 C 
ATOM      6  N   UNL     1       5.106   5.178  -8.037  0.00  0.00    -0.262 NA
ATOM      7  C   UNL     1       6.328   5.154  -8.792  0.00  0.00    +0.191 C 
ATOM      8  C   UNL     1       6.341   6.093  -9.933  0.00  0.00    +0.172 A 
ATOM      9  N   UNL     1       5.481   6.147 -10.980  0.00  0.00    -0.273 N 
ATOM     10  C   UNL     1       5.863   7.208 -11.730  0.00  0.00    +0.207 A 
ATOM     11  N   UNL     1       7.057   7.635 -11.271  0.00  0.00    -0.125 NA
ATOM     12  N   UNL     1       7.422   6.777 -10.327  0.00  0.00    -0.131 NA
ATOM     13  C   UNL     1       4.121   5.704 -10.884  0.00  0.00    +0.068 A 
ATOM     14  C   UNL     1       3.427   6.010 -12.045  0.00  0.00    +0.019 A 
ATOM     15  C   UNL     1       2.042   6.104 -11.981  0.00  0.00    +0.013 A 
ENDROOT
BRANCH   5  16
ATOM     16  C   UNL     1       2.887   5.544  -7.349  0.00  0.00    +0.017 A 
ATOM     17  C   UNL     1       2.920   6.802  -6.760  0.00  0.00    +0.001 A 
ATOM     18  C   UNL     1       2.814   6.961  -5.384  0.00  0.00    +0.000 A 
ATOM     19  C   UNL     1       2.135   5.975  -4.690  0.00  0.00    +0.000 A 
ATOM     20  C   UNL     1       1.799   4.791  -5.320  0.00  0.00    +0.000 A 
ATOM     21  C   UNL     1       2.450   4.524  -6.513  0.00  0.00    +0.001 A 
ENDBRANCH   5  16
TORSDOF 1
ENDMDL
MODEL 9
REMARK VINA RESULT:      -7.5      5.294      7.081
REMARK  Name = 
REMARK  1 active torsions:
REMARK  status: ('A' for Active; 'I' for Inactive)
REMARK    1  A    between atoms: C_8  and  C_9
REMARK                            x       y       z     vdW  Elec       q    Type
REMARK                         _______ _______ _______ _____ _____    ______ ____
ROOT
ATOM      1 CL   UNL     1       4.371   4.776  -2.620  0.00  0.00    -0.082 Cl
ATOM      2  C   UNL     1       2.930   5.457  -3.372  0.00  0.00    +0.058 A 
ATOM      3  C   UNL     1       2.636   5.042  -4.665  0.00  0.00    +0.014 A 
ATOM      4  C   UNL     1       1.364   5.271  -5.115  0.00  0.00    +0.034 A 
ATOM      5  C   UNL     1       1.347   5.073  -6.571  0.00  0.00    +0.078 C 
ATOM      6  N   UNL     1       0.248   5.085  -7.267  0.00  0.00    -0.262 NA
ATOM      7  C   UNL     1      -1.142   5.101  -6.903  0.00  0.00    +0.191 C 
ATOM      8  C   UNL     1      -1.474   6.103  -5.870  0.00  0.00    +0.172 A 
ATOM      9  N   UNL     1      -0.958   6.219  -4.622  0.00  0.00    -0.273 N 
ATOM     10  C   UNL     1      -1.528   7.320  -4.076  0.00  0.00    +0.207 A 
ATOM     11  N   UNL     1      -2.529   7.717  -4.887  0.00  0.00    -0.125 NA
ATOM     12  N   UNL     1      -2.614   6.806  -5.848  0.00  0.00    -0.131 NA
ATOM     13  C   UNL     1       0.365   5.775  -4.291  0.00  0.00    +0.068 A 
ATOM     14  C   UNL     1       0.693   6.149  -2.996  0.00  0.00    +0.019 A 
ATOM     15  C   UNL     1       2.037   6.243  -2.656  0.00  0.00    +0.013 A 
ENDROOT
BRANCH   5  16
ATOM     16  C   UNL     1       2.576   5.418  -7.295  0.00  0.00    +0.017 A 
ATOM     17  C   UNL     1       2.846   6.715  -7.711  0.00  0.00    +0.001 A 
ATOM     18  C   UNL     1       3.304   6.984  -8.996  0.00  0.00    +0.000 A 
ATOM     19  C   UNL     1       4.003   5.975  -9.635  0.00  0.00    +0.000 A 
ATOM     20  C   UNL     1       4.023   4.700  -9.101  0.00  0.00    +0.000 A 
ATOM     21  C   UNL     1       3.073   4.425  -8.132  0.00  0.00    +0.001 A 
ENDBRANCH   5  16
TORSDOF 1
ENDMDL
