MODEL 1
REMARK VINA RESULT:      -7.0      0.000      0.000
REMARK  Name = 
REMARK  2 active torsions:
REMARK  status: ('A' for Active; 'I' for Inactive)
REMARK    1  A    between atoms: C_8  and  O_9
REMARK    2  A    between atoms: O_9  and  C_10
REMARK                            x       y       z     vdW  Elec       q    Type
REMARK                         _______ _______ _______ _____ _____    ______ ____
ROOT
ATOM      1  O   UNL     1       3.888   5.299 -10.659  0.00  0.00    -0.449 OA
ENDROOT
BRANCH   1   4
ATOM      2  O   UNL     1       1.496   5.295 -12.148  0.00  0.00    -0.283 OA
ATOM      3  C   UNL     1       1.528   5.400 -10.757  0.00  0.00    +0.231 A 
ATOM      4  C   UNL     1       2.710   5.854 -10.182  0.00  0.00    +0.184 A 
ATOM      5  C   UNL     1       2.654   6.634  -9.033  0.00  0.00    +0.042 A 
ATOM      6  C   UNL     1       1.439   6.806  -8.380  0.00  0.00    +0.015 A 
ATOM      7  C   UNL     1       0.409   5.917  -8.669  0.00  0.00    +0.061 A 
ATOM      8 CL   UNL     1      -0.722   5.366  -7.455  0.00  0.00    -0.082 Cl
ATOM      9  C   UNL     1       0.375   5.468  -9.985  0.00  0.00    +0.057 A 
ENDBRANCH   1   4
BRANCH   1  10
ATOM     10  C   UNL     1       5.088   5.984 -10.698  0.00  0.00    +0.156 A 
ATOM     11  C   UNL     1       6.112   5.614  -9.845  0.00  0.00    +0.093 A 
ATOM     12 CL   UNL     1       5.681   5.024  -8.244  0.00  0.00    -0.079 Cl
ATOM     13  C   UNL     1       7.439   5.780 -10.204  0.00  0.00    +0.026 A 
ATOM     14  C   UNL     1       7.742   6.335 -11.438  0.00  0.00    +0.059 A 
ATOM     15 CL   UNL     1       9.305   5.998 -12.168  0.00  0.00    -0.082 Cl
ATOM     16  C   UNL     1       6.756   7.048 -12.091  0.00  0.00    +0.015 A 
ATOM     17  C   UNL     1       5.427   6.778 -11.785  0.00  0.00    +0.039 A 
ENDBRANCH   1  10
TORSDOF 2
ENDMDL
MODEL 2
REMARK VINA RESULT:      -7.0      1.550      6.483
REMARK  Name = 
REMARK  2 active torsions:
REMARK  status: ('A' for Active; 'I' for Inactive)
REMARK    1  A    between atoms: C_8  and  O_9
REMARK    2  A    between atoms: O_9  and  C_10
REMARK                            x       y       z     vdW  Elec       q    Type
REMARK                         _______ _______ _______ _____ _____    ______ ____
ROOT
ATOM      1  O   UNL     1       3.749   5.291 -10.102  0.00  0.00    -0.449 OA
ENDROOT
BRANCH   1   4
ATOM      2  O   UNL     1       5.725   5.071  -8.105  0.00  0.00    -0.283 OA
ATOM      3  C   UNL     1       6.006   5.454  -9.416  0.00  0.00    +0.231 A 
ATOM      4  C   UNL     1       4.956   5.972 -10.165  0.00  0.00    +0.184 A 
ATOM      5  C   UNL     1       5.211   6.971 -11.098  0.00  0.00    +0.042 A 
ATOM      6  C   UNL     1       6.525   7.314 -11.393  0.00  0.00    +0.015 A 
ATOM      7  C   UNL     1       7.530   6.423 -11.035  0.00  0.00    +0.061 A 
ATOM      8 CL   UNL     1       8.953   6.170 -12.020  0.00  0.00    -0.082 Cl
ATOM      9  C   UNL     1       7.297   5.718  -9.858  0.00  0.00    +0.057 A 
ENDBRANCH   1   4
BRANCH   1  10
ATOM     10  C   UNL     1       2.587   5.850  -9.607  0.00  0.00    +0.156 A 
ATOM     11  C   UNL     1       1.382   5.579 -10.229  0.00  0.00    +0.093 A 
ATOM     12 CL   UNL     1       1.383   5.370 -11.976  0.00  0.00    -0.079 Cl
ATOM     13  C   UNL     1       0.196   5.557  -9.515  0.00  0.00    +0.026 A 
ATOM     14  C   UNL     1       0.219   5.818  -8.154  0.00  0.00    +0.059 A 
ATOM     15 CL   UNL     1      -1.082   5.209  -7.142  0.00  0.00    -0.082 Cl
ATOM     16  C   UNL     1       1.326   6.462  -7.634  0.00  0.00    +0.015 A 
ATOM     17  C   UNL     1       2.530   6.373  -8.321  0.00  0.00    +0.039 A 
ENDBRANCH   1  10
TORSDOF 2
ENDMDL
MODEL 3
REMARK VINA RESULT:      -6.8      4.856      8.430
REMARK  Name = 
REMARK  2 active torsions:
REMARK  status: ('A' for Active; 'I' for Inactive)
REMARK    1  A    between atoms: C_8  and  O_9
REMARK    2  A    between atoms: O_9  and  C_10
REMARK                            x       y       z     vdW  Elec       q    Type
REMARK                         _______ _______ _______ _____ _____    ______ ____
ROOT
ATOM      1  O   UNL     1       1.085   4.569  -5.436  0.00  0.00    -0.449 OA
ENDROOT
BRANCH   1   4
ATOM      2  O   UNL     1       2.289   5.717  -7.711  0.00  0.00    -0.283 OA
ATOM      3  C   UNL     1       2.829   5.819  -6.429  0.00  0.00    +0.231 A 
ATOM      4  C   UNL     1       2.439   4.863  -5.498  0.00  0.00    +0.184 A 
ATOM      5  C   UNL     1       3.349   4.433  -4.539  0.00  0.00    +0.042 A 
ATOM      6  C   UNL     1       4.571   5.084  -4.414  0.00  0.00    +0.015 A 
ATOM      7  C   UNL     1       4.702   6.346  -4.982  0.00  0.00    +0.061 A 
ATOM      8 CL   UNL     1       5.646   7.615  -4.237  0.00  0.00    -0.082 Cl
ATOM      9  C   UNL     1       3.989   6.535  -6.161  0.00  0.00    +0.057 A 
ENDBRANCH   1   4
BRANCH   1  10
ATOM     10  C   UNL     1       0.128   5.481  -5.036  0.00  0.00    +0.156 A 
ATOM     11  C   UNL     1      -1.058   5.578  -5.742  0.00  0.00    +0.093 A 
ATOM     12 CL   UNL     1      -1.007   5.317  -7.481  0.00  0.00    -0.079 Cl
ATOM     13  C   UNL     1      -2.234   5.954  -5.117  0.00  0.00    +0.026 A 
ATOM     14  C   UNL     1      -2.219   6.244  -3.761  0.00  0.00    +0.059 A 
ATOM     15 CL   UNL     1      -3.710   6.109  -2.840  0.00  0.00    -0.082 Cl
ATOM     16  C   UNL     1      -1.004   6.527  -3.170  0.00  0.00    +0.015 A 
ATOM     17  C   UNL     1       0.154   6.041  -3.765  0.00  0.00    +0.039 A 
ENDBRANCH   1  10
TORSDOF 2
ENDMDL
MODEL 4
REMARK VINA RESULT:      -6.8      2.176      6.585
REMARK  Name = 
REMARK  2 active torsions:
REMARK  status: ('A' for Active; 'I' for Inactive)
REMARK    1  A    between atoms: C_8  and  O_9
REMARK    2  A    between atoms: O_9  and  C_10
REMARK                            x       y       z     vdW  Elec       q    Type
REMARK                         _______ _______ _______ _____ _____    ______ ____
ROOT
ATOM      1  O   UNL     1       2.511   6.912  -8.395  0.00  0.00    -0.449 OA
ENDROOT
BRANCH   1   4
ATOM      2  O   UNL     1       2.605   6.380 -11.161  0.00  0.00    -0.283 OA
ATOM      3  C   UNL     1       3.745   6.461 -10.360  0.00  0.00    +0.231 A 
ATOM      4  C   UNL     1       3.577   6.259  -8.995  0.00  0.00    +0.184 A 
ATOM      5  C   UNL     1       4.584   5.632  -8.269  0.00  0.00    +0.042 A 
ATOM      6  C   UNL     1       5.807   5.373  -8.877  0.00  0.00    +0.015 A 
ATOM      7  C   UNL     1       6.116   6.060 -10.046  0.00  0.00    +0.061 A 
ATOM      8 CL   UNL     1       7.739   6.593 -10.418  0.00  0.00    -0.082 Cl
ATOM      9  C   UNL     1       5.030   6.327 -10.873  0.00  0.00    +0.057 A 
ENDBRANCH   1   4
BRANCH   1  10
ATOM     10  C   UNL     1       1.598   6.278  -7.575  0.00  0.00    +0.156 A 
ATOM     11  C   UNL     1       1.519   6.632  -6.240  0.00  0.00    +0.093 A 
ATOM     12 CL   UNL     1       3.005   7.101  -5.422  0.00  0.00    -0.079 Cl
ATOM     13  C   UNL     1       0.327   6.540  -5.543  0.00  0.00    +0.026 A 
ATOM     14  C   UNL     1      -0.806   6.077  -6.196  0.00  0.00    +0.059 A 
ATOM     15 CL   UNL     1      -2.391   6.520  -5.579  0.00  0.00    -0.082 Cl
ATOM     16  C   UNL     1      -0.636   5.369  -7.370  0.00  0.00    +0.015 A 
ATOM     17  C   UNL     1       0.527   5.568  -8.103  0.00  0.00    +0.039 A 
ENDBRANCH   1  10
TORSDOF 2
ENDMDL
MODEL 5
REMARK VINA RESULT:      -6.8      1.827      2.118
REMARK  Name = 
REMARK  2 active torsions:
REMARK  status: ('A' for Active; 'I' for Inactive)
REMARK    1  A    between atoms: C_8  and  O_9
REMARK    2  A    between atoms: O_9  and  C_10
REMARK                            x       y       z     vdW  Elec       q    Type
REMARK                         _______ _______ _______ _____ _____    ______ ____
ROOT
ATOM      1  O   UNL     1       4.135   6.642 -10.888  0.00  0.00    -0.449 OA
ENDROOT
BRANCH   1   4
ATOM      2  O   UNL     1       1.698   5.356 -11.474  0.00  0.00    -0.283 OA
ATOM      3  C   UNL     1       2.267   5.366 -10.201  0.00  0.00    +0.231 A 
ATOM      4  C   UNL     1       3.177   6.380  -9.921  0.00  0.00    +0.184 A 
ATOM      5  C   UNL     1       3.239   6.904  -8.635  0.00  0.00    +0.042 A 
ATOM      6  C   UNL     1       2.520   6.297  -7.612  0.00  0.00    +0.015 A 
ATOM      7  C   UNL     1       2.065   4.999  -7.813  0.00  0.00    +0.061 A 
ATOM      8 CL   UNL     1       2.011   3.815  -6.527  0.00  0.00    -0.082 Cl
ATOM      9  C   UNL     1       1.698   4.703  -9.121  0.00  0.00    +0.057 A 
ENDBRANCH   1   4
BRANCH   1  10
ATOM     10  C   UNL     1       5.298   5.908 -11.024  0.00  0.00    +0.156 A 
ATOM     11  C   UNL     1       5.670   5.445 -12.272  0.00  0.00    +0.093 A 
ATOM     12 CL   UNL     1       4.396   4.973 -13.391  0.00  0.00    -0.079 Cl
ATOM     13  C   UNL     1       7.002   5.275 -12.606  0.00  0.00    +0.026 A 
ATOM     14  C   UNL     1       7.979   5.568 -11.667  0.00  0.00    +0.059 A 
ATOM     15 CL   UNL     1       9.602   5.962 -12.213  0.00  0.00    -0.082 Cl
ATOM     16  C   UNL     1       7.604   5.641 -10.339  0.00  0.00    +0.015 A 
ATOM     17  C   UNL     1       6.277   5.922 -10.038  0.00  0.00    +0.039 A 
ENDBRANCH   1  10
TORSDOF 2
ENDMDL
MODEL 6
REMARK VINA RESULT:      -6.8      1.834      2.048
REMARK  Name = 
REMARK  2 active torsions:
REMARK  status: ('A' for Active; 'I' for Inactive)
REMARK    1  A    between atoms: C_8  and  O_9
REMARK    2  A    between atoms: O_9  and  C_10
REMARK                            x       y       z     vdW  Elec       q    Type
REMARK                         _______ _______ _______ _____ _____    ______ ____
ROOT
ATOM      1  O   UNL     1       3.895   5.727 -10.083  0.00  0.00    -0.449 OA
ENDROOT
BRANCH   1   4
ATOM      2  O   UNL     1       2.293   3.765  -8.847  0.00  0.00    -0.283 OA
ATOM      3  C   UNL     1       2.655   4.959  -8.222  0.00  0.00    +0.231 A 
ATOM      4  C   UNL     1       3.025   6.018  -9.043  0.00  0.00    +0.184 A 
ATOM      5  C   UNL     1       2.714   7.318  -8.661  0.00  0.00    +0.042 A 
ATOM      6  C   UNL     1       2.196   7.554  -7.392  0.00  0.00    +0.015 A 
ATOM      7  C   UNL     1       2.345   6.562  -6.430  0.00  0.00    +0.061 A 
ATOM      8 CL   UNL     1       2.636   6.927  -4.745  0.00  0.00    -0.082 Cl
ATOM      9  C   UNL     1       2.289   5.260  -6.916  0.00  0.00    +0.057 A 
ENDBRANCH   1   4
BRANCH   1  10
ATOM     10  C   UNL     1       5.159   6.274 -10.191  0.00  0.00    +0.156 A 
ATOM     11  C   UNL     1       6.225   5.656  -9.563  0.00  0.00    +0.093 A 
ATOM     12 CL   UNL     1       5.926   4.854  -8.026  0.00  0.00    -0.079 Cl
ATOM     13  C   UNL     1       7.506   5.736 -10.081  0.00  0.00    +0.026 A 
ATOM     14  C   UNL     1       7.722   6.456 -11.246  0.00  0.00    +0.059 A 
ATOM     15 CL   UNL     1       9.123   6.081 -12.238  0.00  0.00    -0.082 Cl
ATOM     16  C   UNL     1       6.763   7.373 -11.632  0.00  0.00    +0.015 A 
ATOM     17  C   UNL     1       5.460   7.200 -11.181  0.00  0.00    +0.039 A 
ENDBRANCH   1  10
TORSDOF 2
ENDMDL
MODEL 7
REMARK VINA RESULT:      -6.8      3.798      5.299
REMARK  Name = 
REMARK  2 active torsions:
REMARK  status: ('A' for Active; 'I' for Inactive)
REMARK    1  A    between atoms: C_8  and  O_9
REMARK    2  A    between atoms: O_9  and  C_10
REMARK                            x       y       z     vdW  Elec       q    Type
REMARK                         _______ _______ _______ _____ _____    ______ ____
ROOT
ATOM      1  O   UNL     1       0.905   4.852  -7.709  0.00  0.00    -0.449 OA
ENDROOT
BRANCH   1   4
ATOM      2  O   UNL     1       1.676   4.769  -5.000  0.00  0.00    -0.283 OA
ATOM      3  C   UNL     1       0.628   5.560  -5.470  0.00  0.00    +0.231 A 
ATOM      4  C   UNL     1       0.043   5.188  -6.675  0.00  0.00    +0.184 A 
ATOM      5  C   UNL     1      -1.319   5.392  -6.865  0.00  0.00    +0.042 A 
ATOM      6  C   UNL     1      -2.041   6.116  -5.923  0.00  0.00    +0.015 A 
ATOM      7  C   UNL     1      -1.335   6.914  -5.030  0.00  0.00    +0.061 A 
ATOM      8 CL   UNL     1      -1.935   8.461  -4.479  0.00  0.00    -0.082 Cl
ATOM      9  C   UNL     1      -0.098   6.408  -4.643  0.00  0.00    +0.057 A 
ENDBRANCH   1   4
BRANCH   1  10
ATOM     10  C   UNL     1       0.836   5.417  -8.968  0.00  0.00    +0.156 A 
ATOM     11  C   UNL     1       1.731   6.411  -9.319  0.00  0.00    +0.093 A 
ATOM     12 CL   UNL     1       2.258   7.528  -8.066  0.00  0.00    -0.079 Cl
ATOM     13  C   UNL     1       2.138   6.578 -10.632  0.00  0.00    +0.026 A 
ATOM     14  C   UNL     1       1.630   5.737 -11.611  0.00  0.00    +0.059 A 
ATOM     15 CL   UNL     1       2.542   5.501 -13.095  0.00  0.00    -0.082 Cl
ATOM     16  C   UNL     1       0.473   5.036 -11.330  0.00  0.00    +0.015 A 
ATOM     17  C   UNL     1       0.151   4.790 -10.001  0.00  0.00    +0.039 A 
ENDBRANCH   1  10
TORSDOF 2
ENDMDL
MODEL 8
REMARK VINA RESULT:      -6.7      2.809      3.962
REMARK  Name = 
REMARK  2 active torsions:
REMARK  status: ('A' for Active; 'I' for Inactive)
REMARK    1  A    between atoms: C_8  and  O_9
REMARK    2  A    between atoms: O_9  and  C_10
REMARK                            x       y       z     vdW  Elec       q    Type
REMARK                         _______ _______ _______ _____ _____    ______ ____
ROOT
ATOM      1  O   UNL     1       2.230   6.836  -7.983  0.00  0.00    -0.449 OA
ENDROOT
BRANCH   1   4
ATOM      2  O   UNL     1       2.444   6.895  -5.174  0.00  0.00    -0.283 OA
ATOM      3  C   UNL     1       1.224   6.801  -5.844  0.00  0.00    +0.231 A 
ATOM      4  C   UNL     1       1.252   6.319  -7.147  0.00  0.00    +0.184 A 
ATOM      5  C   UNL     1       0.191   5.550  -7.613  0.00  0.00    +0.042 A 
ATOM      6  C   UNL     1      -0.953   5.417  -6.834  0.00  0.00    +0.015 A 
ATOM      7  C   UNL     1      -1.154   6.332  -5.806  0.00  0.00    +0.061 A 
ATOM      8 CL   UNL     1      -2.743   6.925  -5.377  0.00  0.00    -0.082 Cl
ATOM      9  C   UNL     1       0.006   6.771  -5.177  0.00  0.00    +0.057 A 
ENDBRANCH   1   4
BRANCH   1  10
ATOM     10  C   UNL     1       3.226   6.067  -8.553  0.00  0.00    +0.156 A 
ATOM     11  C   UNL     1       3.419   6.108  -9.922  0.00  0.00    +0.093 A 
ATOM     12 CL   UNL     1       2.006   6.317 -10.950  0.00  0.00    -0.079 Cl
ATOM     13  C   UNL     1       4.672   5.905 -10.475  0.00  0.00    +0.026 A 
ATOM     14  C   UNL     1       5.748   5.649  -9.639  0.00  0.00    +0.059 A 
ATOM     15 CL   UNL     1       7.375   6.001 -10.206  0.00  0.00    -0.082 Cl
ATOM     16  C   UNL     1       5.486   5.225  -8.352  0.00  0.00    +0.015 A 
ATOM     17  C   UNL     1       4.257   5.541  -7.785  0.00  0.00    +0.039 A 
ENDBRANCH   1  10
TORSDOF 2
ENDMDL
MODEL 9
REMARK VINA RESULT:      -6.7      3.860      7.995
REMARK  Name = 
REMARK  2 active torsions:
REMARK  status: ('A' for Active; 'I' for Inactive)
REMARK    1  A    between atoms: C_8  and  O_9
REMARK    2  A    between atoms: O_9  and  C_10
REMARK                            x       y       z     vdW  Elec       q    Type
REMARK                         _______ _______ _______ _____ _____    ______ ____
ROOT
ATOM      1  O   UNL     1       1.020   6.733  -5.926  0.00  0.00    -0.449 OA
ENDROOT
BRANCH   1   4
ATOM      2  O   UNL     1       1.999   8.433  -7.949  0.00  0.00    -0.283 OA
ATOM      3  C   UNL     1       2.555   7.185  -7.666  0.00  0.00    +0.231 A 
ATOM      4  C   UNL     1       1.746   6.264  -7.010  0.00  0.00    +0.184 A 
ATOM      5  C   UNL     1       1.877   4.911  -7.302  0.00  0.00    +0.042 A 
ATOM      6  C   UNL     1       2.922   4.482  -8.111  0.00  0.00    +0.015 A 
ATOM      7  C   UNL     1       3.999   5.343  -8.300  0.00  0.00    +0.061 A 
ATOM      8 CL   UNL     1       5.645   4.769  -8.430  0.00  0.00    -0.082 Cl
ATOM      9  C   UNL     1       3.670   6.694  -8.334  0.00  0.00    +0.057 A 
ENDBRANCH   1   4
BRANCH   1  10
ATOM     10  C   UNL     1      -0.023   6.033  -5.350  0.00  0.00    +0.156 A 
ATOM     11  C   UNL     1       0.043   5.690  -4.012  0.00  0.00    +0.093 A 
ATOM     12 CL   UNL     1       1.621   5.300  -3.336  0.00  0.00    -0.079 Cl
ATOM     13  C   UNL     1      -1.103   5.572  -3.245  0.00  0.00    +0.026 A 
ATOM     14  C   UNL     1      -2.339   5.795  -3.834  0.00  0.00    +0.059 A 
ATOM     15 CL   UNL     1      -3.698   6.262  -2.823  0.00  0.00    -0.082 Cl
ATOM     16  C   UNL     1      -2.421   5.742  -5.212  0.00  0.00    +0.015 A 
ATOM     17  C   UNL     1      -1.271   5.974  -5.956  0.00  0.00    +0.039 A 
ENDBRANCH   1  10
TORSDOF 2
ENDMDL
