MODEL 1
REMARK VINA RESULT:      -8.3      0.000      0.000
REMARK  Name = 
REMARK  3 active torsions:
REMARK  status: ('A' for Active; 'I' for Inactive)
REMARK    1  A    between atoms: C_2  and  C_4
REMARK    2  A    between atoms: N_10  and  C_11
REMARK    3  A    between atoms: C_14  and  C_15
REMARK                            x       y       z     vdW  Elec       q    Type
REMARK                         _______ _______ _______ _____ _____    ______ ____
ROOT
ATOM      1  C   UNL     1       0.760   5.689  -6.158  0.00  0.00    +0.076 A 
ATOM      2  C   UNL     1       1.682   5.489  -7.151  0.00  0.00    +0.107 A 
ATOM      3  C   UNL     1       1.271   4.965  -8.371  0.00  0.00    +0.039 A 
ATOM      4  C   UNL     1       2.456   4.806  -9.065  0.00  0.00    +0.102 A 
ATOM      5  N   UNL     1       3.459   5.416  -8.395  0.00  0.00    -0.228 N 
ATOM      6  C   UNL     1      -0.067   4.946  -8.696  0.00  0.00    +0.003 A 
ATOM      7  C   UNL     1      -0.961   5.541  -7.811  0.00  0.00    +0.000 A 
ATOM      8  N   UNL     1       3.028   5.526  -7.144  0.00  0.00    -0.165 NA
ATOM      9  C   UNL     1      -0.566   5.813  -6.512  0.00  0.00    +0.006 A 
ENDROOT
BRANCH   5  10
ATOM     10  C   UNL     1       4.643   6.017  -8.933  0.00  0.00    +0.083 A 
ATOM     11  C   UNL     1       4.540   7.053  -9.853  0.00  0.00    +0.019 A 
ATOM     12  C   UNL     1       5.434   7.139 -10.906  0.00  0.00    -0.003 A 
ATOM     13  C   UNL     1       6.512   6.261 -10.893  0.00  0.00    -0.021 A 
ATOM     14  C   UNL     1       6.918   5.792  -9.669  0.00  0.00    -0.003 A 
ATOM     15  C   UNL     1       5.899   5.457  -8.785  0.00  0.00    +0.019 A 
BRANCH  13  16
ATOM     16  C   UNL     1       7.709   6.912 -11.789  0.00  0.00    +0.040 C 
ATOM     17  C   UNL     1       8.081   5.477 -12.532  0.00  0.00    +0.093 C 
ATOM     18  N   UNL     1       6.890   4.729 -12.675  0.00  0.00    -0.218 NA
ATOM     19  C   UNL     1       6.015   5.260 -13.722  0.00  0.00    +0.089 C 
ATOM     20  C   UNL     1       6.722   6.556 -14.114  0.00  0.00    +0.019 C 
ATOM     21  C   UNL     1       6.631   7.429 -12.939  0.00  0.00    +0.007 C 
ENDBRANCH  13  16
ENDBRANCH   5  10
BRANCH   1  23
ATOM     22  N   UNL     1       0.933   5.024  -4.085  0.00  0.00    -0.084 NA
ATOM     23  C   UNL     1       1.157   5.738  -4.747  0.00  0.00    +0.286 C 
ATOM     24  O   UNL     1       1.747   6.789  -4.352  0.00  0.00    -0.267 OA
ENDBRANCH   1  23
TORSDOF 3
ENDMDL
MODEL 2
REMARK VINA RESULT:      -8.3      2.924      8.931
REMARK  Name = 
REMARK  3 active torsions:
REMARK  status: ('A' for Active; 'I' for Inactive)
REMARK    1  A    between atoms: C_2  and  C_4
REMARK    2  A    between atoms: N_10  and  C_11
REMARK    3  A    between atoms: C_14  and  C_15
REMARK                            x       y       z     vdW  Elec       q    Type
REMARK                         _______ _______ _______ _____ _____    ______ ____
ROOT
ATOM      1  C   UNL     1       3.545   5.731  -9.681  0.00  0.00    +0.076 A 
ATOM      2  C   UNL     1       2.674   5.517  -8.647  0.00  0.00    +0.107 A 
ATOM      3  C   UNL     1       3.150   4.996  -7.448  0.00  0.00    +0.039 A 
ATOM      4  C   UNL     1       2.002   4.820  -6.700  0.00  0.00    +0.102 A 
ATOM      5  N   UNL     1       0.960   5.418  -7.319  0.00  0.00    -0.228 N 
ATOM      6  C   UNL     1       4.503   4.995  -7.187  0.00  0.00    +0.003 A 
ATOM      7  C   UNL     1       5.345   5.603  -8.113  0.00  0.00    +0.000 A 
ATOM      8  N   UNL     1       1.329   5.535  -8.589  0.00  0.00    -0.165 NA
ATOM      9  C   UNL     1       4.885   5.873  -9.391  0.00  0.00    +0.006 A 
ENDROOT
BRANCH   5  10
ATOM     10  C   UNL     1      -0.205   6.002  -6.724  0.00  0.00    +0.083 A 
ATOM     11  C   UNL     1      -0.085   7.133  -5.926  0.00  0.00    +0.019 A 
ATOM     12  C   UNL     1      -0.877   7.276  -4.800  0.00  0.00    -0.003 A 
ATOM     13  C   UNL     1      -1.889   6.340  -4.616  0.00  0.00    -0.021 A 
ATOM     14  C   UNL     1      -2.377   5.723  -5.739  0.00  0.00    -0.003 A 
ATOM     15  C   UNL     1      -1.428   5.357  -6.686  0.00  0.00    +0.019 A 
BRANCH  13  16
ATOM     16  C   UNL     1      -3.035   7.010  -3.670  0.00  0.00    +0.040 C 
ATOM     17  C   UNL     1      -3.347   5.597  -2.859  0.00  0.00    +0.093 C 
ATOM     18  N   UNL     1      -2.142   4.864  -2.766  0.00  0.00    -0.218 NA
ATOM     19  C   UNL     1      -1.211   5.436  -1.792  0.00  0.00    +0.089 C 
ATOM     20  C   UNL     1      -1.905   6.739  -1.399  0.00  0.00    +0.019 C 
ATOM     21  C   UNL     1      -1.894   7.573  -2.605  0.00  0.00    +0.007 C 
ENDBRANCH  13  16
ENDBRANCH   5  10
BRANCH   1  23
ATOM     22  N   UNL     1       3.587   5.382 -11.837  0.00  0.00    -0.084 NA
ATOM     23  C   UNL     1       3.081   5.778 -11.072  0.00  0.00    +0.286 C 
ATOM     24  O   UNL     1       2.017   6.428 -11.301  0.00  0.00    -0.267 OA
ENDBRANCH   1  23
TORSDOF 3
ENDMDL
MODEL 3
REMARK VINA RESULT:      -8.2      2.466      8.036
REMARK  Name = 
REMARK  3 active torsions:
REMARK  status: ('A' for Active; 'I' for Inactive)
REMARK    1  A    between atoms: C_2  and  C_4
REMARK    2  A    between atoms: N_10  and  C_11
REMARK    3  A    between atoms: C_14  and  C_15
REMARK                            x       y       z     vdW  Elec       q    Type
REMARK                         _______ _______ _______ _____ _____    ______ ____
ROOT
ATOM      1  C   UNL     1       6.301   6.115 -12.044  0.00  0.00    +0.076 A 
ATOM      2  C   UNL     1       5.490   5.901 -10.962  0.00  0.00    +0.107 A 
ATOM      3  C   UNL     1       6.059   5.691  -9.710  0.00  0.00    +0.039 A 
ATOM      4  C   UNL     1       4.969   5.412  -8.908  0.00  0.00    +0.102 A 
ATOM      5  N   UNL     1       3.829   5.677  -9.582  0.00  0.00    -0.228 N 
ATOM      6  C   UNL     1       7.383   6.006  -9.496  0.00  0.00    +0.003 A 
ATOM      7  C   UNL     1       8.086   6.612 -10.533  0.00  0.00    +0.000 A 
ATOM      8  N   UNL     1       4.169   5.657 -10.866  0.00  0.00    -0.165 NA
ATOM      9  C   UNL     1       7.583   6.569 -11.822  0.00  0.00    +0.006 A 
ENDROOT
BRANCH   5  10
ATOM     10  C   UNL     1       2.568   6.104  -9.053  0.00  0.00    +0.083 A 
ATOM     11  C   UNL     1       2.506   7.198  -8.200  0.00  0.00    +0.019 A 
ATOM     12  C   UNL     1       1.626   7.199  -7.132  0.00  0.00    -0.003 A 
ATOM     13  C   UNL     1       0.712   6.153  -7.067  0.00  0.00    -0.021 A 
ATOM     14  C   UNL     1       0.374   5.547  -8.250  0.00  0.00    -0.003 A 
ATOM     15  C   UNL     1       1.423   5.333  -9.137  0.00  0.00    +0.019 A 
BRANCH  13  16
ATOM     16  C   UNL     1      -0.565   6.649  -6.183  0.00  0.00    +0.040 C 
ATOM     17  C   UNL     1      -0.767   5.176  -5.447  0.00  0.00    +0.093 C 
ATOM     18  N   UNL     1       0.505   4.579  -5.293  0.00  0.00    -0.218 NA
ATOM     19  C   UNL     1       1.297   5.209  -4.235  0.00  0.00    +0.089 C 
ATOM     20  C   UNL     1       0.433   6.408  -3.848  0.00  0.00    +0.019 C 
ATOM     21  C   UNL     1       0.428   7.290  -5.019  0.00  0.00    +0.007 C 
ENDBRANCH  13  16
ENDBRANCH   5  10
BRANCH   1  23
ATOM     22  N   UNL     1       5.847   6.516 -14.143  0.00  0.00    -0.084 NA
ATOM     23  C   UNL     1       5.840   5.838 -13.409  0.00  0.00    +0.286 C 
ATOM     24  O   UNL     1       5.337   4.695 -13.625  0.00  0.00    -0.267 OA
ENDBRANCH   1  23
TORSDOF 3
ENDMDL
MODEL 4
REMARK VINA RESULT:      -8.1      6.339      8.968
REMARK  Name = 
REMARK  3 active torsions:
REMARK  status: ('A' for Active; 'I' for Inactive)
REMARK    1  A    between atoms: C_2  and  C_4
REMARK    2  A    between atoms: N_10  and  C_11
REMARK    3  A    between atoms: C_14  and  C_15
REMARK                            x       y       z     vdW  Elec       q    Type
REMARK                         _______ _______ _______ _____ _____    ______ ____
ROOT
ATOM      1  C   UNL     1      -1.874   5.717  -4.479  0.00  0.00    +0.076 A 
ATOM      2  C   UNL     1      -0.524   5.548  -4.322  0.00  0.00    +0.107 A 
ATOM      3  C   UNL     1       0.240   5.111  -5.398  0.00  0.00    +0.039 A 
ATOM      4  C   UNL     1       1.500   4.958  -4.851  0.00  0.00    +0.102 A 
ATOM      5  N   UNL     1       1.526   5.496  -3.612  0.00  0.00    -0.228 N 
ATOM      6  C   UNL     1      -0.279   5.153  -6.673  0.00  0.00    +0.003 A 
ATOM      7  C   UNL     1      -1.538   5.721  -6.846  0.00  0.00    +0.000 A 
ATOM      8  N   UNL     1       0.256   5.544  -3.225  0.00  0.00    -0.165 NA
ATOM      9  C   UNL     1      -2.368   5.902  -5.752  0.00  0.00    +0.006 A 
ENDROOT
BRANCH   5  10
ATOM     10  C   UNL     1       2.636   6.092  -2.930  0.00  0.00    +0.083 A 
ATOM     11  C   UNL     1       3.178   5.474  -1.811  0.00  0.00    +0.019 A 
ATOM     12  C   UNL     1       3.625   6.234  -0.744  0.00  0.00    -0.003 A 
ATOM     13  C   UNL     1       3.663   7.612  -0.923  0.00  0.00    -0.021 A 
ATOM     14  C   UNL     1       3.793   8.070  -2.210  0.00  0.00    -0.003 A 
ATOM     15  C   UNL     1       3.050   7.391  -3.168  0.00  0.00    +0.019 A 
BRANCH  13  16
ATOM     16  C   UNL     1       4.754   8.230   0.119  0.00  0.00    +0.040 C 
ATOM     17  C   UNL     1       3.876   9.612   0.389  0.00  0.00    +0.093 C 
ATOM     18  N   UNL     1       2.502   9.287   0.307  0.00  0.00    -0.218 NA
ATOM     19  C   UNL     1       2.032   8.537   1.472  0.00  0.00    +0.089 C 
ATOM     20  C   UNL     1       3.328   8.266   2.234  0.00  0.00    +0.019 C 
ATOM     21  C   UNL     1       4.110   7.366   1.380  0.00  0.00    +0.007 C 
ENDBRANCH  13  16
ENDBRANCH   5  10
BRANCH   1  23
ATOM     22  N   UNL     1      -3.355   6.440  -3.045  0.00  0.00    -0.084 NA
ATOM     23  C   UNL     1      -2.787   5.669  -3.331  0.00  0.00    +0.286 C 
ATOM     24  O   UNL     1      -2.779   4.611  -2.634  0.00  0.00    -0.267 OA
ENDBRANCH   1  23
TORSDOF 3
ENDMDL
MODEL 5
REMARK VINA RESULT:      -8.1      2.712      7.849
REMARK  Name = 
REMARK  3 active torsions:
REMARK  status: ('A' for Active; 'I' for Inactive)
REMARK    1  A    between atoms: C_2  and  C_4
REMARK    2  A    between atoms: N_10  and  C_11
REMARK    3  A    between atoms: C_14  and  C_15
REMARK                            x       y       z     vdW  Elec       q    Type
REMARK                         _______ _______ _______ _____ _____    ______ ____
ROOT
ATOM      1  C   UNL     1       5.322   5.900 -11.866  0.00  0.00    +0.076 A 
ATOM      2  C   UNL     1       5.123   5.659 -10.532  0.00  0.00    +0.107 A 
ATOM      3  C   UNL     1       6.206   5.701  -9.661  0.00  0.00    +0.039 A 
ATOM      4  C   UNL     1       5.658   5.311  -8.453  0.00  0.00    +0.102 A 
ATOM      5  N   UNL     1       4.311   5.278  -8.556  0.00  0.00    -0.228 N 
ATOM      6  C   UNL     1       7.388   6.284 -10.061  0.00  0.00    +0.003 A 
ATOM      7  C   UNL     1       7.425   6.893 -11.311  0.00  0.00    +0.000 A 
ATOM      8  N   UNL     1       4.062   5.180  -9.857  0.00  0.00    -0.165 NA
ATOM      9  C   UNL     1       6.439   6.613 -12.243  0.00  0.00    +0.006 A 
ENDROOT
BRANCH   5  10
ATOM     10  C   UNL     1       3.341   5.513  -7.528  0.00  0.00    +0.083 A 
ATOM     11  C   UNL     1       3.187   6.787  -6.995  0.00  0.00    +0.019 A 
ATOM     12  C   UNL     1       2.928   6.949  -5.645  0.00  0.00    -0.003 A 
ATOM     13  C   UNL     1       2.664   5.798  -4.910  0.00  0.00    -0.021 A 
ATOM     14  C   UNL     1       2.152   4.726  -5.595  0.00  0.00    -0.003 A 
ATOM     15  C   UNL     1       2.712   4.487  -6.845  0.00  0.00    +0.019 A 
BRANCH  13  16
ATOM     16  C   UNL     1       1.800   6.223  -3.594  0.00  0.00    +0.040 C 
ATOM     17  C   UNL     1       2.567   5.135  -2.605  0.00  0.00    +0.093 C 
ATOM     18  N   UNL     1       3.906   5.006  -3.041  0.00  0.00    -0.218 NA
ATOM     19  C   UNL     1       4.722   6.174  -2.702  0.00  0.00    +0.089 C 
ATOM     20  C   UNL     1       3.685   7.149  -2.147  0.00  0.00    +0.019 C 
ATOM     21  C   UNL     1       2.819   7.494  -3.278  0.00  0.00    +0.007 C 
ENDBRANCH  13  16
ENDBRANCH   5  10
BRANCH   1  23
ATOM     22  N   UNL     1       4.615   4.648 -13.510  0.00  0.00    -0.084 NA
ATOM     23  C   UNL     1       4.392   5.391 -12.879  0.00  0.00    +0.286 C 
ATOM     24  O   UNL     1       3.282   5.992 -12.995  0.00  0.00    -0.267 OA
ENDBRANCH   1  23
TORSDOF 3
ENDMDL
MODEL 6
REMARK VINA RESULT:      -8.1      2.085      3.388
REMARK  Name = 
REMARK  3 active torsions:
REMARK  status: ('A' for Active; 'I' for Inactive)
REMARK    1  A    between atoms: C_2  and  C_4
REMARK    2  A    between atoms: N_10  and  C_11
REMARK    3  A    between atoms: C_14  and  C_15
REMARK                            x       y       z     vdW  Elec       q    Type
REMARK                         _______ _______ _______ _____ _____    ______ ____
ROOT
ATOM      1  C   UNL     1       0.420   6.624  -4.437  0.00  0.00    +0.076 A 
ATOM      2  C   UNL     1       1.486   6.687  -5.294  0.00  0.00    +0.107 A 
ATOM      3  C   UNL     1       2.770   6.835  -4.780  0.00  0.00    +0.039 A 
ATOM      4  C   UNL     1       3.552   6.967  -5.911  0.00  0.00    +0.102 A 
ATOM      5  N   UNL     1       2.818   6.675  -7.008  0.00  0.00    -0.228 N 
ATOM      6  C   UNL     1       3.006   6.601  -3.443  0.00  0.00    +0.003 A 
ATOM      7  C   UNL     1       1.950   6.136  -2.666  0.00  0.00    +0.000 A 
ATOM      8  N   UNL     1       1.553   6.825  -6.632  0.00  0.00    -0.165 NA
ATOM      9  C   UNL     1       0.651   6.247  -3.131  0.00  0.00    +0.006 A 
ENDROOT
BRANCH   5  10
ATOM     10  C   UNL     1       3.266   6.115  -8.248  0.00  0.00    +0.083 A 
ATOM     11  C   UNL     1       4.338   5.231  -8.265  0.00  0.00    +0.019 A 
ATOM     12  C   UNL     1       5.253   5.269  -9.303  0.00  0.00    -0.003 A 
ATOM     13  C   UNL     1       4.951   6.093 -10.382  0.00  0.00    -0.021 A 
ATOM     14  C   UNL     1       3.625   6.359 -10.610  0.00  0.00    -0.003 A 
ATOM     15  C   UNL     1       2.856   6.598  -9.477  0.00  0.00    +0.019 A 
BRANCH  13  16
ATOM     16  C   UNL     1       5.755   5.536 -11.686  0.00  0.00    +0.040 C 
ATOM     17  C   UNL     1       6.030   7.053 -12.300  0.00  0.00    +0.093 C 
ATOM     18  N   UNL     1       6.188   7.947 -11.216  0.00  0.00    -0.218 NA
ATOM     19  C   UNL     1       7.474   7.785 -10.536  0.00  0.00    +0.089 C 
ATOM     20  C   UNL     1       8.051   6.544 -11.216  0.00  0.00    +0.019 C 
ATOM     21  C   UNL     1       7.172   5.436 -10.830  0.00  0.00    +0.007 C 
ENDBRANCH  13  16
ENDBRANCH   5  10
BRANCH   1  23
ATOM     22  N   UNL     1      -1.340   7.881  -4.744  0.00  0.00    -0.084 NA
ATOM     23  C   UNL     1      -0.935   6.977  -4.877  0.00  0.00    +0.286 C 
ATOM     24  O   UNL     1      -1.637   6.049  -5.378  0.00  0.00    -0.267 OA
ENDBRANCH   1  23
TORSDOF 3
ENDMDL
MODEL 7
REMARK VINA RESULT:      -7.9      3.388      5.356
REMARK  Name = 
REMARK  3 active torsions:
REMARK  status: ('A' for Active; 'I' for Inactive)
REMARK    1  A    between atoms: C_2  and  C_4
REMARK    2  A    between atoms: N_10  and  C_11
REMARK    3  A    between atoms: C_14  and  C_15
REMARK                            x       y       z     vdW  Elec       q    Type
REMARK                         _______ _______ _______ _____ _____    ______ ____
ROOT
ATOM      1  C   UNL     1      -1.555   6.907  -1.493  0.00  0.00    +0.076 A 
ATOM      2  C   UNL     1      -0.799   6.333  -2.480  0.00  0.00    +0.107 A 
ATOM      3  C   UNL     1      -1.396   5.449  -3.373  0.00  0.00    +0.039 A 
ATOM      4  C   UNL     1      -0.335   5.001  -4.135  0.00  0.00    +0.102 A 
ATOM      5  N   UNL     1       0.761   5.745  -3.870  0.00  0.00    -0.228 N 
ATOM      6  C   UNL     1      -2.769   5.396  -3.472  0.00  0.00    +0.003 A 
ATOM      7  C   UNL     1      -3.513   6.303  -2.724  0.00  0.00    +0.000 A 
ATOM      8  N   UNL     1       0.531   6.296  -2.683  0.00  0.00    -0.165 NA
ATOM      9  C   UNL     1      -2.920   6.977  -1.670  0.00  0.00    +0.006 A 
ENDROOT
BRANCH   5  10
ATOM     10  C   UNL     1       1.848   6.063  -4.748  0.00  0.00    +0.083 A 
ATOM     11  C   UNL     1       1.685   7.028  -5.734  0.00  0.00    +0.019 A 
ATOM     12  C   UNL     1       2.273   6.859  -6.976  0.00  0.00    -0.003 A 
ATOM     13  C   UNL     1       3.153   5.792  -7.118  0.00  0.00    -0.021 A 
ATOM     14  C   UNL     1       3.779   5.345  -5.982  0.00  0.00    -0.003 A 
ATOM     15  C   UNL     1       2.985   5.282  -4.843  0.00  0.00    +0.019 A 
BRANCH  13  16
ATOM     16  C   UNL     1       4.166   6.129  -8.350  0.00  0.00    +0.040 C 
ATOM     17  C   UNL     1       4.156   4.574  -8.928  0.00  0.00    +0.093 C 
ATOM     18  N   UNL     1       2.880   4.018  -8.681  0.00  0.00    -0.218 NA
ATOM     19  C   UNL     1       1.850   4.555  -9.572  0.00  0.00    +0.089 C 
ATOM     20  C   UNL     1       2.600   5.664 -10.309  0.00  0.00    +0.019 C 
ATOM     21  C   UNL     1       2.914   6.673  -9.293  0.00  0.00    +0.007 C 
ENDBRANCH  13  16
ENDBRANCH   5  10
BRANCH   1  23
ATOM     22  N   UNL     1      -0.513   6.821   0.425  0.00  0.00    -0.084 NA
ATOM     23  C   UNL     1      -0.942   7.410  -0.258  0.00  0.00    +0.286 C 
ATOM     24  O   UNL     1      -1.043   8.653  -0.031  0.00  0.00    -0.267 OA
ENDBRANCH   1  23
TORSDOF 3
ENDMDL
MODEL 8
REMARK VINA RESULT:      -7.6      1.978      2.975
REMARK  Name = 
REMARK  3 active torsions:
REMARK  status: ('A' for Active; 'I' for Inactive)
REMARK    1  A    between atoms: C_2  and  C_4
REMARK    2  A    between atoms: N_10  and  C_11
REMARK    3  A    between atoms: C_14  and  C_15
REMARK                            x       y       z     vdW  Elec       q    Type
REMARK                         _______ _______ _______ _____ _____    ______ ____
ROOT
ATOM      1  C   UNL     1       2.926   6.447  -4.002  0.00  0.00    +0.076 A 
ATOM      2  C   UNL     1       2.837   5.897  -5.253  0.00  0.00    +0.107 A 
ATOM      3  C   UNL     1       1.794   5.024  -5.544  0.00  0.00    +0.039 A 
ATOM      4  C   UNL     1       2.084   4.598  -6.826  0.00  0.00    +0.102 A 
ATOM      5  N   UNL     1       3.084   5.348  -7.339  0.00  0.00    -0.228 N 
ATOM      6  C   UNL     1       0.699   4.959  -4.711  0.00  0.00    +0.003 A 
ATOM      7  C   UNL     1       0.641   5.846  -3.641  0.00  0.00    +0.000 A 
ATOM      8  N   UNL     1       3.700   5.876  -6.286  0.00  0.00    -0.165 NA
ATOM      9  C   UNL     1       1.786   6.507  -3.230  0.00  0.00    +0.006 A 
ENDROOT
BRANCH   5  10
ATOM     10  C   UNL     1       3.319   5.691  -8.710  0.00  0.00    +0.083 A 
ATOM     11  C   UNL     1       3.746   4.720  -9.606  0.00  0.00    +0.019 A 
ATOM     12  C   UNL     1       4.663   5.039 -10.592  0.00  0.00    -0.003 A 
ATOM     13  C   UNL     1       4.989   6.382 -10.741  0.00  0.00    -0.021 A 
ATOM     14  C   UNL     1       4.051   7.299 -10.337  0.00  0.00    -0.003 A 
ATOM     15  C   UNL     1       3.391   7.000  -9.151  0.00  0.00    +0.019 A 
BRANCH  13  16
ATOM     16  C   UNL     1       5.531   6.608 -12.262  0.00  0.00    +0.040 C 
ATOM     17  C   UNL     1       6.634   7.763 -11.814  0.00  0.00    +0.093 C 
ATOM     18  N   UNL     1       7.106   7.446 -10.520  0.00  0.00    -0.218 NA
ATOM     19  C   UNL     1       8.021   6.304 -10.519  0.00  0.00    +0.089 C 
ATOM     20  C   UNL     1       7.936   5.814 -11.964  0.00  0.00    +0.019 C 
ATOM     21  C   UNL     1       6.567   5.319 -12.135  0.00  0.00    +0.007 C 
ENDBRANCH  13  16
ENDBRANCH   5  10
BRANCH   1  23
ATOM     22  N   UNL     1       4.680   6.511  -2.702  0.00  0.00    -0.084 NA
ATOM     23  C   UNL     1       4.205   6.933  -3.473  0.00  0.00    +0.286 C 
ATOM     24  O   UNL     1       4.673   7.994  -3.986  0.00  0.00    -0.267 OA
ENDBRANCH   1  23
TORSDOF 3
ENDMDL
MODEL 9
REMARK VINA RESULT:      -7.5      3.103      5.829
REMARK  Name = 
REMARK  3 active torsions:
REMARK  status: ('A' for Active; 'I' for Inactive)
REMARK    1  A    between atoms: C_2  and  C_4
REMARK    2  A    between atoms: N_10  and  C_11
REMARK    3  A    between atoms: C_14  and  C_15
REMARK                            x       y       z     vdW  Elec       q    Type
REMARK                         _______ _______ _______ _____ _____    ______ ____
ROOT
ATOM      1  C   UNL     1       0.273   5.863  -1.093  0.00  0.00    +0.076 A 
ATOM      2  C   UNL     1      -0.210   5.812  -2.374  0.00  0.00    +0.107 A 
ATOM      3  C   UNL     1      -1.583   5.862  -2.589  0.00  0.00    +0.039 A 
ATOM      4  C   UNL     1      -1.697   5.682  -3.955  0.00  0.00    +0.102 A 
ATOM      5  N   UNL     1      -0.476   5.764  -4.527  0.00  0.00    -0.228 N 
ATOM      6  C   UNL     1      -2.424   6.275  -1.579  0.00  0.00    +0.003 A 
ATOM      7  C   UNL     1      -1.848   6.714  -0.391  0.00  0.00    +0.000 A 
ATOM      8  N   UNL     1       0.387   5.527  -3.546  0.00  0.00    -0.165 NA
ATOM      9  C   UNL     1      -0.525   6.412  -0.113  0.00  0.00    +0.006 A 
ENDROOT
BRANCH   5  10
ATOM     10  C   UNL     1      -0.146   6.219  -5.845  0.00  0.00    +0.083 A 
ATOM     11  C   UNL     1      -0.512   5.465  -6.953  0.00  0.00    +0.019 A 
ATOM     12  C   UNL     1       0.335   5.375  -8.044  0.00  0.00    -0.003 A 
ATOM     13  C   UNL     1       1.456   6.198  -8.042  0.00  0.00    -0.021 A 
ATOM     14  C   UNL     1       1.376   7.358  -7.313  0.00  0.00    -0.003 A 
ATOM     15  C   UNL     1       0.745   7.250  -6.079  0.00  0.00    +0.019 A 
BRANCH  13  16
ATOM     16  C   UNL     1       1.931   6.412  -9.587  0.00  0.00    +0.040 C 
ATOM     17  C   UNL     1       3.465   6.881  -9.165  0.00  0.00    +0.093 C 
ATOM     18  N   UNL     1       3.835   6.182  -7.993  0.00  0.00    -0.218 NA
ATOM     19  C   UNL     1       4.134   4.773  -8.249  0.00  0.00    +0.089 C 
ATOM     20  C   UNL     1       3.735   4.613  -9.715  0.00  0.00    +0.019 C 
ATOM     21  C   UNL     1       2.281   4.799  -9.753  0.00  0.00    +0.007 C 
ENDBRANCH  13  16
ENDBRANCH   5  10
BRANCH   1  23
ATOM     22  N   UNL     1       1.803   4.343  -0.750  0.00  0.00    -0.084 NA
ATOM     23  C   UNL     1       1.593   5.320  -0.754  0.00  0.00    +0.286 C 
ATOM     24  O   UNL     1       2.474   6.147  -0.373  0.00  0.00    -0.267 OA
ENDBRANCH   1  23
TORSDOF 3
ENDMDL
