MODEL 1
REMARK VINA RESULT:      -8.4      0.000      0.000
REMARK  Name = 
REMARK  7 active torsions:
REMARK  status: ('A' for Active; 'I' for Inactive)
REMARK    1  A    between atoms: N_2  and  C_3
REMARK    2  A    between atoms: C_3  and  C_5
REMARK    3  A    between atoms: C_10  and  O_11
REMARK    4  A    between atoms: O_11  and  C_12
REMARK    5  A    between atoms: C_18  and  O_19
REMARK    6  A    between atoms: O_19  and  C_20
REMARK    7  A    between atoms: C_26  and  N_27
REMARK                            x       y       z     vdW  Elec       q    Type
REMARK                         _______ _______ _______ _____ _____    ______ ____
ROOT
ATOM      1  C   UNL     1       1.106   4.324  -6.887  0.00  0.00    +0.168 C 
ATOM      2  C   UNL     1       2.405   5.116  -6.098  0.00  0.00    +0.209 C 
ATOM      3  O   UNL     1       2.917   3.824  -5.535  0.00  0.00    -0.218 OA
ATOM      4  C   UNL     1       1.589   5.480  -4.646  0.00  0.00    +0.168 C 
ATOM      5  C   UNL     1       1.136   7.079  -5.051  0.00  0.00    +0.123 C 
ATOM      6  N   UNL     1       2.354   7.386  -5.972  0.00  0.00    -0.130 NA
ATOM      7  C   UNL     1       0.202   6.603  -6.288  0.00  0.00    +0.043 C 
ATOM      8  C   UNL     1      -0.114   5.051  -5.920  0.00  0.00    +0.123 C 
ATOM      9  N   UNL     1      -1.248   4.893  -6.976  0.00  0.00    -0.130 NA
ENDROOT
BRANCH   1  10
ATOM     10  O   UNL     1       1.197   5.328  -7.985  0.00  0.00    -0.328 OA
BRANCH  10  13
ATOM     11  C   UNL     1       3.898   5.266 -10.226  0.00  0.00    +0.134 C 
ATOM     12  O   UNL     1       3.111   5.938  -9.110  0.00  0.00    -0.331 OA
ATOM     13  C   UNL     1       2.218   4.710  -8.921  0.00  0.00    +0.253 C 
ATOM     14  C   UNL     1       1.311   4.923 -10.381  0.00  0.00    +0.148 C 
ATOM     15  N   UNL     1       0.033   5.574  -9.783  0.00  0.00    -0.128 NA
ATOM     16  C   UNL     1       1.816   6.412 -10.800  0.00  0.00    +0.027 C 
ATOM     17  C   UNL     1       3.163   6.156 -11.389  0.00  0.00    +0.033 C 
BRANCH  11  18
ATOM     18  C   UNL     1       5.272   6.280 -10.006  0.00  0.00    +0.100 C 
ATOM     19  C   UNL     1       5.844   5.262  -8.864  0.00  0.00    +0.021 C 
BRANCH  18  21
ATOM     20  C   UNL     1       7.338   6.516 -11.025  0.00  0.00    +0.107 C 
ATOM     21  N   UNL     1       6.199   5.639 -11.087  0.00  0.00    -0.215 NA
ENDBRANCH  18  21
ENDBRANCH  11  18
ENDBRANCH  10  13
ENDBRANCH   1  10
BRANCH   4  22
ATOM     22  O   UNL     1       2.821   5.897  -3.915  0.00  0.00    -0.327 OA
BRANCH  22  23
ATOM     23  C   UNL     1       2.439   5.543  -2.468  0.00  0.00    +0.268 C 
ATOM     24  C   UNL     1       4.070   5.237  -2.006  0.00  0.00    +0.226 C 
ATOM     25  O   UNL     1       3.759   4.973  -0.562  0.00  0.00    -0.216 OA
ATOM     26  C   UNL     1       4.739   6.767  -1.706  0.00  0.00    +0.138 C 
ATOM     27  C   UNL     1       3.779   7.360  -0.536  0.00  0.00    +0.171 C 
ATOM     28  O   UNL     1       3.969   8.743  -0.776  0.00  0.00    -0.222 OA
ATOM     29  C   UNL     1       4.540   7.105   0.734  0.00  0.00    +0.037 C 
ATOM     30  C   UNL     1       2.459   7.032  -0.687  0.00  0.00    +0.176 C 
ATOM     31  O   UNL     1       2.275   6.961  -1.988  0.00  0.00    -0.326 OA
BRANCH  26  32
ATOM     32  N   UNL     1       3.995   7.438  -2.889  0.00  0.00    -0.213 NA
ATOM     33  C   UNL     1       4.925   8.017  -3.793  0.00  0.00    +0.108 C 
ENDBRANCH  26  32
ENDBRANCH  22  23
ENDBRANCH   4  22
TORSDOF 7
ENDMDL
MODEL 2
REMARK VINA RESULT:      -8.2      2.127      7.915
REMARK  Name = 
REMARK  7 active torsions:
REMARK  status: ('A' for Active; 'I' for Inactive)
REMARK    1  A    between atoms: N_2  and  C_3
REMARK    2  A    between atoms: C_3  and  C_5
REMARK    3  A    between atoms: C_10  and  O_11
REMARK    4  A    between atoms: O_11  and  C_12
REMARK    5  A    between atoms: C_18  and  O_19
REMARK    6  A    between atoms: O_19  and  C_20
REMARK    7  A    between atoms: C_26  and  N_27
REMARK                            x       y       z     vdW  Elec       q    Type
REMARK                         _______ _______ _______ _____ _____    ______ ____
ROOT
ATOM      1  C   UNL     1       1.305   6.771  -7.717  0.00  0.00    +0.168 C 
ATOM      2  C   UNL     1       3.006   6.798  -7.925  0.00  0.00    +0.209 C 
ATOM      3  O   UNL     1       2.965   8.193  -8.474  0.00  0.00    -0.218 OA
ATOM      4  C   UNL     1       3.043   6.132  -9.494  0.00  0.00    +0.168 C 
ATOM      5  C   UNL     1       3.338   4.512  -9.031  0.00  0.00    +0.123 C 
ATOM      6  N   UNL     1       4.137   4.835  -7.734  0.00  0.00    -0.130 NA
ATOM      7  C   UNL     1       1.927   4.382  -8.240  0.00  0.00    +0.043 C 
ATOM      8  C   UNL     1       1.032   5.563  -8.908  0.00  0.00    +0.123 C 
ATOM      9  N   UNL     1      -0.315   5.065  -8.306  0.00  0.00    -0.130 NA
ENDROOT
BRANCH   1  10
ATOM     10  O   UNL     1       1.494   5.909  -6.515  0.00  0.00    -0.328 OA
BRANCH  10  13
ATOM     11  C   UNL     1       2.716   7.148  -3.467  0.00  0.00    +0.134 C 
ATOM     12  O   UNL     1       2.797   6.178  -4.636  0.00  0.00    -0.331 OA
ATOM     13  C   UNL     1       1.704   6.921  -5.405  0.00  0.00    +0.253 C 
ATOM     14  C   UNL     1       0.393   6.398  -4.401  0.00  0.00    +0.148 C 
ATOM     15  N   UNL     1      -0.165   5.259  -5.301  0.00  0.00    -0.128 NA
ATOM     16  C   UNL     1       1.160   5.263  -3.523  0.00  0.00    +0.027 C 
ATOM     17  C   UNL     1       1.920   6.070  -2.524  0.00  0.00    +0.033 C 
BRANCH  11  18
ATOM     18  C   UNL     1       4.308   6.785  -2.922  0.00  0.00    +0.100 C 
ATOM     19  C   UNL     1       4.918   7.889  -3.959  0.00  0.00    +0.021 C 
BRANCH  18  21
ATOM     20  C   UNL     1       4.918   6.976  -0.696  0.00  0.00    +0.107 C 
ATOM     21  N   UNL     1       4.380   7.806  -1.743  0.00  0.00    -0.215 NA
ENDBRANCH  18  21
ENDBRANCH  11  18
ENDBRANCH  10  13
ENDBRANCH   1  10
BRANCH   4  22
ATOM     22  O   UNL     1       4.484   6.443  -9.725  0.00  0.00    -0.327 OA
BRANCH  22  23
ATOM     23  C   UNL     1       4.493   6.691 -11.242  0.00  0.00    +0.268 C 
ATOM     24  C   UNL     1       5.897   7.687 -11.172  0.00  0.00    +0.226 C 
ATOM     25  O   UNL     1       6.002   7.884 -12.656  0.00  0.00    -0.216 OA
ATOM     26  C   UNL     1       7.202   6.606 -11.102  0.00  0.00    +0.138 C 
ATOM     27  C   UNL     1       7.028   5.737 -12.464  0.00  0.00    +0.171 C 
ATOM     28  O   UNL     1       7.688   4.553 -12.054  0.00  0.00    -0.222 OA
ATOM     29  C   UNL     1       7.986   6.368 -13.433  0.00  0.00    +0.037 C 
ATOM     30  C   UNL     1       5.725   5.465 -12.781  0.00  0.00    +0.176 C 
ATOM     31  O   UNL     1       5.107   5.370 -11.622  0.00  0.00    -0.326 OA
BRANCH  26  32
ATOM     32  N   UNL     1       6.462   5.612 -10.172  0.00  0.00    -0.213 NA
ATOM     33  C   UNL     1       7.265   5.299  -9.042  0.00  0.00    +0.108 C 
ENDBRANCH  26  32
ENDBRANCH  22  23
ENDBRANCH   4  22
TORSDOF 7
ENDMDL
MODEL 3
REMARK VINA RESULT:      -7.9      3.162      5.205
REMARK  Name = 
REMARK  7 active torsions:
REMARK  status: ('A' for Active; 'I' for Inactive)
REMARK    1  A    between atoms: N_2  and  C_3
REMARK    2  A    between atoms: C_3  and  C_5
REMARK    3  A    between atoms: C_10  and  O_11
REMARK    4  A    between atoms: O_11  and  C_12
REMARK    5  A    between atoms: C_18  and  O_19
REMARK    6  A    between atoms: O_19  and  C_20
REMARK    7  A    between atoms: C_26  and  N_27
REMARK                            x       y       z     vdW  Elec       q    Type
REMARK                         _______ _______ _______ _____ _____    ______ ____
ROOT
ATOM      1  C   UNL     1       3.481   6.967  -7.051  0.00  0.00    +0.168 C 
ATOM      2  C   UNL     1       1.785   6.722  -7.066  0.00  0.00    +0.209 C 
ATOM      3  O   UNL     1       1.525   8.155  -6.709  0.00  0.00    -0.218 OA
ATOM      4  C   UNL     1       1.621   6.239  -5.439  0.00  0.00    +0.168 C 
ATOM      5  C   UNL     1       1.655   4.551  -5.713  0.00  0.00    +0.123 C 
ATOM      6  N   UNL     1       1.015   4.583  -7.133  0.00  0.00    -0.130 NA
ATOM      7  C   UNL     1       3.169   4.580  -6.294  0.00  0.00    +0.043 C 
ATOM      8  C   UNL     1       3.760   5.966  -5.683  0.00  0.00    +0.123 C 
ATOM      9  N   UNL     1       5.242   5.645  -6.038  0.00  0.00    -0.130 NA
ENDROOT
BRANCH   1  10
ATOM     10  O   UNL     1       3.608   5.956  -8.140  0.00  0.00    -0.328 OA
BRANCH  10  13
ATOM     11  C   UNL     1       2.616   6.566 -11.451  0.00  0.00    +0.134 C 
ATOM     12  O   UNL     1       2.573   5.726 -10.184  0.00  0.00    -0.331 OA
ATOM     13  C   UNL     1       3.353   6.776  -9.391  0.00  0.00    +0.253 C 
ATOM     14  C   UNL     1       4.880   6.474 -10.148  0.00  0.00    +0.148 C 
ATOM     15  N   UNL     1       5.531   5.592  -9.045  0.00  0.00    -0.128 NA
ATOM     16  C   UNL     1       4.517   5.110 -10.958  0.00  0.00    +0.027 C 
ATOM     17  C   UNL     1       3.758   5.614 -12.139  0.00  0.00    +0.033 C 
BRANCH  11  18
ATOM     18  C   UNL     1       1.240   5.790 -12.135  0.00  0.00    +0.100 C 
ATOM     19  C   UNL     1       0.275   6.959 -11.526  0.00  0.00    +0.021 C 
BRANCH  18  21
ATOM     20  C   UNL     1       0.833   5.410 -14.383  0.00  0.00    +0.107 C 
ATOM     21  N   UNL     1       1.259   6.490 -13.531  0.00  0.00    -0.215 NA
ENDBRANCH  18  21
ENDBRANCH  11  18
ENDBRANCH  10  13
ENDBRANCH   1  10
BRANCH   4  22
ATOM     22  O   UNL     1       0.131   6.319  -5.437  0.00  0.00    -0.327 OA
BRANCH  22  23
ATOM     23  C   UNL     1      -0.142   6.700  -3.972  0.00  0.00    +0.268 C 
ATOM     24  C   UNL     1      -1.474   7.712  -4.379  0.00  0.00    +0.226 C 
ATOM     25  O   UNL     1      -1.838   8.041  -2.961  0.00  0.00    -0.216 OA
ATOM     26  C   UNL     1      -2.783   6.655  -4.596  0.00  0.00    +0.138 C 
ATOM     27  C   UNL     1      -2.887   5.906  -3.157  0.00  0.00    +0.171 C 
ATOM     28  O   UNL     1      -3.503   4.703  -3.581  0.00  0.00    -0.222 OA
ATOM     29  C   UNL     1      -3.981   6.638  -2.435  0.00  0.00    +0.037 C 
ATOM     30  C   UNL     1      -1.672   5.637  -2.587  0.00  0.00    +0.176 C 
ATOM     31  O   UNL     1      -0.860   5.429  -3.602  0.00  0.00    -0.326 OA
BRANCH  26  32
ATOM     32  N   UNL     1      -1.923   5.569  -5.290  0.00  0.00    -0.213 NA
ATOM     33  C   UNL     1      -2.428   5.292  -6.589  0.00  0.00    +0.108 C 
ENDBRANCH  26  32
ENDBRANCH  22  23
ENDBRANCH   4  22
TORSDOF 7
ENDMDL
MODEL 4
REMARK VINA RESULT:      -7.5      2.673      8.828
REMARK  Name = 
REMARK  7 active torsions:
REMARK  status: ('A' for Active; 'I' for Inactive)
REMARK    1  A    between atoms: N_2  and  C_3
REMARK    2  A    between atoms: C_3  and  C_5
REMARK    3  A    between atoms: C_10  and  O_11
REMARK    4  A    between atoms: O_11  and  C_12
REMARK    5  A    between atoms: C_18  and  O_19
REMARK    6  A    between atoms: O_19  and  C_20
REMARK    7  A    between atoms: C_26  and  N_27
REMARK                            x       y       z     vdW  Elec       q    Type
REMARK                         _______ _______ _______ _____ _____    ______ ____
ROOT
ATOM      1  C   UNL     1       2.332   5.430  -1.924  0.00  0.00    +0.168 C 
ATOM      2  C   UNL     1       2.142   6.170  -3.458  0.00  0.00    +0.209 C 
ATOM      3  O   UNL     1       1.038   5.226  -3.831  0.00  0.00    -0.218 OA
ATOM      4  C   UNL     1       3.292   5.231  -4.297  0.00  0.00    +0.168 C 
ATOM      5  C   UNL     1       4.598   6.327  -4.166  0.00  0.00    +0.123 C 
ATOM      6  N   UNL     1       3.744   7.629  -4.148  0.00  0.00    -0.130 NA
ATOM      7  C   UNL     1       4.645   6.225  -2.547  0.00  0.00    +0.043 C 
ATOM      8  C   UNL     1       3.900   4.809  -2.257  0.00  0.00    +0.123 C 
ATOM      9  N   UNL     1       4.344   4.730  -0.766  0.00  0.00    -0.130 NA
ENDROOT
BRANCH   1  10
ATOM     10  O   UNL     1       2.697   6.761  -1.359  0.00  0.00    -0.328 OA
BRANCH  10  13
ATOM     11  C   UNL     1       0.380   7.797   1.064  0.00  0.00    +0.134 C 
ATOM     12  O   UNL     1       0.829   7.690  -0.385  0.00  0.00    -0.331 OA
ATOM     13  C   UNL     1       1.989   6.762  -0.018  0.00  0.00    +0.253 C 
ATOM     14  C   UNL     1       2.965   7.983   0.727  0.00  0.00    +0.148 C 
ATOM     15  N   UNL     1       3.949   8.259  -0.444  0.00  0.00    -0.128 NA
ATOM     16  C   UNL     1       2.133   9.308   0.277  0.00  0.00    +0.027 C 
ATOM     17  C   UNL     1       0.978   9.314   1.221  0.00  0.00    +0.033 C 
BRANCH  11  18
ATOM     18  C   UNL     1      -1.230   8.236   0.640  0.00  0.00    +0.100 C 
ATOM     19  C   UNL     1      -1.675   6.666   0.693  0.00  0.00    +0.021 C 
BRANCH  18  21
ATOM     20  C   UNL     1      -3.147   8.038   1.923  0.00  0.00    +0.107 C 
ATOM     21  N   UNL     1      -1.785   8.475   2.080  0.00  0.00    -0.215 NA
ENDBRANCH  18  21
ENDBRANCH  11  18
ENDBRANCH  10  13
ENDBRANCH   1  10
BRANCH   4  22
ATOM     22  O   UNL     1       2.880   5.712  -5.648  0.00  0.00    -0.327 OA
BRANCH  22  23
ATOM     23  C   UNL     1       3.554   4.666  -6.552  0.00  0.00    +0.268 C 
ATOM     24  C   UNL     1       2.196   4.556  -7.606  0.00  0.00    +0.226 C 
ATOM     25  O   UNL     1       2.844   3.605  -8.568  0.00  0.00    -0.216 OA
ATOM     26  C   UNL     1       2.334   5.890  -8.645  0.00  0.00    +0.138 C 
ATOM     27  C   UNL     1       3.783   5.657  -9.343  0.00  0.00    +0.171 C 
ATOM     28  O   UNL     1       4.089   7.002  -9.666  0.00  0.00    -0.222 OA
ATOM     29  C   UNL     1       3.461   5.032 -10.670  0.00  0.00    +0.037 C 
ATOM     30  C   UNL     1       4.729   5.149  -8.494  0.00  0.00    +0.176 C 
ATOM     31  O   UNL     1       4.419   5.637  -7.312  0.00  0.00    -0.326 OA
BRANCH  26  32
ATOM     32  N   UNL     1       2.836   6.839  -7.528  0.00  0.00    -0.213 NA
ATOM     33  C   UNL     1       2.040   8.015  -7.483  0.00  0.00    +0.108 C 
ENDBRANCH  26  32
ENDBRANCH  22  23
ENDBRANCH   4  22
TORSDOF 7
ENDMDL
MODEL 5
REMARK VINA RESULT:      -7.3      1.919      2.877
REMARK  Name = 
REMARK  7 active torsions:
REMARK  status: ('A' for Active; 'I' for Inactive)
REMARK    1  A    between atoms: N_2  and  C_3
REMARK    2  A    between atoms: C_3  and  C_5
REMARK    3  A    between atoms: C_10  and  O_11
REMARK    4  A    between atoms: O_11  and  C_12
REMARK    5  A    between atoms: C_18  and  O_19
REMARK    6  A    between atoms: O_19  and  C_20
REMARK    7  A    between atoms: C_26  and  N_27
REMARK                            x       y       z     vdW  Elec       q    Type
REMARK                         _______ _______ _______ _____ _____    ______ ____
ROOT
ATOM      1  C   UNL     1       2.723   5.844  -8.404  0.00  0.00    +0.168 C 
ATOM      2  C   UNL     1       2.060   6.400  -6.925  0.00  0.00    +0.209 C 
ATOM      3  O   UNL     1       2.914   7.632  -6.948  0.00  0.00    -0.218 OA
ATOM      4  C   UNL     1       3.153   5.605  -5.885  0.00  0.00    +0.168 C 
ATOM      5  C   UNL     1       2.183   4.235  -5.561  0.00  0.00    +0.123 C 
ATOM      6  N   UNL     1       0.806   4.948  -5.704  0.00  0.00    -0.130 NA
ATOM      7  C   UNL     1       2.193   3.745  -7.108  0.00  0.00    +0.043 C 
ATOM      8  C   UNL     1       3.511   4.485  -7.708  0.00  0.00    +0.123 C 
ATOM      9  N   UNL     1       3.545   3.648  -9.022  0.00  0.00    -0.130 NA
ENDROOT
BRANCH   1  10
ATOM     10  O   UNL     1       1.403   5.235  -8.735  0.00  0.00    -0.328 OA
BRANCH  10  13
ATOM     11  C   UNL     1       2.220   5.619 -12.126  0.00  0.00    +0.134 C 
ATOM     12  O   UNL     1       2.345   6.048 -10.672  0.00  0.00    -0.331 OA
ATOM     13  C   UNL     1       1.578   4.818 -10.183  0.00  0.00    +0.253 C 
ATOM     14  C   UNL     1       0.024   5.345 -10.736  0.00  0.00    +0.148 C 
ATOM     15  N   UNL     1      -0.551   5.868  -9.390  0.00  0.00    -0.128 NA
ATOM     16  C   UNL     1       0.382   6.883 -11.127  0.00  0.00    +0.027 C 
ATOM     17  C   UNL     1       1.071   6.742 -12.443  0.00  0.00    +0.033 C 
BRANCH  11  18
ATOM     18  C   UNL     1       3.581   6.548 -12.624  0.00  0.00    +0.100 C 
ATOM     19  C   UNL     1       4.583   5.378 -12.081  0.00  0.00    +0.021 C 
BRANCH  18  21
ATOM     20  C   UNL     1       5.113   6.136 -14.311  0.00  0.00    +0.107 C 
ATOM     21  N   UNL     1       3.697   6.013 -14.086  0.00  0.00    -0.215 NA
ENDBRANCH  18  21
ENDBRANCH  11  18
ENDBRANCH  10  13
ENDBRANCH   1  10
BRANCH   4  22
ATOM     22  O   UNL     1       2.715   6.340  -4.663  0.00  0.00    -0.327 OA
BRANCH  22  23
ATOM     23  C   UNL     1       4.027   6.393  -3.862  0.00  0.00    +0.268 C 
ATOM     24  C   UNL     1       3.544   7.784  -2.969  0.00  0.00    +0.226 C 
ATOM     25  O   UNL     1       4.767   7.822  -2.100  0.00  0.00    -0.216 OA
ATOM     26  C   UNL     1       2.541   7.191  -1.737  0.00  0.00    +0.138 C 
ATOM     27  C   UNL     1       3.510   6.153  -0.947  0.00  0.00    +0.171 C 
ATOM     28  O   UNL     1       2.520   5.298  -0.403  0.00  0.00    -0.222 OA
ATOM     29  C   UNL     1       4.004   6.933   0.238  0.00  0.00    +0.037 C 
ATOM     30  C   UNL     1       4.344   5.444  -1.768  0.00  0.00    +0.176 C 
ATOM     31  O   UNL     1       3.672   5.299  -2.890  0.00  0.00    -0.326 OA
BRANCH  26  32
ATOM     32  N   UNL     1       1.870   6.133  -2.650  0.00  0.00    -0.213 NA
ATOM     33  C   UNL     1       0.466   6.112  -2.436  0.00  0.00    +0.108 C 
ENDBRANCH  26  32
ENDBRANCH  22  23
ENDBRANCH   4  22
TORSDOF 7
ENDMDL
MODEL 6
REMARK VINA RESULT:      -7.1      2.149      8.282
REMARK  Name = 
REMARK  7 active torsions:
REMARK  status: ('A' for Active; 'I' for Inactive)
REMARK    1  A    between atoms: N_2  and  C_3
REMARK    2  A    between atoms: C_3  and  C_5
REMARK    3  A    between atoms: C_10  and  O_11
REMARK    4  A    between atoms: O_11  and  C_12
REMARK    5  A    between atoms: C_18  and  O_19
REMARK    6  A    between atoms: O_19  and  C_20
REMARK    7  A    between atoms: C_26  and  N_27
REMARK                            x       y       z     vdW  Elec       q    Type
REMARK                         _______ _______ _______ _____ _____    ______ ____
ROOT
ATOM      1  C   UNL     1       2.047   7.010  -3.598  0.00  0.00    +0.168 C 
ATOM      2  C   UNL     1       2.970   6.297  -4.854  0.00  0.00    +0.209 C 
ATOM      3  O   UNL     1       3.535   7.626  -5.260  0.00  0.00    -0.218 OA
ATOM      4  C   UNL     1       1.780   6.378  -6.072  0.00  0.00    +0.168 C 
ATOM      5  C   UNL     1       1.183   4.785  -5.893  0.00  0.00    +0.123 C 
ATOM      6  N   UNL     1       2.520   4.141  -5.419  0.00  0.00    -0.130 NA
ATOM      7  C   UNL     1       0.665   5.048  -4.378  0.00  0.00    +0.043 C 
ATOM      8  C   UNL     1       0.528   6.667  -4.323  0.00  0.00    +0.123 C 
ATOM      9  N   UNL     1      -0.277   6.686  -2.990  0.00  0.00    -0.130 NA
ENDROOT
BRANCH   1  10
ATOM     10  O   UNL     1       2.235   5.769  -2.793  0.00  0.00    -0.328 OA
BRANCH  10  13
ATOM     11  C   UNL     1       3.163   7.827  -0.107  0.00  0.00    +0.134 C 
ATOM     12  O   UNL     1       3.034   7.568  -1.600  0.00  0.00    -0.331 OA
ATOM     13  C   UNL     1       2.230   6.288  -1.368  0.00  0.00    +0.253 C 
ATOM     14  C   UNL     1       3.564   5.340  -0.801  0.00  0.00    +0.148 C 
ATOM     15  N   UNL     1       3.876   4.551  -2.104  0.00  0.00    -0.128 NA
ATOM     16  C   UNL     1       4.788   6.345  -1.172  0.00  0.00    +0.027 C 
ATOM     17  C   UNL     1       4.732   7.358  -0.079  0.00  0.00    +0.033 C 
BRANCH  11  18
ATOM     18  C   UNL     1       3.439   9.513  -0.319  0.00  0.00    +0.100 C 
ATOM     19  C   UNL     1       2.038   9.843   0.453  0.00  0.00    +0.021 C 
BRANCH  18  21
ATOM     20  C   UNL     1       3.834  11.110   1.310  0.00  0.00    +0.107 C 
ATOM     21  N   UNL     1       4.256   9.773   0.986  0.00  0.00    -0.215 NA
ENDBRANCH  18  21
ENDBRANCH  11  18
ENDBRANCH  10  13
ENDBRANCH   1  10
BRANCH   4  22
ATOM     22  O   UNL     1       2.714   6.021  -7.179  0.00  0.00    -0.327 OA
BRANCH  22  23
ATOM     23  C   UNL     1       2.398   7.127  -8.200  0.00  0.00    +0.268 C 
ATOM     24  C   UNL     1       3.708   6.691  -9.229  0.00  0.00    +0.226 C 
ATOM     25  O   UNL     1       3.386   7.693 -10.298  0.00  0.00    -0.216 OA
ATOM     26  C   UNL     1       3.140   5.370 -10.130  0.00  0.00    +0.138 C 
ATOM     27  C   UNL     1       1.833   5.977 -10.880  0.00  0.00    +0.171 C 
ATOM     28  O   UNL     1       1.110   4.774 -11.071  0.00  0.00    -0.222 OA
ATOM     29  C   UNL     1       2.322   6.326 -12.256  0.00  0.00    +0.037 C 
ATOM     30  C   UNL     1       1.108   6.845 -10.109  0.00  0.00    +0.176 C 
ATOM     31  O   UNL     1       1.260   6.409  -8.876  0.00  0.00    -0.326 OA
BRANCH  26  32
ATOM     32  N   UNL     1       2.375   4.750  -8.933  0.00  0.00    -0.213 NA
ATOM     33  C   UNL     1       2.781   3.405  -8.729  0.00  0.00    +0.108 C 
ENDBRANCH  26  32
ENDBRANCH  22  23
ENDBRANCH   4  22
TORSDOF 7
ENDMDL
MODEL 7
REMARK VINA RESULT:      -7.0      2.482      4.431
REMARK  Name = 
REMARK  7 active torsions:
REMARK  status: ('A' for Active; 'I' for Inactive)
REMARK    1  A    between atoms: N_2  and  C_3
REMARK    2  A    between atoms: C_3  and  C_5
REMARK    3  A    between atoms: C_10  and  O_11
REMARK    4  A    between atoms: O_11  and  C_12
REMARK    5  A    between atoms: C_18  and  O_19
REMARK    6  A    between atoms: O_19  and  C_20
REMARK    7  A    between atoms: C_26  and  N_27
REMARK                            x       y       z     vdW  Elec       q    Type
REMARK                         _______ _______ _______ _____ _____    ______ ____
ROOT
ATOM      1  C   UNL     1       3.574   6.049  -4.201  0.00  0.00    +0.168 C 
ATOM      2  C   UNL     1       2.607   6.834  -3.023  0.00  0.00    +0.209 C 
ATOM      3  O   UNL     1       3.012   8.189  -3.523  0.00  0.00    -0.218 OA
ATOM      4  C   UNL     1       3.777   6.891  -1.784  0.00  0.00    +0.168 C 
ATOM      5  C   UNL     1       3.274   5.484  -0.952  0.00  0.00    +0.123 C 
ATOM      6  N   UNL     1       1.765   5.581  -1.323  0.00  0.00    -0.130 NA
ATOM      7  C   UNL     1       3.614   4.508  -2.203  0.00  0.00    +0.043 C 
ATOM      8  C   UNL     1       4.678   5.387  -3.062  0.00  0.00    +0.123 C 
ATOM      9  N   UNL     1       5.127   4.202  -3.968  0.00  0.00    -0.130 NA
ENDROOT
BRANCH   1  10
ATOM     10  O   UNL     1       2.568   4.950  -4.253  0.00  0.00    -0.328 OA
BRANCH  10  13
ATOM     11  C   UNL     1       2.641   5.342  -7.739  0.00  0.00    +0.134 C 
ATOM     12  O   UNL     1       2.863   5.885  -6.336  0.00  0.00    -0.331 OA
ATOM     13  C   UNL     1       2.623   4.513  -5.704  0.00  0.00    +0.253 C 
ATOM     14  C   UNL     1       0.913   4.489  -5.975  0.00  0.00    +0.148 C 
ATOM     15  N   UNL     1       0.433   4.895  -4.553  0.00  0.00    -0.128 NA
ATOM     16  C   UNL     1       0.689   6.032  -6.439  0.00  0.00    +0.027 C 
ATOM     17  C   UNL     1       1.157   6.026  -7.856  0.00  0.00    +0.033 C 
BRANCH  11  18
ATOM     18  C   UNL     1       3.531   6.615  -8.483  0.00  0.00    +0.100 C 
ATOM     19  C   UNL     1       4.860   5.668  -8.520  0.00  0.00    +0.021 C 
BRANCH  18  21
ATOM     20  C   UNL     1       4.391   6.768 -10.628  0.00  0.00    +0.107 C 
ATOM     21  N   UNL     1       3.208   6.275  -9.972  0.00  0.00    -0.215 NA
ENDBRANCH  18  21
ENDBRANCH  11  18
ENDBRANCH  10  13
ENDBRANCH   1  10
BRANCH   4  22
ATOM     22  O   UNL     1       2.991   7.817  -0.917  0.00  0.00    -0.327 OA
BRANCH  22  23
ATOM     23  C   UNL     1       4.117   8.627  -0.252  0.00  0.00    +0.268 C 
ATOM     24  C   UNL     1       3.283  10.123  -0.430  0.00  0.00    +0.226 C 
ATOM     25  O   UNL     1       4.311  10.942   0.293  0.00  0.00    -0.216 OA
ATOM     26  C   UNL     1       2.174  10.165   0.853  0.00  0.00    +0.138 C 
ATOM     27  C   UNL     1       3.129  10.047   2.163  0.00  0.00    +0.171 C 
ATOM     28  O   UNL     1       2.195   9.483   3.066  0.00  0.00    -0.222 OA
ATOM     29  C   UNL     1       3.283  11.462   2.640  0.00  0.00    +0.037 C 
ATOM     30  C   UNL     1       4.192   9.201   1.995  0.00  0.00    +0.176 C 
ATOM     31  O   UNL     1       3.759   8.274   1.167  0.00  0.00    -0.326 OA
BRANCH  26  32
ATOM     32  N   UNL     1       1.841   8.655   0.751  0.00  0.00    -0.213 NA
ATOM     33  C   UNL     1       0.435   8.457   0.753  0.00  0.00    +0.108 C 
ENDBRANCH  26  32
ENDBRANCH  22  23
ENDBRANCH   4  22
TORSDOF 7
ENDMDL
MODEL 8
REMARK VINA RESULT:      -6.8      2.899      4.716
REMARK  Name = 
REMARK  7 active torsions:
REMARK  status: ('A' for Active; 'I' for Inactive)
REMARK    1  A    between atoms: N_2  and  C_3
REMARK    2  A    between atoms: C_3  and  C_5
REMARK    3  A    between atoms: C_10  and  O_11
REMARK    4  A    between atoms: O_11  and  C_12
REMARK    5  A    between atoms: C_18  and  O_19
REMARK    6  A    between atoms: O_19  and  C_20
REMARK    7  A    between atoms: C_26  and  N_27
REMARK                            x       y       z     vdW  Elec       q    Type
REMARK                         _______ _______ _______ _____ _____    ______ ____
ROOT
ATOM      1  C   UNL     1       3.546   6.500  -6.906  0.00  0.00    +0.168 C 
ATOM      2  C   UNL     1       1.868   6.173  -6.782  0.00  0.00    +0.209 C 
ATOM      3  O   UNL     1       1.516   7.471  -7.446  0.00  0.00    -0.218 OA
ATOM      4  C   UNL     1       1.629   6.848  -5.234  0.00  0.00    +0.168 C 
ATOM      5  C   UNL     1       1.764   5.393  -4.344  0.00  0.00    +0.123 C 
ATOM      6  N   UNL     1       1.211   4.449  -5.453  0.00  0.00    -0.130 NA
ATOM      7  C   UNL     1       3.308   5.156  -4.783  0.00  0.00    +0.043 C 
ATOM      8  C   UNL     1       3.790   6.649  -5.211  0.00  0.00    +0.123 C 
ATOM      9  N   UNL     1       5.306   6.291  -5.251  0.00  0.00    -0.130 NA
ENDROOT
BRANCH   1  10
ATOM     10  O   UNL     1       3.790   5.039  -7.074  0.00  0.00    -0.328 OA
BRANCH  10  13
ATOM     11  C   UNL     1       5.242   5.924 -10.144  0.00  0.00    +0.134 C 
ATOM     12  O   UNL     1       4.341   6.239  -8.960  0.00  0.00    -0.331 OA
ATOM     13  C   UNL     1       4.804   4.995  -8.201  0.00  0.00    +0.253 C 
ATOM     14  C   UNL     1       3.958   3.855  -9.193  0.00  0.00    +0.148 C 
ATOM     15  N   UNL     1       2.732   3.593  -8.274  0.00  0.00    -0.128 NA
ATOM     16  C   UNL     1       3.033   4.880 -10.054  0.00  0.00    +0.027 C 
ATOM     17  C   UNL     1       3.986   5.419 -11.068  0.00  0.00    +0.033 C 
BRANCH  11  18
ATOM     18  C   UNL     1       5.274   7.557 -10.686  0.00  0.00    +0.100 C 
ATOM     19  C   UNL     1       6.898   7.585 -10.516  0.00  0.00    +0.021 C 
BRANCH  18  21
ATOM     20  C   UNL     1       6.809   7.537 -12.420  0.00  0.00    +0.107 C 
ATOM     21  N   UNL     1       5.407   7.283 -12.218  0.00  0.00    -0.215 NA
ENDBRANCH  18  21
ENDBRANCH  11  18
ENDBRANCH  10  13
ENDBRANCH   1  10
BRANCH   4  22
ATOM     22  O   UNL     1       0.140   6.794  -5.306  0.00  0.00    -0.327 OA
BRANCH  22  23
ATOM     23  C   UNL     1      -0.240   7.207  -3.874  0.00  0.00    +0.268 C 
ATOM     24  C   UNL     1      -1.686   7.995  -4.377  0.00  0.00    +0.226 C 
ATOM     25  O   UNL     1      -2.146   8.341  -2.992  0.00  0.00    -0.216 OA
ATOM     26  C   UNL     1      -2.822   6.751  -4.574  0.00  0.00    +0.138 C 
ATOM     27  C   UNL     1      -2.873   6.070  -3.099  0.00  0.00    +0.171 C 
ATOM     28  O   UNL     1      -3.297   4.771  -3.472  0.00  0.00    -0.222 OA
ATOM     29  C   UNL     1      -4.087   6.674  -2.453  0.00  0.00    +0.037 C 
ATOM     30  C   UNL     1      -1.655   6.009  -2.478  0.00  0.00    +0.176 C 
ATOM     31  O   UNL     1      -0.784   5.867  -3.455  0.00  0.00    -0.326 OA
BRANCH  26  32
ATOM     32  N   UNL     1      -1.791   5.765  -5.179  0.00  0.00    -0.213 NA
ATOM     33  C   UNL     1      -2.205   5.349  -6.473  0.00  0.00    +0.108 C 
ENDBRANCH  26  32
ENDBRANCH  22  23
ENDBRANCH   4  22
TORSDOF 7
ENDMDL
MODEL 9
REMARK VINA RESULT:      -6.8      3.292      5.458
REMARK  Name = 
REMARK  7 active torsions:
REMARK  status: ('A' for Active; 'I' for Inactive)
REMARK    1  A    between atoms: N_2  and  C_3
REMARK    2  A    between atoms: C_3  and  C_5
REMARK    3  A    between atoms: C_10  and  O_11
REMARK    4  A    between atoms: O_11  and  C_12
REMARK    5  A    between atoms: C_18  and  O_19
REMARK    6  A    between atoms: O_19  and  C_20
REMARK    7  A    between atoms: C_26  and  N_27
REMARK                            x       y       z     vdW  Elec       q    Type
REMARK                         _______ _______ _______ _____ _____    ______ ____
ROOT
ATOM      1  C   UNL     1       3.834   6.644  -9.180  0.00  0.00    +0.168 C 
ATOM      2  C   UNL     1       2.205   6.324  -8.756  0.00  0.00    +0.209 C 
ATOM      3  O   UNL     1       2.003   7.730  -8.273  0.00  0.00    -0.218 OA
ATOM      4  C   UNL     1       2.498   5.772  -7.169  0.00  0.00    +0.168 C 
ATOM      5  C   UNL     1       2.512   4.099  -7.524  0.00  0.00    +0.123 C 
ATOM      6  N   UNL     1       1.515   4.158  -8.720  0.00  0.00    -0.130 NA
ATOM      7  C   UNL     1       3.814   4.218  -8.485  0.00  0.00    +0.043 C 
ATOM      8  C   UNL     1       4.501   5.604  -7.985  0.00  0.00    +0.123 C 
ATOM      9  N   UNL     1       5.845   5.363  -8.736  0.00  0.00    -0.130 NA
ENDROOT
BRANCH   1  10
ATOM     10  O   UNL     1       3.699   5.682 -10.311  0.00  0.00    -0.328 OA
BRANCH  10  13
ATOM     11  C   UNL     1       2.458   6.582 -13.468  0.00  0.00    +0.134 C 
ATOM     12  O   UNL     1       2.437   5.689 -12.237  0.00  0.00    -0.331 OA
ATOM     13  C   UNL     1       3.424   6.591 -11.494  0.00  0.00    +0.253 C 
ATOM     14  C   UNL     1       4.813   6.141 -12.425  0.00  0.00    +0.148 C 
ATOM     15  N   UNL     1       5.454   5.129 -11.434  0.00  0.00    -0.128 NA
ATOM     16  C   UNL     1       4.195   4.877 -13.242  0.00  0.00    +0.027 C 
ATOM     17  C   UNL     1       3.390   5.533 -14.313  0.00  0.00    +0.033 C 
BRANCH  11  18
ATOM     18  C   UNL     1       0.930   6.021 -14.027  0.00  0.00    +0.100 C 
ATOM     19  C   UNL     1       0.258   7.460 -13.644  0.00  0.00    +0.021 C 
BRANCH  18  21
ATOM     20  C   UNL     1      -0.210   7.073 -15.747  0.00  0.00    +0.107 C 
ATOM     21  N   UNL     1       1.067   6.448 -15.523  0.00  0.00    -0.215 NA
ENDBRANCH  18  21
ENDBRANCH  11  18
ENDBRANCH  10  13
ENDBRANCH   1  10
BRANCH   4  22
ATOM     22  O   UNL     1       1.061   5.787  -6.768  0.00  0.00    -0.327 OA
BRANCH  22  23
ATOM     23  C   UNL     1       1.179   6.009  -5.251  0.00  0.00    +0.268 C 
ATOM     24  C   UNL     1       0.126   7.371  -5.266  0.00  0.00    +0.226 C 
ATOM     25  O   UNL     1       0.137   7.572  -3.779  0.00  0.00    -0.216 OA
ATOM     26  C   UNL     1      -1.440   6.719  -5.286  0.00  0.00    +0.138 C 
ATOM     27  C   UNL     1      -1.477   5.820  -3.933  0.00  0.00    +0.171 C 
ATOM     28  O   UNL     1      -2.468   4.884  -4.317  0.00  0.00    -0.222 OA
ATOM     29  C   UNL     1      -2.173   6.691  -2.927  0.00  0.00    +0.037 C 
ATOM     30  C   UNL     1      -0.299   5.176  -3.667  0.00  0.00    +0.176 C 
ATOM     31  O   UNL     1       0.221   4.919  -4.848  0.00  0.00    -0.326 OA
BRANCH  26  32
ATOM     32  N   UNL     1      -1.057   5.563  -6.245  0.00  0.00    -0.213 NA
ATOM     33  C   UNL     1      -2.003   5.460  -7.300  0.00  0.00    +0.108 C 
ENDBRANCH  26  32
ENDBRANCH  22  23
ENDBRANCH   4  22
TORSDOF 7
ENDMDL
