MODEL 1
REMARK VINA RESULT:      -4.9      0.000      0.000
REMARK  Name = 
REMARK  9 active torsions:
REMARK  status: ('A' for Active; 'I' for Inactive)
REMARK    1  A    between atoms: C_2  and  C_3
REMARK    2  A    between atoms: C_7  and  O_8
REMARK    3  A    between atoms: O_8  and  C_9
REMARK    4  A    between atoms: C_12  and  N_13
REMARK    5  A    between atoms: C_31  and  O_32
REMARK    6  A    between atoms: O_32  and  C_33
REMARK    7  A    between atoms: C_37  and  O_38
REMARK    8  A    between atoms: C_40  and  O_41
REMARK    9  A    between atoms: C_43  and  O_44
REMARK                            x       y       z     vdW  Elec       q    Type
REMARK                         _______ _______ _______ _____ _____    ______ ____
ROOT
ATOM      1  C   UNL     1       4.773   7.734  -1.497  0.00  0.00    +0.169 C 
ATOM      2  O   UNL     1       3.911   7.968  -2.763  0.00  0.00    -0.452 OA
ATOM      3  C   UNL     1       4.611   8.033  -3.898  0.00  0.00    +0.317 C 
ATOM      4  O   UNL     1       4.792   8.962  -4.694  0.00  0.00    -0.250 OA
ATOM      5  C   UNL     1       4.801   6.638  -4.235  0.00  0.00    +0.114 C 
ATOM      6  C   UNL     1       3.376   6.138  -4.872  0.00  0.00    +0.040 C 
ATOM      7  C   UNL     1       3.947   4.683  -5.149  0.00  0.00    +0.009 C 
ATOM      8  C   UNL     1       4.977   4.823  -5.827  0.00  0.00    -0.028 C 
ATOM      9  C   UNL     1       4.351   5.501  -7.102  0.00  0.00    +0.027 C 
ATOM     10  C   UNL     1       2.883   4.673  -7.252  0.00  0.00    +0.011 C 
ATOM     11  C   UNL     1       2.521   6.194  -6.736  0.00  0.00    +0.025 C 
ATOM     12  C   UNL     1       3.583   6.977  -7.827  0.00  0.00    +0.034 C 
ATOM     13  C   UNL     1       3.007   6.437  -9.192  0.00  0.00    +0.116 C 
ATOM     14  C   UNL     1       1.391   6.686  -7.587  0.00  0.00    -0.031 C 
ATOM     15  C   UNL     1       2.304   7.202  -6.786  0.00  0.00    -0.030 C 
ATOM     16  C   UNL     1       2.457   4.977  -8.750  0.00  0.00    +0.030 C 
ATOM     17  C   UNL     1       3.920   4.122  -3.776  0.00  0.00    +0.171 C 
ATOM     18  O   UNL     1       4.524   3.008  -3.651  0.00  0.00    -0.292 OA
ATOM     19  C   UNL     1       2.468   3.950  -3.127  0.00  0.00    +0.089 C 
ATOM     20  C   UNL     1       1.731   5.189  -3.898  0.00  0.00    +0.011 C 
ATOM     21  C   UNL     1       2.624   5.165  -1.916  0.00  0.00    +0.125 C 
ATOM     22  C   UNL     1       3.295   4.247  -0.721  0.00  0.00    +0.030 C 
ATOM     23  C   UNL     1       4.343   5.360  -0.395  0.00  0.00    +0.006 C 
ATOM     24  C   UNL     1       3.798   6.898  -6.288  0.00  0.00    +0.030 C 
ATOM     25  C   UNL     1       4.641   6.115  -1.516  0.00  0.00    +0.044 C 
ENDROOT
BRANCH   1  27
ATOM     26  C   UNL     1       3.366   8.884  -0.552  0.00  0.00    +0.004 C 
ATOM     27  C   UNL     1       3.436   8.081  -0.578  0.00  0.00    +0.044 C 
ENDBRANCH   1  27
BRANCH  21  28
ATOM     28  O   UNL     1       1.203   5.187  -1.552  0.00  0.00    -0.333 OA
BRANCH  28  29
ATOM     29  C   UNL     1       0.332   6.390  -1.652  0.00  0.00    +0.235 C 
ATOM     30  O   UNL     1      -0.169   6.619  -0.211  0.00  0.00    -0.332 OA
ATOM     31  C   UNL     1      -0.716   7.932  -0.767  0.00  0.00    +0.132 C 
ATOM     32  C   UNL     1      -1.205   8.401   0.728  0.00  0.00    +0.034 C 
ATOM     33  C   UNL     1      -2.316   7.429  -1.175  0.00  0.00    +0.085 C 
ATOM     34  C   UNL     1      -2.090   5.828  -1.046  0.00  0.00    +0.024 C 
ATOM     35  C   UNL     1      -1.023   5.451  -2.011  0.00  0.00    +0.063 C 
BRANCH  33  36
ATOM     36  N   UNL     1      -2.092   7.301  -2.713  0.00  0.00    -0.269 NA
ATOM     37  C   UNL     1      -1.911   8.366  -3.445  0.00  0.00    +0.090 C 
ATOM     38  C   UNL     1      -3.191   6.449  -3.133  0.00  0.00    +0.090 C 
ENDBRANCH  33  36
ENDBRANCH  28  29
ENDBRANCH  21  28
BRANCH  13  39
ATOM     39  O   UNL     1       4.409   5.858  -9.456  0.00  0.00    -0.356 OA
BRANCH  39  40
ATOM     40  C   UNL     1       4.983   6.910 -10.347  0.00  0.00    +0.145 C 
ATOM     41  C   UNL     1       6.199   5.767 -10.792  0.00  0.00    +0.172 C 
ATOM     42  C   UNL     1       6.918   6.804 -11.961  0.00  0.00    +0.172 C 
ATOM     43  C   UNL     1       5.816   6.424 -13.228  0.00  0.00    +0.145 C 
ATOM     44  C   UNL     1       4.812   5.357 -12.359  0.00  0.00    +0.032 C 
ATOM     45  C   UNL     1       3.761   5.319 -13.595  0.00  0.00    +0.003 C 
ATOM     46  C   UNL     1       4.033   6.585 -11.654  0.00  0.00    +0.035 C 
BRANCH  41  47
ATOM     47  O   UNL     1       7.106   6.256  -9.703  0.00  0.00    -0.349 OA
ATOM     48  C   UNL     1       7.775   5.082  -9.388  0.00  0.00    +0.174 C 
ENDBRANCH  41  47
BRANCH  43  49
ATOM     49  O   UNL     1       6.707   5.284 -13.662  0.00  0.00    -0.351 OA
ATOM     50  C   UNL     1       7.240   5.625 -14.859  0.00  0.00    +0.174 C 
ENDBRANCH  43  49
BRANCH  42  51
ATOM     51  O   UNL     1       6.150   8.012 -11.576  0.00  0.00    -0.349 OA
ATOM     52  C   UNL     1       6.519   9.105 -11.323  0.00  0.00    +0.174 C 
ENDBRANCH  42  51
ENDBRANCH  39  40
ENDBRANCH  13  39
TORSDOF 9
ENDMDL
MODEL 2
REMARK VINA RESULT:      -4.5      2.677     10.101
REMARK  Name = 
REMARK  9 active torsions:
REMARK  status: ('A' for Active; 'I' for Inactive)
REMARK    1  A    between atoms: C_2  and  C_3
REMARK    2  A    between atoms: C_7  and  O_8
REMARK    3  A    between atoms: O_8  and  C_9
REMARK    4  A    between atoms: C_12  and  N_13
REMARK    5  A    between atoms: C_31  and  O_32
REMARK    6  A    between atoms: O_32  and  C_33
REMARK    7  A    between atoms: C_37  and  O_38
REMARK    8  A    between atoms: C_40  and  O_41
REMARK    9  A    between atoms: C_43  and  O_44
REMARK                            x       y       z     vdW  Elec       q    Type
REMARK                         _______ _______ _______ _____ _____    ______ ____
ROOT
ATOM      1  C   UNL     1       0.427   6.941  -9.284  0.00  0.00    +0.169 C 
ATOM      2  O   UNL     1       1.631   7.470  -8.464  0.00  0.00    -0.452 OA
ATOM      3  C   UNL     1       1.338   7.782  -7.200  0.00  0.00    +0.317 C 
ATOM      4  O   UNL     1       1.344   8.866  -6.603  0.00  0.00    -0.250 OA
ATOM      5  C   UNL     1       1.394   6.498  -6.533  0.00  0.00    +0.114 C 
ATOM      6  C   UNL     1       2.988   6.175  -6.327  0.00  0.00    +0.040 C 
ATOM      7  C   UNL     1       2.672   4.815  -5.573  0.00  0.00    +0.009 C 
ATOM      8  C   UNL     1       1.911   5.092  -4.632  0.00  0.00    -0.028 C 
ATOM      9  C   UNL     1       2.856   6.050  -3.817  0.00  0.00    +0.027 C 
ATOM     10  C   UNL     1       4.361   5.299  -4.002  0.00  0.00    +0.011 C 
ATOM     11  C   UNL     1       4.397   6.667  -4.917  0.00  0.00    +0.025 C 
ATOM     12  C   UNL     1       3.683   7.663  -3.722  0.00  0.00    +0.034 C 
ATOM     13  C   UNL     1       4.719   7.457  -2.551  0.00  0.00    +0.116 C 
ATOM     14  C   UNL     1       5.693   7.356  -4.623  0.00  0.00    -0.031 C 
ATOM     15  C   UNL     1       4.526   7.662  -5.157  0.00  0.00    -0.030 C 
ATOM     16  C   UNL     1       5.223   5.942  -2.836  0.00  0.00    +0.030 C 
ATOM     17  C   UNL     1       2.299   3.956  -6.724  0.00  0.00    +0.171 C 
ATOM     18  O   UNL     1       1.789   2.834  -6.400  0.00  0.00    -0.292 OA
ATOM     19  C   UNL     1       3.468   3.660  -7.774  0.00  0.00    +0.089 C 
ATOM     20  C   UNL     1       4.302   5.053  -7.577  0.00  0.00    +0.011 C 
ATOM     21  C   UNL     1       2.817   4.565  -9.087  0.00  0.00    +0.125 C 
ATOM     22  C   UNL     1       1.877   3.390  -9.764  0.00  0.00    +0.030 C 
ATOM     23  C   UNL     1       0.685   4.385  -9.942  0.00  0.00    +0.006 C 
ATOM     24  C   UNL     1       2.985   7.232  -5.045  0.00  0.00    +0.030 C 
ATOM     25  C   UNL     1       0.703   5.371  -8.972  0.00  0.00    +0.044 C 
ENDROOT
BRANCH   1  27
ATOM     26  C   UNL     1       0.849   7.176 -11.275  0.00  0.00    +0.004 C 
ATOM     27  C   UNL     1       1.354   7.087 -10.653  0.00  0.00    +0.044 C 
ENDBRANCH   1  27
BRANCH  21  28
ATOM     28  O   UNL     1       4.033   4.522  -9.907  0.00  0.00    -0.333 OA
BRANCH  28  29
ATOM     29  C   UNL     1       4.481   5.629 -10.796  0.00  0.00    +0.235 C 
ATOM     30  O   UNL     1       4.741   4.945 -12.155  0.00  0.00    -0.332 OA
ATOM     31  C   UNL     1       4.894   6.372 -12.678  0.00  0.00    +0.132 C 
ATOM     32  C   UNL     1       5.060   5.827 -14.217  0.00  0.00    +0.034 C 
ATOM     33  C   UNL     1       6.602   6.557 -12.518  0.00  0.00    +0.085 C 
ATOM     34  C   UNL     1       6.886   5.256 -11.592  0.00  0.00    +0.024 C 
ATOM     35  C   UNL     1       6.093   5.418 -10.344  0.00  0.00    +0.063 C 
BRANCH  33  36
ATOM     36  N   UNL     1       6.581   7.429 -11.225  0.00  0.00    -0.269 NA
ATOM     37  C   UNL     1       6.268   8.694 -11.286  0.00  0.00    +0.090 C 
ATOM     38  C   UNL     1       7.871   7.146 -10.620  0.00  0.00    +0.090 C 
ENDBRANCH  33  36
ENDBRANCH  28  29
ENDBRANCH  21  28
BRANCH  13  39
ATOM     39  O   UNL     1       3.538   6.934  -1.713  0.00  0.00    -0.356 OA
BRANCH  39  40
ATOM     40  C   UNL     1       3.151   8.172  -0.973  0.00  0.00    +0.145 C 
ATOM     41  C   UNL     1       2.326   7.153   0.152  0.00  0.00    +0.172 C 
ATOM     42  C   UNL     1       1.899   8.451   1.198  0.00  0.00    +0.172 C 
ATOM     43  C   UNL     1       3.402   8.497   2.037  0.00  0.00    +0.145 C 
ATOM     44  C   UNL     1       4.199   7.269   1.166  0.00  0.00    +0.032 C 
ATOM     45  C   UNL     1       5.595   7.632   1.909  0.00  0.00    +0.003 C 
ATOM     46  C   UNL     1       4.518   8.276  -0.057  0.00  0.00    +0.035 C 
BRANCH  41  47
ATOM     47  O   UNL     1       1.050   7.271  -0.625  0.00  0.00    -0.349 OA
ATOM     48  C   UNL     1       0.608   5.957  -0.580  0.00  0.00    +0.174 C 
ENDBRANCH  41  47
BRANCH  43  49
ATOM     49  O   UNL     1       2.876   7.493   3.036  0.00  0.00    -0.351 OA
ATOM     50  C   UNL     1       1.903   8.106   3.748  0.00  0.00    +0.174 C 
ENDBRANCH  43  49
BRANCH  42  51
ATOM     51  O   UNL     1       2.316   9.529   0.271  0.00  0.00    -0.349 OA
ATOM     52  C   UNL     1       2.245  10.703   0.380  0.00  0.00    +0.174 C 
ENDBRANCH  42  51
ENDBRANCH  39  40
ENDBRANCH  13  39
TORSDOF 9
ENDMDL
MODEL 3
REMARK VINA RESULT:      -3.4      2.765     10.191
REMARK  Name = 
REMARK  9 active torsions:
REMARK  status: ('A' for Active; 'I' for Inactive)
REMARK    1  A    between atoms: C_2  and  C_3
REMARK    2  A    between atoms: C_7  and  O_8
REMARK    3  A    between atoms: O_8  and  C_9
REMARK    4  A    between atoms: C_12  and  N_13
REMARK    5  A    between atoms: C_31  and  O_32
REMARK    6  A    between atoms: O_32  and  C_33
REMARK    7  A    between atoms: C_37  and  O_38
REMARK    8  A    between atoms: C_40  and  O_41
REMARK    9  A    between atoms: C_43  and  O_44
REMARK                            x       y       z     vdW  Elec       q    Type
REMARK                         _______ _______ _______ _____ _____    ______ ____
ROOT
ATOM      1  C   UNL     1       0.670   6.973  -9.462  0.00  0.00    +0.169 C 
ATOM      2  O   UNL     1       1.777   7.520  -8.526  0.00  0.00    -0.452 OA
ATOM      3  C   UNL     1       1.345   7.864  -7.311  0.00  0.00    +0.317 C 
ATOM      4  O   UNL     1       1.289   8.962  -6.744  0.00  0.00    -0.250 OA
ATOM      5  C   UNL     1       1.322   6.597  -6.610  0.00  0.00    +0.114 C 
ATOM      6  C   UNL     1       2.881   6.277  -6.220  0.00  0.00    +0.040 C 
ATOM      7  C   UNL     1       2.477   4.936  -5.473  0.00  0.00    +0.009 C 
ATOM      8  C   UNL     1       1.617   5.238  -4.630  0.00  0.00    -0.028 C 
ATOM      9  C   UNL     1       2.470   6.215  -3.739  0.00  0.00    +0.027 C 
ATOM     10  C   UNL     1       3.982   5.457  -3.736  0.00  0.00    +0.011 C 
ATOM     11  C   UNL     1       4.126   6.802  -4.675  0.00  0.00    +0.025 C 
ATOM     12  C   UNL     1       3.287   7.828  -3.591  0.00  0.00    +0.034 C 
ATOM     13  C   UNL     1       4.186   7.650  -2.307  0.00  0.00    +0.116 C 
ATOM     14  C   UNL     1       5.384   7.496  -4.255  0.00  0.00    -0.031 C 
ATOM     15  C   UNL     1       4.285   7.791  -4.922  0.00  0.00    -0.030 C 
ATOM     16  C   UNL     1       4.712   6.128  -2.497  0.00  0.00    +0.030 C 
ATOM     17  C   UNL     1       2.231   4.050  -6.637  0.00  0.00    +0.171 C 
ATOM     18  O   UNL     1       1.684   2.937  -6.344  0.00  0.00    -0.292 OA
ATOM     19  C   UNL     1       3.509   3.726  -7.543  0.00  0.00    +0.089 C 
ATOM     20  C   UNL     1       4.322   5.122  -7.288  0.00  0.00    +0.011 C 
ATOM     21  C   UNL     1       3.012   4.599  -8.942  0.00  0.00    +0.125 C 
ATOM     22  C   UNL     1       2.149   3.408  -9.690  0.00  0.00    +0.030 C 
ATOM     23  C   UNL     1       0.988   4.401 -10.024  0.00  0.00    +0.006 C 
ATOM     24  C   UNL     1       2.740   7.366  -4.972  0.00  0.00    +0.030 C 
ATOM     25  C   UNL     1       0.902   5.411  -9.083  0.00  0.00    +0.044 C 
ENDROOT
BRANCH   1  27
ATOM     26  C   UNL     1       1.315   7.055 -11.405  0.00  0.00    +0.004 C 
ATOM     27  C   UNL     1       1.744   7.084 -10.722  0.00  0.00    +0.044 C 
ENDBRANCH   1  27
BRANCH  21  28
ATOM     28  O   UNL     1       4.312   4.534  -9.620  0.00  0.00    -0.333 OA
BRANCH  28  29
ATOM     29  C   UNL     1       4.806   5.558 -10.581  0.00  0.00    +0.235 C 
ATOM     30  O   UNL     1       5.257   4.741 -11.810  0.00  0.00    -0.332 OA
ATOM     31  C   UNL     1       5.398   6.105 -12.482  0.00  0.00    +0.132 C 
ATOM     32  C   UNL     1       5.770   5.399 -13.916  0.00  0.00    +0.034 C 
ATOM     33  C   UNL     1       7.064   6.416 -12.157  0.00  0.00    +0.085 C 
ATOM     34  C   UNL     1       7.302   5.250 -11.055  0.00  0.00    +0.024 C 
ATOM     35  C   UNL     1       6.362   5.503  -9.931  0.00  0.00    +0.063 C 
BRANCH  33  36
ATOM     36  N   UNL     1       6.849   7.426 -10.990  0.00  0.00    -0.269 NA
ATOM     37  C   UNL     1       6.442   8.642 -11.235  0.00  0.00    +0.090 C 
ATOM     38  C   UNL     1       8.092   7.335 -10.245  0.00  0.00    +0.090 C 
ENDBRANCH  33  36
ENDBRANCH  28  29
ENDBRANCH  21  28
BRANCH  13  39
ATOM     39  O   UNL     1       2.916   7.150  -1.593  0.00  0.00    -0.356 OA
BRANCH  39  40
ATOM     40  C   UNL     1       3.346   7.234  -0.166  0.00  0.00    +0.145 C 
ATOM     41  C   UNL     1       2.644   8.811  -0.123  0.00  0.00    +0.172 C 
ATOM     42  C   UNL     1       2.946   9.031   1.557  0.00  0.00    +0.172 C 
ATOM     43  C   UNL     1       1.551   8.177   2.095  0.00  0.00    +0.145 C 
ATOM     44  C   UNL     1       0.954   7.708   0.570  0.00  0.00    +0.032 C 
ATOM     45  C   UNL     1      -0.154   6.760   1.280  0.00  0.00    +0.003 C 
ATOM     46  C   UNL     1       2.018   6.496   0.472  0.00  0.00    +0.035 C 
BRANCH  41  47
ATOM     47  O   UNL     1       3.949   9.440  -0.508  0.00  0.00    -0.349 OA
ATOM     48  C   UNL     1       3.544  10.752  -0.708  0.00  0.00    +0.174 C 
ENDBRANCH  41  47
BRANCH  43  49
ATOM     49  O   UNL     1       0.749   9.457   2.051  0.00  0.00    -0.351 OA
ATOM     50  C   UNL     1       0.351   9.725   3.316  0.00  0.00    +0.174 C 
ENDBRANCH  43  49
BRANCH  42  51
ATOM     51  O   UNL     1       3.808   7.835   1.708  0.00  0.00    -0.349 OA
ATOM     52  C   UNL     1       4.722   7.636   2.429  0.00  0.00    +0.174 C 
ENDBRANCH  42  51
ENDBRANCH  39  40
ENDBRANCH  13  39
TORSDOF 9
ENDMDL
MODEL 4
REMARK VINA RESULT:      -2.7      3.272      4.736
REMARK  Name = 
REMARK  9 active torsions:
REMARK  status: ('A' for Active; 'I' for Inactive)
REMARK    1  A    between atoms: C_2  and  C_3
REMARK    2  A    between atoms: C_7  and  O_8
REMARK    3  A    between atoms: O_8  and  C_9
REMARK    4  A    between atoms: C_12  and  N_13
REMARK    5  A    between atoms: C_31  and  O_32
REMARK    6  A    between atoms: O_32  and  C_33
REMARK    7  A    between atoms: C_37  and  O_38
REMARK    8  A    between atoms: C_40  and  O_41
REMARK    9  A    between atoms: C_43  and  O_44
REMARK                            x       y       z     vdW  Elec       q    Type
REMARK                         _______ _______ _______ _____ _____    ______ ____
ROOT
ATOM      1  C   UNL     1       4.008   7.558  -5.652  0.00  0.00    +0.169 C 
ATOM      2  O   UNL     1       2.680   7.641  -6.448  0.00  0.00    -0.452 OA
ATOM      3  C   UNL     1       2.830   7.992  -7.727  0.00  0.00    +0.317 C 
ATOM      4  O   UNL     1       2.459   8.996  -8.348  0.00  0.00    -0.250 OA
ATOM      5  C   UNL     1       3.181   6.740  -8.362  0.00  0.00    +0.114 C 
ATOM      6  C   UNL     1       1.776   5.910  -8.514  0.00  0.00    +0.040 C 
ATOM      7  C   UNL     1       2.502   4.703  -9.246  0.00  0.00    +0.009 C 
ATOM      8  C   UNL     1       3.111   5.183 -10.214  0.00  0.00    -0.028 C 
ATOM      9  C   UNL     1       1.889   5.757 -11.023  0.00  0.00    +0.027 C 
ATOM     10  C   UNL     1       0.715   4.564 -10.776  0.00  0.00    +0.011 C 
ATOM     11  C   UNL     1       0.255   5.873  -9.892  0.00  0.00    +0.025 C 
ATOM     12  C   UNL     1       0.580   7.010 -11.130  0.00  0.00    +0.034 C 
ATOM     13  C   UNL     1      -0.356   6.442 -12.265  0.00  0.00    +0.116 C 
ATOM     14  C   UNL     1      -1.201   6.094 -10.163  0.00  0.00    -0.031 C 
ATOM     15  C   UNL     1      -0.187   6.779  -9.671  0.00  0.00    -0.030 C 
ATOM     16  C   UNL     1      -0.334   4.854 -11.930  0.00  0.00    +0.030 C 
ATOM     17  C   UNL     1       3.158   4.049  -8.087  0.00  0.00    +0.171 C 
ATOM     18  O   UNL     1       3.998   3.144  -8.400  0.00  0.00    -0.292 OA
ATOM     19  C   UNL     1       2.171   3.422  -6.996  0.00  0.00    +0.089 C 
ATOM     20  C   UNL     1       0.925   4.461  -7.200  0.00  0.00    +0.011 C 
ATOM     21  C   UNL     1       2.519   4.529  -5.724  0.00  0.00    +0.125 C 
ATOM     22  C   UNL     1       3.803   3.745  -5.048  0.00  0.00    +0.030 C 
ATOM     23  C   UNL     1       4.610   5.079  -4.929  0.00  0.00    +0.006 C 
ATOM     24  C   UNL     1       1.407   6.870  -9.819  0.00  0.00    +0.030 C 
ATOM     25  C   UNL     1       4.252   5.975  -5.920  0.00  0.00    +0.044 C 
ENDROOT
BRANCH   1  27
ATOM     26  C   UNL     1       3.604   7.608  -3.644  0.00  0.00    +0.004 C 
ATOM     27  C   UNL     1       3.112   7.438  -4.260  0.00  0.00    +0.044 C 
ENDBRANCH   1  27
BRANCH  21  28
ATOM     28  O   UNL     1       1.400   4.119  -4.867  0.00  0.00    -0.333 OA
BRANCH  28  29
ATOM     29  C   UNL     1       0.111   4.858  -4.765  0.00  0.00    +0.235 C 
ATOM     30  O   UNL     1       0.514   6.344  -4.868  0.00  0.00    -0.332 OA
ATOM     31  C   UNL     1      -0.990   6.593  -4.962  0.00  0.00    +0.132 C 
ATOM     32  C   UNL     1      -0.744   8.195  -5.216  0.00  0.00    +0.034 C 
ATOM     33  C   UNL     1      -1.342   6.870  -3.296  0.00  0.00    +0.085 C 
ATOM     34  C   UNL     1       0.059   6.336  -2.676  0.00  0.00    +0.024 C 
ATOM     35  C   UNL     1       0.209   4.913  -3.081  0.00  0.00    +0.063 C 
BRANCH  33  36
ATOM     36  N   UNL     1      -1.967   5.474  -2.995  0.00  0.00    -0.269 NA
ATOM     37  C   UNL     1      -3.026   5.070  -3.643  0.00  0.00    +0.090 C 
ATOM     38  C   UNL     1      -2.100   5.481  -1.549  0.00  0.00    +0.090 C 
ENDBRANCH  33  36
ENDBRANCH  28  29
ENDBRANCH  21  28
BRANCH  13  39
ATOM     39  O   UNL     1       0.913   6.305 -13.126  0.00  0.00    -0.356 OA
BRANCH  39  40
ATOM     40  C   UNL     1       0.927   7.629 -13.816  0.00  0.00    +0.145 C 
ATOM     41  C   UNL     1       1.892   6.895 -15.046  0.00  0.00    +0.172 C 
ATOM     42  C   UNL     1       1.907   8.299 -16.041  0.00  0.00    +0.172 C 
ATOM     43  C   UNL     1       0.381   8.002 -16.781  0.00  0.00    +0.145 C 
ATOM     44  C   UNL     1      -0.022   6.579 -15.935  0.00  0.00    +0.032 C 
ATOM     45  C   UNL     1      -1.515   6.610 -16.568  0.00  0.00    +0.003 C 
ATOM     46  C   UNL     1      -0.487   7.424 -14.638  0.00  0.00    +0.035 C 
BRANCH  41  47
ATOM     47  O   UNL     1       3.153   7.298 -14.344  0.00  0.00    -0.349 OA
ATOM     48  C   UNL     1       3.871   6.113 -14.421  0.00  0.00    +0.174 C 
ENDBRANCH  41  47
BRANCH  43  49
ATOM     49  O   UNL     1       1.063   7.202 -17.866  0.00  0.00    -0.351 OA
ATOM     50  C   UNL     1       1.583   8.085 -18.750  0.00  0.00    +0.174 C 
ENDBRANCH  43  49
BRANCH  42  51
ATOM     51  O   UNL     1       1.305   9.201 -15.029  0.00  0.00    -0.349 OA
ATOM     52  C   UNL     1       1.264  10.380 -14.983  0.00  0.00    +0.174 C 
ENDBRANCH  42  51
ENDBRANCH  39  40
ENDBRANCH  13  39
TORSDOF 9
ENDMDL
MODEL 5
REMARK VINA RESULT:      -2.5      2.904     10.292
REMARK  Name = 
REMARK  9 active torsions:
REMARK  status: ('A' for Active; 'I' for Inactive)
REMARK    1  A    between atoms: C_2  and  C_3
REMARK    2  A    between atoms: C_7  and  O_8
REMARK    3  A    between atoms: O_8  and  C_9
REMARK    4  A    between atoms: C_12  and  N_13
REMARK    5  A    between atoms: C_31  and  O_32
REMARK    6  A    between atoms: O_32  and  C_33
REMARK    7  A    between atoms: C_37  and  O_38
REMARK    8  A    between atoms: C_40  and  O_41
REMARK    9  A    between atoms: C_43  and  O_44
REMARK                            x       y       z     vdW  Elec       q    Type
REMARK                         _______ _______ _______ _____ _____    ______ ____
ROOT
ATOM      1  C   UNL     1       0.369   5.434  -6.942  0.00  0.00    +0.169 C 
ATOM      2  O   UNL     1       0.978   6.580  -6.095  0.00  0.00    -0.452 OA
ATOM      3  C   UNL     1       0.655   6.537  -4.801  0.00  0.00    +0.317 C 
ATOM      4  O   UNL     1      -0.012   7.306  -4.099  0.00  0.00    -0.250 OA
ATOM      5  C   UNL     1       1.604   5.582  -4.267  0.00  0.00    +0.114 C 
ATOM      6  C   UNL     1       3.019   6.396  -4.124  0.00  0.00    +0.040 C 
ATOM      7  C   UNL     1       3.749   5.131  -3.505  0.00  0.00    +0.009 C 
ATOM      8  C   UNL     1       3.076   4.768  -2.528  0.00  0.00    -0.028 C 
ATOM      9  C   UNL     1       3.208   6.060  -1.638  0.00  0.00    +0.027 C 
ATOM     10  C   UNL     1       4.809   6.522  -1.926  0.00  0.00    +0.011 C 
ATOM     11  C   UNL     1       3.854   7.615  -2.700  0.00  0.00    +0.025 C 
ATOM     12  C   UNL     1       2.758   7.802  -1.398  0.00  0.00    +0.034 C 
ATOM     13  C   UNL     1       3.760   8.270  -0.273  0.00  0.00    +0.116 C 
ATOM     14  C   UNL     1       4.383   8.975  -2.363  0.00  0.00    -0.031 C 
ATOM     15  C   UNL     1       3.269   8.454  -2.840  0.00  0.00    -0.030 C 
ATOM     16  C   UNL     1       5.118   7.503  -0.718  0.00  0.00    +0.030 C 
ATOM     17  C   UNL     1       3.949   4.316  -4.729  0.00  0.00    +0.171 C 
ATOM     18  O   UNL     1       4.342   3.124  -4.510  0.00  0.00    -0.292 OA
ATOM     19  C   UNL     1       4.930   4.945  -5.826  0.00  0.00    +0.089 C 
ATOM     20  C   UNL     1       4.640   6.522  -5.506  0.00  0.00    +0.011 C 
ATOM     21  C   UNL     1       3.739   5.260  -7.029  0.00  0.00    +0.125 C 
ATOM     22  C   UNL     1       3.767   3.803  -7.803  0.00  0.00    +0.030 C 
ATOM     23  C   UNL     1       2.205   3.754  -7.857  0.00  0.00    +0.006 C 
ATOM     24  C   UNL     1       2.419   7.098  -2.743  0.00  0.00    +0.030 C 
ATOM     25  C   UNL     1       1.642   4.436  -6.794  0.00  0.00    +0.044 C 
ENDROOT
BRANCH   1  27
ATOM     26  C   UNL     1       0.267   6.155  -8.857  0.00  0.00    +0.004 C 
ATOM     27  C   UNL     1       0.849   6.247  -8.306  0.00  0.00    +0.044 C 
ENDBRANCH   1  27
BRANCH  21  28
ATOM     28  O   UNL     1       4.604   6.093  -7.872  0.00  0.00    -0.333 OA
BRANCH  28  29
ATOM     29  C   UNL     1       5.128   5.676  -9.202  0.00  0.00    +0.235 C 
ATOM     30  O   UNL     1       6.386   6.547  -9.406  0.00  0.00    -0.332 OA
ATOM     31  C   UNL     1       6.632   5.648 -10.615  0.00  0.00    +0.132 C 
ATOM     32  C   UNL     1       8.072   6.378 -10.909  0.00  0.00    +0.034 C 
ATOM     33  C   UNL     1       5.861   6.590 -11.838  0.00  0.00    +0.085 C 
ATOM     34  C   UNL     1       5.071   7.621 -10.865  0.00  0.00    +0.024 C 
ATOM     35  C   UNL     1       4.171   6.813 -10.001  0.00  0.00    +0.063 C 
BRANCH  33  36
ATOM     36  N   UNL     1       4.556   5.743 -11.940  0.00  0.00    -0.269 NA
ATOM     37  C   UNL     1       4.528   4.657 -12.663  0.00  0.00    +0.090 C 
ATOM     38  C   UNL     1       3.550   6.733 -12.284  0.00  0.00    +0.090 C 
ENDBRANCH  33  36
ENDBRANCH  28  29
ENDBRANCH  21  28
BRANCH  13  39
ATOM     39  O   UNL     1       3.297   7.040   0.531  0.00  0.00    -0.356 OA
BRANCH  39  40
ATOM     40  C   UNL     1       2.379   7.681   1.519  0.00  0.00    +0.145 C 
ATOM     41  C   UNL     1       3.784   8.184   2.389  0.00  0.00    +0.172 C 
ATOM     42  C   UNL     1       2.890   9.085   3.550  0.00  0.00    +0.172 C 
ATOM     43  C   UNL     1       2.736  10.502   2.586  0.00  0.00    +0.145 C 
ATOM     44  C   UNL     1       3.529   9.930   1.191  0.00  0.00    +0.032 C 
ATOM     45  C   UNL     1       3.074  11.255   0.373  0.00  0.00    +0.003 C 
ATOM     46  C   UNL     1       2.217   9.113   0.720  0.00  0.00    +0.035 C 
BRANCH  41  47
ATOM     47  O   UNL     1       3.750   6.942   3.228  0.00  0.00    -0.349 OA
ATOM     48  C   UNL     1       5.066   6.899   3.664  0.00  0.00    +0.174 C 
ENDBRANCH  41  47
BRANCH  43  49
ATOM     49  O   UNL     1       4.035  11.028   3.149  0.00  0.00    -0.351 OA
ATOM     50  C   UNL     1       3.764  12.210   3.750  0.00  0.00    +0.174 C 
ENDBRANCH  43  49
BRANCH  42  51
ATOM     51  O   UNL     1       1.559   8.584   3.130  0.00  0.00    -0.349 OA
ATOM     52  C   UNL     1       0.562   8.447   3.750  0.00  0.00    +0.174 C 
ENDBRANCH  42  51
ENDBRANCH  39  40
ENDBRANCH  13  39
TORSDOF 9
ENDMDL
MODEL 6
REMARK VINA RESULT:      -2.2      1.815      2.441
REMARK  Name = 
REMARK  9 active torsions:
REMARK  status: ('A' for Active; 'I' for Inactive)
REMARK    1  A    between atoms: C_2  and  C_3
REMARK    2  A    between atoms: C_7  and  O_8
REMARK    3  A    between atoms: O_8  and  C_9
REMARK    4  A    between atoms: C_12  and  N_13
REMARK    5  A    between atoms: C_31  and  O_32
REMARK    6  A    between atoms: O_32  and  C_33
REMARK    7  A    between atoms: C_37  and  O_38
REMARK    8  A    between atoms: C_40  and  O_41
REMARK    9  A    between atoms: C_43  and  O_44
REMARK                            x       y       z     vdW  Elec       q    Type
REMARK                         _______ _______ _______ _____ _____    ______ ____
ROOT
ATOM      1  C   UNL     1       4.769   8.332  -1.071  0.00  0.00    +0.169 C 
ATOM      2  O   UNL     1       3.903   8.617  -2.324  0.00  0.00    -0.452 OA
ATOM      3  C   UNL     1       4.526   8.393  -3.483  0.00  0.00    +0.317 C 
ATOM      4  O   UNL     1       4.861   9.162  -4.393  0.00  0.00    -0.250 OA
ATOM      5  C   UNL     1       4.377   6.964  -3.654  0.00  0.00    +0.114 C 
ATOM      6  C   UNL     1       2.839   6.737  -4.173  0.00  0.00    +0.040 C 
ATOM      7  C   UNL     1       3.050   5.169  -4.291  0.00  0.00    +0.009 C 
ATOM      8  C   UNL     1       4.041   4.992  -5.018  0.00  0.00    -0.028 C 
ATOM      9  C   UNL     1       3.503   5.651  -6.342  0.00  0.00    +0.027 C 
ATOM     10  C   UNL     1       1.880   5.172  -6.337  0.00  0.00    +0.011 C 
ATOM     11  C   UNL     1       1.902   6.782  -5.998  0.00  0.00    +0.025 C 
ATOM     12  C   UNL     1       3.042   7.174  -7.214  0.00  0.00    +0.034 C 
ATOM     13  C   UNL     1       2.274   6.635  -8.481  0.00  0.00    +0.116 C 
ATOM     14  C   UNL     1       0.860   7.425  -6.860  0.00  0.00    -0.031 C 
ATOM     15  C   UNL     1       1.914   7.801  -6.162  0.00  0.00    -0.030 C 
ATOM     16  C   UNL     1       1.440   5.398  -7.845  0.00  0.00    +0.030 C 
ATOM     17  C   UNL     1       2.985   4.784  -2.860  0.00  0.00    +0.171 C 
ATOM     18  O   UNL     1       3.331   3.581  -2.622  0.00  0.00    -0.292 OA
ATOM     19  C   UNL     1       1.576   5.024  -2.142  0.00  0.00    +0.089 C 
ATOM     20  C   UNL     1       1.088   6.307  -3.031  0.00  0.00    +0.011 C 
ATOM     21  C   UNL     1       2.076   6.296  -1.095  0.00  0.00    +0.125 C 
ATOM     22  C   UNL     1       2.598   5.387   0.178  0.00  0.00    +0.030 C 
ATOM     23  C   UNL     1       3.888   6.258   0.327  0.00  0.00    +0.006 C 
ATOM     24  C   UNL     1       3.330   7.219  -5.685  0.00  0.00    +0.030 C 
ATOM     25  C   UNL     1       4.276   6.795  -0.887  0.00  0.00    +0.044 C 
ENDROOT
BRANCH   1  27
ATOM     26  C   UNL     1       3.464   9.798  -0.484  0.00  0.00    +0.004 C 
ATOM     27  C   UNL     1       3.605   9.076  -0.153  0.00  0.00    +0.044 C 
ENDBRANCH   1  27
BRANCH  21  28
ATOM     28  O   UNL     1       0.722   6.684  -0.685  0.00  0.00    -0.333 OA
BRANCH  28  29
ATOM     29  C   UNL     1       0.307   6.901   0.728  0.00  0.00    +0.235 C 
ATOM     30  O   UNL     1      -1.204   6.586   0.734  0.00  0.00    -0.332 OA
ATOM     31  C   UNL     1      -1.071   6.692   2.251  0.00  0.00    +0.132 C 
ATOM     32  C   UNL     1      -2.636   6.241   2.455  0.00  0.00    +0.034 C 
ATOM     33  C   UNL     1      -1.482   8.355   2.462  0.00  0.00    +0.085 C 
ATOM     34  C   UNL     1      -1.388   8.811   0.908  0.00  0.00    +0.024 C 
ATOM     35  C   UNL     1      -0.001   8.536   0.449  0.00  0.00    +0.063 C 
BRANCH  33  36
ATOM     36  N   UNL     1      -0.032   8.888   2.670  0.00  0.00    -0.269 NA
ATOM     37  C   UNL     1       0.682   8.483   3.685  0.00  0.00    +0.090 C 
ATOM     38  C   UNL     1      -0.196  10.328   2.573  0.00  0.00    +0.090 C 
ENDBRANCH  33  36
ENDBRANCH  28  29
ENDBRANCH  21  28
BRANCH  13  39
ATOM     39  O   UNL     1       3.492   5.723  -8.723  0.00  0.00    -0.356 OA
BRANCH  39  40
ATOM     40  C   UNL     1       4.270   6.547  -9.695  0.00  0.00    +0.145 C 
ATOM     41  C   UNL     1       4.881   5.069 -10.347  0.00  0.00    +0.172 C 
ATOM     42  C   UNL     1       5.742   5.845 -11.619  0.00  0.00    +0.172 C 
ATOM     43  C   UNL     1       4.393   5.986 -12.678  0.00  0.00    +0.145 C 
ATOM     44  C   UNL     1       3.212   5.308 -11.654  0.00  0.00    +0.032 C 
ATOM     45  C   UNL     1       2.043   5.745 -12.691  0.00  0.00    +0.003 C 
ATOM     46  C   UNL     1       3.073   6.685 -10.821  0.00  0.00    +0.035 C 
BRANCH  41  47
ATOM     47  O   UNL     1       6.065   5.114  -9.429  0.00  0.00    -0.349 OA
ATOM     48  C   UNL     1       5.736   4.094  -8.547  0.00  0.00    +0.174 C 
ENDBRANCH  41  47
BRANCH  43  49
ATOM     49  O   UNL     1       4.710   4.631 -13.264  0.00  0.00    -0.351 OA
ATOM     50  C   UNL     1       3.945   4.482 -14.371  0.00  0.00    +0.174 C 
ENDBRANCH  43  49
BRANCH  42  51
ATOM     51  O   UNL     1       5.555   7.222 -11.102  0.00  0.00    -0.349 OA
ATOM     52  C   UNL     1       6.251   8.173 -11.187  0.00  0.00    +0.174 C 
ENDBRANCH  42  51
ENDBRANCH  39  40
ENDBRANCH  13  39
TORSDOF 9
ENDMDL
