MODEL 1
REMARK VINA RESULT:      -7.1      0.000      0.000
REMARK  Name = 
REMARK  11 active torsions:
REMARK  status: ('A' for Active; 'I' for Inactive)
REMARK    1  A    between atoms: C_2  and  C_3
REMARK    2  A    between atoms: C_3  and  C_4
REMARK    3  A    between atoms: C_4  and  C_5
REMARK    4  A    between atoms: C_5  and  C_8
REMARK    5  A    between atoms: C_17  and  C_18
REMARK    6  A    between atoms: C_18  and  C_19
REMARK    7  A    between atoms: C_19  and  C_20
REMARK    8  A    between atoms: C_20  and  C_21
REMARK    9  A    between atoms: C_21  and  C_22
REMARK   10  A    between atoms: C_22  and  C_23
REMARK   11  A    between atoms: C_23  and  C_24
REMARK                            x       y       z     vdW  Elec       q    Type
REMARK                         _______ _______ _______ _____ _____    ______ ____
ROOT
ATOM      1  C   UNL     1      -1.057   5.763  -2.588  0.00  0.00    +0.275 C 
ATOM      2  O   UNL     1      -0.898   6.115  -1.265  0.00  0.00    -0.330 OA
ATOM      3  C   UNL     1       0.502   5.637  -0.871  0.00  0.00    +0.126 C 
ATOM      4  C   UNL     1       0.638   6.793   0.314  0.00  0.00    +0.094 C 
ATOM      5  C   UNL     1       1.962   7.375   0.036  0.00  0.00    +0.153 C 
ATOM      6  C   UNL     1       2.628   6.474  -1.124  0.00  0.00    +0.060 C 
ATOM      7  O   UNL     1       2.101   8.565   0.141  0.00  0.00    -0.296 OA
ATOM      8  C   UNL     1       1.202   6.709  -2.021  0.00  0.00    +0.035 C 
ATOM      9  C   UNL     1       1.439   5.486  -3.034  0.00  0.00    +0.008 C 
ATOM     10  C   UNL     1       0.030   5.040  -3.254  0.00  0.00    +0.065 C 
ATOM     11  O   UNL     1      -2.133   4.851  -2.591  0.00  0.00    -0.189 OA
ENDROOT
BRANCH   1  12
ATOM     12  C   UNL     1      -1.577   6.995  -3.306  0.00  0.00    +0.312 C 
ATOM     13  F   UNL     1      -1.973   7.982  -2.404  0.00  0.00    -0.199 F 
ATOM     14  F   UNL     1      -0.683   7.523  -4.191  0.00  0.00    -0.199 F 
BRANCH  12  15
ATOM     15  C   UNL     1      -2.847   6.706  -4.094  0.00  0.00    +0.072 C 
BRANCH  15  16
ATOM     16  C   UNL     1      -2.622   6.772  -5.581  0.00  0.00    +0.006 C 
BRANCH  16  18
ATOM     17  C   UNL     1      -1.099   5.387  -6.936  0.00  0.00    +0.000 C 
ATOM     18  C   UNL     1      -2.414   5.440  -6.229  0.00  0.00    +0.000 C 
ENDBRANCH  16  18
ENDBRANCH  15  16
ENDBRANCH  12  15
ENDBRANCH   1  12
BRANCH   6  19
ATOM     19  C   UNL     1       3.398   7.706  -1.904  0.00  0.00    +0.007 C 
BRANCH  19  20
ATOM     20  C   UNL     1       4.786   7.231  -2.193  0.00  0.00    +0.000 C 
BRANCH  20  21
ATOM     21  C   UNL     1       4.944   6.461  -3.466  0.00  0.00    +0.000 C 
BRANCH  21  22
ATOM     22  C   UNL     1       4.519   7.378  -4.603  0.00  0.00    +0.001 C 
BRANCH  22  23
ATOM     23  C   UNL     1       3.888   6.638  -5.744  0.00  0.00    +0.012 C 
BRANCH  23  24
ATOM     24  C   UNL     1       2.483   7.032  -6.059  0.00  0.00    +0.114 C 
BRANCH  24  25
ATOM     25  C   UNL     1       2.201   7.272  -7.481  0.00  0.00    +0.365 C 
ATOM     26  O   UNL     1       2.058   6.231  -8.401  0.00  0.00    -0.246 OA
ATOM     27  O   UNL     1       2.136   8.465  -7.913  0.00  0.00    -0.246 OA
ENDBRANCH  24  25
ENDBRANCH  23  24
ENDBRANCH  22  23
ENDBRANCH  21  22
ENDBRANCH  20  21
ENDBRANCH  19  20
ENDBRANCH   6  19
TORSDOF 11
ENDMDL
MODEL 2
REMARK VINA RESULT:      -7.0      3.390      5.142
REMARK  Name = 
REMARK  11 active torsions:
REMARK  status: ('A' for Active; 'I' for Inactive)
REMARK    1  A    between atoms: C_2  and  C_3
REMARK    2  A    between atoms: C_3  and  C_4
REMARK    3  A    between atoms: C_4  and  C_5
REMARK    4  A    between atoms: C_5  and  C_8
REMARK    5  A    between atoms: C_17  and  C_18
REMARK    6  A    between atoms: C_18  and  C_19
REMARK    7  A    between atoms: C_19  and  C_20
REMARK    8  A    between atoms: C_20  and  C_21
REMARK    9  A    between atoms: C_21  and  C_22
REMARK   10  A    between atoms: C_22  and  C_23
REMARK   11  A    between atoms: C_23  and  C_24
REMARK                            x       y       z     vdW  Elec       q    Type
REMARK                         _______ _______ _______ _____ _____    ______ ____
ROOT
ATOM      1  C   UNL     1      -1.610   5.719  -5.145  0.00  0.00    +0.275 C 
ATOM      2  O   UNL     1      -0.454   5.455  -4.444  0.00  0.00    -0.330 OA
ATOM      3  C   UNL     1       0.529   4.873  -5.462  0.00  0.00    +0.126 C 
ATOM      4  C   UNL     1       1.845   5.392  -4.592  0.00  0.00    +0.094 C 
ATOM      5  C   UNL     1       2.663   6.057  -5.621  0.00  0.00    +0.153 C 
ATOM      6  C   UNL     1       1.946   5.768  -7.036  0.00  0.00    +0.060 C 
ATOM      7  O   UNL     1       3.225   7.081  -5.336  0.00  0.00    -0.296 OA
ATOM      8  C   UNL     1       0.507   6.352  -6.342  0.00  0.00    +0.035 C 
ATOM      9  C   UNL     1      -0.479   5.702  -7.431  0.00  0.00    +0.008 C 
ATOM     10  C   UNL     1      -1.656   5.378  -6.570  0.00  0.00    +0.065 C 
ATOM     11  O   UNL     1      -2.585   4.885  -4.559  0.00  0.00    -0.189 OA
ENDROOT
BRANCH   1  12
ATOM     12  C   UNL     1      -2.025   7.133  -4.783  0.00  0.00    +0.312 C 
ATOM     13  F   UNL     1      -0.920   7.928  -4.483  0.00  0.00    -0.199 F 
ATOM     14  F   UNL     1      -2.772   7.741  -5.749  0.00  0.00    -0.199 F 
BRANCH  12  15
ATOM     15  C   UNL     1      -2.852   7.179  -3.505  0.00  0.00    +0.072 C 
BRANCH  15  16
ATOM     16  C   UNL     1      -2.023   7.556  -2.306  0.00  0.00    +0.006 C 
BRANCH  16  18
ATOM     17  C   UNL     1      -0.873   5.778  -1.045  0.00  0.00    +0.000 C 
ATOM     18  C   UNL     1      -2.120   6.591  -1.166  0.00  0.00    +0.000 C 
ENDBRANCH  16  18
ENDBRANCH  15  16
ENDBRANCH  12  15
ENDBRANCH   1  12
BRANCH   6  19
ATOM     19  C   UNL     1       2.284   7.229  -7.723  0.00  0.00    +0.007 C 
BRANCH  19  20
ATOM     20  C   UNL     1       3.028   6.947  -8.989  0.00  0.00    +0.000 C 
BRANCH  20  21
ATOM     21  C   UNL     1       4.173   5.993  -8.856  0.00  0.00    +0.000 C 
BRANCH  21  22
ATOM     22  C   UNL     1       5.048   6.165 -10.090  0.00  0.00    +0.001 C 
BRANCH  22  23
ATOM     23  C   UNL     1       6.495   5.877  -9.823  0.00  0.00    +0.012 C 
BRANCH  23  24
ATOM     24  C   UNL     1       7.459   6.553 -10.741  0.00  0.00    +0.114 C 
BRANCH  24  25
ATOM     25  C   UNL     1       8.068   5.690 -11.761  0.00  0.00    +0.365 C 
ATOM     26  O   UNL     1       7.365   4.654 -12.381  0.00  0.00    -0.246 OA
ATOM     27  O   UNL     1       9.293   5.844 -12.061  0.00  0.00    -0.246 OA
ENDBRANCH  24  25
ENDBRANCH  23  24
ENDBRANCH  22  23
ENDBRANCH  21  22
ENDBRANCH  20  21
ENDBRANCH  19  20
ENDBRANCH   6  19
TORSDOF 11
ENDMDL
MODEL 3
REMARK VINA RESULT:      -6.9      2.258      7.062
REMARK  Name = 
REMARK  11 active torsions:
REMARK  status: ('A' for Active; 'I' for Inactive)
REMARK    1  A    between atoms: C_2  and  C_3
REMARK    2  A    between atoms: C_3  and  C_4
REMARK    3  A    between atoms: C_4  and  C_5
REMARK    4  A    between atoms: C_5  and  C_8
REMARK    5  A    between atoms: C_17  and  C_18
REMARK    6  A    between atoms: C_18  and  C_19
REMARK    7  A    between atoms: C_19  and  C_20
REMARK    8  A    between atoms: C_20  and  C_21
REMARK    9  A    between atoms: C_21  and  C_22
REMARK   10  A    between atoms: C_22  and  C_23
REMARK   11  A    between atoms: C_23  and  C_24
REMARK                            x       y       z     vdW  Elec       q    Type
REMARK                         _______ _______ _______ _____ _____    ______ ____
ROOT
ATOM      1  C   UNL     1       4.189   5.746  -4.710  0.00  0.00    +0.275 C 
ATOM      2  O   UNL     1       4.477   6.017  -6.030  0.00  0.00    -0.330 OA
ATOM      3  C   UNL     1       3.537   5.133  -6.853  0.00  0.00    +0.126 C 
ATOM      4  C   UNL     1       3.571   6.179  -8.143  0.00  0.00    +0.094 C 
ATOM      5  C   UNL     1       2.141   6.336  -8.459  0.00  0.00    +0.153 C 
ATOM      6  C   UNL     1       1.344   5.290  -7.525  0.00  0.00    +0.060 C 
ATOM      7  O   UNL     1       1.735   7.427  -8.763  0.00  0.00    -0.296 OA
ATOM      8  C   UNL     1       2.175   5.956  -6.199  0.00  0.00    +0.035 C 
ATOM      9  C   UNL     1       1.900   4.731  -5.198  0.00  0.00    +0.008 C 
ATOM     10  C   UNL     1       3.170   4.735  -4.411  0.00  0.00    +0.065 C 
ATOM     11  O   UNL     1       5.380   5.202  -4.186  0.00  0.00    -0.189 OA
ENDROOT
BRANCH   1  12
ATOM     12  C   UNL     1       4.023   7.086  -4.017  0.00  0.00    +0.312 C 
ATOM     13  F   UNL     1       4.315   8.144  -4.876  0.00  0.00    -0.199 F 
ATOM     14  F   UNL     1       2.782   7.267  -3.480  0.00  0.00    -0.199 F 
BRANCH  12  15
ATOM     15  C   UNL     1       5.018   7.270  -2.879  0.00  0.00    +0.072 C 
BRANCH  15  16
ATOM     16  C   UNL     1       4.340   7.629  -1.584  0.00  0.00    +0.006 C 
BRANCH  16  18
ATOM     17  C   UNL     1       4.881   7.216   0.785  0.00  0.00    +0.000 C 
ATOM     18  C   UNL     1       4.478   6.594  -0.512  0.00  0.00    +0.000 C 
ENDBRANCH  16  18
ENDBRANCH  15  16
ENDBRANCH  12  15
ENDBRANCH   1  12
BRANCH   6  19
ATOM     19  C   UNL     1       0.023   6.240  -7.258  0.00  0.00    +0.007 C 
BRANCH  19  20
ATOM     20  C   UNL     1      -1.164   5.330  -7.239  0.00  0.00    +0.000 C 
BRANCH  20  21
ATOM     21  C   UNL     1      -2.133   5.571  -6.125  0.00  0.00    +0.000 C 
BRANCH  21  22
ATOM     22  C   UNL     1      -1.439   6.466  -5.109  0.00  0.00    +0.001 C 
BRANCH  22  23
ATOM     23  C   UNL     1      -2.402   7.241  -4.262  0.00  0.00    +0.012 C 
BRANCH  23  24
ATOM     24  C   UNL     1      -2.329   6.962  -2.797  0.00  0.00    +0.114 C 
BRANCH  24  25
ATOM     25  C   UNL     1      -2.105   5.556  -2.435  0.00  0.00    +0.365 C 
ATOM     26  O   UNL     1      -0.933   5.122  -1.809  0.00  0.00    -0.246 OA
ATOM     27  O   UNL     1      -2.975   4.684  -2.744  0.00  0.00    -0.246 OA
ENDBRANCH  24  25
ENDBRANCH  23  24
ENDBRANCH  22  23
ENDBRANCH  21  22
ENDBRANCH  20  21
ENDBRANCH  19  20
ENDBRANCH   6  19
TORSDOF 11
ENDMDL
MODEL 4
REMARK VINA RESULT:      -6.7      2.678      3.693
REMARK  Name = 
REMARK  11 active torsions:
REMARK  status: ('A' for Active; 'I' for Inactive)
REMARK    1  A    between atoms: C_2  and  C_3
REMARK    2  A    between atoms: C_3  and  C_4
REMARK    3  A    between atoms: C_4  and  C_5
REMARK    4  A    between atoms: C_5  and  C_8
REMARK    5  A    between atoms: C_17  and  C_18
REMARK    6  A    between atoms: C_18  and  C_19
REMARK    7  A    between atoms: C_19  and  C_20
REMARK    8  A    between atoms: C_20  and  C_21
REMARK    9  A    between atoms: C_21  and  C_22
REMARK   10  A    between atoms: C_22  and  C_23
REMARK   11  A    between atoms: C_23  and  C_24
REMARK                            x       y       z     vdW  Elec       q    Type
REMARK                         _______ _______ _______ _____ _____    ______ ____
ROOT
ATOM      1  C   UNL     1      -1.729   5.993  -1.797  0.00  0.00    +0.275 C 
ATOM      2  O   UNL     1      -2.436   6.642  -0.809  0.00  0.00    -0.330 OA
ATOM      3  C   UNL     1      -1.569   6.559   0.450  0.00  0.00    +0.126 C 
ATOM      4  C   UNL     1      -2.236   7.942   1.084  0.00  0.00    +0.094 C 
ATOM      5  C   UNL     1      -1.046   8.714   1.479  0.00  0.00    +0.153 C 
ATOM      6  C   UNL     1       0.226   7.746   1.258  0.00  0.00    +0.060 C 
ATOM      7  O   UNL     1      -1.041   9.902   1.289  0.00  0.00    -0.296 OA
ATOM      8  C   UNL     1      -0.342   7.485  -0.324  0.00  0.00    +0.035 C 
ATOM      9  C   UNL     1       0.513   6.151  -0.589  0.00  0.00    +0.008 C 
ATOM     10  C   UNL     1      -0.440   5.387  -1.449  0.00  0.00    +0.065 C 
ATOM     11  O   UNL     1      -2.539   4.898  -2.161  0.00  0.00    -0.189 OA
ENDROOT
BRANCH   1  12
ATOM     12  C   UNL     1      -1.730   6.910  -3.006  0.00  0.00    +0.312 C 
ATOM     13  F   UNL     1      -2.053   8.220  -2.653  0.00  0.00    -0.199 F 
ATOM     14  F   UNL     1      -0.550   6.903  -3.692  0.00  0.00    -0.199 F 
BRANCH  12  15
ATOM     15  C   UNL     1      -2.815   6.537  -4.008  0.00  0.00    +0.072 C 
BRANCH  15  16
ATOM     16  C   UNL     1      -2.415   6.854  -5.424  0.00  0.00    +0.006 C 
BRANCH  16  18
ATOM     17  C   UNL     1      -1.029   5.276  -6.713  0.00  0.00    +0.000 C 
ATOM     18  C   UNL     1      -2.420   5.673  -6.342  0.00  0.00    +0.000 C 
ENDBRANCH  16  18
ENDBRANCH  15  16
ENDBRANCH  12  15
ENDBRANCH   1  12
BRANCH   6  19
ATOM     19  C   UNL     1       1.273   8.918   0.758  0.00  0.00    +0.007 C 
BRANCH  19  20
ATOM     20  C   UNL     1       2.492   8.799   1.616  0.00  0.00    +0.000 C 
BRANCH  20  21
ATOM     21  C   UNL     1       3.768   8.542   0.878  0.00  0.00    +0.000 C 
BRANCH  21  22
ATOM     22  C   UNL     1       3.460   8.657  -0.608  0.00  0.00    +0.001 C 
BRANCH  22  23
ATOM     23  C   UNL     1       4.066   7.549  -1.416  0.00  0.00    +0.012 C 
BRANCH  23  24
ATOM     24  C   UNL     1       4.362   6.297  -0.658  0.00  0.00    +0.114 C 
BRANCH  24  25
ATOM     25  C   UNL     1       3.969   5.049  -1.327  0.00  0.00    +0.365 C 
ATOM     26  O   UNL     1       3.422   3.968  -0.632  0.00  0.00    -0.246 OA
ATOM     27  O   UNL     1       4.179   4.915  -2.573  0.00  0.00    -0.246 OA
ENDBRANCH  24  25
ENDBRANCH  23  24
ENDBRANCH  22  23
ENDBRANCH  21  22
ENDBRANCH  20  21
ENDBRANCH  19  20
ENDBRANCH   6  19
TORSDOF 11
ENDMDL
MODEL 5
REMARK VINA RESULT:      -6.6      2.439      6.303
REMARK  Name = 
REMARK  11 active torsions:
REMARK  status: ('A' for Active; 'I' for Inactive)
REMARK    1  A    between atoms: C_2  and  C_3
REMARK    2  A    between atoms: C_3  and  C_4
REMARK    3  A    between atoms: C_4  and  C_5
REMARK    4  A    between atoms: C_5  and  C_8
REMARK    5  A    between atoms: C_17  and  C_18
REMARK    6  A    between atoms: C_18  and  C_19
REMARK    7  A    between atoms: C_19  and  C_20
REMARK    8  A    between atoms: C_20  and  C_21
REMARK    9  A    between atoms: C_21  and  C_22
REMARK   10  A    between atoms: C_22  and  C_23
REMARK   11  A    between atoms: C_23  and  C_24
REMARK                            x       y       z     vdW  Elec       q    Type
REMARK                         _______ _______ _______ _____ _____    ______ ____
ROOT
ATOM      1  C   UNL     1       3.604   6.108  -1.275  0.00  0.00    +0.275 C 
ATOM      2  O   UNL     1       4.476   6.063  -2.340  0.00  0.00    -0.330 OA
ATOM      3  C   UNL     1       3.796   5.196  -3.402  0.00  0.00    +0.126 C 
ATOM      4  C   UNL     1       4.611   5.947  -4.638  0.00  0.00    +0.094 C 
ATOM      5  C   UNL     1       3.528   6.265  -5.584  0.00  0.00    +0.153 C 
ATOM      6  C   UNL     1       2.193   5.565  -5.009  0.00  0.00    +0.060 C 
ATOM      7  O   UNL     1       3.552   7.325  -6.152  0.00  0.00    -0.296 OA
ATOM      8  C   UNL     1       2.515   6.338  -3.529  0.00  0.00    +0.035 C 
ATOM      9  C   UNL     1       1.569   5.394  -2.638  0.00  0.00    +0.008 C 
ATOM     10  C   UNL     1       2.351   5.352  -1.366  0.00  0.00    +0.065 C 
ATOM     11  O   UNL     1       4.301   5.495  -0.212  0.00  0.00    -0.189 OA
ENDROOT
BRANCH   1  12
ATOM     12  C   UNL     1       3.475   7.567  -0.879  0.00  0.00    +0.312 C 
ATOM     13  F   UNL     1       4.471   7.941   0.023  0.00  0.00    -0.199 F 
ATOM     14  F   UNL     1       3.484   8.420  -1.944  0.00  0.00    -0.199 F 
BRANCH  12  15
ATOM     15  C   UNL     1       2.186   7.842  -0.115  0.00  0.00    +0.072 C 
BRANCH  15  16
ATOM     16  C   UNL     1       2.405   8.758   1.059  0.00  0.00    +0.006 C 
BRANCH  16  18
ATOM     17  C   UNL     1       2.945  10.999   0.187  0.00  0.00    +0.000 C 
ATOM     18  C   UNL     1       1.907  10.153   0.850  0.00  0.00    +0.000 C 
ENDBRANCH  16  18
ENDBRANCH  15  16
ENDBRANCH  12  15
ENDBRANCH   1  12
BRANCH   6  19
ATOM     19  C   UNL     1       1.142   6.747  -5.472  0.00  0.00    +0.007 C 
BRANCH  19  20
ATOM     20  C   UNL     1       0.049   6.074  -6.240  0.00  0.00    +0.000 C 
BRANCH  20  21
ATOM     21  C   UNL     1      -1.331   6.286  -5.704  0.00  0.00    +0.000 C 
BRANCH  21  22
ATOM     22  C   UNL     1      -1.246   7.397  -4.667  0.00  0.00    +0.001 C 
BRANCH  22  23
ATOM     23  C   UNL     1      -2.444   7.447  -3.768  0.00  0.00    +0.012 C 
BRANCH  23  24
ATOM     24  C   UNL     1      -2.183   7.104  -2.339  0.00  0.00    +0.114 C 
BRANCH  24  25
ATOM     25  C   UNL     1      -2.156   5.668  -2.031  0.00  0.00    +0.365 C 
ATOM     26  O   UNL     1      -2.866   4.728  -2.782  0.00  0.00    -0.246 OA
ATOM     27  O   UNL     1      -1.511   5.258  -1.015  0.00  0.00    -0.246 OA
ENDBRANCH  24  25
ENDBRANCH  23  24
ENDBRANCH  22  23
ENDBRANCH  21  22
ENDBRANCH  20  21
ENDBRANCH  19  20
ENDBRANCH   6  19
TORSDOF 11
ENDMDL
MODEL 6
REMARK VINA RESULT:      -6.5      3.218      5.511
REMARK  Name = 
REMARK  11 active torsions:
REMARK  status: ('A' for Active; 'I' for Inactive)
REMARK    1  A    between atoms: C_2  and  C_3
REMARK    2  A    between atoms: C_3  and  C_4
REMARK    3  A    between atoms: C_4  and  C_5
REMARK    4  A    between atoms: C_5  and  C_8
REMARK    5  A    between atoms: C_17  and  C_18
REMARK    6  A    between atoms: C_18  and  C_19
REMARK    7  A    between atoms: C_19  and  C_20
REMARK    8  A    between atoms: C_20  and  C_21
REMARK    9  A    between atoms: C_21  and  C_22
REMARK   10  A    between atoms: C_22  and  C_23
REMARK   11  A    between atoms: C_23  and  C_24
REMARK                            x       y       z     vdW  Elec       q    Type
REMARK                         _______ _______ _______ _____ _____    ______ ____
ROOT
ATOM      1  C   UNL     1      -1.732   5.753  -4.932  0.00  0.00    +0.275 C 
ATOM      2  O   UNL     1      -0.476   5.642  -4.376  0.00  0.00    -0.330 OA
ATOM      3  C   UNL     1       0.393   4.964  -5.439  0.00  0.00    +0.126 C 
ATOM      4  C   UNL     1       1.780   5.657  -4.845  0.00  0.00    +0.094 C 
ATOM      5  C   UNL     1       2.406   6.204  -6.062  0.00  0.00    +0.153 C 
ATOM      6  C   UNL     1       1.521   5.686  -7.307  0.00  0.00    +0.060 C 
ATOM      7  O   UNL     1       2.936   7.282  -6.003  0.00  0.00    -0.296 OA
ATOM      8  C   UNL     1       0.157   6.300  -6.497  0.00  0.00    +0.035 C 
ATOM      9  C   UNL     1      -0.926   5.460  -7.335  0.00  0.00    +0.008 C 
ATOM     10  C   UNL     1      -1.951   5.211  -6.277  0.00  0.00    +0.065 C 
ATOM     11  O   UNL     1      -2.563   4.969  -4.104  0.00  0.00    -0.189 OA
ENDROOT
BRANCH   1  12
ATOM     12  C   UNL     1      -2.181   7.185  -4.708  0.00  0.00    +0.312 C 
ATOM     13  F   UNL     1      -1.094   8.052  -4.613  0.00  0.00    -0.199 F 
ATOM     14  F   UNL     1      -3.040   7.638  -5.666  0.00  0.00    -0.199 F 
BRANCH  12  15
ATOM     15  C   UNL     1      -2.891   7.361  -3.372  0.00  0.00    +0.072 C 
BRANCH  15  16
ATOM     16  C   UNL     1      -1.958   7.835  -2.290  0.00  0.00    +0.006 C 
BRANCH  16  18
ATOM     17  C   UNL     1      -1.754   8.000   0.160  0.00  0.00    +0.000 C 
ATOM     18  C   UNL     1      -2.113   7.115  -0.988  0.00  0.00    +0.000 C 
ENDBRANCH  16  18
ENDBRANCH  15  16
ENDBRANCH  12  15
ENDBRANCH   1  12
BRANCH   6  19
ATOM     19  C   UNL     1       1.669   7.047  -8.226  0.00  0.00    +0.007 C 
BRANCH  19  20
ATOM     20  C   UNL     1       1.787   6.596  -9.647  0.00  0.00    +0.000 C 
BRANCH  20  21
ATOM     21  C   UNL     1       1.845   5.114  -9.843  0.00  0.00    +0.000 C 
BRANCH  21  22
ATOM     22  C   UNL     1       0.598   4.712 -10.618  0.00  0.00    +0.001 C 
BRANCH  22  23
ATOM     23  C   UNL     1       0.270   5.665 -11.727  0.00  0.00    +0.012 C 
BRANCH  23  24
ATOM     24  C   UNL     1       0.835   5.306 -13.062  0.00  0.00    +0.114 C 
BRANCH  24  25
ATOM     25  C   UNL     1       0.818   6.382 -14.062  0.00  0.00    +0.365 C 
ATOM     26  O   UNL     1       0.882   6.128 -15.435  0.00  0.00    -0.246 OA
ATOM     27  O   UNL     1       0.798   7.593 -13.678  0.00  0.00    -0.246 OA
ENDBRANCH  24  25
ENDBRANCH  23  24
ENDBRANCH  22  23
ENDBRANCH  21  22
ENDBRANCH  20  21
ENDBRANCH  19  20
ENDBRANCH   6  19
TORSDOF 11
ENDMDL
MODEL 7
REMARK VINA RESULT:      -6.4      2.198      6.167
REMARK  Name = 
REMARK  11 active torsions:
REMARK  status: ('A' for Active; 'I' for Inactive)
REMARK    1  A    between atoms: C_2  and  C_3
REMARK    2  A    between atoms: C_3  and  C_4
REMARK    3  A    between atoms: C_4  and  C_5
REMARK    4  A    between atoms: C_5  and  C_8
REMARK    5  A    between atoms: C_17  and  C_18
REMARK    6  A    between atoms: C_18  and  C_19
REMARK    7  A    between atoms: C_19  and  C_20
REMARK    8  A    between atoms: C_20  and  C_21
REMARK    9  A    between atoms: C_21  and  C_22
REMARK   10  A    between atoms: C_22  and  C_23
REMARK   11  A    between atoms: C_23  and  C_24
REMARK                            x       y       z     vdW  Elec       q    Type
REMARK                         _______ _______ _______ _____ _____    ______ ____
ROOT
ATOM      1  C   UNL     1       1.446   5.373  -6.559  0.00  0.00    +0.275 C 
ATOM      2  O   UNL     1       0.206   5.563  -7.128  0.00  0.00    -0.330 OA
ATOM      3  C   UNL     1      -0.805   5.000  -6.126  0.00  0.00    +0.126 C 
ATOM      4  C   UNL     1      -2.009   6.006  -6.672  0.00  0.00    +0.094 C 
ATOM      5  C   UNL     1      -2.535   6.576  -5.420  0.00  0.00    +0.153 C 
ATOM      6  C   UNL     1      -1.801   5.797  -4.214  0.00  0.00    +0.060 C 
ATOM      7  O   UNL     1      -2.834   7.741  -5.399  0.00  0.00    -0.296 OA
ATOM      8  C   UNL     1      -0.324   6.178  -4.967  0.00  0.00    +0.035 C 
ATOM      9  C   UNL     1       0.547   5.074  -4.191  0.00  0.00    +0.008 C 
ATOM     10  C   UNL     1       1.522   4.699  -5.259  0.00  0.00    +0.065 C 
ATOM     11  O   UNL     1       2.118   4.500  -7.441  0.00  0.00    -0.189 OA
ENDROOT
BRANCH   1  12
ATOM     12  C   UNL     1       2.183   6.695  -6.669  0.00  0.00    +0.312 C 
ATOM     13  F   UNL     1       3.212   6.629  -7.607  0.00  0.00    -0.199 F 
ATOM     14  F   UNL     1       1.366   7.747  -6.967  0.00  0.00    -0.199 F 
BRANCH  12  15
ATOM     15  C   UNL     1       2.904   7.059  -5.378  0.00  0.00    +0.072 C 
BRANCH  15  16
ATOM     16  C   UNL     1       4.390   6.844  -5.476  0.00  0.00    +0.006 C 
BRANCH  16  18
ATOM     17  C   UNL     1       4.901   5.029  -3.889  0.00  0.00    +0.000 C 
ATOM     18  C   UNL     1       5.045   6.487  -4.179  0.00  0.00    +0.000 C 
ENDBRANCH  16  18
ENDBRANCH  15  16
ENDBRANCH  12  15
ENDBRANCH   1  12
BRANCH   6  19
ATOM     19  C   UNL     1      -1.688   7.088  -3.194  0.00  0.00    +0.007 C 
BRANCH  19  20
ATOM     20  C   UNL     1      -2.343   6.681  -1.912  0.00  0.00    +0.000 C 
BRANCH  20  21
ATOM     21  C   UNL     1      -1.533   6.923  -0.678  0.00  0.00    +0.000 C 
BRANCH  21  22
ATOM     22  C   UNL     1      -0.324   6.001  -0.744  0.00  0.00    +0.001 C 
BRANCH  22  23
ATOM     23  C   UNL     1       0.948   6.677  -0.331  0.00  0.00    +0.012 C 
BRANCH  23  24
ATOM     24  C   UNL     1       2.034   6.670  -1.355  0.00  0.00    +0.114 C 
BRANCH  24  25
ATOM     25  C   UNL     1       3.402   6.660  -0.821  0.00  0.00    +0.365 C 
ATOM     26  O   UNL     1       3.973   5.521  -0.247  0.00  0.00    -0.246 OA
ATOM     27  O   UNL     1       4.084   7.732  -0.826  0.00  0.00    -0.246 OA
ENDBRANCH  24  25
ENDBRANCH  23  24
ENDBRANCH  22  23
ENDBRANCH  21  22
ENDBRANCH  20  21
ENDBRANCH  19  20
ENDBRANCH   6  19
TORSDOF 11
ENDMDL
MODEL 8
REMARK VINA RESULT:      -6.3      2.480      6.161
REMARK  Name = 
REMARK  11 active torsions:
REMARK  status: ('A' for Active; 'I' for Inactive)
REMARK    1  A    between atoms: C_2  and  C_3
REMARK    2  A    between atoms: C_3  and  C_4
REMARK    3  A    between atoms: C_4  and  C_5
REMARK    4  A    between atoms: C_5  and  C_8
REMARK    5  A    between atoms: C_17  and  C_18
REMARK    6  A    between atoms: C_18  and  C_19
REMARK    7  A    between atoms: C_19  and  C_20
REMARK    8  A    between atoms: C_20  and  C_21
REMARK    9  A    between atoms: C_21  and  C_22
REMARK   10  A    between atoms: C_22  and  C_23
REMARK   11  A    between atoms: C_23  and  C_24
REMARK                            x       y       z     vdW  Elec       q    Type
REMARK                         _______ _______ _______ _____ _____    ______ ____
ROOT
ATOM      1  C   UNL     1       1.606   5.312  -6.559  0.00  0.00    +0.275 C 
ATOM      2  O   UNL     1       0.344   5.381  -7.107  0.00  0.00    -0.330 OA
ATOM      3  C   UNL     1      -0.610   4.863  -6.028  0.00  0.00    +0.126 C 
ATOM      4  C   UNL     1      -1.881   5.745  -6.631  0.00  0.00    +0.094 C 
ATOM      5  C   UNL     1      -2.409   6.403  -5.423  0.00  0.00    +0.153 C 
ATOM      6  C   UNL     1      -1.604   5.783  -4.171  0.00  0.00    +0.060 C 
ATOM      7  O   UNL     1      -2.772   7.547  -5.503  0.00  0.00    -0.296 OA
ATOM      8  C   UNL     1      -0.169   6.169  -4.998  0.00  0.00    +0.035 C 
ATOM      9  C   UNL     1       0.781   5.192  -4.147  0.00  0.00    +0.008 C 
ATOM     10  C   UNL     1       1.750   4.771  -5.204  0.00  0.00    +0.065 C 
ATOM     11  O   UNL     1       2.304   4.397  -7.373  0.00  0.00    -0.189 OA
ENDROOT
BRANCH   1  12
ATOM     12  C   UNL     1       2.264   6.656  -6.813  0.00  0.00    +0.312 C 
ATOM     13  F   UNL     1       1.417   7.515  -7.512  0.00  0.00    -0.199 F 
ATOM     14  F   UNL     1       2.695   7.272  -5.675  0.00  0.00    -0.199 F 
BRANCH  12  15
ATOM     15  C   UNL     1       3.478   6.536  -7.726  0.00  0.00    +0.072 C 
BRANCH  15  16
ATOM     16  C   UNL     1       3.201   7.053  -9.112  0.00  0.00    +0.006 C 
BRANCH  16  18
ATOM     17  C   UNL     1       4.192   5.338 -10.578  0.00  0.00    +0.000 C 
ATOM     18  C   UNL     1       4.278   6.753 -10.105  0.00  0.00    +0.000 C 
ENDBRANCH  16  18
ENDBRANCH  15  16
ENDBRANCH  12  15
ENDBRANCH   1  12
BRANCH   6  19
ATOM     19  C   UNL     1      -1.540   7.169  -3.280  0.00  0.00    +0.007 C 
BRANCH  19  20
ATOM     20  C   UNL     1      -2.302   6.906  -2.020  0.00  0.00    +0.000 C 
BRANCH  20  21
ATOM     21  C   UNL     1      -1.690   5.894  -1.104  0.00  0.00    +0.000 C 
BRANCH  21  22
ATOM     22  C   UNL     1      -0.445   6.528  -0.499  0.00  0.00    +0.001 C 
BRANCH  22  23
ATOM     23  C   UNL     1       0.790   5.708  -0.718  0.00  0.00    +0.012 C 
BRANCH  23  24
ATOM     24  C   UNL     1       2.057   6.489  -0.846  0.00  0.00    +0.114 C 
BRANCH  24  25
ATOM     25  C   UNL     1       3.291   5.692  -0.827  0.00  0.00    +0.365 C 
ATOM     26  O   UNL     1       3.481   4.587  -1.661  0.00  0.00    -0.246 OA
ATOM     27  O   UNL     1       4.205   5.974   0.010  0.00  0.00    -0.246 OA
ENDBRANCH  24  25
ENDBRANCH  23  24
ENDBRANCH  22  23
ENDBRANCH  21  22
ENDBRANCH  20  21
ENDBRANCH  19  20
ENDBRANCH   6  19
TORSDOF 11
ENDMDL
MODEL 9
REMARK VINA RESULT:      -6.3      1.577      3.107
REMARK  Name = 
REMARK  11 active torsions:
REMARK  status: ('A' for Active; 'I' for Inactive)
REMARK    1  A    between atoms: C_2  and  C_3
REMARK    2  A    between atoms: C_3  and  C_4
REMARK    3  A    between atoms: C_4  and  C_5
REMARK    4  A    between atoms: C_5  and  C_8
REMARK    5  A    between atoms: C_17  and  C_18
REMARK    6  A    between atoms: C_18  and  C_19
REMARK    7  A    between atoms: C_19  and  C_20
REMARK    8  A    between atoms: C_20  and  C_21
REMARK    9  A    between atoms: C_21  and  C_22
REMARK   10  A    between atoms: C_22  and  C_23
REMARK   11  A    between atoms: C_23  and  C_24
REMARK                            x       y       z     vdW  Elec       q    Type
REMARK                         _______ _______ _______ _____ _____    ______ ____
ROOT
ATOM      1  C   UNL     1      -1.612   5.652  -2.598  0.00  0.00    +0.275 C 
ATOM      2  O   UNL     1      -0.785   5.191  -1.597  0.00  0.00    -0.330 OA
ATOM      3  C   UNL     1       0.507   4.752  -2.291  0.00  0.00    +0.126 C 
ATOM      4  C   UNL     1       1.413   5.017  -0.924  0.00  0.00    +0.094 C 
ATOM      5  C   UNL     1       2.540   5.812  -1.441  0.00  0.00    +0.153 C 
ATOM      6  C   UNL     1       2.387   5.838  -3.046  0.00  0.00    +0.060 C 
ATOM      7  O   UNL     1       2.949   6.729  -0.778  0.00  0.00    -0.296 OA
ATOM      8  C   UNL     1       0.788   6.368  -2.810  0.00  0.00    +0.035 C 
ATOM      9  C   UNL     1       0.271   5.996  -4.285  0.00  0.00    +0.008 C 
ATOM     10  C   UNL     1      -1.134   5.588  -3.983  0.00  0.00    +0.065 C 
ATOM     11  O   UNL     1      -2.723   4.784  -2.575  0.00  0.00    -0.189 OA
ENDROOT
BRANCH   1  12
ATOM     12  C   UNL     1      -2.145   6.996  -2.137  0.00  0.00    +0.312 C 
ATOM     13  F   UNL     1      -1.923   7.987  -3.091  0.00  0.00    -0.199 F 
ATOM     14  F   UNL     1      -3.470   6.969  -1.811  0.00  0.00    -0.199 F 
BRANCH  12  15
ATOM     15  C   UNL     1      -1.409   7.515  -0.909  0.00  0.00    +0.072 C 
BRANCH  15  16
ATOM     16  C   UNL     1      -2.265   7.474   0.328  0.00  0.00    +0.006 C 
BRANCH  16  18
ATOM     17  C   UNL     1      -0.353   8.707   1.275  0.00  0.00    +0.000 C 
ATOM     18  C   UNL     1      -1.551   7.869   1.582  0.00  0.00    +0.000 C 
ENDBRANCH  16  18
ENDBRANCH  15  16
ENDBRANCH  12  15
ENDBRANCH   1  12
BRANCH   6  19
ATOM     19  C   UNL     1       2.934   7.379  -3.265  0.00  0.00    +0.007 C 
BRANCH  19  20
ATOM     20  C   UNL     1       4.045   7.303  -4.263  0.00  0.00    +0.000 C 
BRANCH  20  21
ATOM     21  C   UNL     1       4.688   5.960  -4.400  0.00  0.00    +0.000 C 
BRANCH  21  22
ATOM     22  C   UNL     1       4.265   5.392  -5.747  0.00  0.00    +0.001 C 
BRANCH  22  23
ATOM     23  C   UNL     1       3.770   6.444  -6.693  0.00  0.00    +0.012 C 
BRANCH  23  24
ATOM     24  C   UNL     1       2.452   6.154  -7.334  0.00  0.00    +0.114 C 
BRANCH  24  25
ATOM     25  C   UNL     1       1.942   7.205  -8.224  0.00  0.00    +0.365 C 
ATOM     26  O   UNL     1       1.328   6.918  -9.446  0.00  0.00    -0.246 OA
ATOM     27  O   UNL     1       2.105   8.426  -7.910  0.00  0.00    -0.246 OA
ENDBRANCH  24  25
ENDBRANCH  23  24
ENDBRANCH  22  23
ENDBRANCH  21  22
ENDBRANCH  20  21
ENDBRANCH  19  20
ENDBRANCH   6  19
TORSDOF 11
ENDMDL
