MODEL 1
REMARK VINA RESULT:      -8.0      0.000      0.000
REMARK  Name = 
REMARK  7 active torsions:
REMARK  status: ('A' for Active; 'I' for Inactive)
REMARK    1  A    between atoms: O_2  and  C_3
REMARK    2  A    between atoms: C_6  and  C_7
REMARK    3  A    between atoms: N_15  and  C_16
REMARK    4  A    between atoms: C_16  and  C_17
REMARK    5  A    between atoms: C_17  and  N_18
REMARK    6  A    between atoms: C_23  and  O_24
REMARK    7  A    between atoms: O_24  and  C_25
REMARK                            x       y       z     vdW  Elec       q    Type
REMARK                         _______ _______ _______ _____ _____    ______ ____
ROOT
ATOM      1  C   UNL     1       0.779   4.569  -8.730  0.00  0.00    +0.123 C 
ATOM      2  C   UNL     1       0.909   6.245  -8.875  0.00  0.00    +0.259 C 
ATOM      3  C   UNL     1       1.341   6.138 -10.424  0.00  0.00    +0.271 C 
ATOM      4  O   UNL     1       0.558   6.861 -11.112  0.00  0.00    -0.271 OA
ATOM      5  N   UNL     1       2.547   5.756 -10.996  0.00  0.00    -0.254 N 
ATOM      6  C   UNL     1       3.711   5.263 -10.324  0.00  0.00    +0.060 A 
ATOM      7  C   UNL     1       3.741   4.453  -9.194  0.00  0.00    +0.039 A 
ATOM      8  C   UNL     1       4.943   4.404  -8.499  0.00  0.00    +0.007 A 
ATOM      9  C   UNL     1       5.993   5.270  -8.765  0.00  0.00    +0.001 A 
ATOM     10  C   UNL     1       5.991   6.000  -9.920  0.00  0.00    +0.001 A 
ATOM     11  C   UNL     1       4.899   5.834 -10.766  0.00  0.00    +0.015 A 
ATOM     12  S   UNL     1       2.444   4.031  -8.039  0.00  0.00    -0.105 S 
ENDROOT
BRANCH   1  16
ATOM     13  C   UNL     1      -0.804   6.359  -5.321  0.00  0.00    +0.139 A 
ATOM     14  C   UNL     1      -1.684   5.903  -6.296  0.00  0.00    +0.037 A 
ATOM     15  C   UNL     1      -1.234   5.096  -7.334  0.00  0.00    -0.000 A 
ATOM     16  C   UNL     1       0.069   4.605  -7.351  0.00  0.00    -0.008 A 
ATOM     17  C   UNL     1       0.765   4.786  -6.193  0.00  0.00    -0.000 A 
ATOM     18  C   UNL     1       0.322   5.568  -5.134  0.00  0.00    +0.037 A 
BRANCH  13  20
ATOM     19  C   UNL     1      -1.464   8.155  -4.574  0.00  0.00    +0.252 C 
ATOM     20  O   UNL     1      -0.847   7.686  -4.878  0.00  0.00    -0.471 OA
ENDBRANCH  13  20
ENDBRANCH   1  16
BRANCH   2  21
ATOM     21  O   UNL     1       2.340   6.394  -8.329  0.00  0.00    -0.441 OA
BRANCH  21  22
ATOM     22  C   UNL     1       2.462   7.441  -7.446  0.00  0.00    +0.318 C 
ATOM     23  O   UNL     1       2.025   8.557  -7.862  0.00  0.00    -0.250 OA
ATOM     24  C   UNL     1       3.248   7.325  -6.199  0.00  0.00    +0.121 C 
ENDBRANCH  21  22
ENDBRANCH   2  21
BRANCH   5  25
ATOM     25  C   UNL     1       2.881   6.366 -12.283  0.00  0.00    +0.116 C 
BRANCH  25  26
ATOM     26  C   UNL     1       2.989   5.417 -13.406  0.00  0.00    +0.094 C 
BRANCH  26  27
ATOM     27  N   UNL     1       1.996   5.540 -14.436  0.00  0.00    -0.269 NA
ATOM     28  C   UNL     1       1.431   6.888 -14.475  0.00  0.00    +0.090 C 
ATOM     29  C   UNL     1       0.896   4.671 -14.021  0.00  0.00    +0.090 C 
ENDBRANCH  26  27
ENDBRANCH  25  26
ENDBRANCH   5  25
TORSDOF 7
ENDMDL
MODEL 2
REMARK VINA RESULT:      -7.8      2.985      7.463
REMARK  Name = 
REMARK  7 active torsions:
REMARK  status: ('A' for Active; 'I' for Inactive)
REMARK    1  A    between atoms: O_2  and  C_3
REMARK    2  A    between atoms: C_6  and  C_7
REMARK    3  A    between atoms: N_15  and  C_16
REMARK    4  A    between atoms: C_16  and  C_17
REMARK    5  A    between atoms: C_17  and  N_18
REMARK    6  A    between atoms: C_23  and  O_24
REMARK    7  A    between atoms: O_24  and  C_25
REMARK                            x       y       z     vdW  Elec       q    Type
REMARK                         _______ _______ _______ _____ _____    ______ ____
ROOT
ATOM      1  C   UNL     1       4.077   4.858  -6.767  0.00  0.00    +0.123 C 
ATOM      2  C   UNL     1       3.827   6.518  -6.931  0.00  0.00    +0.259 C 
ATOM      3  C   UNL     1       3.526   6.690  -5.357  0.00  0.00    +0.271 C 
ATOM      4  O   UNL     1       4.301   7.581  -4.893  0.00  0.00    -0.271 OA
ATOM      5  N   UNL     1       2.403   6.354  -4.615  0.00  0.00    -0.254 N 
ATOM      6  C   UNL     1       1.232   5.667  -5.072  0.00  0.00    +0.060 A 
ATOM      7  C   UNL     1       1.179   4.652  -6.020  0.00  0.00    +0.039 A 
ATOM      8  C   UNL     1      -0.066   4.393  -6.581  0.00  0.00    +0.007 A 
ATOM      9  C   UNL     1      -1.157   5.227  -6.389  0.00  0.00    +0.001 A 
ATOM     10  C   UNL     1      -1.123   6.168  -5.398  0.00  0.00    +0.001 A 
ATOM     11  C   UNL     1       0.041   6.239  -4.640  0.00  0.00    +0.015 A 
ATOM     12  S   UNL     1       2.411   4.093  -7.187  0.00  0.00    -0.105 S 
ENDROOT
BRANCH   1  16
ATOM     13  C   UNL     1       5.371   6.067 -10.534  0.00  0.00    +0.139 A 
ATOM     14  C   UNL     1       6.329   5.765  -9.573  0.00  0.00    +0.037 A 
ATOM     15  C   UNL     1       5.968   5.138  -8.386  0.00  0.00    -0.000 A 
ATOM     16  C   UNL     1       4.673   4.667  -8.187  0.00  0.00    -0.008 A 
ATOM     17  C   UNL     1       3.884   4.667  -9.298  0.00  0.00    -0.000 A 
ATOM     18  C   UNL     1       4.237   5.267 -10.501  0.00  0.00    +0.037 A 
BRANCH  13  20
ATOM     19  C   UNL     1       5.960   7.888 -11.283  0.00  0.00    +0.252 C 
ATOM     20  O   UNL     1       5.372   7.306 -11.185  0.00  0.00    -0.471 OA
ENDBRANCH  13  20
ENDBRANCH   1  16
BRANCH   2  21
ATOM     21  O   UNL     1       2.350   6.469  -7.363  0.00  0.00    -0.441 OA
BRANCH  21  22
ATOM     22  C   UNL     1       2.045   7.419  -8.308  0.00  0.00    +0.318 C 
ATOM     23  O   UNL     1       2.251   8.621  -7.959  0.00  0.00    -0.250 OA
ATOM     24  C   UNL     1       1.318   7.079  -9.551  0.00  0.00    +0.121 C 
ENDBRANCH  21  22
ENDBRANCH   2  21
BRANCH   5  25
ATOM     25  C   UNL     1       2.122   7.181  -3.442  0.00  0.00    +0.116 C 
BRANCH  25  26
ATOM     26  C   UNL     1       2.692   6.676  -2.179  0.00  0.00    +0.094 C 
BRANCH  26  27
ATOM     27  N   UNL     1       2.581   5.262  -1.957  0.00  0.00    -0.269 NA
ATOM     28  C   UNL     1       1.406   4.936  -1.151  0.00  0.00    +0.090 C 
ATOM     29  C   UNL     1       3.731   4.907  -1.126  0.00  0.00    +0.090 C 
ENDBRANCH  26  27
ENDBRANCH  25  26
ENDBRANCH   5  25
TORSDOF 7
ENDMDL
MODEL 3
REMARK VINA RESULT:      -6.6      2.877      4.655
REMARK  Name = 
REMARK  7 active torsions:
REMARK  status: ('A' for Active; 'I' for Inactive)
REMARK    1  A    between atoms: O_2  and  C_3
REMARK    2  A    between atoms: C_6  and  C_7
REMARK    3  A    between atoms: N_15  and  C_16
REMARK    4  A    between atoms: C_16  and  C_17
REMARK    5  A    between atoms: C_17  and  N_18
REMARK    6  A    between atoms: C_23  and  O_24
REMARK    7  A    between atoms: O_24  and  C_25
REMARK                            x       y       z     vdW  Elec       q    Type
REMARK                         _______ _______ _______ _____ _____    ______ ____
ROOT
ATOM      1  C   UNL     1       4.342   6.828  -6.802  0.00  0.00    +0.123 C 
ATOM      2  C   UNL     1       4.523   5.235  -7.326  0.00  0.00    +0.259 C 
ATOM      3  C   UNL     1       5.176   5.705  -8.723  0.00  0.00    +0.271 C 
ATOM      4  O   UNL     1       6.292   5.118  -8.863  0.00  0.00    -0.271 OA
ATOM      5  N   UNL     1       4.585   6.258  -9.850  0.00  0.00    -0.254 N 
ATOM      6  C   UNL     1       3.214   6.641 -10.014  0.00  0.00    +0.060 A 
ATOM      7  C   UNL     1       2.377   7.179  -9.043  0.00  0.00    +0.039 A 
ATOM      8  C   UNL     1       1.013   7.125  -9.303  0.00  0.00    +0.007 A 
ATOM      9  C   UNL     1       0.483   6.389 -10.352  0.00  0.00    +0.001 A 
ATOM     10  C   UNL     1       1.307   5.936 -11.344  0.00  0.00    +0.001 A 
ATOM     11  C   UNL     1       2.660   6.237 -11.223  0.00  0.00    +0.015 A 
ATOM     12  S   UNL     1       2.574   7.273  -7.270  0.00  0.00    -0.105 S 
ENDROOT
BRANCH   1  16
ATOM     13  C   UNL     1       3.687   7.546  -2.755  0.00  0.00    +0.139 A 
ATOM     14  C   UNL     1       2.585   7.319  -3.571  0.00  0.00    +0.037 A 
ATOM     15  C   UNL     1       2.750   6.847  -4.868  0.00  0.00    -0.000 A 
ATOM     16  C   UNL     1       4.001   6.453  -5.336  0.00  0.00    -0.008 A 
ATOM     17  C   UNL     1       4.967   6.356  -4.380  0.00  0.00    -0.000 A 
ATOM     18  C   UNL     1       4.813   6.800  -3.072  0.00  0.00    +0.037 A 
BRANCH  13  20
ATOM     19  C   UNL     1       3.714   8.825  -1.147  0.00  0.00    +0.252 C 
ATOM     20  O   UNL     1       3.774   8.701  -1.969  0.00  0.00    -0.471 OA
ENDBRANCH  13  20
ENDBRANCH   1  16
BRANCH   2  21
ATOM     21  O   UNL     1       3.103   5.032  -7.884  0.00  0.00    -0.441 OA
BRANCH  21  22
ATOM     22  C   UNL     1       2.600   3.783  -7.605  0.00  0.00    +0.318 C 
ATOM     23  O   UNL     1       2.532   2.990  -8.593  0.00  0.00    -0.250 OA
ATOM     24  C   UNL     1       1.973   3.466  -6.304  0.00  0.00    +0.121 C 
ENDBRANCH  21  22
ENDBRANCH   2  21
BRANCH   5  25
ATOM     25  C   UNL     1       5.224   5.967 -11.132  0.00  0.00    +0.116 C 
BRANCH  25  26
ATOM     26  C   UNL     1       6.077   7.049 -11.658  0.00  0.00    +0.094 C 
BRANCH  26  27
ATOM     27  N   UNL     1       7.168   6.642 -12.497  0.00  0.00    -0.269 NA
ATOM     28  C   UNL     1       6.800   6.683 -13.911  0.00  0.00    +0.090 C 
ATOM     29  C   UNL     1       7.386   5.228 -12.194  0.00  0.00    +0.090 C 
ENDBRANCH  26  27
ENDBRANCH  25  26
ENDBRANCH   5  25
TORSDOF 7
ENDMDL
MODEL 4
REMARK VINA RESULT:      -6.4      2.915      7.024
REMARK  Name = 
REMARK  7 active torsions:
REMARK  status: ('A' for Active; 'I' for Inactive)
REMARK    1  A    between atoms: O_2  and  C_3
REMARK    2  A    between atoms: C_6  and  C_7
REMARK    3  A    between atoms: N_15  and  C_16
REMARK    4  A    between atoms: C_16  and  C_17
REMARK    5  A    between atoms: C_17  and  N_18
REMARK    6  A    between atoms: C_23  and  O_24
REMARK    7  A    between atoms: O_24  and  C_25
REMARK                            x       y       z     vdW  Elec       q    Type
REMARK                         _______ _______ _______ _____ _____    ______ ____
ROOT
ATOM      1  C   UNL     1       0.412   6.615  -8.487  0.00  0.00    +0.123 C 
ATOM      2  C   UNL     1       0.178   5.116  -7.750  0.00  0.00    +0.259 C 
ATOM      3  C   UNL     1      -0.545   5.788  -6.476  0.00  0.00    +0.271 C 
ATOM      4  O   UNL     1      -1.676   5.236  -6.316  0.00  0.00    -0.271 OA
ATOM      5  N   UNL     1      -0.009   6.495  -5.408  0.00  0.00    -0.254 N 
ATOM      6  C   UNL     1       1.356   6.888  -5.223  0.00  0.00    +0.060 A 
ATOM      7  C   UNL     1       2.254   7.273  -6.211  0.00  0.00    +0.039 A 
ATOM      8  C   UNL     1       3.600   7.248  -5.868  0.00  0.00    +0.007 A 
ATOM      9  C   UNL     1       4.059   6.669  -4.696  0.00  0.00    +0.001 A 
ATOM     10  C   UNL     1       3.174   6.370  -3.697  0.00  0.00    +0.001 A 
ATOM     11  C   UNL     1       1.835   6.660  -3.938  0.00  0.00    +0.015 A 
ATOM     12  S   UNL     1       2.157   7.110  -7.988  0.00  0.00    -0.105 S 
ENDROOT
BRANCH   1  16
ATOM     13  C   UNL     1       1.021   6.657 -12.605  0.00  0.00    +0.139 A 
ATOM     14  C   UNL     1       2.130   6.751 -11.774  0.00  0.00    +0.037 A 
ATOM     15  C   UNL     1       2.016   6.509 -10.409  0.00  0.00    -0.000 A 
ATOM     16  C   UNL     1       0.829   6.029  -9.862  0.00  0.00    -0.008 A 
ATOM     17  C   UNL     1      -0.097   5.613 -10.771  0.00  0.00    -0.000 A 
ATOM     18  C   UNL     1       0.011   5.824 -12.141  0.00  0.00    +0.037 A 
BRANCH  13  20
ATOM     19  C   UNL     1       0.899   7.620 -14.416  0.00  0.00    +0.252 C 
ATOM     20  O   UNL     1       0.777   7.619 -13.592  0.00  0.00    -0.471 OA
ENDBRANCH  13  20
ENDBRANCH   1  16
BRANCH   2  21
ATOM     21  O   UNL     1       1.561   4.986  -7.088  0.00  0.00    -0.441 OA
BRANCH  21  22
ATOM     22  C   UNL     1       2.133   3.754  -7.299  0.00  0.00    +0.318 C 
ATOM     23  O   UNL     1       2.168   2.989  -6.287  0.00  0.00    -0.250 OA
ATOM     24  C   UNL     1       2.859   3.433  -8.547  0.00  0.00    +0.121 C 
ENDBRANCH  21  22
ENDBRANCH   2  21
BRANCH   5  25
ATOM     25  C   UNL     1      -0.723   6.398  -4.136  0.00  0.00    +0.116 C 
BRANCH  25  26
ATOM     26  C   UNL     1      -1.723   7.458  -3.906  0.00  0.00    +0.094 C 
BRANCH  26  27
ATOM     27  N   UNL     1      -2.675   7.212  -2.860  0.00  0.00    -0.269 NA
ATOM     28  C   UNL     1      -2.041   7.237  -1.543  0.00  0.00    +0.090 C 
ATOM     29  C   UNL     1      -3.115   5.831  -3.051  0.00  0.00    +0.090 C 
ENDBRANCH  26  27
ENDBRANCH  25  26
ENDBRANCH   5  25
TORSDOF 7
ENDMDL
MODEL 5
REMARK VINA RESULT:      -6.4      4.229      8.165
REMARK  Name = 
REMARK  7 active torsions:
REMARK  status: ('A' for Active; 'I' for Inactive)
REMARK    1  A    between atoms: O_2  and  C_3
REMARK    2  A    between atoms: C_6  and  C_7
REMARK    3  A    between atoms: N_15  and  C_16
REMARK    4  A    between atoms: C_16  and  C_17
REMARK    5  A    between atoms: C_17  and  N_18
REMARK    6  A    between atoms: C_23  and  O_24
REMARK    7  A    between atoms: O_24  and  C_25
REMARK                            x       y       z     vdW  Elec       q    Type
REMARK                         _______ _______ _______ _____ _____    ______ ____
ROOT
ATOM      1  C   UNL     1       0.779   7.216  -5.311  0.00  0.00    +0.123 C 
ATOM      2  C   UNL     1       0.409   5.571  -5.245  0.00  0.00    +0.259 C 
ATOM      3  C   UNL     1      -0.320   5.729  -3.817  0.00  0.00    +0.271 C 
ATOM      4  O   UNL     1      -1.493   5.253  -3.909  0.00  0.00    -0.271 OA
ATOM      5  N   UNL     1       0.216   5.901  -2.549  0.00  0.00    -0.254 N 
ATOM      6  C   UNL     1       1.595   6.075  -2.203  0.00  0.00    +0.060 A 
ATOM      7  C   UNL     1       2.560   6.752  -2.941  0.00  0.00    +0.039 A 
ATOM      8  C   UNL     1       3.885   6.482  -2.621  0.00  0.00    +0.007 A 
ATOM      9  C   UNL     1       4.252   5.445  -1.778  0.00  0.00    +0.001 A 
ATOM     10  C   UNL     1       3.305   4.842  -0.996  0.00  0.00    +0.001 A 
ATOM     11  C   UNL     1       2.001   5.311  -1.115  0.00  0.00    +0.015 A 
ATOM     12  S   UNL     1       2.530   7.326  -4.633  0.00  0.00    -0.105 S 
ENDROOT
BRANCH   1  16
ATOM     13  C   UNL     1       2.489   5.610  -8.749  0.00  0.00    +0.139 A 
ATOM     14  C   UNL     1       1.102   5.652  -8.660  0.00  0.00    +0.037 A 
ATOM     15  C   UNL     1       0.479   6.382  -7.654  0.00  0.00    -0.000 A 
ATOM     16  C   UNL     1       1.214   7.200  -6.800  0.00  0.00    -0.008 A 
ATOM     17  C   UNL     1       2.511   7.397  -7.167  0.00  0.00    -0.000 A 
ATOM     18  C   UNL     1       3.145   6.696  -8.186  0.00  0.00    +0.037 A 
BRANCH  13  20
ATOM     19  C   UNL     1       3.963   4.222  -9.098  0.00  0.00    +0.252 C 
ATOM     20  O   UNL     1       3.156   4.406  -9.005  0.00  0.00    -0.471 OA
ENDBRANCH  13  20
ENDBRANCH   1  16
BRANCH   2  21
ATOM     21  O   UNL     1       1.751   5.075  -4.676  0.00  0.00    -0.441 OA
BRANCH  21  22
ATOM     22  C   UNL     1       2.382   4.185  -5.513  0.00  0.00    +0.318 C 
ATOM     23  O   UNL     1       1.617   3.405  -6.157  0.00  0.00    -0.250 OA
ATOM     24  C   UNL     1       3.849   3.998  -5.490  0.00  0.00    +0.121 C 
ENDBRANCH  21  22
ENDBRANCH   2  21
BRANCH   5  25
ATOM     25  C   UNL     1      -0.558   5.359  -1.433  0.00  0.00    +0.116 C 
BRANCH  25  26
ATOM     26  C   UNL     1      -1.379   6.348  -0.711  0.00  0.00    +0.094 C 
BRANCH  26  27
ATOM     27  N   UNL     1      -0.934   6.696   0.609  0.00  0.00    -0.269 NA
ATOM     28  C   UNL     1      -2.061   6.942   1.506  0.00  0.00    +0.090 C 
ATOM     29  C   UNL     1      -0.265   7.988   0.466  0.00  0.00    +0.090 C 
ENDBRANCH  26  27
ENDBRANCH  25  26
ENDBRANCH   5  25
TORSDOF 7
ENDMDL
MODEL 6
REMARK VINA RESULT:      -6.3      7.072     11.137
REMARK  Name = 
REMARK  7 active torsions:
REMARK  status: ('A' for Active; 'I' for Inactive)
REMARK    1  A    between atoms: O_2  and  C_3
REMARK    2  A    between atoms: C_6  and  C_7
REMARK    3  A    between atoms: N_15  and  C_16
REMARK    4  A    between atoms: C_16  and  C_17
REMARK    5  A    between atoms: C_17  and  N_18
REMARK    6  A    between atoms: C_23  and  O_24
REMARK    7  A    between atoms: O_24  and  C_25
REMARK                            x       y       z     vdW  Elec       q    Type
REMARK                         _______ _______ _______ _____ _____    ______ ____
ROOT
ATOM      1  C   UNL     1       2.786   7.824  -1.647  0.00  0.00    +0.123 C 
ATOM      2  C   UNL     1       2.912   6.927  -0.224  0.00  0.00    +0.259 C 
ATOM      3  C   UNL     1       1.467   7.423   0.289  0.00  0.00    +0.271 C 
ATOM      4  O   UNL     1       0.762   6.403   0.558  0.00  0.00    -0.271 OA
ATOM      5  N   UNL     1       1.072   8.645   0.814  0.00  0.00    -0.254 N 
ATOM      6  C   UNL     1       1.864   9.831   0.950  0.00  0.00    +0.060 A 
ATOM      7  C   UNL     1       2.850  10.278   0.078  0.00  0.00    +0.039 A 
ATOM      8  C   UNL     1       3.736  11.225   0.579  0.00  0.00    +0.007 A 
ATOM      9  C   UNL     1       3.792  11.554   1.924  0.00  0.00    +0.001 A 
ATOM     10  C   UNL     1       2.774  11.178   2.756  0.00  0.00    +0.001 A 
ATOM     11  C   UNL     1       1.730  10.457   2.184  0.00  0.00    +0.015 A 
ATOM     12  S   UNL     1       3.679   9.434  -1.261  0.00  0.00    -0.105 S 
ENDROOT
BRANCH   1  16
ATOM     13  C   UNL     1       4.808   5.859  -4.709  0.00  0.00    +0.139 A 
ATOM     14  C   UNL     1       5.050   7.214  -4.524  0.00  0.00    +0.037 A 
ATOM     15  C   UNL     1       4.590   7.866  -3.384  0.00  0.00    -0.000 A 
ATOM     16  C   UNL     1       4.005   7.158  -2.338  0.00  0.00    -0.008 A 
ATOM     17  C   UNL     1       4.127   5.804  -2.421  0.00  0.00    -0.000 A 
ATOM     18  C   UNL     1       4.607   5.135  -3.541  0.00  0.00    +0.037 A 
BRANCH  13  20
ATOM     19  C   UNL     1       4.525   5.633  -6.732  0.00  0.00    +0.252 C 
ATOM     20  O   UNL     1       4.399   5.365  -5.953  0.00  0.00    -0.471 OA
ENDBRANCH  13  20
ENDBRANCH   1  16
BRANCH   2  21
ATOM     21  O   UNL     1       3.723   7.944   0.598  0.00  0.00    -0.441 OA
BRANCH  21  22
ATOM     22  C   UNL     1       4.708   7.350   1.350  0.00  0.00    +0.318 C 
ATOM     23  O   UNL     1       5.110   6.223   0.928  0.00  0.00    -0.250 OA
ATOM     24  C   UNL     1       5.104   7.875   2.675  0.00  0.00    +0.121 C 
ENDBRANCH  21  22
ENDBRANCH   2  21
BRANCH   5  25
ATOM     25  C   UNL     1      -0.031   8.618   1.774  0.00  0.00    +0.116 C 
BRANCH  25  26
ATOM     26  C   UNL     1      -1.354   8.939   1.205  0.00  0.00    +0.094 C 
BRANCH  26  27
ATOM     27  N   UNL     1      -2.472   8.238   1.771  0.00  0.00    -0.269 NA
ATOM     28  C   UNL     1      -3.290   9.119   2.603  0.00  0.00    +0.090 C 
ATOM     29  C   UNL     1      -1.893   7.262   2.694  0.00  0.00    +0.090 C 
ENDBRANCH  26  27
ENDBRANCH  25  26
ENDBRANCH   5  25
TORSDOF 7
ENDMDL
MODEL 7
REMARK VINA RESULT:      -6.3      3.090      6.951
REMARK  Name = 
REMARK  7 active torsions:
REMARK  status: ('A' for Active; 'I' for Inactive)
REMARK    1  A    between atoms: O_2  and  C_3
REMARK    2  A    between atoms: C_6  and  C_7
REMARK    3  A    between atoms: N_15  and  C_16
REMARK    4  A    between atoms: C_16  and  C_17
REMARK    5  A    between atoms: C_17  and  N_18
REMARK    6  A    between atoms: C_23  and  O_24
REMARK    7  A    between atoms: O_24  and  C_25
REMARK                            x       y       z     vdW  Elec       q    Type
REMARK                         _______ _______ _______ _____ _____    ______ ____
ROOT
ATOM      1  C   UNL     1       1.380   7.158  -7.612  0.00  0.00    +0.123 C 
ATOM      2  C   UNL     1       1.267   5.475  -7.651  0.00  0.00    +0.259 C 
ATOM      3  C   UNL     1       0.494   5.434  -6.238  0.00  0.00    +0.271 C 
ATOM      4  O   UNL     1      -0.590   4.791  -6.390  0.00  0.00    -0.271 OA
ATOM      5  N   UNL     1       0.972   5.608  -4.947  0.00  0.00    -0.254 N 
ATOM      6  C   UNL     1       2.301   5.969  -4.553  0.00  0.00    +0.060 A 
ATOM      7  C   UNL     1       3.165   6.828  -5.223  0.00  0.00    +0.039 A 
ATOM      8  C   UNL     1       4.510   6.744  -4.882  0.00  0.00    +0.007 A 
ATOM      9  C   UNL     1       5.015   5.726  -4.089  0.00  0.00    +0.001 A 
ATOM     10  C   UNL     1       4.158   4.940  -3.370  0.00  0.00    +0.001 A 
ATOM     11  C   UNL     1       2.799   5.211  -3.499  0.00  0.00    +0.015 A 
ATOM     12  S   UNL     1       3.080   7.492  -6.880  0.00  0.00    -0.105 S 
ENDROOT
BRANCH   1  16
ATOM     13  C   UNL     1       3.410   6.060 -11.076  0.00  0.00    +0.139 A 
ATOM     14  C   UNL     1       2.036   5.860 -11.026  0.00  0.00    +0.037 A 
ATOM     15  C   UNL     1       1.276   6.415 -10.003  0.00  0.00    -0.000 A 
ATOM     16  C   UNL     1       1.841   7.299  -9.087  0.00  0.00    -0.008 A 
ATOM     17  C   UNL     1       3.092   7.736  -9.406  0.00  0.00    -0.000 A 
ATOM     18  C   UNL     1       3.857   7.211 -10.440  0.00  0.00    +0.037 A 
BRANCH  13  20
ATOM     19  C   UNL     1       4.960   4.958 -11.853  0.00  0.00    +0.252 C 
ATOM     20  O   UNL     1       4.281   5.006 -11.373  0.00  0.00    -0.471 OA
ENDBRANCH  13  20
ENDBRANCH   1  16
BRANCH   2  21
ATOM     21  O   UNL     1       2.657   5.155  -7.074  0.00  0.00    -0.441 OA
BRANCH  21  22
ATOM     22  C   UNL     1       3.426   4.408  -7.933  0.00  0.00    +0.318 C 
ATOM     23  O   UNL     1       2.829   3.443  -8.500  0.00  0.00    -0.250 OA
ATOM     24  C   UNL     1       4.894   4.574  -8.014  0.00  0.00    +0.121 C 
ENDBRANCH  21  22
ENDBRANCH   2  21
BRANCH   5  25
ATOM     25  C   UNL     1       0.270   4.888  -3.887  0.00  0.00    +0.116 C 
BRANCH  25  26
ATOM     26  C   UNL     1      -0.653   5.713  -3.085  0.00  0.00    +0.094 C 
BRANCH  26  27
ATOM     27  N   UNL     1      -1.827   5.050  -2.592  0.00  0.00    -0.269 NA
ATOM     28  C   UNL     1      -2.972   5.261  -3.476  0.00  0.00    +0.090 C 
ATOM     29  C   UNL     1      -2.168   5.736  -1.346  0.00  0.00    +0.090 C 
ENDBRANCH  26  27
ENDBRANCH  25  26
ENDBRANCH   5  25
TORSDOF 7
ENDMDL
MODEL 8
REMARK VINA RESULT:      -6.0      5.708      9.708
REMARK  Name = 
REMARK  7 active torsions:
REMARK  status: ('A' for Active; 'I' for Inactive)
REMARK    1  A    between atoms: O_2  and  C_3
REMARK    2  A    between atoms: C_6  and  C_7
REMARK    3  A    between atoms: N_15  and  C_16
REMARK    4  A    between atoms: C_16  and  C_17
REMARK    5  A    between atoms: C_17  and  N_18
REMARK    6  A    between atoms: C_23  and  O_24
REMARK    7  A    between atoms: O_24  and  C_25
REMARK                            x       y       z     vdW  Elec       q    Type
REMARK                         _______ _______ _______ _____ _____    ______ ____
ROOT
ATOM      1  C   UNL     1       1.783   6.252  -3.443  0.00  0.00    +0.123 C 
ATOM      2  C   UNL     1       1.581   4.998  -2.332  0.00  0.00    +0.259 C 
ATOM      3  C   UNL     1       0.473   5.827  -1.507  0.00  0.00    +0.271 C 
ATOM      4  O   UNL     1      -0.574   5.115  -1.410  0.00  0.00    -0.271 OA
ATOM      5  N   UNL     1       0.616   6.895  -0.633  0.00  0.00    -0.254 N 
ATOM      6  C   UNL     1       1.821   7.601  -0.312  0.00  0.00    +0.060 A 
ATOM      7  C   UNL     1       2.877   7.880  -1.172  0.00  0.00    +0.039 A 
ATOM      8  C   UNL     1       4.083   8.232  -0.577  0.00  0.00    +0.007 A 
ATOM      9  C   UNL     1       4.306   8.106   0.785  0.00  0.00    +0.001 A 
ATOM     10  C   UNL     1       3.248   7.914   1.629  0.00  0.00    +0.001 A 
ATOM     11  C   UNL     1       1.986   7.839   1.047  0.00  0.00    +0.015 A 
ATOM     12  S   UNL     1       3.258   7.220  -2.788  0.00  0.00    -0.105 S 
ENDROOT
BRANCH   1  16
ATOM     13  C   UNL     1       3.613   5.417  -7.087  0.00  0.00    +0.139 A 
ATOM     14  C   UNL     1       4.415   5.805  -6.021  0.00  0.00    +0.037 A 
ATOM     15  C   UNL     1       3.897   5.869  -4.732  0.00  0.00    -0.000 A 
ATOM     16  C   UNL     1       2.612   5.412  -4.450  0.00  0.00    -0.008 A 
ATOM     17  C   UNL     1       2.017   4.713  -5.457  0.00  0.00    -0.000 A 
ATOM     18  C   UNL     1       2.531   4.616  -6.745  0.00  0.00    +0.037 A 
BRANCH  13  20
ATOM     19  C   UNL     1       4.112   5.989  -8.996  0.00  0.00    +0.252 C 
ATOM     20  O   UNL     1       3.657   6.101  -8.307  0.00  0.00    -0.471 OA
ENDBRANCH  13  20
ENDBRANCH   1  16
BRANCH   2  21
ATOM     21  O   UNL     1       2.756   5.348  -1.402  0.00  0.00    -0.441 OA
BRANCH  21  22
ATOM     22  C   UNL     1       3.429   4.233  -0.961  0.00  0.00    +0.318 C 
ATOM     23  O   UNL     1       2.710   3.344  -0.412  0.00  0.00    -0.250 OA
ATOM     24  C   UNL     1       4.907   4.177  -0.922  0.00  0.00    +0.121 C 
ENDBRANCH  21  22
ENDBRANCH   2  21
BRANCH   5  25
ATOM     25  C   UNL     1      -0.376   7.003   0.436  0.00  0.00    +0.116 C 
BRANCH  25  26
ATOM     26  C   UNL     1      -1.449   7.983   0.186  0.00  0.00    +0.094 C 
BRANCH  26  27
ATOM     27  N   UNL     1      -2.196   8.409   1.336  0.00  0.00    -0.269 NA
ATOM     28  C   UNL     1      -1.657   9.647   1.896  0.00  0.00    +0.090 C 
ATOM     29  C   UNL     1      -1.958   7.388   2.355  0.00  0.00    +0.090 C 
ENDBRANCH  26  27
ENDBRANCH  25  26
ENDBRANCH   5  25
TORSDOF 7
ENDMDL
MODEL 9
REMARK VINA RESULT:      -6.0      4.317      8.139
REMARK  Name = 
REMARK  7 active torsions:
REMARK  status: ('A' for Active; 'I' for Inactive)
REMARK    1  A    between atoms: O_2  and  C_3
REMARK    2  A    between atoms: C_6  and  C_7
REMARK    3  A    between atoms: N_15  and  C_16
REMARK    4  A    between atoms: C_16  and  C_17
REMARK    5  A    between atoms: C_17  and  N_18
REMARK    6  A    between atoms: C_23  and  O_24
REMARK    7  A    between atoms: O_24  and  C_25
REMARK                            x       y       z     vdW  Elec       q    Type
REMARK                         _______ _______ _______ _____ _____    ______ ____
ROOT
ATOM      1  C   UNL     1       0.906   6.521  -5.479  0.00  0.00    +0.123 C 
ATOM      2  C   UNL     1       1.044   5.003  -4.757  0.00  0.00    +0.259 C 
ATOM      3  C   UNL     1       0.401   5.533  -3.378  0.00  0.00    +0.271 C 
ATOM      4  O   UNL     1      -0.582   4.790  -3.079  0.00  0.00    -0.271 OA
ATOM      5  N   UNL     1       0.950   6.321  -2.376  0.00  0.00    -0.254 N 
ATOM      6  C   UNL     1       2.237   6.949  -2.370  0.00  0.00    +0.060 A 
ATOM      7  C   UNL     1       2.906   7.489  -3.462  0.00  0.00    +0.039 A 
ATOM      8  C   UNL     1       4.271   7.702  -3.310  0.00  0.00    +0.007 A 
ATOM      9  C   UNL     1       4.985   7.210  -2.228  0.00  0.00    +0.001 A 
ATOM     10  C   UNL     1       4.315   6.757  -1.125  0.00  0.00    +0.001 A 
ATOM     11  C   UNL     1       2.926   6.806  -1.171  0.00  0.00    +0.015 A 
ATOM     12  S   UNL     1       2.591   7.316  -5.213  0.00  0.00    -0.105 S 
ENDROOT
BRANCH   1  16
ATOM     13  C   UNL     1       0.747   6.575  -9.638  0.00  0.00    +0.139 A 
ATOM     14  C   UNL     1       1.915   7.002  -9.018  0.00  0.00    +0.037 A 
ATOM     15  C   UNL     1       2.113   6.788  -7.658  0.00  0.00    -0.000 A 
ATOM     16  C   UNL     1       1.221   6.021  -6.914  0.00  0.00    -0.008 A 
ATOM     17  C   UNL     1       0.302   5.334  -7.648  0.00  0.00    -0.000 A 
ATOM     18  C   UNL     1       0.106   5.515  -9.012  0.00  0.00    +0.037 A 
BRANCH  13  20
ATOM     19  C   UNL     1      -0.208   7.260 -11.324  0.00  0.00    +0.252 C 
ATOM     20  O   UNL     1       0.077   7.396 -10.553  0.00  0.00    -0.471 OA
ENDBRANCH  13  20
ENDBRANCH   1  16
BRANCH   2  21
ATOM     21  O   UNL     1       2.508   5.118  -4.297  0.00  0.00    -0.441 OA
BRANCH  21  22
ATOM     22  C   UNL     1       3.358   4.334  -5.040  0.00  0.00    +0.318 C 
ATOM     23  O   UNL     1       2.795   3.535  -5.849  0.00  0.00    -0.250 OA
ATOM     24  C   UNL     1       4.807   4.265  -4.755  0.00  0.00    +0.121 C 
ENDBRANCH  21  22
ENDBRANCH   2  21
BRANCH   5  25
ATOM     25  C   UNL     1       0.450   6.097  -1.021  0.00  0.00    +0.116 C 
BRANCH  25  26
ATOM     26  C   UNL     1      -0.643   6.996  -0.607  0.00  0.00    +0.094 C 
BRANCH  26  27
ATOM     27  N   UNL     1      -1.107   6.848   0.743  0.00  0.00    -0.269 NA
ATOM     28  C   UNL     1      -2.250   7.718   1.015  0.00  0.00    +0.090 C 
ATOM     29  C   UNL     1      -0.025   7.357   1.584  0.00  0.00    +0.090 C 
ENDBRANCH  26  27
ENDBRANCH  25  26
ENDBRANCH   5  25
TORSDOF 7
ENDMDL
