MODEL 1
REMARK VINA RESULT:      -3.5      0.000      0.000
REMARK  Name = 
REMARK  1 active torsions:
REMARK  status: ('A' for Active; 'I' for Inactive)
REMARK    1  A    between atoms: CA_2  and  C_4
REMARK                            x       y       z     vdW  Elec       q    Type
REMARK                         _______ _______ _______ _____ _____    ______ ____
ROOT
ATOM      1  CB  ALA A   1       7.132   7.349 -11.056  0.00  0.00    +0.033 C 
ATOM      2  CA  ALA A   1       6.713   5.726 -11.058  0.00  0.00    +0.194 C 
ATOM      3  N   ALA A   1       7.635   5.440  -9.775  0.00  0.00    -0.121 NA
ENDROOT
BRANCH   2   4
ATOM      4  C   ALA A   1       7.923   5.333 -12.094  0.00  0.00    +0.382 C 
ATOM      5  OXT ALA A   1       9.122   5.915 -11.895  0.00  0.00    -0.244 OA
ATOM      6  O   ALA A   1       7.537   4.607 -13.021  0.00  0.00    -0.244 OA
ENDBRANCH   2   4
TORSDOF 1
ENDMDL
MODEL 2
REMARK VINA RESULT:      -3.5      1.276      1.387
REMARK  Name = 
REMARK  1 active torsions:
REMARK  status: ('A' for Active; 'I' for Inactive)
REMARK    1  A    between atoms: CA_2  and  C_4
REMARK                            x       y       z     vdW  Elec       q    Type
REMARK                         _______ _______ _______ _____ _____    ______ ____
ROOT
ATOM      1  CB  ALA A   1       7.502   5.887  -9.970  0.00  0.00    +0.033 C 
ATOM      2  CA  ALA A   1       7.180   6.518 -11.489  0.00  0.00    +0.194 C 
ATOM      3  N   ALA A   1       5.982   5.474 -11.719  0.00  0.00    -0.121 NA
ENDROOT
BRANCH   2   4
ATOM      4  C   ALA A   1       8.267   5.528 -12.218  0.00  0.00    +0.382 C 
ATOM      5  OXT ALA A   1       9.561   5.905 -12.194  0.00  0.00    -0.244 OA
ATOM      6  O   ALA A   1       7.726   4.581 -12.806  0.00  0.00    -0.244 OA
ENDBRANCH   2   4
TORSDOF 1
ENDMDL
MODEL 3
REMARK VINA RESULT:      -3.4      1.673      1.987
REMARK  Name = 
REMARK  1 active torsions:
REMARK  status: ('A' for Active; 'I' for Inactive)
REMARK    1  A    between atoms: CA_2  and  C_4
REMARK                            x       y       z     vdW  Elec       q    Type
REMARK                         _______ _______ _______ _____ _____    ______ ____
ROOT
ATOM      1  CB  ALA A   1       7.429   7.050 -10.954  0.00  0.00    +0.033 C 
ATOM      2  CA  ALA A   1       7.940   5.462 -11.118  0.00  0.00    +0.194 C 
ATOM      3  N   ALA A   1       9.138   5.902 -12.094  0.00  0.00    -0.121 NA
ENDROOT
BRANCH   2   4
ATOM      4  C   ALA A   1       6.930   5.184 -12.381  0.00  0.00    +0.382 C 
ATOM      5  OXT ALA A   1       5.606   5.302 -12.152  0.00  0.00    -0.244 OA
ATOM      6  O   ALA A   1       7.529   4.787 -13.389  0.00  0.00    -0.244 OA
ENDBRANCH   2   4
TORSDOF 1
ENDMDL
MODEL 4
REMARK VINA RESULT:      -3.2      2.261      2.884
REMARK  Name = 
REMARK  1 active torsions:
REMARK  status: ('A' for Active; 'I' for Inactive)
REMARK    1  A    between atoms: CA_2  and  C_4
REMARK                            x       y       z     vdW  Elec       q    Type
REMARK                         _______ _______ _______ _____ _____    ______ ____
ROOT
ATOM      1  CB  ALA A   1       9.076   5.939 -12.213  0.00  0.00    +0.033 C 
ATOM      2  CA  ALA A   1       7.647   5.117 -11.908  0.00  0.00    +0.194 C 
ATOM      3  N   ALA A   1       7.366   4.931 -13.478  0.00  0.00    -0.121 NA
ENDROOT
BRANCH   2   4
ATOM      4  C   ALA A   1       6.770   6.503 -11.852  0.00  0.00    +0.382 C 
ATOM      5  OXT ALA A   1       5.692   6.587 -12.657  0.00  0.00    -0.244 OA
ATOM      6  O   ALA A   1       7.288   7.363 -11.126  0.00  0.00    -0.244 OA
ENDBRANCH   2   4
TORSDOF 1
ENDMDL
MODEL 5
REMARK VINA RESULT:      -3.2     12.759     13.120
REMARK  Name = 
REMARK  1 active torsions:
REMARK  status: ('A' for Active; 'I' for Inactive)
REMARK    1  A    between atoms: CA_2  and  C_4
REMARK                            x       y       z     vdW  Elec       q    Type
REMARK                         _______ _______ _______ _____ _____    ______ ____
ROOT
ATOM      1  CB  ALA A   1      -2.007   7.793  -4.066  0.00  0.00    +0.033 C 
ATOM      2  CA  ALA A   1      -1.504   6.200  -3.927  0.00  0.00    +0.194 C 
ATOM      3  N   ALA A   1      -2.362   5.769  -5.213  0.00  0.00    -0.121 NA
ENDROOT
BRANCH   2   4
ATOM      4  C   ALA A   1      -2.728   5.820  -2.903  0.00  0.00    +0.382 C 
ATOM      5  OXT ALA A   1      -3.384   6.841  -2.315  0.00  0.00    -0.244 OA
ATOM      6  O   ALA A   1      -2.829   4.600  -2.716  0.00  0.00    -0.244 OA
ENDBRANCH   2   4
TORSDOF 1
ENDMDL
MODEL 6
REMARK VINA RESULT:      -3.2     12.923     13.321
REMARK  Name = 
REMARK  1 active torsions:
REMARK  status: ('A' for Active; 'I' for Inactive)
REMARK    1  A    between atoms: CA_2  and  C_4
REMARK                            x       y       z     vdW  Elec       q    Type
REMARK                         _______ _______ _______ _____ _____    ______ ____
ROOT
ATOM      1  CB  ALA A   1      -2.399   6.959  -1.559  0.00  0.00    +0.033 C 
ATOM      2  CA  ALA A   1      -3.485   6.307  -2.656  0.00  0.00    +0.194 C 
ATOM      3  N   ALA A   1      -2.770   4.871  -2.579  0.00  0.00    -0.121 NA
ENDROOT
BRANCH   2   4
ATOM      4  C   ALA A   1      -2.578   6.761  -3.945  0.00  0.00    +0.382 C 
ATOM      5  OXT ALA A   1      -2.416   5.862  -4.936  0.00  0.00    -0.244 OA
ATOM      6  O   ALA A   1      -2.055   7.873  -3.789  0.00  0.00    -0.244 OA
ENDBRANCH   2   4
TORSDOF 1
ENDMDL
MODEL 7
REMARK VINA RESULT:      -3.0     11.894     12.292
REMARK  Name = 
REMARK  1 active torsions:
REMARK  status: ('A' for Active; 'I' for Inactive)
REMARK    1  A    between atoms: CA_2  and  C_4
REMARK                            x       y       z     vdW  Elec       q    Type
REMARK                         _______ _______ _______ _____ _____    ______ ____
ROOT
ATOM      1  CB  ALA A   1      -2.325   5.737  -5.900  0.00  0.00    +0.033 C 
ATOM      2  CA  ALA A   1      -2.527   6.718  -4.556  0.00  0.00    +0.194 C 
ATOM      3  N   ALA A   1      -1.022   7.265  -4.673  0.00  0.00    -0.121 NA
ENDROOT
BRANCH   2   4
ATOM      4  C   ALA A   1      -2.080   5.525  -3.521  0.00  0.00    +0.382 C 
ATOM      5  OXT ALA A   1      -0.761   5.359  -3.300  0.00  0.00    -0.244 OA
ATOM      6  O   ALA A   1      -3.041   4.841  -3.143  0.00  0.00    -0.244 OA
ENDBRANCH   2   4
TORSDOF 1
ENDMDL
MODEL 8
REMARK VINA RESULT:      -2.9      2.752      3.015
REMARK  Name = 
REMARK  1 active torsions:
REMARK  status: ('A' for Active; 'I' for Inactive)
REMARK    1  A    between atoms: CA_2  and  C_4
REMARK                            x       y       z     vdW  Elec       q    Type
REMARK                         _______ _______ _______ _____ _____    ______ ____
ROOT
ATOM      1  CB  ALA A   1       7.316   6.067  -9.728  0.00  0.00    +0.033 C 
ATOM      2  CA  ALA A   1       6.544   5.906 -11.207  0.00  0.00    +0.194 C 
ATOM      3  N   ALA A   1       7.795   6.547 -11.982  0.00  0.00    -0.121 NA
ENDROOT
BRANCH   2   4
ATOM      4  C   ALA A   1       5.802   7.363 -11.067  0.00  0.00    +0.382 C 
ATOM      5  OXT ALA A   1       6.476   8.445 -11.505  0.00  0.00    -0.244 OA
ATOM      6  O   ALA A   1       4.723   7.290 -10.462  0.00  0.00    -0.244 OA
ENDBRANCH   2   4
TORSDOF 1
ENDMDL
MODEL 9
REMARK VINA RESULT:      -2.9      2.311      2.783
REMARK  Name = 
REMARK  1 active torsions:
REMARK  status: ('A' for Active; 'I' for Inactive)
REMARK    1  A    between atoms: CA_2  and  C_4
REMARK                            x       y       z     vdW  Elec       q    Type
REMARK                         _______ _______ _______ _____ _____    ______ ____
ROOT
ATOM      1  CB  ALA A   1       5.648   5.690 -12.760  0.00  0.00    +0.033 C 
ATOM      2  CA  ALA A   1       6.880   6.827 -12.771  0.00  0.00    +0.194 C 
ATOM      3  N   ALA A   1       6.931   6.824 -14.376  0.00  0.00    -0.121 NA
ENDROOT
BRANCH   2   4
ATOM      4  C   ALA A   1       8.048   5.678 -12.669  0.00  0.00    +0.382 C 
ATOM      5  OXT ALA A   1       7.649   4.391 -12.625  0.00  0.00    -0.244 OA
ATOM      6  O   ALA A   1       9.180   6.163 -12.538  0.00  0.00    -0.244 OA
ENDBRANCH   2   4
TORSDOF 1
ENDMDL
