MODEL 1
REMARK VINA RESULT:      -7.4      0.000      0.000
REMARK  Name = 
REMARK  3 active torsions:
REMARK  status: ('A' for Active; 'I' for Inactive)
REMARK    1  A    between atoms: C_2  and  C_3
REMARK    2  A    between atoms: C_2  and  N_18
REMARK    3  A    between atoms: C_3  and  N_4
REMARK                            x       y       z     vdW  Elec       q    Type
REMARK                         _______ _______ _______ _____ _____    ______ ____
ROOT
ATOM      1  N   UNL     1       3.628   5.200  -9.326  0.00  0.00    -0.285 N 
ATOM      2  C   UNL     1       4.881   5.637  -9.812  0.00  0.00    +0.058 A 
ATOM      3  C   UNL     1       4.995   6.479 -10.888  0.00  0.00    +0.043 A 
ATOM      4  C   UNL     1       6.225   6.963 -11.223  0.00  0.00    +0.008 A 
ATOM      5  C   UNL     1       7.335   6.717 -10.456  0.00  0.00    +0.001 A 
ATOM      6  C   UNL     1       7.259   5.860  -9.378  0.00  0.00    +0.001 A 
ATOM      7  S   UNL     1       3.818   6.208 -12.213  0.00  0.00    -0.084 S 
ATOM      8  C   UNL     1       2.332   5.629 -11.390  0.00  0.00    +0.043 A 
ATOM      9  C   UNL     1       1.163   6.167 -11.908  0.00  0.00    +0.008 A 
ATOM     10  C   UNL     1      -0.023   5.798 -11.291  0.00  0.00    +0.001 A 
ATOM     11  C   UNL     1       0.022   4.948 -10.193  0.00  0.00    +0.001 A 
ATOM     12  C   UNL     1       1.191   5.045  -9.445  0.00  0.00    +0.015 A 
ATOM     13  C   UNL     1       5.992   5.448  -9.002  0.00  0.00    +0.015 A 
ATOM     14  C   UNL     1       2.404   5.376 -10.041  0.00  0.00    +0.058 A 
ENDROOT
BRANCH   1  15
ATOM     15  C   UNL     1       3.497   4.873  -7.928  0.00  0.00    +0.111 C 
BRANCH  15  17
ATOM     16  C   UNL     1       4.433   5.896  -5.959  0.00  0.00    +0.019 C 
ATOM     17  C   UNL     1       3.352   6.343  -7.152  0.00  0.00    +0.078 C 
BRANCH  17  18
ATOM     18  N   UNL     1       2.123   5.800  -6.280  0.00  0.00    -0.270 NA
ATOM     19  C   UNL     1       2.114   6.649  -5.108  0.00  0.00    +0.090 C 
ATOM     20  C   UNL     1       2.528   4.439  -5.950  0.00  0.00    +0.090 C 
ENDBRANCH  17  18
ENDBRANCH  15  17
ENDBRANCH   1  15
TORSDOF 3
ENDMDL
MODEL 2
REMARK VINA RESULT:      -7.3      3.056      6.951
REMARK  Name = 
REMARK  3 active torsions:
REMARK  status: ('A' for Active; 'I' for Inactive)
REMARK    1  A    between atoms: C_2  and  C_3
REMARK    2  A    between atoms: C_2  and  N_18
REMARK    3  A    between atoms: C_3  and  N_4
REMARK                            x       y       z     vdW  Elec       q    Type
REMARK                         _______ _______ _______ _____ _____    ______ ____
ROOT
ATOM      1  N   UNL     1       2.269   6.306  -5.973  0.00  0.00    -0.285 N 
ATOM      2  C   UNL     1       0.891   5.996  -5.901  0.00  0.00    +0.058 A 
ATOM      3  C   UNL     1       0.123   6.324  -4.814  0.00  0.00    +0.043 A 
ATOM      4  C   UNL     1      -1.223   6.113  -4.865  0.00  0.00    +0.008 A 
ATOM      5  C   UNL     1      -1.846   5.677  -6.007  0.00  0.00    +0.001 A 
ATOM      6  C   UNL     1      -1.101   5.321  -7.112  0.00  0.00    +0.001 A 
ATOM      7  S   UNL     1       0.930   6.172  -3.220  0.00  0.00    -0.084 S 
ATOM      8  C   UNL     1       2.651   6.566  -3.541  0.00  0.00    +0.043 A 
ATOM      9  C   UNL     1       3.235   7.353  -2.560  0.00  0.00    +0.008 A 
ATOM     10  C   UNL     1       4.553   7.734  -2.764  0.00  0.00    +0.001 A 
ATOM     11  C   UNL     1       5.197   7.339  -3.930  0.00  0.00    +0.001 A 
ATOM     12  C   UNL     1       4.350   7.164  -5.019  0.00  0.00    +0.015 A 
ATOM     13  C   UNL     1       0.249   5.623  -7.073  0.00  0.00    +0.015 A 
ATOM     14  C   UNL     1       3.033   6.747  -4.849  0.00  0.00    +0.058 A 
ENDROOT
BRANCH   1  15
ATOM     15  C   UNL     1       2.869   6.524  -7.265  0.00  0.00    +0.111 C 
BRANCH  15  17
ATOM     16  C   UNL     1       4.916   5.421  -7.894  0.00  0.00    +0.019 C 
ATOM     17  C   UNL     1       3.300   5.005  -7.803  0.00  0.00    +0.078 C 
BRANCH  17  18
ATOM     18  N   UNL     1       3.072   5.443  -9.327  0.00  0.00    -0.270 NA
ATOM     19  C   UNL     1       4.265   4.988 -10.011  0.00  0.00    +0.090 C 
ATOM     20  C   UNL     1       3.025   6.898  -9.248  0.00  0.00    +0.090 C 
ENDBRANCH  17  18
ENDBRANCH  15  17
ENDBRANCH   1  15
TORSDOF 3
ENDMDL
MODEL 3
REMARK VINA RESULT:      -7.3      2.449      5.345
REMARK  Name = 
REMARK  3 active torsions:
REMARK  status: ('A' for Active; 'I' for Inactive)
REMARK    1  A    between atoms: C_2  and  C_3
REMARK    2  A    between atoms: C_2  and  N_18
REMARK    3  A    between atoms: C_3  and  N_4
REMARK                            x       y       z     vdW  Elec       q    Type
REMARK                         _______ _______ _______ _____ _____    ______ ____
ROOT
ATOM      1  N   UNL     1       2.316   5.856  -6.244  0.00  0.00    -0.285 N 
ATOM      2  C   UNL     1       0.903   5.892  -6.206  0.00  0.00    +0.058 A 
ATOM      3  C   UNL     1       0.132   5.448  -7.248  0.00  0.00    +0.043 A 
ATOM      4  C   UNL     1      -1.222   5.390  -7.093  0.00  0.00    +0.008 A 
ATOM      5  C   UNL     1      -1.827   5.665  -5.893  0.00  0.00    +0.001 A 
ATOM      6  C   UNL     1      -1.082   6.131  -4.830  0.00  0.00    +0.001 A 
ATOM      7  S   UNL     1       0.768   5.797  -8.888  0.00  0.00    -0.084 S 
ATOM      8  C   UNL     1       2.552   5.741  -8.705  0.00  0.00    +0.043 A 
ATOM      9  C   UNL     1       3.200   5.109  -9.757  0.00  0.00    +0.008 A 
ATOM     10  C   UNL     1       4.579   4.989  -9.662  0.00  0.00    +0.001 A 
ATOM     11  C   UNL     1       5.222   5.472  -8.529  0.00  0.00    +0.001 A 
ATOM     12  C   UNL     1       4.444   5.449  -7.377  0.00  0.00    +0.015 A 
ATOM     13  C   UNL     1       0.294   6.101  -4.976  0.00  0.00    +0.015 A 
ATOM     14  C   UNL     1       3.062   5.604  -7.436  0.00  0.00    +0.058 A 
ENDROOT
BRANCH   1  15
ATOM     15  C   UNL     1       3.046   5.726  -5.008  0.00  0.00    +0.111 C 
BRANCH  15  17
ATOM     16  C   UNL     1       5.101   6.668  -4.177  0.00  0.00    +0.019 C 
ATOM     17  C   UNL     1       3.622   7.258  -4.683  0.00  0.00    +0.078 C 
BRANCH  17  18
ATOM     18  N   UNL     1       3.053   7.192  -3.188  0.00  0.00    -0.270 NA
ATOM     19  C   UNL     1       3.858   8.148  -2.457  0.00  0.00    +0.090 C 
ATOM     20  C   UNL     1       3.350   5.824  -2.782  0.00  0.00    +0.090 C 
ENDBRANCH  17  18
ENDBRANCH  15  17
ENDBRANCH   1  15
TORSDOF 3
ENDMDL
MODEL 4
REMARK VINA RESULT:      -7.2      2.725      5.788
REMARK  Name = 
REMARK  3 active torsions:
REMARK  status: ('A' for Active; 'I' for Inactive)
REMARK    1  A    between atoms: C_2  and  C_3
REMARK    2  A    between atoms: C_2  and  N_18
REMARK    3  A    between atoms: C_3  and  N_4
REMARK                            x       y       z     vdW  Elec       q    Type
REMARK                         _______ _______ _______ _____ _____    ______ ____
ROOT
ATOM      1  N   UNL     1       1.789   6.466  -6.052  0.00  0.00    -0.285 N 
ATOM      2  C   UNL     1       0.376   6.440  -6.076  0.00  0.00    +0.058 A 
ATOM      3  C   UNL     1      -0.327   5.610  -6.911  0.00  0.00    +0.043 A 
ATOM      4  C   UNL     1      -1.683   5.543  -6.790  0.00  0.00    +0.008 A 
ATOM      5  C   UNL     1      -2.356   6.201  -5.792  0.00  0.00    +0.001 A 
ATOM      6  C   UNL     1      -1.682   7.057  -4.947  0.00  0.00    +0.001 A 
ATOM      7  S   UNL     1       0.377   5.376  -8.543  0.00  0.00    -0.084 S 
ATOM      8  C   UNL     1       2.151   5.482  -8.294  0.00  0.00    +0.043 A 
ATOM      9  C   UNL     1       2.872   4.547  -9.022  0.00  0.00    +0.008 A 
ATOM     10  C   UNL     1       4.248   4.541  -8.845  0.00  0.00    +0.001 A 
ATOM     11  C   UNL     1       4.817   5.433  -7.944  0.00  0.00    +0.001 A 
ATOM     12  C   UNL     1       3.984   5.787  -6.888  0.00  0.00    +0.015 A 
ATOM     13  C   UNL     1      -0.301   7.048  -5.027  0.00  0.00    +0.015 A 
ATOM     14  C   UNL     1       2.602   5.839  -7.046  0.00  0.00    +0.058 A 
ENDROOT
BRANCH   1  15
ATOM     15  C   UNL     1       2.461   6.830  -4.829  0.00  0.00    +0.111 C 
BRANCH  15  17
ATOM     16  C   UNL     1       1.883   6.209  -2.575  0.00  0.00    +0.019 C 
ATOM     17  C   UNL     1       2.492   5.430  -3.921  0.00  0.00    +0.078 C 
BRANCH  17  18
ATOM     18  N   UNL     1       3.994   5.730  -3.450  0.00  0.00    -0.270 NA
ATOM     19  C   UNL     1       4.093   5.096  -2.152  0.00  0.00    +0.090 C 
ATOM     20  C   UNL     1       4.021   7.182  -3.338  0.00  0.00    +0.090 C 
ENDBRANCH  17  18
ENDBRANCH  15  17
ENDBRANCH   1  15
TORSDOF 3
ENDMDL
MODEL 5
REMARK VINA RESULT:      -7.1      0.563      4.196
REMARK  Name = 
REMARK  3 active torsions:
REMARK  status: ('A' for Active; 'I' for Inactive)
REMARK    1  A    between atoms: C_2  and  C_3
REMARK    2  A    between atoms: C_2  and  N_18
REMARK    3  A    between atoms: C_3  and  N_4
REMARK                            x       y       z     vdW  Elec       q    Type
REMARK                         _______ _______ _______ _____ _____    ______ ____
ROOT
ATOM      1  N   UNL     1       3.570   5.592  -9.042  0.00  0.00    -0.285 N 
ATOM      2  C   UNL     1       2.363   5.623  -9.780  0.00  0.00    +0.058 A 
ATOM      3  C   UNL     1       2.334   5.463 -11.141  0.00  0.00    +0.043 A 
ATOM      4  C   UNL     1       1.128   5.374 -11.771  0.00  0.00    +0.008 A 
ATOM      5  C   UNL     1      -0.054   5.336 -11.075  0.00  0.00    +0.001 A 
ATOM      6  C   UNL     1      -0.060   5.513  -9.707  0.00  0.00    +0.001 A 
ATOM      7  S   UNL     1       3.690   6.216 -12.040  0.00  0.00    -0.084 S 
ATOM      8  C   UNL     1       5.092   6.107 -10.925  0.00  0.00    +0.043 A 
ATOM      9  C   UNL     1       6.279   5.761 -11.554  0.00  0.00    +0.008 A 
ATOM     10  C   UNL     1       7.397   5.615 -10.747  0.00  0.00    +0.001 A 
ATOM     11  C   UNL     1       7.266   5.791  -9.374  0.00  0.00    +0.001 A 
ATOM     12  C   UNL     1       6.006   5.477  -8.876  0.00  0.00    +0.015 A 
ATOM     13  C   UNL     1       1.171   5.515  -9.077  0.00  0.00    +0.015 A 
ATOM     14  C   UNL     1       4.861   5.649  -9.650  0.00  0.00    +0.058 A 
ENDROOT
BRANCH   1  15
ATOM     15  C   UNL     1       3.539   5.148  -7.671  0.00  0.00    +0.111 C 
BRANCH  15  17
ATOM     16  C   UNL     1       4.541   6.032  -5.667  0.00  0.00    +0.019 C 
ATOM     17  C   UNL     1       3.392   6.543  -6.768  0.00  0.00    +0.078 C 
BRANCH  17  18
ATOM     18  N   UNL     1       2.221   5.892  -5.891  0.00  0.00    -0.270 NA
ATOM     19  C   UNL     1       2.231   6.655  -4.660  0.00  0.00    +0.090 C 
ATOM     20  C   UNL     1       2.688   4.529  -5.677  0.00  0.00    +0.090 C 
ENDBRANCH  17  18
ENDBRANCH  15  17
ENDBRANCH   1  15
TORSDOF 3
ENDMDL
MODEL 6
REMARK VINA RESULT:      -7.1      2.973      6.813
REMARK  Name = 
REMARK  3 active torsions:
REMARK  status: ('A' for Active; 'I' for Inactive)
REMARK    1  A    between atoms: C_2  and  C_3
REMARK    2  A    between atoms: C_2  and  N_18
REMARK    3  A    between atoms: C_3  and  N_4
REMARK                            x       y       z     vdW  Elec       q    Type
REMARK                         _______ _______ _______ _____ _____    ______ ____
ROOT
ATOM      1  N   UNL     1       1.197   5.471  -6.729  0.00  0.00    -0.285 N 
ATOM      2  C   UNL     1      -0.078   5.798  -6.211  0.00  0.00    +0.058 A 
ATOM      3  C   UNL     1      -0.246   6.708  -5.201  0.00  0.00    +0.043 A 
ATOM      4  C   UNL     1      -1.510   7.071  -4.840  0.00  0.00    +0.008 A 
ATOM      5  C   UNL     1      -2.615   6.631  -5.523  0.00  0.00    +0.001 A 
ATOM      6  C   UNL     1      -2.482   5.700  -6.532  0.00  0.00    +0.001 A 
ATOM      7  S   UNL     1       1.013   6.693  -3.925  0.00  0.00    -0.084 S 
ATOM      8  C   UNL     1       2.521   6.225  -4.779  0.00  0.00    +0.043 A 
ATOM      9  C   UNL     1       3.637   6.940  -4.370  0.00  0.00    +0.008 A 
ATOM     10  C   UNL     1       4.831   6.663  -5.019  0.00  0.00    +0.001 A 
ATOM     11  C   UNL     1       4.841   5.722  -6.042  0.00  0.00    +0.001 A 
ATOM     12  C   UNL     1       3.637   5.616  -6.731  0.00  0.00    +0.015 A 
ATOM     13  C   UNL     1      -1.193   5.410  -6.942  0.00  0.00    +0.015 A 
ATOM     14  C   UNL     1       2.420   5.852  -6.097  0.00  0.00    +0.058 A 
ENDROOT
BRANCH   1  15
ATOM     15  C   UNL     1       1.305   5.044  -8.101  0.00  0.00    +0.111 C 
BRANCH  15  17
ATOM     16  C   UNL     1       0.223   6.140  -9.954  0.00  0.00    +0.019 C 
ATOM     17  C   UNL     1       1.541   6.446  -8.973  0.00  0.00    +0.078 C 
BRANCH  17  18
ATOM     18  N   UNL     1       2.513   5.687  -9.995  0.00  0.00    -0.270 NA
ATOM     19  C   UNL     1       3.601   6.618 -10.212  0.00  0.00    +0.090 C 
ATOM     20  C   UNL     1       1.690   5.542 -11.188  0.00  0.00    +0.090 C 
ENDBRANCH  17  18
ENDBRANCH  15  17
ENDBRANCH   1  15
TORSDOF 3
ENDMDL
MODEL 7
REMARK VINA RESULT:      -7.0      3.934      6.848
REMARK  Name = 
REMARK  3 active torsions:
REMARK  status: ('A' for Active; 'I' for Inactive)
REMARK    1  A    between atoms: C_2  and  C_3
REMARK    2  A    between atoms: C_2  and  N_18
REMARK    3  A    between atoms: C_3  and  N_4
REMARK                            x       y       z     vdW  Elec       q    Type
REMARK                         _______ _______ _______ _____ _____    ______ ____
ROOT
ATOM      1  N   UNL     1       1.197   5.988  -4.409  0.00  0.00    -0.285 N 
ATOM      2  C   UNL     1       0.701   5.902  -5.731  0.00  0.00    +0.058 A 
ATOM      3  C   UNL     1       1.521   5.976  -6.826  0.00  0.00    +0.043 A 
ATOM      4  C   UNL     1       0.994   5.756  -8.064  0.00  0.00    +0.008 A 
ATOM      5  C   UNL     1      -0.309   5.363  -8.239  0.00  0.00    +0.001 A 
ATOM      6  C   UNL     1      -1.165   5.297  -7.160  0.00  0.00    +0.001 A 
ATOM      7  S   UNL     1       2.888   7.128  -6.695  0.00  0.00    -0.084 S 
ATOM      8  C   UNL     1       3.332   7.113  -4.956  0.00  0.00    +0.043 A 
ATOM      9  C   UNL     1       4.701   7.125  -4.731  0.00  0.00    +0.008 A 
ATOM     10  C   UNL     1       5.119   7.070  -3.409  0.00  0.00    +0.001 A 
ATOM     11  C   UNL     1       4.164   6.977  -2.403  0.00  0.00    +0.001 A 
ATOM     12  C   UNL     1       2.991   6.337  -2.786  0.00  0.00    +0.015 A 
ATOM     13  C   UNL     1      -0.596   5.438  -5.907  0.00  0.00    +0.015 A 
ATOM     14  C   UNL     1       2.526   6.406  -4.096  0.00  0.00    +0.058 A 
ENDROOT
BRANCH   1  15
ATOM     15  C   UNL     1       0.483   5.318  -3.351  0.00  0.00    +0.111 C 
BRANCH  15  17
ATOM     16  C   UNL     1      -0.016   6.513  -1.320  0.00  0.00    +0.019 C 
ATOM     17  C   UNL     1      -0.675   6.409  -2.852  0.00  0.00    +0.078 C 
BRANCH  17  18
ATOM     18  N   UNL     1      -1.643   5.221  -2.386  0.00  0.00    -0.270 NA
ATOM     19  C   UNL     1      -2.797   5.340  -3.252  0.00  0.00    +0.090 C 
ATOM     20  C   UNL     1      -1.968   5.581  -1.011  0.00  0.00    +0.090 C 
ENDBRANCH  17  18
ENDBRANCH  15  17
ENDBRANCH   1  15
TORSDOF 3
ENDMDL
MODEL 8
REMARK VINA RESULT:      -7.0      2.265      4.685
REMARK  Name = 
REMARK  3 active torsions:
REMARK  status: ('A' for Active; 'I' for Inactive)
REMARK    1  A    between atoms: C_2  and  C_3
REMARK    2  A    between atoms: C_2  and  N_18
REMARK    3  A    between atoms: C_3  and  N_4
REMARK                            x       y       z     vdW  Elec       q    Type
REMARK                         _______ _______ _______ _____ _____    ______ ____
ROOT
ATOM      1  N   UNL     1       1.941   5.682  -9.123  0.00  0.00    -0.285 N 
ATOM      2  C   UNL     1       3.354   5.712  -9.092  0.00  0.00    +0.058 A 
ATOM      3  C   UNL     1       4.069   5.363  -7.976  0.00  0.00    +0.043 A 
ATOM      4  C   UNL     1       5.428   5.290  -8.056  0.00  0.00    +0.008 A 
ATOM      5  C   UNL     1       6.095   5.454  -9.244  0.00  0.00    +0.001 A 
ATOM      6  C   UNL     1       5.407   5.822 -10.381  0.00  0.00    +0.001 A 
ATOM      7  S   UNL     1       3.353   5.860  -6.409  0.00  0.00    -0.084 S 
ATOM      8  C   UNL     1       1.580   5.791  -6.677  0.00  0.00    +0.043 A 
ATOM      9  C   UNL     1       0.876   5.258  -5.607  0.00  0.00    +0.008 A 
ATOM     10  C   UNL     1      -0.497   5.132  -5.760  0.00  0.00    +0.001 A 
ATOM     11  C   UNL     1      -1.080   5.511  -6.964  0.00  0.00    +0.001 A 
ATOM     12  C   UNL     1      -0.244   5.382  -8.068  0.00  0.00    +0.015 A 
ATOM     13  C   UNL     1       4.026   5.808 -10.303  0.00  0.00    +0.015 A 
ATOM     14  C   UNL     1       1.134   5.540  -7.952  0.00  0.00    +0.058 A 
ENDROOT
BRANCH   1  15
ATOM     15  C   UNL     1       1.274   5.442 -10.378  0.00  0.00    +0.111 C 
BRANCH  15  17
ATOM     16  C   UNL     1      -0.597   6.670 -11.269  0.00  0.00    +0.019 C 
ATOM     17  C   UNL     1       1.033   6.956 -11.036  0.00  0.00    +0.078 C 
BRANCH  17  18
ATOM     18  N   UNL     1       1.367   6.408 -12.504  0.00  0.00    -0.270 NA
ATOM     19  C   UNL     1       0.671   7.317 -13.390  0.00  0.00    +0.090 C 
ATOM     20  C   UNL     1       0.755   5.085 -12.509  0.00  0.00    +0.090 C 
ENDBRANCH  17  18
ENDBRANCH  15  17
ENDBRANCH   1  15
TORSDOF 3
ENDMDL
MODEL 9
REMARK VINA RESULT:      -7.0      2.421      3.831
REMARK  Name = 
REMARK  3 active torsions:
REMARK  status: ('A' for Active; 'I' for Inactive)
REMARK    1  A    between atoms: C_2  and  C_3
REMARK    2  A    between atoms: C_2  and  N_18
REMARK    3  A    between atoms: C_3  and  N_4
REMARK                            x       y       z     vdW  Elec       q    Type
REMARK                         _______ _______ _______ _____ _____    ______ ____
ROOT
ATOM      1  N   UNL     1       2.728   5.363  -6.155  0.00  0.00    -0.285 N 
ATOM      2  C   UNL     1       3.391   5.419  -7.402  0.00  0.00    +0.058 A 
ATOM      3  C   UNL     1       2.763   5.833  -8.547  0.00  0.00    +0.043 A 
ATOM      4  C   UNL     1       3.495   5.987  -9.687  0.00  0.00    +0.008 A 
ATOM      5  C   UNL     1       4.859   5.838  -9.698  0.00  0.00    +0.001 A 
ATOM      6  C   UNL     1       5.520   5.404  -8.568  0.00  0.00    +0.001 A 
ATOM      7  S   UNL     1       1.051   5.328  -8.719  0.00  0.00    -0.084 S 
ATOM      8  C   UNL     1       0.418   5.286  -7.040  0.00  0.00    +0.043 A 
ATOM      9  C   UNL     1      -0.865   5.798  -6.916  0.00  0.00    +0.008 A 
ATOM     10  C   UNL     1      -1.403   5.838  -5.638  0.00  0.00    +0.001 A 
ATOM     11  C   UNL     1      -0.633   5.399  -4.567  0.00  0.00    +0.001 A 
ATOM     12  C   UNL     1       0.737   5.554  -4.748  0.00  0.00    +0.015 A 
ATOM     13  C   UNL     1       4.777   5.337  -7.402  0.00  0.00    +0.015 A 
ATOM     14  C   UNL     1       1.311   5.481  -6.014  0.00  0.00    +0.058 A 
ENDROOT
BRANCH   1  15
ATOM     15  C   UNL     1       3.495   5.536  -4.947  0.00  0.00    +0.111 C 
BRANCH  15  17
ATOM     16  C   UNL     1       5.227   7.133  -4.443  0.00  0.00    +0.019 C 
ATOM     17  C   UNL     1       3.580   7.187  -4.721  0.00  0.00    +0.078 C 
BRANCH  17  18
ATOM     18  N   UNL     1       3.282   7.023  -3.156  0.00  0.00    -0.270 NA
ATOM     19  C   UNL     1       3.925   8.169  -2.549  0.00  0.00    +0.090 C 
ATOM     20  C   UNL     1       3.969   5.783  -2.818  0.00  0.00    +0.090 C 
ENDBRANCH  17  18
ENDBRANCH  15  17
ENDBRANCH   1  15
TORSDOF 3
ENDMDL
