MODEL 1
REMARK VINA RESULT:      -9.6      0.000      0.000
REMARK  Name = 
REMARK  4 active torsions:
REMARK  status: ('A' for Active; 'I' for Inactive)
REMARK    1  A    between atoms: S_2  and  C_5
REMARK    2  A    between atoms: C_10  and  C_11
REMARK    3  A    between atoms: C_16  and  C_17
REMARK    4  A    between atoms: C_17  and  C_18
REMARK                            x       y       z     vdW  Elec       q    Type
REMARK                         _______ _______ _______ _____ _____    ______ ____
ROOT
ATOM      1  C   UNL     1       5.289   6.390 -10.787  0.00  0.00    +0.130 A 
ATOM      2  C   UNL     1       6.058   5.779  -9.807  0.00  0.00    +0.091 A 
ATOM      3  C   UNL     1       5.484   5.266  -8.649  0.00  0.00    +0.023 A 
ATOM      4  C   UNL     1       4.133   5.481  -8.434  0.00  0.00    +0.086 A 
ATOM      5  N   UNL     1       3.382   4.650  -7.534  0.00  0.00    -0.218 NA
ATOM      6  C   UNL     1       1.830   4.953  -7.618  0.00  0.00    +0.193 C 
ATOM      7  N   UNL     1       2.007   6.373  -6.931  0.00  0.00    -0.057 NA
ATOM      8  S   UNL     1       2.201   7.309  -8.391  0.00  0.00    +0.080 S 
ATOM      9  O   UNL     1       2.507   8.737  -8.158  0.00  0.00    -0.152 OA
ATOM     10  O   UNL     1       0.957   7.093  -9.183  0.00  0.00    -0.152 OA
ATOM     11  C   UNL     1       3.509   6.458  -9.206  0.00  0.00    +0.140 A 
ATOM     12  C   UNL     1       4.014   6.802 -10.423  0.00  0.00    +0.041 A 
ENDROOT
BRANCH   1  14
ATOM     13  N   UNL     1       4.766   6.374 -13.077  0.00  0.00    +0.039 NA
ATOM     14  S   UNL     1       5.775   6.198 -12.430  0.00  0.00    +0.094 S 
ATOM     15  O   UNL     1       6.594   7.292 -12.978  0.00  0.00    -0.150 OA
ATOM     16  O   UNL     1       6.169   4.835 -12.813  0.00  0.00    -0.150 OA
ENDBRANCH   1  14
BRANCH   2  17
ATOM     17  C   UNL     1       7.527   5.885  -9.914  0.00  0.00    +0.420 C 
ATOM     18  F   UNL     1       8.062   4.951 -10.796  0.00  0.00    -0.166 F 
ATOM     19  F   UNL     1       7.984   7.145 -10.161  0.00  0.00    -0.166 F 
ATOM     20  F   UNL     1       8.041   5.527  -8.669  0.00  0.00    -0.166 F 
ENDBRANCH   2  17
BRANCH   6  21
ATOM     21  C   UNL     1       1.530   4.197  -6.183  0.00  0.00    +0.068 C 
BRANCH  21  22
ATOM     22  C   UNL     1       0.251   4.816  -5.758  0.00  0.00    -0.019 A 
ATOM     23  C   UNL     1      -0.860   4.904  -6.573  0.00  0.00    -0.004 A 
ATOM     24  C   UNL     1      -1.875   5.802  -6.343  0.00  0.00    -0.000 A 
ATOM     25  C   UNL     1      -1.705   6.652  -5.267  0.00  0.00    -0.000 A 
ATOM     26  C   UNL     1      -0.943   6.175  -4.207  0.00  0.00    -0.000 A 
ATOM     27  C   UNL     1       0.067   5.254  -4.457  0.00  0.00    -0.004 A 
ENDBRANCH  21  22
ENDBRANCH   6  21
TORSDOF 4
ENDMDL
MODEL 2
REMARK VINA RESULT:      -9.2      5.367      8.777
REMARK  Name = 
REMARK  4 active torsions:
REMARK  status: ('A' for Active; 'I' for Inactive)
REMARK    1  A    between atoms: S_2  and  C_5
REMARK    2  A    between atoms: C_10  and  C_11
REMARK    3  A    between atoms: C_16  and  C_17
REMARK    4  A    between atoms: C_17  and  C_18
REMARK                            x       y       z     vdW  Elec       q    Type
REMARK                         _______ _______ _______ _____ _____    ______ ____
ROOT
ATOM      1  C   UNL     1      -0.029   6.412  -3.132  0.00  0.00    +0.130 A 
ATOM      2  C   UNL     1      -0.824   7.119  -4.022  0.00  0.00    +0.091 A 
ATOM      3  C   UNL     1      -0.439   7.307  -5.345  0.00  0.00    +0.023 A 
ATOM      4  C   UNL     1       0.816   6.873  -5.734  0.00  0.00    +0.086 A 
ATOM      5  N   UNL     1       1.124   6.625  -7.116  0.00  0.00    -0.218 NA
ATOM      6  C   UNL     1       2.540   5.938  -7.285  0.00  0.00    +0.193 C 
ATOM      7  N   UNL     1       3.303   7.260  -6.849  0.00  0.00    -0.057 NA
ATOM      8  S   UNL     1       3.410   6.909  -5.143  0.00  0.00    +0.080 S 
ATOM      9  O   UNL     1       3.993   8.003  -4.336  0.00  0.00    -0.152 OA
ATOM     10  O   UNL     1       4.166   5.629  -5.037  0.00  0.00    -0.152 OA
ATOM     11  C   UNL     1       1.732   6.577  -4.727  0.00  0.00    +0.140 A 
ATOM     12  C   UNL     1       1.301   6.222  -3.485  0.00  0.00    +0.041 A 
ENDROOT
BRANCH   1  14
ATOM     13  N   UNL     1      -0.036   4.582  -1.658  0.00  0.00    +0.039 NA
ATOM     14  S   UNL     1      -0.817   5.472  -1.920  0.00  0.00    +0.094 S 
ATOM     15  O   UNL     1      -0.904   6.100  -0.591  0.00  0.00    -0.150 OA
ATOM     16  O   UNL     1      -2.005   4.734  -2.371  0.00  0.00    -0.150 OA
ENDBRANCH   1  14
BRANCH   2  17
ATOM     17  C   UNL     1      -1.979   7.861  -3.480  0.00  0.00    +0.420 C 
ATOM     18  F   UNL     1      -3.171   7.157  -3.615  0.00  0.00    -0.166 F 
ATOM     19  F   UNL     1      -1.801   8.333  -2.215  0.00  0.00    -0.166 F 
ATOM     20  F   UNL     1      -2.142   8.984  -4.289  0.00  0.00    -0.166 F 
ENDBRANCH   2  17
BRANCH   6  21
ATOM     21  C   UNL     1       2.615   6.317  -8.889  0.00  0.00    +0.068 C 
BRANCH  21  22
ATOM     22  C   UNL     1       4.007   5.944  -9.240  0.00  0.00    -0.019 A 
ATOM     23  C   UNL     1       4.706   4.934  -8.610  0.00  0.00    -0.004 A 
ATOM     24  C   UNL     1       6.078   4.853  -8.644  0.00  0.00    -0.000 A 
ATOM     25  C   UNL     1       6.732   5.869  -9.313  0.00  0.00    -0.000 A 
ATOM     26  C   UNL     1       6.043   6.477 -10.357  0.00  0.00    -0.000 A 
ATOM     27  C   UNL     1       4.655   6.533 -10.313  0.00  0.00    -0.004 A 
ENDBRANCH  21  22
ENDBRANCH   6  21
TORSDOF 4
ENDMDL
MODEL 3
REMARK VINA RESULT:      -8.4      4.777      8.058
REMARK  Name = 
REMARK  4 active torsions:
REMARK  status: ('A' for Active; 'I' for Inactive)
REMARK    1  A    between atoms: S_2  and  C_5
REMARK    2  A    between atoms: C_10  and  C_11
REMARK    3  A    between atoms: C_16  and  C_17
REMARK    4  A    between atoms: C_17  and  C_18
REMARK                            x       y       z     vdW  Elec       q    Type
REMARK                         _______ _______ _______ _____ _____    ______ ____
ROOT
ATOM      1  C   UNL     1       3.252   6.740  -2.699  0.00  0.00    +0.130 A 
ATOM      2  C   UNL     1       3.743   5.443  -2.672  0.00  0.00    +0.091 A 
ATOM      3  C   UNL     1       4.103   4.780  -3.841  0.00  0.00    +0.023 A 
ATOM      4  C   UNL     1       3.852   5.399  -5.053  0.00  0.00    +0.086 A 
ATOM      5  N   UNL     1       4.558   5.018  -6.244  0.00  0.00    -0.218 NA
ATOM      6  C   UNL     1       4.255   6.004  -7.445  0.00  0.00    +0.193 C 
ATOM      7  N   UNL     1       2.762   5.482  -7.579  0.00  0.00    -0.057 NA
ATOM      8  S   UNL     1       2.016   6.649  -6.518  0.00  0.00    +0.080 S 
ATOM      9  O   UNL     1       0.573   6.423  -6.288  0.00  0.00    -0.152 OA
ATOM     10  O   UNL     1       2.318   7.986  -7.105  0.00  0.00    -0.152 OA
ATOM     11  C   UNL     1       2.974   6.480  -5.050  0.00  0.00    +0.140 A 
ATOM     12  C   UNL     1       2.788   7.215  -3.918  0.00  0.00    +0.041 A 
ENDROOT
BRANCH   1  14
ATOM     13  N   UNL     1       3.660   8.895  -1.857  0.00  0.00    +0.039 NA
ATOM     14  S   UNL     1       3.652   7.780  -1.382  0.00  0.00    +0.094 S 
ATOM     15  O   UNL     1       2.589   7.964  -0.379  0.00  0.00    -0.150 OA
ATOM     16  O   UNL     1       5.020   7.640  -0.865  0.00  0.00    -0.150 OA
ENDBRANCH   1  14
BRANCH   2  17
ATOM     17  C   UNL     1       3.664   4.698  -1.400  0.00  0.00    +0.420 C 
ATOM     18  F   UNL     1       4.796   4.878  -0.610  0.00  0.00    -0.166 F 
ATOM     19  F   UNL     1       2.513   4.901  -0.701  0.00  0.00    -0.166 F 
ATOM     20  F   UNL     1       3.679   3.345  -1.732  0.00  0.00    -0.166 F 
ENDBRANCH   2  17
BRANCH   6  21
ATOM     21  C   UNL     1       4.824   4.935  -8.565  0.00  0.00    +0.068 C 
BRANCH  21  22
ATOM     22  C   UNL     1       5.643   5.803  -9.446  0.00  0.00    -0.019 A 
ATOM     23  C   UNL     1       5.106   6.764 -10.280  0.00  0.00    -0.004 A 
ATOM     24  C   UNL     1       5.792   7.273 -11.357  0.00  0.00    -0.000 A 
ATOM     25  C   UNL     1       7.044   6.737 -11.592  0.00  0.00    -0.000 A 
ATOM     26  C   UNL     1       7.738   6.261 -10.485  0.00  0.00    -0.000 A 
ATOM     27  C   UNL     1       7.027   5.767  -9.398  0.00  0.00    -0.004 A 
ENDBRANCH  21  22
ENDBRANCH   6  21
TORSDOF 4
ENDMDL
MODEL 4
REMARK VINA RESULT:      -8.0      5.732      8.341
REMARK  Name = 
REMARK  4 active torsions:
REMARK  status: ('A' for Active; 'I' for Inactive)
REMARK    1  A    between atoms: S_2  and  C_5
REMARK    2  A    between atoms: C_10  and  C_11
REMARK    3  A    between atoms: C_16  and  C_17
REMARK    4  A    between atoms: C_17  and  C_18
REMARK                            x       y       z     vdW  Elec       q    Type
REMARK                         _______ _______ _______ _____ _____    ______ ____
ROOT
ATOM      1  C   UNL     1      -0.226   6.469  -3.125  0.00  0.00    +0.130 A 
ATOM      2  C   UNL     1      -0.768   7.177  -4.189  0.00  0.00    +0.091 A 
ATOM      3  C   UNL     1      -0.060   7.362  -5.371  0.00  0.00    +0.023 A 
ATOM      4  C   UNL     1       1.252   6.925  -5.429  0.00  0.00    +0.086 A 
ATOM      5  N   UNL     1       1.899   6.675  -6.687  0.00  0.00    -0.218 NA
ATOM      6  C   UNL     1       3.310   5.985  -6.491  0.00  0.00    +0.193 C 
ATOM      7  N   UNL     1       3.941   7.305  -5.877  0.00  0.00    -0.057 NA
ATOM      8  S   UNL     1       3.611   6.956  -4.199  0.00  0.00    +0.080 S 
ATOM      9  O   UNL     1       3.974   8.050  -3.272  0.00  0.00    -0.152 OA
ATOM     10  O   UNL     1       4.312   5.674  -3.904  0.00  0.00    -0.152 OA
ATOM     11  C   UNL     1       1.881   6.629  -4.222  0.00  0.00    +0.140 A 
ATOM     12  C   UNL     1       1.149   6.276  -3.130  0.00  0.00    +0.041 A 
ENDROOT
BRANCH   1  14
ATOM     13  N   UNL     1      -0.595   4.692  -1.633  0.00  0.00    +0.039 NA
ATOM     14  S   UNL     1      -1.299   5.532  -2.152  0.00  0.00    +0.094 S 
ATOM     15  O   UNL     1      -1.794   6.200  -0.936  0.00  0.00    -0.150 OA
ATOM     16  O   UNL     1      -2.274   4.722  -2.894  0.00  0.00    -0.150 OA
ENDBRANCH   1  14
BRANCH   2  17
ATOM     17  C   UNL     1      -2.021   7.922  -3.958  0.00  0.00    +0.420 C 
ATOM     18  F   UNL     1      -3.146   7.200  -4.343  0.00  0.00    -0.166 F 
ATOM     19  F   UNL     1      -2.147   8.436  -2.702  0.00  0.00    -0.166 F 
ATOM     20  F   UNL     1      -1.995   9.017  -4.820  0.00  0.00    -0.166 F 
ENDBRANCH   2  17
BRANCH   6  21
ATOM     21  C   UNL     1       3.790   6.361  -8.024  0.00  0.00    +0.068 C 
BRANCH  21  22
ATOM     22  C   UNL     1       2.640   5.899  -8.839  0.00  0.00    -0.019 A 
ATOM     23  C   UNL     1       1.838   6.748  -9.574  0.00  0.00    -0.004 A 
ATOM     24  C   UNL     1       0.576   6.396  -9.990  0.00  0.00    -0.000 A 
ATOM     25  C   UNL     1       0.128   5.151  -9.592  0.00  0.00    -0.000 A 
ATOM     26  C   UNL     1       1.095   4.172  -9.396  0.00  0.00    -0.000 A 
ATOM     27  C   UNL     1       2.371   4.548  -8.993  0.00  0.00    -0.004 A 
ENDBRANCH  21  22
ENDBRANCH   6  21
TORSDOF 4
ENDMDL
MODEL 5
REMARK VINA RESULT:      -8.0      5.557      7.726
REMARK  Name = 
REMARK  4 active torsions:
REMARK  status: ('A' for Active; 'I' for Inactive)
REMARK    1  A    between atoms: S_2  and  C_5
REMARK    2  A    between atoms: C_10  and  C_11
REMARK    3  A    between atoms: C_16  and  C_17
REMARK    4  A    between atoms: C_17  and  C_18
REMARK                            x       y       z     vdW  Elec       q    Type
REMARK                         _______ _______ _______ _____ _____    ______ ____
ROOT
ATOM      1  C   UNL     1       2.108   6.036  -4.855  0.00  0.00    +0.130 A 
ATOM      2  C   UNL     1       0.834   5.731  -5.312  0.00  0.00    +0.091 A 
ATOM      3  C   UNL     1      -0.279   5.854  -4.488  0.00  0.00    +0.023 A 
ATOM      4  C   UNL     1      -0.081   6.178  -3.157  0.00  0.00    +0.086 A 
ATOM      5  N   UNL     1      -1.137   6.742  -2.362  0.00  0.00    -0.218 NA
ATOM      6  C   UNL     1      -0.612   7.220  -0.947  0.00  0.00    +0.193 C 
ATOM      7  N   UNL     1      -0.382   5.727  -0.458  0.00  0.00    -0.057 NA
ATOM      8  S   UNL     1       1.284   5.578  -0.953  0.00  0.00    +0.080 S 
ATOM      9  O   UNL     1       1.856   4.229  -0.753  0.00  0.00    -0.152 OA
ATOM     10  O   UNL     1       2.023   6.648  -0.224  0.00  0.00    -0.152 OA
ATOM     11  C   UNL     1       1.209   6.041  -2.650  0.00  0.00    +0.140 A 
ATOM     12  C   UNL     1       2.287   6.107  -3.480  0.00  0.00    +0.041 A 
ENDROOT
BRANCH   1  14
ATOM     13  N   UNL     1       4.008   7.345  -5.298  0.00  0.00    +0.039 NA
ATOM     14  S   UNL     1       3.224   6.721  -5.979  0.00  0.00    +0.094 S 
ATOM     15  O   UNL     1       4.162   5.768  -6.596  0.00  0.00    -0.150 OA
ATOM     16  O   UNL     1       2.670   7.755  -6.862  0.00  0.00    -0.150 OA
ENDBRANCH   1  14
BRANCH   2  17
ATOM     17  C   UNL     1       0.710   5.058  -6.620  0.00  0.00    +0.420 C 
ATOM     18  F   UNL     1       0.708   5.959  -7.680  0.00  0.00    -0.166 F 
ATOM     19  F   UNL     1       1.592   4.038  -6.814  0.00  0.00    -0.166 F 
ATOM     20  F   UNL     1      -0.558   4.480  -6.648  0.00  0.00    -0.166 F 
ENDBRANCH   2  17
BRANCH   6  21
ATOM     21  C   UNL     1      -2.136   7.287  -0.321  0.00  0.00    +0.068 C 
BRANCH  21  22
ATOM     22  C   UNL     1      -1.956   8.164   0.862  0.00  0.00    -0.019 A 
ATOM     23  C   UNL     1      -2.855   8.225   1.907  0.00  0.00    -0.004 A 
ATOM     24  C   UNL     1      -2.905   9.289   2.777  0.00  0.00    -0.000 A 
ATOM     25  C   UNL     1      -2.027  10.325   2.523  0.00  0.00    -0.000 A 
ATOM     26  C   UNL     1      -0.832   9.994   1.894  0.00  0.00    -0.000 A 
ATOM     27  C   UNL     1      -0.798   8.904   1.032  0.00  0.00    -0.004 A 
ENDBRANCH  21  22
ENDBRANCH   6  21
TORSDOF 4
ENDMDL
MODEL 6
REMARK VINA RESULT:      -8.0      3.530      4.942
REMARK  Name = 
REMARK  4 active torsions:
REMARK  status: ('A' for Active; 'I' for Inactive)
REMARK    1  A    between atoms: S_2  and  C_5
REMARK    2  A    between atoms: C_10  and  C_11
REMARK    3  A    between atoms: C_16  and  C_17
REMARK    4  A    between atoms: C_17  and  C_18
REMARK                            x       y       z     vdW  Elec       q    Type
REMARK                         _______ _______ _______ _____ _____    ______ ____
ROOT
ATOM      1  C   UNL     1       2.867   6.291  -7.378  0.00  0.00    +0.130 A 
ATOM      2  C   UNL     1       2.352   5.002  -7.361  0.00  0.00    +0.091 A 
ATOM      3  C   UNL     1       1.853   4.437  -6.193  0.00  0.00    +0.023 A 
ATOM      4  C   UNL     1       1.985   5.144  -5.010  0.00  0.00    +0.086 A 
ATOM      5  N   UNL     1       1.146   4.866  -3.878  0.00  0.00    -0.218 NA
ATOM      6  C   UNL     1       1.340   5.938  -2.729  0.00  0.00    +0.193 C 
ATOM      7  N   UNL     1       2.798   5.406  -2.394  0.00  0.00    -0.057 NA
ATOM      8  S   UNL     1       3.680   6.477  -3.451  0.00  0.00    +0.080 S 
ATOM      9  O   UNL     1       5.134   6.213  -3.504  0.00  0.00    -0.152 OA
ATOM     10  O   UNL     1       3.347   7.859  -3.003  0.00  0.00    -0.152 OA
ATOM     11  C   UNL     1       2.884   6.209  -4.999  0.00  0.00    +0.140 A 
ATOM     12  C   UNL     1       3.207   6.852  -6.155  0.00  0.00    +0.041 A 
ENDROOT
BRANCH   1  14
ATOM     13  N   UNL     1       2.651   8.382  -8.426  0.00  0.00    +0.039 NA
ATOM     14  S   UNL     1       2.636   7.232  -8.805  0.00  0.00    +0.094 S 
ATOM     15  O   UNL     1       3.786   7.277  -9.725  0.00  0.00    -0.150 OA
ATOM     16  O   UNL     1       1.309   7.115  -9.426  0.00  0.00    -0.150 OA
ENDBRANCH   1  14
BRANCH   2  17
ATOM     17  C   UNL     1       2.552   4.161  -8.558  0.00  0.00    +0.420 C 
ATOM     18  F   UNL     1       1.490   4.253  -9.453  0.00  0.00    -0.166 F 
ATOM     19  F   UNL     1       3.756   4.332  -9.171  0.00  0.00    -0.166 F 
ATOM     20  F   UNL     1       2.527   2.838  -8.120  0.00  0.00    -0.166 F 
ENDBRANCH   2  17
BRANCH   6  21
ATOM     21  C   UNL     1       0.629   4.967  -1.601  0.00  0.00    +0.068 C 
BRANCH  21  22
ATOM     22  C   UNL     1      -0.736   5.539  -1.504  0.00  0.00    -0.019 A 
ATOM     23  C   UNL     1      -1.811   5.071  -2.232  0.00  0.00    -0.004 A 
ATOM     24  C   UNL     1      -2.941   5.824  -2.447  0.00  0.00    -0.000 A 
ATOM     25  C   UNL     1      -2.929   7.104  -1.927  0.00  0.00    -0.000 A 
ATOM     26  C   UNL     1      -2.161   7.309  -0.787  0.00  0.00    -0.000 A 
ATOM     27  C   UNL     1      -1.032   6.526  -0.578  0.00  0.00    -0.004 A 
ENDBRANCH  21  22
ENDBRANCH   6  21
TORSDOF 4
ENDMDL
MODEL 7
REMARK VINA RESULT:      -7.7      8.217      9.730
REMARK  Name = 
REMARK  4 active torsions:
REMARK  status: ('A' for Active; 'I' for Inactive)
REMARK    1  A    between atoms: S_2  and  C_5
REMARK    2  A    between atoms: C_10  and  C_11
REMARK    3  A    between atoms: C_16  and  C_17
REMARK    4  A    between atoms: C_17  and  C_18
REMARK                            x       y       z     vdW  Elec       q    Type
REMARK                         _______ _______ _______ _____ _____    ______ ____
ROOT
ATOM      1  C   UNL     1       2.486   8.612   0.599  0.00  0.00    +0.130 A 
ATOM      2  C   UNL     1       2.851   7.430  -0.029  0.00  0.00    +0.091 A 
ATOM      3  C   UNL     1       1.898   6.575  -0.573  0.00  0.00    +0.023 A 
ATOM      4  C   UNL     1       0.560   6.869  -0.374  0.00  0.00    +0.086 A 
ATOM      5  N   UNL     1      -0.456   6.325  -1.232  0.00  0.00    -0.218 NA
ATOM      6  C   UNL     1      -1.873   6.969  -0.939  0.00  0.00    +0.193 C 
ATOM      7  N   UNL     1      -1.984   6.239   0.466  0.00  0.00    -0.057 NA
ATOM      8  S   UNL     1      -1.281   7.506   1.437  0.00  0.00    +0.080 S 
ATOM      9  O   UNL     1      -1.105   7.149   2.862  0.00  0.00    -0.152 OA
ATOM     10  O   UNL     1      -2.143   8.705   1.230  0.00  0.00    -0.152 OA
ATOM     11  C   UNL     1       0.249   7.797   0.615  0.00  0.00    +0.140 A 
ATOM     12  C   UNL     1       1.160   8.737   0.992  0.00  0.00    +0.041 A 
ENDROOT
BRANCH   1  14
ATOM     13  N   UNL     1       2.922  10.902   0.895  0.00  0.00    +0.039 NA
ATOM     14  S   UNL     1       3.547   9.964   0.449  0.00  0.00    +0.094 S 
ATOM     15  O   UNL     1       4.685   9.980   1.383  0.00  0.00    -0.150 OA
ATOM     16  O   UNL     1       3.827  10.392  -0.929  0.00  0.00    -0.150 OA
ENDBRANCH   1  14
BRANCH   2  17
ATOM     17  C   UNL     1       4.254   6.986   0.091  0.00  0.00    +0.420 C 
ATOM     18  F   UNL     1       5.088   7.615  -0.828  0.00  0.00    -0.166 F 
ATOM     19  F   UNL     1       4.753   7.037   1.357  0.00  0.00    -0.166 F 
ATOM     20  F   UNL     1       4.276   5.642  -0.278  0.00  0.00    -0.166 F 
ENDBRANCH   2  17
BRANCH   6  21
ATOM     21  C   UNL     1      -2.669   5.760  -1.731  0.00  0.00    +0.068 C 
BRANCH  21  22
ATOM     22  C   UNL     1      -2.604   6.208  -3.144  0.00  0.00    -0.019 A 
ATOM     23  C   UNL     1      -2.819   5.370  -4.219  0.00  0.00    -0.004 A 
ATOM     24  C   UNL     1      -2.378   5.667  -5.487  0.00  0.00    -0.000 A 
ATOM     25  C   UNL     1      -1.661   6.841  -5.624  0.00  0.00    -0.000 A 
ATOM     26  C   UNL     1      -1.961   7.865  -4.732  0.00  0.00    -0.000 A 
ATOM     27  C   UNL     1      -2.423   7.545  -3.461  0.00  0.00    -0.004 A 
ENDBRANCH  21  22
ENDBRANCH   6  21
TORSDOF 4
ENDMDL
MODEL 8
REMARK VINA RESULT:      -7.5      2.709      3.356
REMARK  Name = 
REMARK  4 active torsions:
REMARK  status: ('A' for Active; 'I' for Inactive)
REMARK    1  A    between atoms: S_2  and  C_5
REMARK    2  A    between atoms: C_10  and  C_11
REMARK    3  A    between atoms: C_16  and  C_17
REMARK    4  A    between atoms: C_17  and  C_18
REMARK                            x       y       z     vdW  Elec       q    Type
REMARK                         _______ _______ _______ _____ _____    ______ ____
ROOT
ATOM      1  C   UNL     1       5.507   6.215 -11.400  0.00  0.00    +0.130 A 
ATOM      2  C   UNL     1       4.555   6.157 -12.407  0.00  0.00    +0.091 A 
ATOM      3  C   UNL     1       3.201   6.027 -12.117  0.00  0.00    +0.023 A 
ATOM      4  C   UNL     1       2.825   5.837 -10.798  0.00  0.00    +0.086 A 
ATOM      5  N   UNL     1       1.489   6.126 -10.356  0.00  0.00    -0.218 NA
ATOM      6  C   UNL     1       1.362   6.034  -8.781  0.00  0.00    +0.193 C 
ATOM      7  N   UNL     1       1.537   4.456  -8.796  0.00  0.00    -0.057 NA
ATOM      8  S   UNL     1       3.270   4.417  -8.593  0.00  0.00    +0.080 S 
ATOM      9  O   UNL     1       3.856   3.061  -8.664  0.00  0.00    -0.152 OA
ATOM     10  O   UNL     1       3.546   5.113  -7.304  0.00  0.00    -0.152 OA
ATOM     11  C   UNL     1       3.819   5.465  -9.897  0.00  0.00    +0.140 A 
ATOM     12  C   UNL     1       5.123   5.775 -10.140  0.00  0.00    +0.041 A 
ENDROOT
BRANCH   1  14
ATOM     13  N   UNL     1       7.458   7.241 -10.587  0.00  0.00    +0.039 NA
ATOM     14  S   UNL     1       6.896   7.205 -11.659  0.00  0.00    +0.094 S 
ATOM     15  O   UNL     1       7.967   6.591 -12.462  0.00  0.00    -0.150 OA
ATOM     16  O   UNL     1       6.615   8.623 -11.923  0.00  0.00    -0.150 OA
ENDBRANCH   1  14
BRANCH   2  17
ATOM     17  C   UNL     1       5.026   6.010 -13.798  0.00  0.00    +0.420 C 
ATOM     18  F   UNL     1       5.466   7.214 -14.338  0.00  0.00    -0.166 F 
ATOM     19  F   UNL     1       5.927   5.005 -13.983  0.00  0.00    -0.166 F 
ATOM     20  F   UNL     1       3.910   5.670 -14.560  0.00  0.00    -0.166 F 
ENDBRANCH   2  17
BRANCH   6  21
ATOM     21  C   UNL     1      -0.283   5.942  -8.844  0.00  0.00    +0.068 C 
BRANCH  21  22
ATOM     22  C   UNL     1      -0.658   5.942  -7.409  0.00  0.00    -0.019 A 
ATOM     23  C   UNL     1      -1.797   5.336  -6.919  0.00  0.00    -0.004 A 
ATOM     24  C   UNL     1      -2.344   5.665  -5.701  0.00  0.00    -0.000 A 
ATOM     25  C   UNL     1      -1.711   6.675  -5.002  0.00  0.00    -0.000 A 
ATOM     26  C   UNL     1      -0.346   6.825  -5.217  0.00  0.00    -0.000 A 
ATOM     27  C   UNL     1       0.191   6.470  -6.449  0.00  0.00    -0.004 A 
ENDBRANCH  21  22
ENDBRANCH   6  21
TORSDOF 4
ENDMDL
MODEL 9
REMARK VINA RESULT:      -7.5      7.393      9.912
REMARK  Name = 
REMARK  4 active torsions:
REMARK  status: ('A' for Active; 'I' for Inactive)
REMARK    1  A    between atoms: S_2  and  C_5
REMARK    2  A    between atoms: C_10  and  C_11
REMARK    3  A    between atoms: C_16  and  C_17
REMARK    4  A    between atoms: C_17  and  C_18
REMARK                            x       y       z     vdW  Elec       q    Type
REMARK                         _______ _______ _______ _____ _____    ______ ____
ROOT
ATOM      1  C   UNL     1      -0.047   6.213  -3.290  0.00  0.00    +0.130 A 
ATOM      2  C   UNL     1      -0.831   6.303  -2.148  0.00  0.00    +0.091 A 
ATOM      3  C   UNL     1      -0.289   6.686  -0.927  0.00  0.00    +0.023 A 
ATOM      4  C   UNL     1       1.080   6.867  -0.841  0.00  0.00    +0.086 A 
ATOM      5  N   UNL     1       1.662   7.659   0.207  0.00  0.00    -0.218 NA
ATOM      6  C   UNL     1       3.211   7.892  -0.028  0.00  0.00    +0.193 C 
ATOM      7  N   UNL     1       3.549   6.370   0.271  0.00  0.00    -0.057 NA
ATOM      8  S   UNL     1       3.454   5.788  -1.372  0.00  0.00    +0.080 S 
ATOM      9  O   UNL     1       3.614   4.324  -1.505  0.00  0.00    -0.152 OA
ATOM     10  O   UNL     1       4.468   6.566  -2.139  0.00  0.00    -0.152 OA
ATOM     11  C   UNL     1       1.860   6.347  -1.871  0.00  0.00    +0.140 A 
ATOM     12  C   UNL     1       1.328   6.154  -3.110  0.00  0.00    +0.041 A 
ENDROOT
BRANCH   1  14
ATOM     13  N   UNL     1       0.153   6.891  -5.530  0.00  0.00    +0.039 NA
ATOM     14  S   UNL     1      -0.775   6.620  -4.800  0.00  0.00    +0.094 S 
ATOM     15  O   UNL     1      -1.338   5.487  -5.554  0.00  0.00    -0.150 OA
ATOM     16  O   UNL     1      -1.561   7.861  -4.804  0.00  0.00    -0.150 OA
ENDBRANCH   1  14
BRANCH   2  17
ATOM     17  C   UNL     1      -2.205   5.765  -2.208  0.00  0.00    +0.420 C 
ATOM     18  F   UNL     1      -3.151   6.756  -2.449  0.00  0.00    -0.166 F 
ATOM     19  F   UNL     1      -2.355   4.697  -3.040  0.00  0.00    -0.166 F 
ATOM     20  F   UNL     1      -2.502   5.299  -0.928  0.00  0.00    -0.166 F 
ENDBRANCH   2  17
BRANCH   6  21
ATOM     21  C   UNL     1       3.456   8.347   1.538  0.00  0.00    +0.068 C 
BRANCH  21  22
ATOM     22  C   UNL     1       3.504   9.826   1.436  0.00  0.00    -0.019 A 
ATOM     23  C   UNL     1       3.654  10.502   0.241  0.00  0.00    -0.004 A 
ATOM     24  C   UNL     1       4.092  11.804   0.179  0.00  0.00    -0.000 A 
ATOM     25  C   UNL     1       4.419  12.395   1.385  0.00  0.00    -0.000 A 
ATOM     26  C   UNL     1       3.740  11.941   2.509  0.00  0.00    -0.000 A 
ATOM     27  C   UNL     1       3.289  10.626   2.546  0.00  0.00    -0.004 A 
ENDBRANCH  21  22
ENDBRANCH   6  21
TORSDOF 4
ENDMDL
