MODEL 1
REMARK VINA RESULT:      -9.9      0.000      0.000
REMARK  Name = 
REMARK  13 active torsions:
REMARK  status: ('A' for Active; 'I' for Inactive)
REMARK    1  A    between atoms: C_2  and  O_3
REMARK    2  A    between atoms: O_3  and  C_4
REMARK    3  A    between atoms: C_10  and  C_11
REMARK    4  A    between atoms: C_11  and  O_13
REMARK    5  A    between atoms: O_13  and  C_14
REMARK    6  A    between atoms: C_14  and  O_16
REMARK    7  A    between atoms: O_16  and  C_17
REMARK    8  A    between atoms: C_17  and  O_19
REMARK    9  A    between atoms: O_19  and  C_20
REMARK   10  A    between atoms: N_27  and  C_28
REMARK   11  A    between atoms: C_28  and  C_29
REMARK   12  A    between atoms: C_32  and  C_33
REMARK   13  A    between atoms: C_38  and  C_39
REMARK                            x       y       z     vdW  Elec       q    Type
REMARK                         _______ _______ _______ _____ _____    ______ ____
ROOT
ATOM      1  C   UNL     1       0.445   5.581  -3.588  0.00  0.00    +0.301 A 
ATOM      2  N   UNL     1       1.365   5.686  -4.579  0.00  0.00    -0.277 N 
ATOM      3  C   UNL     1       0.675   5.770  -5.741  0.00  0.00    +0.088 A 
ATOM      4  C   UNL     1      -0.677   5.569  -5.490  0.00  0.00    +0.102 A 
ATOM      5  C   UNL     1      -1.477   5.299  -6.582  0.00  0.00    +0.021 A 
ATOM      6  C   UNL     1      -0.936   5.463  -7.850  0.00  0.00    +0.002 A 
ATOM      7  C   UNL     1       0.294   6.086  -8.020  0.00  0.00    +0.008 A 
ATOM      8  C   UNL     1       1.106   6.304  -6.926  0.00  0.00    +0.093 A 
ATOM      9  N   UNL     1      -0.782   5.498  -4.156  0.00  0.00    -0.194 NA
ENDROOT
BRANCH   8  10
ATOM     10  C   UNL     1       2.379   7.041  -6.981  0.00  0.00    +0.345 C 
ATOM     11  O   UNL     1       2.336   8.090  -7.707  0.00  0.00    -0.245 OA
BRANCH  10  12
ATOM     12  O   UNL     1       3.417   6.250  -7.467  0.00  0.00    -0.410 OA
BRANCH  12  13
ATOM     13  C   UNL     1       3.287   5.849  -8.969  0.00  0.00    +0.348 C 
ATOM     14  C   UNL     1       3.793   4.283  -8.722  0.00  0.00    +0.100 C 
BRANCH  13  15
ATOM     15  O   UNL     1       4.719   6.336  -9.375  0.00  0.00    -0.382 OA
BRANCH  15  16
ATOM     16  C   UNL     1       4.697   6.902 -10.653  0.00  0.00    +0.514 C 
ATOM     17  O   UNL     1       3.711   6.572 -11.373  0.00  0.00    -0.203 OA
BRANCH  16  18
ATOM     18  O   UNL     1       5.477   7.929 -11.116  0.00  0.00    -0.422 OA
BRANCH  18  19
ATOM     19  C   UNL     1       6.765   7.747 -11.717  0.00  0.00    +0.172 C 
ATOM     20  C   UNL     1       6.552   7.287 -13.125  0.00  0.00    +0.044 C 
ATOM     21  C   UNL     1       6.845   5.820 -13.290  0.00  0.00    +0.004 C 
ATOM     22  C   UNL     1       8.245   5.497 -12.852  0.00  0.00    +0.000 C 
ATOM     23  C   UNL     1       8.497   5.915 -11.442  0.00  0.00    +0.004 C 
ATOM     24  C   UNL     1       7.475   6.785 -10.831  0.00  0.00    +0.044 C 
ENDBRANCH  18  19
ENDBRANCH  16  18
ENDBRANCH  15  16
ENDBRANCH  13  15
ENDBRANCH  12  13
ENDBRANCH  10  12
ENDBRANCH   8  10
BRANCH   1  25
ATOM     25  O   UNL     1       0.784   5.980  -2.296  0.00  0.00    -0.448 OA
BRANCH  25  27
ATOM     26  C   UNL     1       0.919   4.764  -1.121  0.00  0.00    +0.051 C 
ATOM     27  C   UNL     1       0.580   5.135  -1.173  0.00  0.00    +0.209 C 
ENDBRANCH  25  27
ENDBRANCH   1  25
BRANCH   2  28
ATOM     28  C   UNL     1       2.737   5.187  -4.562  0.00  0.00    +0.137 C 
BRANCH  28  29
ATOM     29  C   UNL     1       3.518   5.979  -3.555  0.00  0.00    +0.001 A 
ATOM     30  C   UNL     1       3.322   7.340  -3.365  0.00  0.00    -0.002 A 
ATOM     31  C   UNL     1       3.861   7.956  -2.241  0.00  0.00    -0.000 A 
ATOM     32  C   UNL     1       3.788   7.214  -1.064  0.00  0.00    -0.001 A 
ATOM     33  C   UNL     1       4.192   5.896  -1.268  0.00  0.00    -0.000 A 
ATOM     34  C   UNL     1       4.238   5.346  -2.545  0.00  0.00    -0.002 A 
BRANCH  32  35
ATOM     35  C   UNL     1       4.202   7.779   0.229  0.00  0.00    -0.006 A 
ATOM     36  C   UNL     1       3.233   8.010   1.199  0.00  0.00    -0.015 A 
ATOM     37  C   UNL     1       3.568   7.911   2.546  0.00  0.00    -0.007 A 
ATOM     38  C   UNL     1       4.867   8.205   2.929  0.00  0.00    -0.001 A 
ATOM     39  C   UNL     1       5.855   8.047   1.982  0.00  0.00    -0.000 A 
ATOM     40  C   UNL     1       5.495   7.613   0.715  0.00  0.00    -0.001 A 
BRANCH  36  41
ATOM     41  C   UNL     1       1.913   8.490   0.767  0.00  0.00    +0.044 A 
ATOM     42  N   UNL     1       0.792   7.798   1.091  0.00  0.00    -0.289 NA
ATOM     43  N   UNL     1      -0.252   8.620   1.167  0.00  0.00    -0.218 NA
ATOM     44  N   UNL     1       0.188   9.842   0.945  0.00  0.00    -0.218 NA
ATOM     45  N   UNL     1       1.479   9.774   0.742  0.00  0.00    -0.289 NA
ENDBRANCH  36  41
ENDBRANCH  32  35
ENDBRANCH  28  29
ENDBRANCH   2  28
TORSDOF 13
ENDMDL
MODEL 2
REMARK VINA RESULT:      -9.9      3.982      7.681
REMARK  Name = 
REMARK  13 active torsions:
REMARK  status: ('A' for Active; 'I' for Inactive)
REMARK    1  A    between atoms: C_2  and  O_3
REMARK    2  A    between atoms: O_3  and  C_4
REMARK    3  A    between atoms: C_10  and  C_11
REMARK    4  A    between atoms: C_11  and  O_13
REMARK    5  A    between atoms: O_13  and  C_14
REMARK    6  A    between atoms: C_14  and  O_16
REMARK    7  A    between atoms: O_16  and  C_17
REMARK    8  A    between atoms: C_17  and  O_19
REMARK    9  A    between atoms: O_19  and  C_20
REMARK   10  A    between atoms: N_27  and  C_28
REMARK   11  A    between atoms: C_28  and  C_29
REMARK   12  A    between atoms: C_32  and  C_33
REMARK   13  A    between atoms: C_38  and  C_39
REMARK                            x       y       z     vdW  Elec       q    Type
REMARK                         _______ _______ _______ _____ _____    ______ ____
ROOT
ATOM      1  C   UNL     1       5.915   5.557  -8.820  0.00  0.00    +0.301 A 
ATOM      2  N   UNL     1       5.427   6.013 -10.000  0.00  0.00    -0.277 N 
ATOM      3  C   UNL     1       6.378   5.770 -10.934  0.00  0.00    +0.088 A 
ATOM      4  C   UNL     1       7.524   5.293 -10.310  0.00  0.00    +0.102 A 
ATOM      5  C   UNL     1       8.685   5.300 -11.057  0.00  0.00    +0.021 A 
ATOM      6  C   UNL     1       8.590   5.566 -12.416  0.00  0.00    +0.002 A 
ATOM      7  C   UNL     1       7.352   5.605 -13.046  0.00  0.00    +0.008 A 
ATOM      8  C   UNL     1       6.202   5.648 -12.287  0.00  0.00    +0.093 A 
ATOM      9  N   UNL     1       7.188   5.138  -9.022  0.00  0.00    -0.194 NA
ENDROOT
BRANCH   8  10
ATOM     10  C   UNL     1       4.842   5.593 -12.850  0.00  0.00    +0.345 C 
ATOM     11  O   UNL     1       4.580   4.501 -13.456  0.00  0.00    -0.245 OA
BRANCH  10  12
ATOM     12  O   UNL     1       4.611   6.628 -13.753  0.00  0.00    -0.410 OA
BRANCH  12  13
ATOM     13  C   UNL     1       4.229   6.167 -15.193  0.00  0.00    +0.348 C 
ATOM     14  C   UNL     1       5.457   7.018 -15.925  0.00  0.00    +0.100 C 
BRANCH  13  15
ATOM     15  O   UNL     1       3.181   7.305 -15.438  0.00  0.00    -0.382 OA
BRANCH  15  16
ATOM     16  C   UNL     1       1.882   6.798 -15.351  0.00  0.00    +0.514 C 
ATOM     17  O   UNL     1       1.181   6.927 -16.396  0.00  0.00    -0.203 OA
BRANCH  16  18
ATOM     18  O   UNL     1       1.374   5.989 -14.368  0.00  0.00    -0.422 OA
BRANCH  18  19
ATOM     19  C   UNL     1       1.304   6.358 -12.985  0.00  0.00    +0.172 C 
ATOM     20  C   UNL     1       1.011   5.121 -12.196  0.00  0.00    +0.044 C 
ATOM     21  C   UNL     1      -0.416   5.080 -11.720  0.00  0.00    +0.004 C 
ATOM     22  C   UNL     1      -0.748   6.299 -10.906  0.00  0.00    +0.000 C 
ATOM     23  C   UNL     1      -0.497   7.558 -11.663  0.00  0.00    +0.004 C 
ATOM     24  C   UNL     1       0.263   7.420 -12.920  0.00  0.00    +0.044 C 
ENDBRANCH  18  19
ENDBRANCH  16  18
ENDBRANCH  15  16
ENDBRANCH  13  15
ENDBRANCH  12  13
ENDBRANCH  10  12
ENDBRANCH   8  10
BRANCH   1  25
ATOM     25  O   UNL     1       5.028   5.198  -7.806  0.00  0.00    -0.448 OA
BRANCH  25  27
ATOM     26  C   UNL     1       4.848   5.651  -6.182  0.00  0.00    +0.051 C 
ATOM     27  C   UNL     1       4.942   5.930  -6.592  0.00  0.00    +0.209 C 
ENDBRANCH  25  27
ENDBRANCH   1  25
BRANCH   2  28
ATOM     28  C   UNL     1       4.449   7.081 -10.195  0.00  0.00    +0.137 C 
BRANCH  28  29
ATOM     29  C   UNL     1       3.117   6.600  -9.700  0.00  0.00    +0.001 A 
ATOM     30  C   UNL     1       2.876   5.268  -9.391  0.00  0.00    -0.002 A 
ATOM     31  C   UNL     1       1.729   4.931  -8.678  0.00  0.00    -0.000 A 
ATOM     32  C   UNL     1       1.384   5.812  -7.655  0.00  0.00    -0.001 A 
ATOM     33  C   UNL     1       1.448   7.136  -8.081  0.00  0.00    -0.000 A 
ATOM     34  C   UNL     1       2.163   7.493  -9.221  0.00  0.00    -0.002 A 
BRANCH  32  35
ATOM     35  C   UNL     1       0.273   5.525  -6.736  0.00  0.00    -0.006 A 
ATOM     36  C   UNL     1       0.351   5.989  -5.427  0.00  0.00    -0.015 A 
ATOM     37  C   UNL     1      -0.813   6.328  -4.746  0.00  0.00    -0.007 A 
ATOM     38  C   UNL     1      -1.987   5.665  -5.067  0.00  0.00    -0.001 A 
ATOM     39  C   UNL     1      -2.087   5.138  -6.335  0.00  0.00    -0.000 A 
ATOM     40  C   UNL     1      -1.017   5.296  -7.204  0.00  0.00    -0.001 A 
BRANCH  36  41
ATOM     41  C   UNL     1       1.659   5.971  -4.757  0.00  0.00    +0.044 A 
ATOM     42  N   UNL     1       2.197   7.119  -4.275  0.00  0.00    -0.289 NA
ATOM     43  N   UNL     1       2.995   6.857  -3.243  0.00  0.00    -0.218 NA
ATOM     44  N   UNL     1       2.942   5.559  -3.020  0.00  0.00    -0.218 NA
ATOM     45  N   UNL     1       2.122   5.034  -3.894  0.00  0.00    -0.289 NA
ENDBRANCH  36  41
ENDBRANCH  32  35
ENDBRANCH  28  29
ENDBRANCH   2  28
TORSDOF 13
ENDMDL
MODEL 3
REMARK VINA RESULT:      -9.7      3.454     10.422
REMARK  Name = 
REMARK  13 active torsions:
REMARK  status: ('A' for Active; 'I' for Inactive)
REMARK    1  A    between atoms: C_2  and  O_3
REMARK    2  A    between atoms: O_3  and  C_4
REMARK    3  A    between atoms: C_10  and  C_11
REMARK    4  A    between atoms: C_11  and  O_13
REMARK    5  A    between atoms: O_13  and  C_14
REMARK    6  A    between atoms: C_14  and  O_16
REMARK    7  A    between atoms: O_16  and  C_17
REMARK    8  A    between atoms: C_17  and  O_19
REMARK    9  A    between atoms: O_19  and  C_20
REMARK   10  A    between atoms: N_27  and  C_28
REMARK   11  A    between atoms: C_28  and  C_29
REMARK   12  A    between atoms: C_32  and  C_33
REMARK   13  A    between atoms: C_38  and  C_39
REMARK                            x       y       z     vdW  Elec       q    Type
REMARK                         _______ _______ _______ _____ _____    ______ ____
ROOT
ATOM      1  C   UNL     1       0.138   5.650  -7.754  0.00  0.00    +0.301 A 
ATOM      2  N   UNL     1       1.165   6.015  -6.947  0.00  0.00    -0.277 N 
ATOM      3  C   UNL     1       0.732   5.857  -5.673  0.00  0.00    +0.088 A 
ATOM      4  C   UNL     1      -0.619   5.531  -5.682  0.00  0.00    +0.102 A 
ATOM      5  C   UNL     1      -1.293   5.651  -4.485  0.00  0.00    +0.021 A 
ATOM      6  C   UNL     1      -0.552   5.867  -3.332  0.00  0.00    +0.002 A 
ATOM      7  C   UNL     1       0.832   5.749  -3.346  0.00  0.00    +0.008 A 
ATOM      8  C   UNL     1       1.498   5.680  -4.552  0.00  0.00    +0.093 A 
ATOM      9  N   UNL     1      -0.935   5.373  -6.975  0.00  0.00    -0.194 NA
ENDROOT
BRANCH   8  10
ATOM     10  C   UNL     1       2.947   5.455  -4.678  0.00  0.00    +0.345 C 
ATOM     11  O   UNL     1       3.257   4.264  -5.016  0.00  0.00    -0.245 OA
BRANCH  10  12
ATOM     12  O   UNL     1       3.623   5.732  -3.492  0.00  0.00    -0.410 OA
BRANCH  12  13
ATOM     13  C   UNL     1       4.007   7.230  -3.291  0.00  0.00    +0.348 C 
ATOM     14  C   UNL     1       5.489   7.078  -4.032  0.00  0.00    +0.100 C 
BRANCH  13  15
ATOM     15  O   UNL     1       4.609   7.037  -1.859  0.00  0.00    -0.382 OA
BRANCH  15  16
ATOM     16  C   UNL     1       3.590   6.818  -0.927  0.00  0.00    +0.514 C 
ATOM     17  O   UNL     1       3.877   6.017   0.009  0.00  0.00    -0.203 OA
BRANCH  16  18
ATOM     18  O   UNL     1       2.430   7.534  -0.787  0.00  0.00    -0.422 OA
BRANCH  18  19
ATOM     19  C   UNL     1       1.696   7.637   0.440  0.00  0.00    +0.172 C 
ATOM     20  C   UNL     1       0.408   6.894   0.265  0.00  0.00    +0.044 C 
ATOM     21  C   UNL     1      -0.761   7.825   0.094  0.00  0.00    +0.004 C 
ATOM     22  C   UNL     1      -0.869   8.775   1.253  0.00  0.00    +0.000 C 
ATOM     23  C   UNL     1       0.385   9.558   1.449  0.00  0.00    +0.004 C 
ATOM     24  C   UNL     1       1.563   9.098   0.690  0.00  0.00    +0.044 C 
ENDBRANCH  18  19
ENDBRANCH  16  18
ENDBRANCH  15  16
ENDBRANCH  13  15
ENDBRANCH  12  13
ENDBRANCH  10  12
ENDBRANCH   8  10
BRANCH   1  25
ATOM     25  O   UNL     1       0.410   5.220  -9.052  0.00  0.00    -0.448 OA
BRANCH  25  27
ATOM     26  C   UNL     1       0.077   5.756 -10.626  0.00  0.00    +0.051 C 
ATOM     27  C   UNL     1      -0.148   5.864 -10.188  0.00  0.00    +0.209 C 
ENDBRANCH  25  27
ENDBRANCH   1  25
BRANCH   2  28
ATOM     28  C   UNL     1       2.236   6.959  -7.257  0.00  0.00    +0.137 C 
BRANCH  28  29
ATOM     29  C   UNL     1       2.957   6.474  -8.480  0.00  0.00    +0.001 A 
ATOM     30  C   UNL     1       3.177   7.286  -9.584  0.00  0.00    -0.002 A 
ATOM     31  C   UNL     1       4.083   6.880 -10.559  0.00  0.00    -0.000 A 
ATOM     32  C   UNL     1       5.239   6.268 -10.078  0.00  0.00    -0.001 A 
ATOM     33  C   UNL     1       4.942   5.311  -9.110  0.00  0.00    -0.000 A 
ATOM     34  C   UNL     1       3.716   5.308  -8.451  0.00  0.00    -0.002 A 
BRANCH  32  35
ATOM     35  C   UNL     1       6.344   5.898 -10.975  0.00  0.00    -0.006 A 
ATOM     36  C   UNL     1       6.170   6.047 -12.346  0.00  0.00    -0.015 A 
ATOM     37  C   UNL     1       7.266   6.342 -13.151  0.00  0.00    -0.007 A 
ATOM     38  C   UNL     1       8.516   5.889 -12.762  0.00  0.00    -0.001 A 
ATOM     39  C   UNL     1       8.717   5.672 -11.416  0.00  0.00    -0.000 A 
ATOM     40  C   UNL     1       7.666   5.910 -10.542  0.00  0.00    -0.001 A 
BRANCH  36  41
ATOM     41  C   UNL     1       4.850   5.748 -12.919  0.00  0.00    +0.044 A 
ATOM     42  N   UNL     1       4.370   6.484 -13.952  0.00  0.00    -0.289 NA
ATOM     43  N   UNL     1       3.537   5.755 -14.691  0.00  0.00    -0.218 NA
ATOM     44  N   UNL     1       3.512   4.540 -14.178  0.00  0.00    -0.218 NA
ATOM     45  N   UNL     1       4.318   4.522 -13.148  0.00  0.00    -0.289 NA
ENDBRANCH  36  41
ENDBRANCH  32  35
ENDBRANCH  28  29
ENDBRANCH   2  28
TORSDOF 13
ENDMDL
MODEL 4
REMARK VINA RESULT:      -9.6      1.533      2.328
REMARK  Name = 
REMARK  13 active torsions:
REMARK  status: ('A' for Active; 'I' for Inactive)
REMARK    1  A    between atoms: C_2  and  O_3
REMARK    2  A    between atoms: O_3  and  C_4
REMARK    3  A    between atoms: C_10  and  C_11
REMARK    4  A    between atoms: C_11  and  O_13
REMARK    5  A    between atoms: O_13  and  C_14
REMARK    6  A    between atoms: C_14  and  O_16
REMARK    7  A    between atoms: O_16  and  C_17
REMARK    8  A    between atoms: C_17  and  O_19
REMARK    9  A    between atoms: O_19  and  C_20
REMARK   10  A    between atoms: N_27  and  C_28
REMARK   11  A    between atoms: C_28  and  C_29
REMARK   12  A    between atoms: C_32  and  C_33
REMARK   13  A    between atoms: C_38  and  C_39
REMARK                            x       y       z     vdW  Elec       q    Type
REMARK                         _______ _______ _______ _____ _____    ______ ____
ROOT
ATOM      1  C   UNL     1       0.322   5.639  -3.684  0.00  0.00    +0.301 A 
ATOM      2  N   UNL     1       1.324   5.547  -4.594  0.00  0.00    -0.277 N 
ATOM      3  C   UNL     1       0.747   5.624  -5.817  0.00  0.00    +0.088 A 
ATOM      4  C   UNL     1      -0.635   5.617  -5.675  0.00  0.00    +0.102 A 
ATOM      5  C   UNL     1      -1.374   5.365  -6.813  0.00  0.00    +0.021 A 
ATOM      6  C   UNL     1      -0.715   5.357  -8.035  0.00  0.00    +0.002 A 
ATOM      7  C   UNL     1       0.597   5.803  -8.136  0.00  0.00    +0.008 A 
ATOM      8  C   UNL     1       1.339   6.003  -6.992  0.00  0.00    +0.093 A 
ATOM      9  N   UNL     1      -0.855   5.667  -4.354  0.00  0.00    -0.194 NA
ENDROOT
BRANCH   8  10
ATOM     10  C   UNL     1       2.700   6.565  -6.983  0.00  0.00    +0.345 C 
ATOM     11  O   UNL     1       2.741   7.810  -6.705  0.00  0.00    -0.245 OA
BRANCH  10  12
ATOM     12  O   UNL     1       3.340   6.399  -8.208  0.00  0.00    -0.410 OA
BRANCH  12  13
ATOM     13  C   UNL     1       4.251   5.137  -8.306  0.00  0.00    +0.348 C 
ATOM     14  C   UNL     1       5.046   5.448  -6.878  0.00  0.00    +0.100 C 
BRANCH  13  15
ATOM     15  O   UNL     1       5.360   5.823  -9.171  0.00  0.00    -0.382 OA
BRANCH  15  16
ATOM     16  C   UNL     1       4.828   6.267 -10.385  0.00  0.00    +0.514 C 
ATOM     17  O   UNL     1       5.286   7.369 -10.805  0.00  0.00    -0.203 OA
BRANCH  16  18
ATOM     18  O   UNL     1       4.059   5.548 -11.262  0.00  0.00    -0.422 OA
BRANCH  18  19
ATOM     19  C   UNL     1       3.073   6.130 -12.124  0.00  0.00    +0.172 C 
ATOM     20  C   UNL     1       1.760   6.096 -11.407  0.00  0.00    +0.044 C 
ATOM     21  C   UNL     1       0.848   5.029 -11.947  0.00  0.00    +0.004 C 
ATOM     22  C   UNL     1       0.622   5.207 -13.422  0.00  0.00    +0.000 C 
ATOM     23  C   UNL     1       1.904   5.220 -14.183  0.00  0.00    +0.004 C 
ATOM     24  C   UNL     1       3.136   5.332 -13.379  0.00  0.00    +0.044 C 
ENDBRANCH  18  19
ENDBRANCH  16  18
ENDBRANCH  15  16
ENDBRANCH  13  15
ENDBRANCH  12  13
ENDBRANCH  10  12
ENDBRANCH   8  10
BRANCH   1  25
ATOM     25  O   UNL     1       0.607   6.094  -2.398  0.00  0.00    -0.448 OA
BRANCH  25  27
ATOM     26  C   UNL     1       0.603   4.983  -1.117  0.00  0.00    +0.051 C 
ATOM     27  C   UNL     1       0.268   5.338  -1.244  0.00  0.00    +0.209 C 
ENDBRANCH  25  27
ENDBRANCH   1  25
BRANCH   2  28
ATOM     28  C   UNL     1       2.612   4.880  -4.419  0.00  0.00    +0.137 C 
BRANCH  28  29
ATOM     29  C   UNL     1       3.436   5.684  -3.457  0.00  0.00    +0.001 A 
ATOM     30  C   UNL     1       3.319   7.063  -3.350  0.00  0.00    -0.002 A 
ATOM     31  C   UNL     1       3.892   7.714  -2.262  0.00  0.00    -0.000 A 
ATOM     32  C   UNL     1       3.773   7.049  -1.043  0.00  0.00    -0.001 A 
ATOM     33  C   UNL     1       4.100   5.700  -1.165  0.00  0.00    -0.000 A 
ATOM     34  C   UNL     1       4.116   5.072  -2.407  0.00  0.00    -0.002 A 
BRANCH  32  35
ATOM     35  C   UNL     1       4.217   7.666   0.216  0.00  0.00    -0.006 A 
ATOM     36  C   UNL     1       3.269   7.948   1.193  0.00  0.00    -0.015 A 
ATOM     37  C   UNL     1       3.629   7.905   2.536  0.00  0.00    -0.007 A 
ATOM     38  C   UNL     1       4.937   8.203   2.881  0.00  0.00    -0.001 A 
ATOM     39  C   UNL     1       5.906   7.993   1.925  0.00  0.00    -0.000 A 
ATOM     40  C   UNL     1       5.518   7.508   0.684  0.00  0.00    -0.001 A 
BRANCH  36  41
ATOM     41  C   UNL     1       1.945   8.422   0.765  0.00  0.00    +0.044 A 
ATOM     42  N   UNL     1       0.824   7.772   1.163  0.00  0.00    -0.289 NA
ATOM     43  N   UNL     1      -0.206   8.615   1.212  0.00  0.00    -0.218 NA
ATOM     44  N   UNL     1       0.247   9.813   0.900  0.00  0.00    -0.218 NA
ATOM     45  N   UNL     1       1.531   9.710   0.668  0.00  0.00    -0.289 NA
ENDBRANCH  36  41
ENDBRANCH  32  35
ENDBRANCH  28  29
ENDBRANCH   2  28
TORSDOF 13
ENDMDL
MODEL 5
REMARK VINA RESULT:      -9.5      3.582     10.518
REMARK  Name = 
REMARK  13 active torsions:
REMARK  status: ('A' for Active; 'I' for Inactive)
REMARK    1  A    between atoms: C_2  and  O_3
REMARK    2  A    between atoms: O_3  and  C_4
REMARK    3  A    between atoms: C_10  and  C_11
REMARK    4  A    between atoms: C_11  and  O_13
REMARK    5  A    between atoms: O_13  and  C_14
REMARK    6  A    between atoms: C_14  and  O_16
REMARK    7  A    between atoms: O_16  and  C_17
REMARK    8  A    between atoms: C_17  and  O_19
REMARK    9  A    between atoms: O_19  and  C_20
REMARK   10  A    between atoms: N_27  and  C_28
REMARK   11  A    between atoms: C_28  and  C_29
REMARK   12  A    between atoms: C_32  and  C_33
REMARK   13  A    between atoms: C_38  and  C_39
REMARK                            x       y       z     vdW  Elec       q    Type
REMARK                         _______ _______ _______ _____ _____    ______ ____
ROOT
ATOM      1  C   UNL     1       0.139   5.822  -8.773  0.00  0.00    +0.301 A 
ATOM      2  N   UNL     1       0.954   6.097  -7.724  0.00  0.00    -0.277 N 
ATOM      3  C   UNL     1       0.267   5.769  -6.603  0.00  0.00    +0.088 A 
ATOM      4  C   UNL     1      -1.035   5.425  -6.945  0.00  0.00    +0.102 A 
ATOM      5  C   UNL     1      -1.954   5.378  -5.917  0.00  0.00    +0.021 A 
ATOM      6  C   UNL     1      -1.485   5.456  -4.613  0.00  0.00    +0.002 A 
ATOM      7  C   UNL     1      -0.125   5.363  -4.342  0.00  0.00    +0.008 A 
ATOM      8  C   UNL     1       0.784   5.461  -5.373  0.00  0.00    +0.093 A 
ATOM      9  N   UNL     1      -1.062   5.430  -8.285  0.00  0.00    -0.194 NA
ENDROOT
BRANCH   8  10
ATOM     10  C   UNL     1       2.236   5.278  -5.210  0.00  0.00    +0.345 C 
ATOM     11  O   UNL     1       2.661   4.145  -5.614  0.00  0.00    -0.245 OA
BRANCH  10  12
ATOM     12  O   UNL     1       2.630   5.411  -3.881  0.00  0.00    -0.410 OA
BRANCH  12  13
ATOM     13  C   UNL     1       3.215   6.808  -3.508  0.00  0.00    +0.348 C 
ATOM     14  C   UNL     1       4.314   6.819  -4.757  0.00  0.00    +0.100 C 
BRANCH  13  15
ATOM     15  O   UNL     1       4.262   6.260  -2.480  0.00  0.00    -0.382 OA
BRANCH  15  16
ATOM     16  C   UNL     1       3.721   6.251  -1.192  0.00  0.00    +0.514 C 
ATOM     17  O   UNL     1       4.055   5.265  -0.473  0.00  0.00    -0.203 OA
BRANCH  16  18
ATOM     18  O   UNL     1       3.076   7.281  -0.559  0.00  0.00    -0.422 OA
BRANCH  18  19
ATOM     19  C   UNL     1       3.747   8.401   0.034  0.00  0.00    +0.172 C 
ATOM     20  C   UNL     1       3.153   8.624   1.389  0.00  0.00    +0.044 C 
ATOM     21  C   UNL     1       2.241   9.820   1.416  0.00  0.00    +0.004 C 
ATOM     22  C   UNL     1       2.961  11.058   0.961  0.00  0.00    +0.000 C 
ATOM     23  C   UNL     1       3.548  10.891  -0.400  0.00  0.00    +0.004 C 
ATOM     24  C   UNL     1       3.567   9.516  -0.935  0.00  0.00    +0.044 C 
ENDBRANCH  18  19
ENDBRANCH  16  18
ENDBRANCH  15  16
ENDBRANCH  13  15
ENDBRANCH  12  13
ENDBRANCH  10  12
ENDBRANCH   8  10
BRANCH   1  25
ATOM     25  O   UNL     1       0.700   5.567 -10.024  0.00  0.00    -0.448 OA
BRANCH  25  27
ATOM     26  C   UNL     1       0.390   4.534 -11.333  0.00  0.00    +0.051 C 
ATOM     27  C   UNL     1       0.094   4.675 -10.948  0.00  0.00    +0.209 C 
ENDBRANCH  25  27
ENDBRANCH   1  25
BRANCH   2  28
ATOM     28  C   UNL     1       2.024   7.090  -7.677  0.00  0.00    +0.137 C 
BRANCH  28  29
ATOM     29  C   UNL     1       3.182   6.579  -8.483  0.00  0.00    +0.001 A 
ATOM     30  C   UNL     1       3.311   5.241  -8.832  0.00  0.00    -0.002 A 
ATOM     31  C   UNL     1       4.238   4.877  -9.804  0.00  0.00    -0.000 A 
ATOM     32  C   UNL     1       4.335   5.747 -10.888  0.00  0.00    -0.001 A 
ATOM     33  C   UNL     1       4.406   7.074 -10.470  0.00  0.00    -0.000 A 
ATOM     34  C   UNL     1       4.005   7.450  -9.191  0.00  0.00    -0.002 A 
BRANCH  32  35
ATOM     35  C   UNL     1       5.177   5.434 -12.052  0.00  0.00    -0.006 A 
ATOM     36  C   UNL     1       4.659   5.637 -13.326  0.00  0.00    -0.015 A 
ATOM     37  C   UNL     1       5.511   5.984 -14.369  0.00  0.00    -0.007 A 
ATOM     38  C   UNL     1       6.822   5.538 -14.331  0.00  0.00    -0.001 A 
ATOM     39  C   UNL     1       7.361   5.268 -13.092  0.00  0.00    -0.000 A 
ATOM     40  C   UNL     1       6.566   5.451 -11.970  0.00  0.00    -0.001 A 
BRANCH  36  41
ATOM     41  C   UNL     1       3.238   5.339 -13.558  0.00  0.00    +0.044 A 
ATOM     42  N   UNL     1       2.378   6.330 -13.898  0.00  0.00    -0.289 NA
ATOM     43  N   UNL     1       1.373   5.841 -14.622  0.00  0.00    -0.218 NA
ATOM     44  N   UNL     1       1.599   4.554 -14.795  0.00  0.00    -0.218 NA
ATOM     45  N   UNL     1       2.724   4.259 -14.196  0.00  0.00    -0.289 NA
ENDBRANCH  36  41
ENDBRANCH  32  35
ENDBRANCH  28  29
ENDBRANCH   2  28
TORSDOF 13
ENDMDL
MODEL 6
REMARK VINA RESULT:      -9.4      3.790     11.056
REMARK  Name = 
REMARK  13 active torsions:
REMARK  status: ('A' for Active; 'I' for Inactive)
REMARK    1  A    between atoms: C_2  and  O_3
REMARK    2  A    between atoms: O_3  and  C_4
REMARK    3  A    between atoms: C_10  and  C_11
REMARK    4  A    between atoms: C_11  and  O_13
REMARK    5  A    between atoms: O_13  and  C_14
REMARK    6  A    between atoms: C_14  and  O_16
REMARK    7  A    between atoms: O_16  and  C_17
REMARK    8  A    between atoms: C_17  and  O_19
REMARK    9  A    between atoms: O_19  and  C_20
REMARK   10  A    between atoms: N_27  and  C_28
REMARK   11  A    between atoms: C_28  and  C_29
REMARK   12  A    between atoms: C_32  and  C_33
REMARK   13  A    between atoms: C_38  and  C_39
REMARK                            x       y       z     vdW  Elec       q    Type
REMARK                         _______ _______ _______ _____ _____    ______ ____
ROOT
ATOM      1  C   UNL     1       4.001   5.658  -6.552  0.00  0.00    +0.301 A 
ATOM      2  N   UNL     1       2.710   5.490  -6.171  0.00  0.00    -0.277 N 
ATOM      3  C   UNL     1       2.648   5.811  -4.857  0.00  0.00    +0.088 A 
ATOM      4  C   UNL     1       3.932   6.040  -4.377  0.00  0.00    +0.102 A 
ATOM      5  C   UNL     1       4.088   6.058  -3.006  0.00  0.00    +0.021 A 
ATOM      6  C   UNL     1       2.947   6.071  -2.216  0.00  0.00    +0.002 A 
ATOM      7  C   UNL     1       1.695   6.280  -2.782  0.00  0.00    +0.008 A 
ATOM      8  C   UNL     1       1.545   6.209  -4.150  0.00  0.00    +0.093 A 
ATOM      9  N   UNL     1       4.728   5.977  -5.454  0.00  0.00    -0.194 NA
ENDROOT
BRANCH   8  10
ATOM     10  C   UNL     1       0.288   6.509  -4.856  0.00  0.00    +0.345 C 
ATOM     11  O   UNL     1       0.318   7.599  -5.519  0.00  0.00    -0.245 OA
BRANCH  10  12
ATOM     12  O   UNL     1      -0.793   6.592  -3.981  0.00  0.00    -0.410 OA
BRANCH  12  13
ATOM     13  C   UNL     1      -1.959   5.603  -4.286  0.00  0.00    +0.348 C 
ATOM     14  C   UNL     1      -2.428   6.388  -5.675  0.00  0.00    +0.100 C 
BRANCH  13  15
ATOM     15  O   UNL     1      -3.018   6.349  -3.406  0.00  0.00    -0.382 OA
BRANCH  15  16
ATOM     16  C   UNL     1      -2.736   6.173  -2.049  0.00  0.00    +0.514 C 
ATOM     17  O   UNL     1      -2.570   4.973  -1.683  0.00  0.00    -0.203 OA
BRANCH  16  18
ATOM     18  O   UNL     1      -2.396   7.143  -1.143  0.00  0.00    -0.422 OA
BRANCH  18  19
ATOM     19  C   UNL     1      -1.818   6.873   0.141  0.00  0.00    +0.172 C 
ATOM     20  C   UNL     1      -2.516   7.733   1.147  0.00  0.00    +0.044 C 
ATOM     21  C   UNL     1      -1.663   8.892   1.587  0.00  0.00    +0.004 C 
ATOM     22  C   UNL     1      -0.350   8.416   2.141  0.00  0.00    +0.000 C 
ATOM     23  C   UNL     1       0.395   7.574   1.161  0.00  0.00    +0.004 C 
ATOM     24  C   UNL     1      -0.363   7.135  -0.026  0.00  0.00    +0.044 C 
ENDBRANCH  18  19
ENDBRANCH  16  18
ENDBRANCH  15  16
ENDBRANCH  13  15
ENDBRANCH  12  13
ENDBRANCH  10  12
ENDBRANCH   8  10
BRANCH   1  25
ATOM     25  O   UNL     1       4.292   5.902  -7.893  0.00  0.00    -0.448 OA
BRANCH  25  27
ATOM     26  C   UNL     1       4.874   4.678  -8.911  0.00  0.00    +0.051 C 
ATOM     27  C   UNL     1       5.121   5.033  -8.651  0.00  0.00    +0.209 C 
ENDBRANCH  25  27
ENDBRANCH   1  25
BRANCH   2  28
ATOM     28  C   UNL     1       1.729   4.585  -6.764  0.00  0.00    +0.137 C 
BRANCH  28  29
ATOM     29  C   UNL     1       1.259   5.177  -8.060  0.00  0.00    +0.001 A 
ATOM     30  C   UNL     1       1.368   6.532  -8.341  0.00  0.00    -0.002 A 
ATOM     31  C   UNL     1       1.181   6.975  -9.646  0.00  0.00    -0.000 A 
ATOM     32  C   UNL     1       1.724   6.156 -10.635  0.00  0.00    -0.001 A 
ATOM     33  C   UNL     1       1.411   4.817 -10.413  0.00  0.00    -0.000 A 
ATOM     34  C   UNL     1       0.992   4.371  -9.163  0.00  0.00    -0.002 A 
BRANCH  32  35
ATOM     35  C   UNL     1       1.717   6.552 -12.051  0.00  0.00    -0.006 A 
ATOM     36  C   UNL     1       2.642   5.973 -12.912  0.00  0.00    -0.015 A 
ATOM     37  C   UNL     1       2.314   5.784 -14.251  0.00  0.00    -0.007 A 
ATOM     38  C   UNL     1       1.427   6.667 -14.846  0.00  0.00    -0.001 A 
ATOM     39  C   UNL     1       0.528   7.309 -14.024  0.00  0.00    -0.000 A 
ATOM     40  C   UNL     1       0.567   7.042 -12.663  0.00  0.00    -0.001 A 
BRANCH  36  41
ATOM     41  C   UNL     1       3.995   5.704 -12.405  0.00  0.00    +0.044 A 
ATOM     42  N   UNL     1       4.787   4.789 -13.017  0.00  0.00    -0.289 NA
ATOM     43  N   UNL     1       6.070   5.099 -12.844  0.00  0.00    -0.218 NA
ATOM     44  N   UNL     1       6.117   6.231 -12.170  0.00  0.00    -0.218 NA
ATOM     45  N   UNL     1       4.887   6.613 -11.939  0.00  0.00    -0.289 NA
ENDBRANCH  36  41
ENDBRANCH  32  35
ENDBRANCH  28  29
ENDBRANCH   2  28
TORSDOF 13
ENDMDL
MODEL 7
REMARK VINA RESULT:      -9.2      2.825      7.682
REMARK  Name = 
REMARK  13 active torsions:
REMARK  status: ('A' for Active; 'I' for Inactive)
REMARK    1  A    between atoms: C_2  and  O_3
REMARK    2  A    between atoms: O_3  and  C_4
REMARK    3  A    between atoms: C_10  and  C_11
REMARK    4  A    between atoms: C_11  and  O_13
REMARK    5  A    between atoms: O_13  and  C_14
REMARK    6  A    between atoms: C_14  and  O_16
REMARK    7  A    between atoms: O_16  and  C_17
REMARK    8  A    between atoms: C_17  and  O_19
REMARK    9  A    between atoms: O_19  and  C_20
REMARK   10  A    between atoms: N_27  and  C_28
REMARK   11  A    between atoms: C_28  and  C_29
REMARK   12  A    between atoms: C_32  and  C_33
REMARK   13  A    between atoms: C_38  and  C_39
REMARK                            x       y       z     vdW  Elec       q    Type
REMARK                         _______ _______ _______ _____ _____    ______ ____
ROOT
ATOM      1  C   UNL     1       3.954   5.472  -8.262  0.00  0.00    +0.301 A 
ATOM      2  N   UNL     1       2.925   6.033  -7.580  0.00  0.00    -0.277 N 
ATOM      3  C   UNL     1       1.786   5.608  -8.177  0.00  0.00    +0.088 A 
ATOM      4  C   UNL     1       2.106   4.896  -9.327  0.00  0.00    +0.102 A 
ATOM      5  C   UNL     1       1.081   4.672 -10.223  0.00  0.00    +0.021 A 
ATOM      6  C   UNL     1      -0.216   4.967  -9.825  0.00  0.00    +0.002 A 
ATOM      7  C   UNL     1      -0.498   5.270  -8.499  0.00  0.00    +0.008 A 
ATOM      8  C   UNL     1       0.534   5.542  -7.626  0.00  0.00    +0.093 A 
ATOM      9  N   UNL     1       3.443   4.800  -9.322  0.00  0.00    -0.194 NA
ENDROOT
BRANCH   8  10
ATOM     10  C   UNL     1       0.352   5.776  -6.184  0.00  0.00    +0.345 C 
ATOM     11  O   UNL     1       0.155   4.711  -5.509  0.00  0.00    -0.245 OA
BRANCH  10  12
ATOM     12  O   UNL     1      -0.721   6.627  -5.927  0.00  0.00    -0.410 OA
BRANCH  12  13
ATOM     13  C   UNL     1      -1.808   6.042  -4.975  0.00  0.00    +0.348 C 
ATOM     14  C   UNL     1      -2.833   7.341  -5.143  0.00  0.00    +0.100 C 
BRANCH  13  15
ATOM     15  O   UNL     1      -1.171   6.606  -3.660  0.00  0.00    -0.382 OA
BRANCH  15  16
ATOM     16  C   UNL     1      -1.919   6.212  -2.547  0.00  0.00    +0.514 C 
ATOM     17  O   UNL     1      -2.197   4.979  -2.493  0.00  0.00    -0.203 OA
BRANCH  16  18
ATOM     18  O   UNL     1      -2.176   6.949  -1.421  0.00  0.00    -0.422 OA
BRANCH  18  19
ATOM     19  C   UNL     1      -1.567   6.703  -0.147  0.00  0.00    +0.172 C 
ATOM     20  C   UNL     1      -2.247   7.575   0.861  0.00  0.00    +0.044 C 
ATOM     21  C   UNL     1      -1.392   8.746   1.262  0.00  0.00    +0.004 C 
ATOM     22  C   UNL     1      -0.064   8.287   1.794  0.00  0.00    +0.000 C 
ATOM     23  C   UNL     1       0.664   7.434   0.810  0.00  0.00    +0.004 C 
ATOM     24  C   UNL     1      -0.118   6.972  -0.352  0.00  0.00    +0.044 C 
ENDBRANCH  18  19
ENDBRANCH  16  18
ENDBRANCH  15  16
ENDBRANCH  13  15
ENDBRANCH  12  13
ENDBRANCH  10  12
ENDBRANCH   8  10
BRANCH   1  25
ATOM     25  O   UNL     1       5.181   5.293  -7.624  0.00  0.00    -0.448 OA
BRANCH  25  27
ATOM     26  C   UNL     1       6.367   5.380  -8.832  0.00  0.00    +0.051 C 
ATOM     27  C   UNL     1       6.411   5.369  -8.329  0.00  0.00    +0.209 C 
ENDBRANCH  25  27
ENDBRANCH   1  25
BRANCH   2  28
ATOM     28  C   UNL     1       2.948   7.283  -6.824  0.00  0.00    +0.137 C 
BRANCH  28  29
ATOM     29  C   UNL     1       3.286   6.967  -5.396  0.00  0.00    +0.001 A 
ATOM     30  C   UNL     1       4.528   7.254  -4.846  0.00  0.00    -0.002 A 
ATOM     31  C   UNL     1       4.690   7.202  -3.465  0.00  0.00    -0.000 A 
ATOM     32  C   UNL     1       3.623   7.703  -2.722  0.00  0.00    -0.001 A 
ATOM     33  C   UNL     1       2.404   7.221  -3.194  0.00  0.00    -0.000 A 
ATOM     34  C   UNL     1       2.289   6.675  -4.470  0.00  0.00    -0.002 A 
BRANCH  32  35
ATOM     35  C   UNL     1       3.696   7.831  -1.260  0.00  0.00    -0.006 A 
ATOM     36  C   UNL     1       4.157   6.751  -0.516  0.00  0.00    -0.015 A 
ATOM     37  C   UNL     1       4.839   6.975   0.676  0.00  0.00    -0.007 A 
ATOM     38  C   UNL     1       4.531   8.108   1.412  0.00  0.00    -0.001 A 
ATOM     39  C   UNL     1       4.017   9.185   0.726  0.00  0.00    -0.000 A 
ATOM     40  C   UNL     1       3.833   9.072  -0.645  0.00  0.00    -0.001 A 
BRANCH  36  41
ATOM     41  C   UNL     1       3.785   5.396  -0.949  0.00  0.00    +0.044 A 
ATOM     42  N   UNL     1       4.635   4.358  -0.754  0.00  0.00    -0.289 NA
ATOM     43  N   UNL     1       3.954   3.221  -0.631  0.00  0.00    -0.218 NA
ATOM     44  N   UNL     1       2.671   3.518  -0.694  0.00  0.00    -0.218 NA
ATOM     45  N   UNL     1       2.566   4.813  -0.847  0.00  0.00    -0.289 NA
ENDBRANCH  36  41
ENDBRANCH  32  35
ENDBRANCH  28  29
ENDBRANCH   2  28
TORSDOF 13
ENDMDL
MODEL 8
REMARK VINA RESULT:      -9.0      3.134     10.260
REMARK  Name = 
REMARK  13 active torsions:
REMARK  status: ('A' for Active; 'I' for Inactive)
REMARK    1  A    between atoms: C_2  and  O_3
REMARK    2  A    between atoms: O_3  and  C_4
REMARK    3  A    between atoms: C_10  and  C_11
REMARK    4  A    between atoms: C_11  and  O_13
REMARK    5  A    between atoms: O_13  and  C_14
REMARK    6  A    between atoms: C_14  and  O_16
REMARK    7  A    between atoms: O_16  and  C_17
REMARK    8  A    between atoms: C_17  and  O_19
REMARK    9  A    between atoms: O_19  and  C_20
REMARK   10  A    between atoms: N_27  and  C_28
REMARK   11  A    between atoms: C_28  and  C_29
REMARK   12  A    between atoms: C_32  and  C_33
REMARK   13  A    between atoms: C_38  and  C_39
REMARK                            x       y       z     vdW  Elec       q    Type
REMARK                         _______ _______ _______ _____ _____    ______ ____
ROOT
ATOM      1  C   UNL     1      -0.788   6.584  -5.128  0.00  0.00    +0.301 A 
ATOM      2  N   UNL     1       0.003   6.519  -4.029  0.00  0.00    -0.277 N 
ATOM      3  C   UNL     1      -0.818   6.304  -2.972  0.00  0.00    +0.088 A 
ATOM      4  C   UNL     1      -2.140   6.381  -3.393  0.00  0.00    +0.102 A 
ATOM      5  C   UNL     1      -3.097   6.510  -2.407  0.00  0.00    +0.021 A 
ATOM      6  C   UNL     1      -2.709   6.334  -1.087  0.00  0.00    +0.002 A 
ATOM      7  C   UNL     1      -1.451   5.830  -0.779  0.00  0.00    +0.008 A 
ATOM      8  C   UNL     1      -0.488   5.753  -1.763  0.00  0.00    +0.093 A 
ATOM      9  N   UNL     1      -2.080   6.512  -4.725  0.00  0.00    -0.194 NA
ENDROOT
BRANCH   8  10
ATOM     10  C   UNL     1       0.840   5.147  -1.568  0.00  0.00    +0.345 C 
ATOM     11  O   UNL     1       0.815   3.875  -1.468  0.00  0.00    -0.245 OA
BRANCH  10  12
ATOM     12  O   UNL     1       1.472   5.634  -0.428  0.00  0.00    -0.410 OA
BRANCH  12  13
ATOM     13  C   UNL     1       2.342   6.908  -0.655  0.00  0.00    +0.348 C 
ATOM     14  C   UNL     1       3.775   6.067  -0.738  0.00  0.00    +0.100 C 
BRANCH  13  15
ATOM     15  O   UNL     1       2.525   7.235   0.865  0.00  0.00    -0.382 OA
BRANCH  15  16
ATOM     16  C   UNL     1       1.654   8.258   1.252  0.00  0.00    +0.514 C 
ATOM     17  O   UNL     1       2.211   9.347   1.576  0.00  0.00    -0.203 OA
BRANCH  16  18
ATOM     18  O   UNL     1       0.293   8.287   1.099  0.00  0.00    -0.422 OA
BRANCH  18  19
ATOM     19  C   UNL     1      -0.629   8.508   2.174  0.00  0.00    +0.172 C 
ATOM     20  C   UNL     1      -0.721   7.243   2.966  0.00  0.00    +0.044 C 
ATOM     21  C   UNL     1      -2.007   6.506   2.707  0.00  0.00    +0.004 C 
ATOM     22  C   UNL     1      -3.196   7.379   2.994  0.00  0.00    +0.000 C 
ATOM     23  C   UNL     1      -3.161   8.644   2.205  0.00  0.00    +0.004 C 
ATOM     24  C   UNL     1      -1.891   8.945   1.517  0.00  0.00    +0.044 C 
ENDBRANCH  18  19
ENDBRANCH  16  18
ENDBRANCH  15  16
ENDBRANCH  13  15
ENDBRANCH  12  13
ENDBRANCH  10  12
ENDBRANCH   8  10
BRANCH   1  25
ATOM     25  O   UNL     1      -0.246   6.291  -6.378  0.00  0.00    -0.448 OA
BRANCH  25  27
ATOM     26  C   UNL     1      -0.854   5.000  -7.295  0.00  0.00    +0.051 C 
ATOM     27  C   UNL     1      -0.940   5.496  -7.329  0.00  0.00    +0.209 C 
ENDBRANCH  25  27
ENDBRANCH   1  25
BRANCH   2  28
ATOM     28  C   UNL     1       1.305   7.154  -3.842  0.00  0.00    +0.137 C 
BRANCH  28  29
ATOM     29  C   UNL     1       2.288   6.501  -4.769  0.00  0.00    +0.001 A 
ATOM     30  C   UNL     1       2.109   5.212  -5.253  0.00  0.00    -0.002 A 
ATOM     31  C   UNL     1       2.892   4.768  -6.314  0.00  0.00    -0.000 A 
ATOM     32  C   UNL     1       3.129   5.711  -7.313  0.00  0.00    -0.001 A 
ATOM     33  C   UNL     1       3.504   6.939  -6.774  0.00  0.00    -0.000 A 
ATOM     34  C   UNL     1       3.249   7.250  -5.441  0.00  0.00    -0.002 A 
BRANCH  32  35
ATOM     35  C   UNL     1       3.832   5.356  -8.554  0.00  0.00    -0.006 A 
ATOM     36  C   UNL     1       3.214   5.618  -9.772  0.00  0.00    -0.015 A 
ATOM     37  C   UNL     1       3.988   5.919 -10.888  0.00  0.00    -0.007 A 
ATOM     38  C   UNL     1       5.260   5.376 -10.978  0.00  0.00    -0.001 A 
ATOM     39  C   UNL     1       5.890   5.046  -9.798  0.00  0.00    -0.000 A 
ATOM     40  C   UNL     1       5.220   5.269  -8.604  0.00  0.00    -0.001 A 
BRANCH  36  41
ATOM     41  C   UNL     1       1.759   5.431  -9.871  0.00  0.00    +0.044 A 
ATOM     42  N   UNL     1       0.969   6.436 -10.323  0.00  0.00    -0.289 NA
ATOM     43  N   UNL     1      -0.125   5.940 -10.897  0.00  0.00    -0.218 NA
ATOM     44  N   UNL     1      -0.028   4.625 -10.866  0.00  0.00    -0.218 NA
ATOM     45  N   UNL     1       1.106   4.319 -10.290  0.00  0.00    -0.289 NA
ENDBRANCH  36  41
ENDBRANCH  32  35
ENDBRANCH  28  29
ENDBRANCH   2  28
TORSDOF 13
ENDMDL
MODEL 9
REMARK VINA RESULT:      -8.9      3.137      9.683
REMARK  Name = 
REMARK  13 active torsions:
REMARK  status: ('A' for Active; 'I' for Inactive)
REMARK    1  A    between atoms: C_2  and  O_3
REMARK    2  A    between atoms: O_3  and  C_4
REMARK    3  A    between atoms: C_10  and  C_11
REMARK    4  A    between atoms: C_11  and  O_13
REMARK    5  A    between atoms: O_13  and  C_14
REMARK    6  A    between atoms: C_14  and  O_16
REMARK    7  A    between atoms: O_16  and  C_17
REMARK    8  A    between atoms: C_17  and  O_19
REMARK    9  A    between atoms: O_19  and  C_20
REMARK   10  A    between atoms: N_27  and  C_28
REMARK   11  A    between atoms: C_28  and  C_29
REMARK   12  A    between atoms: C_32  and  C_33
REMARK   13  A    between atoms: C_38  and  C_39
REMARK                            x       y       z     vdW  Elec       q    Type
REMARK                         _______ _______ _______ _____ _____    ______ ____
ROOT
ATOM      1  C   UNL     1      -0.892   5.851  -4.611  0.00  0.00    +0.301 A 
ATOM      2  N   UNL     1       0.123   6.010  -3.726  0.00  0.00    -0.277 N 
ATOM      3  C   UNL     1      -0.445   6.310  -2.533  0.00  0.00    +0.088 A 
ATOM      4  C   UNL     1      -1.813   6.484  -2.705  0.00  0.00    +0.102 A 
ATOM      5  C   UNL     1      -2.493   7.104  -1.677  0.00  0.00    +0.021 A 
ATOM      6  C   UNL     1      -1.826   7.307  -0.476  0.00  0.00    +0.002 A 
ATOM      7  C   UNL     1      -0.593   6.712  -0.241  0.00  0.00    +0.008 A 
ATOM      8  C   UNL     1       0.099   6.140  -1.288  0.00  0.00    +0.093 A 
ATOM      9  N   UNL     1      -2.053   6.153  -3.981  0.00  0.00    -0.194 NA
ENDROOT
BRANCH   8  10
ATOM     10  C   UNL     1       1.362   5.400  -1.131  0.00  0.00    +0.345 C 
ATOM     11  O   UNL     1       1.207   4.146  -0.959  0.00  0.00    -0.245 OA
BRANCH  10  12
ATOM     12  O   UNL     1       2.111   5.871  -0.055  0.00  0.00    -0.410 OA
BRANCH  12  13
ATOM     13  C   UNL     1       3.243   6.875  -0.434  0.00  0.00    +0.348 C 
ATOM     14  C   UNL     1       4.137   5.745  -1.266  0.00  0.00    +0.100 C 
BRANCH  13  15
ATOM     15  O   UNL     1       4.063   6.676   0.885  0.00  0.00    -0.382 OA
BRANCH  15  16
ATOM     16  C   UNL     1       3.876   7.763   1.744  0.00  0.00    +0.514 C 
ATOM     17  O   UNL     1       3.154   7.533   2.756  0.00  0.00    -0.203 OA
BRANCH  16  18
ATOM     18  O   UNL     1       4.560   8.950   1.735  0.00  0.00    -0.422 OA
BRANCH  18  19
ATOM     19  C   UNL     1       3.932  10.235   1.637  0.00  0.00    +0.172 C 
ATOM     20  C   UNL     1       3.022  10.210   0.450  0.00  0.00    +0.044 C 
ATOM     21  C   UNL     1       3.588  10.976  -0.714  0.00  0.00    +0.004 C 
ATOM     22  C   UNL     1       3.890  12.397  -0.329  0.00  0.00    +0.000 C 
ATOM     23  C   UNL     1       4.817  12.473   0.836  0.00  0.00    +0.004 C 
ATOM     24  C   UNL     1       5.055  11.209   1.560  0.00  0.00    +0.044 C 
ENDBRANCH  18  19
ENDBRANCH  16  18
ENDBRANCH  15  16
ENDBRANCH  13  15
ENDBRANCH  12  13
ENDBRANCH  10  12
ENDBRANCH   8  10
BRANCH   1  25
ATOM     25  O   UNL     1      -0.692   5.067  -5.746  0.00  0.00    -0.448 OA
BRANCH  25  27
ATOM     26  C   UNL     1      -1.288   5.418  -7.294  0.00  0.00    +0.051 C 
ATOM     27  C   UNL     1      -1.511   5.196  -6.899  0.00  0.00    +0.209 C 
ENDBRANCH  25  27
ENDBRANCH   1  25
BRANCH   2  28
ATOM     28  C   UNL     1       1.493   6.422  -4.022  0.00  0.00    +0.137 C 
BRANCH  28  29
ATOM     29  C   UNL     1       1.750   6.197  -5.484  0.00  0.00    +0.001 A 
ATOM     30  C   UNL     1       1.866   7.245  -6.387  0.00  0.00    -0.002 A 
ATOM     31  C   UNL     1       2.378   6.996  -7.657  0.00  0.00    -0.000 A 
ATOM     32  C   UNL     1       3.445   6.100  -7.702  0.00  0.00    -0.001 A 
ATOM     33  C   UNL     1       3.189   4.967  -6.934  0.00  0.00    -0.000 A 
ATOM     34  C   UNL     1       2.202   4.967  -5.953  0.00  0.00    -0.002 A 
BRANCH  32  35
ATOM     35  C   UNL     1       4.171   5.832  -8.952  0.00  0.00    -0.006 A 
ATOM     36  C   UNL     1       3.531   6.073 -10.162  0.00  0.00    -0.015 A 
ATOM     37  C   UNL     1       4.277   6.462 -11.271  0.00  0.00    -0.007 A 
ATOM     38  C   UNL     1       5.588   6.024 -11.374  0.00  0.00    -0.001 A 
ATOM     39  C   UNL     1       6.245   5.718 -10.203  0.00  0.00    -0.000 A 
ATOM     40  C   UNL     1       5.562   5.858  -9.004  0.00  0.00    -0.001 A 
BRANCH  36  41
ATOM     41  C   UNL     1       2.096   5.773 -10.266  0.00  0.00    +0.044 A 
ATOM     42  N   UNL     1       1.333   6.391 -11.200  0.00  0.00    -0.289 NA
ATOM     43  N   UNL     1       0.307   5.616 -11.545  0.00  0.00    -0.218 NA
ATOM     44  N   UNL     1       0.426   4.483 -10.881  0.00  0.00    -0.218 NA
ATOM     45  N   UNL     1       1.506   4.558 -10.147  0.00  0.00    -0.289 NA
ENDBRANCH  36  41
ENDBRANCH  32  35
ENDBRANCH  28  29
ENDBRANCH   2  28
TORSDOF 13
ENDMDL
