MODEL 1
REMARK VINA RESULT:      -8.8      0.000      0.000
REMARK  Name = 
REMARK  5 active torsions:
REMARK  status: ('A' for Active; 'I' for Inactive)
REMARK    1  A    between atoms: C_2  and  C_3
REMARK    2  A    between atoms: C_3  and  O_5
REMARK    3  A    between atoms: O_5  and  C_6
REMARK    4  A    between atoms: C_6  and  C_7
REMARK    5  A    between atoms: C_7  and  C_9
REMARK                            x       y       z     vdW  Elec       q    Type
REMARK                         _______ _______ _______ _____ _____    ______ ____
ROOT
ATOM      1  C   UNL     1       3.060   6.028  -4.637  0.00  0.00    +0.187 C 
ATOM      2  C   UNL     1       2.412   5.578  -5.881  0.00  0.00    +0.043 C 
ATOM      3  C   UNL     1       3.620   6.185  -6.763  0.00  0.00    +0.007 C 
ATOM      4  C   UNL     1       3.097   5.394  -8.165  0.00  0.00    +0.036 C 
ATOM      5  C   UNL     1       1.993   6.499  -8.515  0.00  0.00    +0.168 C 
ATOM      6  C   UNL     1       0.644   6.115  -7.673  0.00  0.00    +0.182 C 
ATOM      7  O   UNL     1       0.912   4.618  -7.665  0.00  0.00    -0.220 OA
ATOM      8  F   UNL     1       2.374   7.715  -8.215  0.00  0.00    -0.237 F 
ATOM      9  C   UNL     1       1.610   6.171  -9.907  0.00  0.00    +0.066 C 
ATOM     10  C   UNL     1       2.726   6.502 -10.847  0.00  0.00    -0.003 C 
ATOM     11  C   UNL     1       2.395   6.364 -12.133  0.00  0.00    +0.036 C 
ATOM     12  C   UNL     1       1.014   6.144 -12.581  0.00  0.00    +0.195 C 
ATOM     13  C   UNL     1      -0.038   6.444 -11.600  0.00  0.00    +0.038 C 
ATOM     14  O   UNL     1       0.724   5.956 -13.801  0.00  0.00    -0.287 OA
ATOM     15  C   UNL     1       3.967   5.496 -10.520  0.00  0.00    +0.180 C 
ATOM     16  F   UNL     1       4.954   6.435 -11.175  0.00  0.00    -0.233 F 
ATOM     17  C   UNL     1       1.408   4.676 -10.122  0.00  0.00    +0.011 C 
ATOM     18  C   UNL     1       0.409   6.854 -10.411  0.00  0.00    -0.017 C 
ATOM     19  C   UNL     1       4.224   6.177  -9.038  0.00  0.00    +0.042 C 
ATOM     20  C   UNL     1       4.530   4.948  -6.259  0.00  0.00    +0.004 C 
ATOM     21  C   UNL     1       2.398   4.119  -5.887  0.00  0.00    +0.004 C 
ATOM     22  C   UNL     1       1.297   6.389  -6.191  0.00  0.00    +0.039 C 
ATOM     23  C   UNL     1       4.600   5.499  -4.722  0.00  0.00    +0.044 C 
ATOM     24  C   UNL     1       4.279   4.035  -4.073  0.00  0.00    +0.004 C 
ENDROOT
BRANCH   1  25
ATOM     25  C   UNL     1       2.480   5.584  -3.384  0.00  0.00    +0.203 C 
ATOM     26  O   UNL     1       3.188   5.006  -2.583  0.00  0.00    -0.291 OA
BRANCH  25  27
ATOM     27  C   UNL     1       1.039   5.697  -3.040  0.00  0.00    +0.163 C 
ATOM     28 CL   UNL     1       0.723   4.880  -1.487  0.00  0.00    -0.105 Cl
ENDBRANCH  25  27
ENDBRANCH   1  25
BRANCH   1  29
ATOM     29  O   UNL     1       3.365   7.422  -4.689  0.00  0.00    -0.449 OA
BRANCH  29  30
ATOM     30  C   UNL     1       4.218   7.974  -3.759  0.00  0.00    +0.317 C 
ATOM     31  O   UNL     1       5.419   7.985  -4.167  0.00  0.00    -0.250 OA
BRANCH  30  33
ATOM     32  C   UNL     1       4.569   7.825  -1.504  0.00  0.00    +0.012 C 
ATOM     33  C   UNL     1       3.850   8.253  -2.341  0.00  0.00    +0.110 C 
ENDBRANCH  30  33
ENDBRANCH  29  30
ENDBRANCH   1  29
TORSDOF 5
ENDMDL
MODEL 2
REMARK VINA RESULT:      -8.6      3.000      7.145
REMARK  Name = 
REMARK  5 active torsions:
REMARK  status: ('A' for Active; 'I' for Inactive)
REMARK    1  A    between atoms: C_2  and  C_3
REMARK    2  A    between atoms: C_3  and  O_5
REMARK    3  A    between atoms: O_5  and  C_6
REMARK    4  A    between atoms: C_6  and  C_7
REMARK    5  A    between atoms: C_7  and  C_9
REMARK                            x       y       z     vdW  Elec       q    Type
REMARK                         _______ _______ _______ _____ _____    ______ ____
ROOT
ATOM      1  C   UNL     1       2.017   5.252  -8.376  0.00  0.00    +0.187 C 
ATOM      2  C   UNL     1       1.809   5.588  -6.957  0.00  0.00    +0.043 C 
ATOM      3  C   UNL     1       3.350   6.046  -6.811  0.00  0.00    +0.007 C 
ATOM      4  C   UNL     1       3.076   6.762  -5.303  0.00  0.00    +0.036 C 
ATOM      5  C   UNL     1       3.179   5.382  -4.499  0.00  0.00    +0.168 C 
ATOM      6  C   UNL     1       1.701   4.682  -4.551  0.00  0.00    +0.182 C 
ATOM      7  O   UNL     1       0.935   5.994  -4.629  0.00  0.00    -0.220 OA
ATOM      8  F   UNL     1       4.074   4.566  -4.998  0.00  0.00    -0.237 F 
ATOM      9  C   UNL     1       3.284   5.814  -3.087  0.00  0.00    +0.066 C 
ATOM     10  C   UNL     1       4.614   6.451  -2.835  0.00  0.00    -0.003 C 
ATOM     11  C   UNL     1       4.830   6.736  -1.548  0.00  0.00    +0.036 C 
ATOM     12  C   UNL     1       3.957   6.256  -0.469  0.00  0.00    +0.195 C 
ATOM     13  C   UNL     1       3.050   5.154  -0.815  0.00  0.00    +0.038 C 
ATOM     14  O   UNL     1       4.142   6.584   0.742  0.00  0.00    -0.287 OA
ATOM     15  C   UNL     1       4.673   7.838  -3.689  0.00  0.00    +0.180 C 
ATOM     16  F   UNL     1       6.183   7.850  -3.645  0.00  0.00    -0.233 F 
ATOM     17  C   UNL     1       2.298   6.923  -2.740  0.00  0.00    +0.011 C 
ATOM     18  C   UNL     1       3.122   4.750  -2.086  0.00  0.00    -0.017 C 
ATOM     19  C   UNL     1       4.669   7.035  -5.132  0.00  0.00    +0.042 C 
ATOM     20  C   UNL     1       2.972   7.376  -7.648  0.00  0.00    +0.004 C 
ATOM     21  C   UNL     1       0.885   6.715  -6.885  0.00  0.00    +0.004 C 
ATOM     22  C   UNL     1       1.705   4.418  -6.172  0.00  0.00    +0.039 C 
ATOM     23  C   UNL     1       2.740   6.553  -9.041  0.00  0.00    +0.044 C 
ATOM     24  C   UNL     1       1.343   7.326  -9.386  0.00  0.00    +0.004 C 
ENDROOT
BRANCH   1  25
ATOM     25  C   UNL     1       0.844   4.915  -9.161  0.00  0.00    +0.203 C 
ATOM     26  O   UNL     1      -0.257   5.118  -8.687  0.00  0.00    -0.291 OA
BRANCH  25  27
ATOM     27  C   UNL     1       0.886   4.237 -10.483  0.00  0.00    +0.163 C 
ATOM     28 CL   UNL     1      -0.248   5.034 -11.605  0.00  0.00    -0.105 Cl
ENDBRANCH  25  27
ENDBRANCH   1  25
BRANCH   1  29
ATOM     29  O   UNL     1       3.117   4.355  -8.539  0.00  0.00    -0.449 OA
BRANCH  29  30
ATOM     30  C   UNL     1       4.238   4.762  -9.227  0.00  0.00    +0.317 C 
ATOM     31  O   UNL     1       4.054   4.743 -10.483  0.00  0.00    -0.250 OA
BRANCH  30  33
ATOM     32  C   UNL     1       6.352   5.631  -9.179  0.00  0.00    +0.012 C 
ATOM     33  C   UNL     1       5.589   4.921  -8.618  0.00  0.00    +0.110 C 
ENDBRANCH  30  33
ENDBRANCH  29  30
ENDBRANCH   1  29
TORSDOF 5
ENDMDL
MODEL 3
REMARK VINA RESULT:      -8.4      1.719      2.418
REMARK  Name = 
REMARK  5 active torsions:
REMARK  status: ('A' for Active; 'I' for Inactive)
REMARK    1  A    between atoms: C_2  and  C_3
REMARK    2  A    between atoms: C_3  and  O_5
REMARK    3  A    between atoms: O_5  and  C_6
REMARK    4  A    between atoms: C_6  and  C_7
REMARK    5  A    between atoms: C_7  and  C_9
REMARK                            x       y       z     vdW  Elec       q    Type
REMARK                         _______ _______ _______ _____ _____    ______ ____
ROOT
ATOM      1  C   UNL     1       2.785   6.388  -2.415  0.00  0.00    +0.187 C 
ATOM      2  C   UNL     1       2.281   5.970  -3.735  0.00  0.00    +0.043 C 
ATOM      3  C   UNL     1       3.755   6.115  -4.376  0.00  0.00    +0.007 C 
ATOM      4  C   UNL     1       3.301   5.318  -5.797  0.00  0.00    +0.036 C 
ATOM      5  C   UNL     1       2.645   6.621  -6.456  0.00  0.00    +0.168 C 
ATOM      6  C   UNL     1       1.109   6.721  -5.899  0.00  0.00    +0.182 C 
ATOM      7  O   UNL     1       0.932   5.221  -5.727  0.00  0.00    -0.220 OA
ATOM      8  F   UNL     1       3.295   7.721  -6.167  0.00  0.00    -0.237 F 
ATOM      9  C   UNL     1       2.452   6.230  -7.871  0.00  0.00    +0.066 C 
ATOM     10  C   UNL     1       3.772   6.129  -8.568  0.00  0.00    -0.003 C 
ATOM     11  C   UNL     1       3.662   5.919  -9.882  0.00  0.00    +0.036 C 
ATOM     12  C   UNL     1       2.385   6.017 -10.600  0.00  0.00    +0.195 C 
ATOM     13  C   UNL     1       1.299   6.710  -9.894  0.00  0.00    +0.038 C 
ATOM     14  O   UNL     1       2.288   5.758 -11.838  0.00  0.00    -0.287 OA
ATOM     15  C   UNL     1       4.588   4.881  -7.910  0.00  0.00    +0.180 C 
ATOM     16  F   UNL     1       5.907   5.431  -8.401  0.00  0.00    -0.233 F 
ATOM     17  C   UNL     1       1.874   4.828  -8.017  0.00  0.00    +0.011 C 
ATOM     18  C   UNL     1       1.614   7.137  -8.669  0.00  0.00    -0.017 C 
ATOM     19  C   UNL     1       4.746   5.654  -6.459  0.00  0.00    +0.042 C 
ATOM     20  C   UNL     1       4.161   4.757  -3.600  0.00  0.00    +0.004 C 
ATOM     21  C   UNL     1       1.851   4.579  -3.639  0.00  0.00    +0.004 C 
ATOM     22  C   UNL     1       1.524   7.001  -4.335  0.00  0.00    +0.039 C 
ATOM     23  C   UNL     1       4.097   5.463  -2.127  0.00  0.00    +0.044 C 
ATOM     24  C   UNL     1       3.254   4.233  -1.460  0.00  0.00    +0.004 C 
ENDROOT
BRANCH   1  25
ATOM     25  C   UNL     1       1.878   6.280  -1.289  0.00  0.00    +0.203 C 
ATOM     26  O   UNL     1       2.236   5.660  -0.306  0.00  0.00    -0.291 OA
BRANCH  25  27
ATOM     27  C   UNL     1       0.484   6.794  -1.282  0.00  0.00    +0.163 C 
ATOM     28 CL   UNL     1      -0.662   5.429  -1.212  0.00  0.00    -0.105 Cl
ENDBRANCH  25  27
ENDBRANCH   1  25
BRANCH   1  29
ATOM     29  O   UNL     1       3.481   7.632  -2.499  0.00  0.00    -0.449 OA
BRANCH  29  30
ATOM     30  C   UNL     1       3.920   8.253  -1.351  0.00  0.00    +0.317 C 
ATOM     31  O   UNL     1       3.516   9.454  -1.279  0.00  0.00    -0.250 OA
BRANCH  30  33
ATOM     32  C   UNL     1       4.758   7.751   0.716  0.00  0.00    +0.012 C 
ATOM     33  C   UNL     1       4.971   7.706  -0.447  0.00  0.00    +0.110 C 
ENDBRANCH  30  33
ENDBRANCH  29  30
ENDBRANCH   1  29
TORSDOF 5
ENDMDL
MODEL 4
REMARK VINA RESULT:      -8.3      3.099      7.990
REMARK  Name = 
REMARK  5 active torsions:
REMARK  status: ('A' for Active; 'I' for Inactive)
REMARK    1  A    between atoms: C_2  and  C_3
REMARK    2  A    between atoms: C_3  and  O_5
REMARK    3  A    between atoms: O_5  and  C_6
REMARK    4  A    between atoms: C_6  and  C_7
REMARK    5  A    between atoms: C_7  and  C_9
REMARK                            x       y       z     vdW  Elec       q    Type
REMARK                         _______ _______ _______ _____ _____    ______ ____
ROOT
ATOM      1  C   UNL     1       3.029   5.720  -6.552  0.00  0.00    +0.187 C 
ATOM      2  C   UNL     1       3.504   5.609  -5.162  0.00  0.00    +0.043 C 
ATOM      3  C   UNL     1       2.076   6.111  -4.604  0.00  0.00    +0.007 C 
ATOM      4  C   UNL     1       2.455   5.671  -3.015  0.00  0.00    +0.036 C 
ATOM      5  C   UNL     1       3.288   7.007  -2.721  0.00  0.00    +0.168 C 
ATOM      6  C   UNL     1       4.811   6.754  -3.264  0.00  0.00    +0.182 C 
ATOM      7  O   UNL     1       4.790   5.253  -3.024  0.00  0.00    -0.220 OA
ATOM      8  F   UNL     1       2.779   8.064  -3.303  0.00  0.00    -0.237 F 
ATOM      9  C   UNL     1       3.460   6.988  -1.251  0.00  0.00    +0.066 C 
ATOM     10  C   UNL     1       2.154   7.250  -0.570  0.00  0.00    -0.003 C 
ATOM     11  C   UNL     1       2.264   7.387   0.754  0.00  0.00    +0.036 C 
ATOM     12  C   UNL     1       3.559   7.508   1.436  0.00  0.00    +0.195 C 
ATOM     13  C   UNL     1       4.709   7.838   0.584  0.00  0.00    +0.038 C 
ATOM     14  O   UNL     1       3.649   7.579   2.700  0.00  0.00    -0.287 OA
ATOM     15  C   UNL     1       1.169   5.988  -0.879  0.00  0.00    +0.180 C 
ATOM     16  F   UNL     1      -0.057   6.816  -0.571  0.00  0.00    -0.233 F 
ATOM     17  C   UNL     1       3.855   5.613  -0.726  0.00  0.00    +0.011 C 
ATOM     18  C   UNL     1       4.425   7.959  -0.715  0.00  0.00    -0.017 C 
ATOM     19  C   UNL     1       1.080   6.358  -2.486  0.00  0.00    +0.042 C 
ATOM     20  C   UNL     1       1.481   4.659  -4.992  0.00  0.00    +0.004 C 
ATOM     21  C   UNL     1       3.749   4.199  -4.875  0.00  0.00    +0.004 C 
ATOM     22  C   UNL     1       4.401   6.655  -4.851  0.00  0.00    +0.039 C 
ATOM     23  C   UNL     1       1.603   4.930  -6.599  0.00  0.00    +0.044 C 
ATOM     24  C   UNL     1       2.266   3.467  -6.900  0.00  0.00    +0.004 C 
ENDROOT
BRANCH   1  25
ATOM     25  C   UNL     1       3.889   5.197  -7.596  0.00  0.00    +0.203 C 
ATOM     26  O   UNL     1       5.067   5.498  -7.590  0.00  0.00    -0.291 OA
BRANCH  25  27
ATOM     27  C   UNL     1       3.414   4.388  -8.748  0.00  0.00    +0.163 C 
ATOM     28 CL   UNL     1       4.100   5.034 -10.263  0.00  0.00    -0.105 Cl
ENDBRANCH  25  27
ENDBRANCH   1  25
BRANCH   1  29
ATOM     29  O   UNL     1       2.501   7.020  -6.815  0.00  0.00    -0.449 OA
BRANCH  29  30
ATOM     30  C   UNL     1       2.117   7.361  -8.093  0.00  0.00    +0.317 C 
ATOM     31  O   UNL     1       2.748   8.374  -8.521  0.00  0.00    -0.250 OA
BRANCH  30  33
ATOM     32  C   UNL     1       0.945   6.780  -9.968  0.00  0.00    +0.012 C 
ATOM     33  C   UNL     1       0.916   6.813  -8.786  0.00  0.00    +0.110 C 
ENDBRANCH  30  33
ENDBRANCH  29  30
ENDBRANCH   1  29
TORSDOF 5
ENDMDL
MODEL 5
REMARK VINA RESULT:      -8.1      2.930      7.518
REMARK  Name = 
REMARK  5 active torsions:
REMARK  status: ('A' for Active; 'I' for Inactive)
REMARK    1  A    between atoms: C_2  and  C_3
REMARK    2  A    between atoms: C_3  and  O_5
REMARK    3  A    between atoms: O_5  and  C_6
REMARK    4  A    between atoms: C_6  and  C_7
REMARK    5  A    between atoms: C_7  and  C_9
REMARK                            x       y       z     vdW  Elec       q    Type
REMARK                         _______ _______ _______ _____ _____    ______ ____
ROOT
ATOM      1  C   UNL     1       2.257   5.710  -7.878  0.00  0.00    +0.187 C 
ATOM      2  C   UNL     1       3.040   5.880  -6.643  0.00  0.00    +0.043 C 
ATOM      3  C   UNL     1       1.788   5.394  -5.748  0.00  0.00    +0.007 C 
ATOM      4  C   UNL     1       2.740   5.240  -4.358  0.00  0.00    +0.036 C 
ATOM      5  C   UNL     1       2.674   6.799  -4.000  0.00  0.00    +0.168 C 
ATOM      6  C   UNL     1       3.858   7.540  -4.854  0.00  0.00    +0.182 C 
ATOM      7  O   UNL     1       4.781   6.332  -4.877  0.00  0.00    -0.220 OA
ATOM      8  F   UNL     1       1.516   7.340  -4.285  0.00  0.00    -0.237 F 
ATOM      9  C   UNL     1       3.191   6.855  -2.614  0.00  0.00    +0.066 C 
ATOM     10  C   UNL     1       2.204   6.251  -1.666  0.00  0.00    -0.003 C 
ATOM     11  C   UNL     1       2.545   6.397  -0.382  0.00  0.00    +0.036 C 
ATOM     12  C   UNL     1       3.644   7.266   0.056  0.00  0.00    +0.195 C 
ATOM     13  C   UNL     1       4.121   8.248  -0.927  0.00  0.00    +0.038 C 
ATOM     14  O   UNL     1       3.993   7.348   1.273  0.00  0.00    -0.287 OA
ATOM     15  C   UNL     1       2.106   4.658  -1.997  0.00  0.00    +0.180 C 
ATOM     16  F   UNL     1       0.755   4.560  -1.327  0.00  0.00    -0.233 F 
ATOM     17  C   UNL     1       4.433   5.995  -2.417  0.00  0.00    +0.011 C 
ATOM     18  C   UNL     1       3.502   8.200  -2.109  0.00  0.00    -0.017 C 
ATOM     19  C   UNL     1       1.413   4.933  -3.471  0.00  0.00    +0.042 C 
ATOM     20  C   UNL     1       2.081   3.890  -6.262  0.00  0.00    +0.004 C 
ATOM     21  C   UNL     1       4.127   4.906  -6.653  0.00  0.00    +0.004 C 
ATOM     22  C   UNL     1       3.198   7.248  -6.329  0.00  0.00    +0.039 C 
ATOM     23  C   UNL     1       1.609   4.216  -7.793  0.00  0.00    +0.044 C 
ATOM     24  C   UNL     1       2.899   3.468  -8.460  0.00  0.00    +0.004 C 
ENDROOT
BRANCH   1  25
ATOM     25  C   UNL     1       2.961   5.844  -9.139  0.00  0.00    +0.203 C 
ATOM     26  O   UNL     1       2.702   5.070 -10.040  0.00  0.00    -0.291 OA
BRANCH  25  27
ATOM     27  C   UNL     1       4.064   6.809  -9.386  0.00  0.00    +0.163 C 
ATOM     28 CL   UNL     1       5.559   5.925  -9.791  0.00  0.00    -0.105 Cl
ENDBRANCH  25  27
ENDBRANCH   1  25
BRANCH   1  29
ATOM     29  O   UNL     1       1.023   6.425  -7.809  0.00  0.00    -0.449 OA
BRANCH  29  30
ATOM     30  C   UNL     1      -0.123   5.869  -8.334  0.00  0.00    +0.317 C 
ATOM     31  O   UNL     1      -0.251   6.130  -9.569  0.00  0.00    -0.250 OA
BRANCH  30  33
ATOM     32  C   UNL     1      -1.509   5.851  -6.516  0.00  0.00    +0.012 C 
ATOM     33  C   UNL     1      -1.228   5.290  -7.519  0.00  0.00    +0.110 C 
ENDBRANCH  30  33
ENDBRANCH  29  30
ENDBRANCH   1  29
TORSDOF 5
ENDMDL
MODEL 6
REMARK VINA RESULT:      -8.1      2.920      7.645
REMARK  Name = 
REMARK  5 active torsions:
REMARK  status: ('A' for Active; 'I' for Inactive)
REMARK    1  A    between atoms: C_2  and  C_3
REMARK    2  A    between atoms: C_3  and  O_5
REMARK    3  A    between atoms: O_5  and  C_6
REMARK    4  A    between atoms: C_6  and  C_7
REMARK    5  A    between atoms: C_7  and  C_9
REMARK                            x       y       z     vdW  Elec       q    Type
REMARK                         _______ _______ _______ _____ _____    ______ ____
ROOT
ATOM      1  C   UNL     1       1.248   5.923 -10.755  0.00  0.00    +0.187 C 
ATOM      2  C   UNL     1       2.010   5.612  -9.534  0.00  0.00    +0.043 C 
ATOM      3  C   UNL     1       0.819   6.187  -8.609  0.00  0.00    +0.007 C 
ATOM      4  C   UNL     1       1.494   5.539  -7.200  0.00  0.00    +0.036 C 
ATOM      5  C   UNL     1       2.528   6.745  -7.002  0.00  0.00    +0.168 C 
ATOM      6  C   UNL     1       3.844   6.405  -7.912  0.00  0.00    +0.182 C 
ATOM      7  O   UNL     1       3.696   4.896  -7.803  0.00  0.00    -0.220 OA
ATOM      8  F   UNL     1       2.032   7.905  -7.353  0.00  0.00    -0.237 F 
ATOM      9  C   UNL     1       3.026   6.546  -5.622  0.00  0.00    +0.066 C 
ATOM     10  C   UNL     1       1.952   6.858  -4.629  0.00  0.00    -0.003 C 
ATOM     11  C   UNL     1       2.377   6.836  -3.364  0.00  0.00    +0.036 C 
ATOM     12  C   UNL     1       3.798   6.752  -3.002  0.00  0.00    +0.195 C 
ATOM     13  C   UNL     1       4.755   7.060  -4.073  0.00  0.00    +0.038 C 
ATOM     14  O   UNL     1       4.182   6.673  -1.796  0.00  0.00    -0.287 OA
ATOM     15  C   UNL     1       0.777   5.741  -4.800  0.00  0.00    +0.180 C 
ATOM     16  F   UNL     1      -0.237   6.646  -4.140  0.00  0.00    -0.233 F 
ATOM     17  C   UNL     1       3.361   5.089  -5.325  0.00  0.00    +0.011 C 
ATOM     18  C   UNL     1       4.199   7.351  -5.252  0.00  0.00    -0.017 C 
ATOM     19  C   UNL     1       0.369   6.294  -6.302  0.00  0.00    +0.042 C 
ATOM     20  C   UNL     1      -0.021   4.853  -8.966  0.00  0.00    +0.004 C 
ATOM     21  C   UNL     1       2.142   4.162  -9.434  0.00  0.00    +0.004 C 
ATOM     22  C   UNL     1       3.075   6.524  -9.358  0.00  0.00    +0.039 C 
ATOM     23  C   UNL     1      -0.236   5.287 -10.527  0.00  0.00    +0.044 C 
ATOM     24  C   UNL     1       0.158   3.809 -11.100  0.00  0.00    +0.004 C 
ENDROOT
BRANCH   1  25
ATOM     25  C   UNL     1       1.778   5.437 -12.015  0.00  0.00    +0.203 C 
ATOM     26  O   UNL     1       1.064   4.758 -12.728  0.00  0.00    -0.291 OA
BRANCH  25  27
ATOM     27  C   UNL     1       3.182   5.626 -12.463  0.00  0.00    +0.163 C 
ATOM     28 CL   UNL     1       3.244   5.682 -14.245  0.00  0.00    -0.105 Cl
ENDBRANCH  25  27
ENDBRANCH   1  25
BRANCH   1  29
ATOM     29  O   UNL     1       0.836   7.290 -10.772  0.00  0.00    -0.449 OA
BRANCH  29  30
ATOM     30  C   UNL     1       0.074   7.764 -11.817  0.00  0.00    +0.317 C 
ATOM     31  O   UNL     1      -1.168   7.670 -11.575  0.00  0.00    -0.250 OA
BRANCH  30  33
ATOM     32  C   UNL     1      -0.013   7.670 -14.099  0.00  0.00    +0.012 C 
ATOM     33  C   UNL     1       0.604   8.075 -13.175  0.00  0.00    +0.110 C 
ENDBRANCH  30  33
ENDBRANCH  29  30
ENDBRANCH   1  29
TORSDOF 5
ENDMDL
MODEL 7
REMARK VINA RESULT:      -7.3      2.026      3.026
REMARK  Name = 
REMARK  5 active torsions:
REMARK  status: ('A' for Active; 'I' for Inactive)
REMARK    1  A    between atoms: C_2  and  C_3
REMARK    2  A    between atoms: C_3  and  O_5
REMARK    3  A    between atoms: O_5  and  C_6
REMARK    4  A    between atoms: C_6  and  C_7
REMARK    5  A    between atoms: C_7  and  C_9
REMARK                            x       y       z     vdW  Elec       q    Type
REMARK                         _______ _______ _______ _____ _____    ______ ____
ROOT
ATOM      1  C   UNL     1       1.266   6.154  -3.319  0.00  0.00    +0.187 C 
ATOM      2  C   UNL     1       1.413   5.448  -4.604  0.00  0.00    +0.043 C 
ATOM      3  C   UNL     1       1.891   6.809  -5.329  0.00  0.00    +0.007 C 
ATOM      4  C   UNL     1       2.403   5.983  -6.714  0.00  0.00    +0.036 C 
ATOM      5  C   UNL     1       0.934   5.901  -7.347  0.00  0.00    +0.168 C 
ATOM      6  C   UNL     1       0.207   4.583  -6.706  0.00  0.00    +0.182 C 
ATOM      7  O   UNL     1       1.495   3.801  -6.509  0.00  0.00    -0.220 OA
ATOM      8  F   UNL     1       0.214   6.968  -7.107  0.00  0.00    -0.237 F 
ATOM      9  C   UNL     1       1.187   5.484  -8.745  0.00  0.00    +0.066 C 
ATOM     10  C   UNL     1       1.823   6.598  -9.515  0.00  0.00    -0.003 C 
ATOM     11  C   UNL     1       1.948   6.337 -10.819  0.00  0.00    +0.036 C 
ATOM     12  C   UNL     1       1.311   5.183 -11.465  0.00  0.00    +0.195 C 
ATOM     13  C   UNL     1       0.237   4.529 -10.704  0.00  0.00    +0.038 C 
ATOM     14  O   UNL     1       1.487   4.917 -12.692  0.00  0.00    -0.287 OA
ATOM     15  C   UNL     1       3.309   6.848  -8.892  0.00  0.00    +0.180 C 
ATOM     16  F   UNL     1       3.356   8.247  -9.463  0.00  0.00    -0.233 F 
ATOM     17  C   UNL     1       2.214   4.362  -8.845  0.00  0.00    +0.011 C 
ATOM     18  C   UNL     1      -0.000   5.062  -9.503  0.00  0.00    -0.017 C 
ATOM     19  C   UNL     1       2.696   7.397  -7.460  0.00  0.00    +0.042 C 
ATOM     20  C   UNL     1       3.306   6.648  -4.564  0.00  0.00    +0.004 C 
ATOM     21  C   UNL     1       2.496   4.479  -4.471  0.00  0.00    +0.004 C 
ATOM     22  C   UNL     1       0.151   5.163  -5.170  0.00  0.00    +0.039 C 
ATOM     23  C   UNL     1       2.661   6.968  -3.096  0.00  0.00    +0.044 C 
ATOM     24  C   UNL     1       3.433   5.725  -2.371  0.00  0.00    +0.004 C 
ENDROOT
BRANCH   1  25
ATOM     25  C   UNL     1       0.999   5.349  -2.142  0.00  0.00    +0.203 C 
ATOM     26  O   UNL     1       0.224   4.417  -2.233  0.00  0.00    -0.291 OA
BRANCH  25  27
ATOM     27  C   UNL     1       1.535   5.642  -0.787  0.00  0.00    +0.163 C 
ATOM     28 CL   UNL     1       0.569   6.932  -0.023  0.00  0.00    -0.105 Cl
ENDBRANCH  25  27
ENDBRANCH   1  25
BRANCH   1  29
ATOM     29  O   UNL     1       0.429   7.303  -3.454  0.00  0.00    -0.449 OA
BRANCH  29  30
ATOM     30  C   UNL     1      -0.941   7.156  -3.476  0.00  0.00    +0.317 C 
ATOM     31  O   UNL     1      -1.433   7.480  -4.600  0.00  0.00    -0.250 OA
BRANCH  30  33
ATOM     32  C   UNL     1      -2.756   6.275  -2.401  0.00  0.00    +0.012 C 
ATOM     33  C   UNL     1      -1.783   6.934  -2.266  0.00  0.00    +0.110 C 
ENDBRANCH  30  33
ENDBRANCH  29  30
ENDBRANCH   1  29
TORSDOF 5
ENDMDL
MODEL 8
REMARK VINA RESULT:      -7.3      3.279      7.551
REMARK  Name = 
REMARK  5 active torsions:
REMARK  status: ('A' for Active; 'I' for Inactive)
REMARK    1  A    between atoms: C_2  and  C_3
REMARK    2  A    between atoms: C_3  and  O_5
REMARK    3  A    between atoms: O_5  and  C_6
REMARK    4  A    between atoms: C_6  and  C_7
REMARK    5  A    between atoms: C_7  and  C_9
REMARK                            x       y       z     vdW  Elec       q    Type
REMARK                         _______ _______ _______ _____ _____    ______ ____
ROOT
ATOM      1  C   UNL     1       2.539   5.813  -6.772  0.00  0.00    +0.187 C 
ATOM      2  C   UNL     1       2.234   5.586  -5.349  0.00  0.00    +0.043 C 
ATOM      3  C   UNL     1       0.658   5.793  -5.624  0.00  0.00    +0.007 C 
ATOM      4  C   UNL     1       0.234   5.204  -4.096  0.00  0.00    +0.036 C 
ATOM      5  C   UNL     1       0.512   6.595  -3.354  0.00  0.00    +0.168 C 
ATOM      6  C   UNL     1       2.110   6.644  -3.006  0.00  0.00    +0.182 C 
ATOM      7  O   UNL     1       2.263   5.138  -2.869  0.00  0.00    -0.220 OA
ATOM      8  F   UNL     1       0.183   7.634  -4.080  0.00  0.00    -0.237 F 
ATOM      9  C   UNL     1      -0.104   6.403  -2.022  0.00  0.00    +0.066 C 
ATOM     10  C   UNL     1      -1.596   6.376  -2.137  0.00  0.00    -0.003 C 
ATOM     11  C   UNL     1      -2.218   6.348  -0.956  0.00  0.00    +0.036 C 
ATOM     12  C   UNL     1      -1.520   6.564   0.317  0.00  0.00    +0.195 C 
ATOM     13  C   UNL     1      -0.185   7.172   0.226  0.00  0.00    +0.038 C 
ATOM     14  O   UNL     1      -2.115   6.477   1.434  0.00  0.00    -0.287 OA
ATOM     15  C   UNL     1      -2.007   5.036  -2.971  0.00  0.00    +0.180 C 
ATOM     16  F   UNL     1      -3.349   5.626  -3.338  0.00  0.00    -0.233 F 
ATOM     17  C   UNL     1       0.222   5.043  -1.417  0.00  0.00    +0.011 C 
ATOM     18  C   UNL     1       0.229   7.424  -1.018  0.00  0.00    -0.017 C 
ATOM     19  C   UNL     1      -1.319   5.602  -4.361  0.00  0.00    +0.042 C 
ATOM     20  C   UNL     1       0.649   4.335  -6.322  0.00  0.00    +0.004 C 
ATOM     21  C   UNL     1       2.566   4.202  -5.026  0.00  0.00    +0.004 C 
ATOM     22  C   UNL     1       2.613   6.701  -4.568  0.00  0.00    +0.039 C 
ATOM     23  C   UNL     1       1.533   4.836  -7.603  0.00  0.00    +0.044 C 
ATOM     24  C   UNL     1       2.527   3.540  -7.555  0.00  0.00    +0.004 C 
ENDROOT
BRANCH   1  25
ATOM     25  C   UNL     1       3.900   5.568  -7.211  0.00  0.00    +0.203 C 
ATOM     26  O   UNL     1       4.815   5.825  -6.453  0.00  0.00    -0.291 OA
BRANCH  25  27
ATOM     27  C   UNL     1       4.272   5.113  -8.576  0.00  0.00    +0.163 C 
ATOM     28 CL   UNL     1       6.000   5.440  -8.870  0.00  0.00    -0.105 Cl
ENDBRANCH  25  27
ENDBRANCH   1  25
BRANCH   1  29
ATOM     29  O   UNL     1       1.981   7.045  -7.229  0.00  0.00    -0.449 OA
BRANCH  29  30
ATOM     30  C   UNL     1       1.924   7.315  -8.579  0.00  0.00    +0.317 C 
ATOM     31  O   UNL     1       2.784   8.181  -8.924  0.00  0.00    -0.250 OA
BRANCH  30  33
ATOM     32  C   UNL     1       1.074   6.755 -10.626  0.00  0.00    +0.012 C 
ATOM     33  C   UNL     1       0.816   6.883  -9.478  0.00  0.00    +0.110 C 
ENDBRANCH  30  33
ENDBRANCH  29  30
ENDBRANCH   1  29
TORSDOF 5
ENDMDL
MODEL 9
REMARK VINA RESULT:      -7.3      2.331      4.129
REMARK  Name = 
REMARK  5 active torsions:
REMARK  status: ('A' for Active; 'I' for Inactive)
REMARK    1  A    between atoms: C_2  and  C_3
REMARK    2  A    between atoms: C_3  and  O_5
REMARK    3  A    between atoms: O_5  and  C_6
REMARK    4  A    between atoms: C_6  and  C_7
REMARK    5  A    between atoms: C_7  and  C_9
REMARK                            x       y       z     vdW  Elec       q    Type
REMARK                         _______ _______ _______ _____ _____    ______ ____
ROOT
ATOM      1  C   UNL     1       2.437   5.298  -6.671  0.00  0.00    +0.187 C 
ATOM      2  C   UNL     1       2.692   5.566  -8.097  0.00  0.00    +0.043 C 
ATOM      3  C   UNL     1       1.161   6.029  -8.313  0.00  0.00    +0.007 C 
ATOM      4  C   UNL     1       1.490   6.672  -9.843  0.00  0.00    +0.036 C 
ATOM      5  C   UNL     1       1.398   5.256 -10.585  0.00  0.00    +0.168 C 
ATOM      6  C   UNL     1       2.868   4.548 -10.454  0.00  0.00    +0.182 C 
ATOM      7  O   UNL     1       3.643   5.855 -10.413  0.00  0.00    -0.220 OA
ATOM      8  F   UNL     1       0.480   4.472 -10.078  0.00  0.00    -0.237 F 
ATOM      9  C   UNL     1       1.342   5.623 -12.018  0.00  0.00    +0.066 C 
ATOM     10  C   UNL     1       0.027   6.258 -12.342  0.00  0.00    -0.003 C 
ATOM     11  C   UNL     1      -0.145   6.485 -13.647  0.00  0.00    +0.036 C 
ATOM     12  C   UNL     1       0.757   5.948 -14.674  0.00  0.00    +0.195 C 
ATOM     13  C   UNL     1       1.642   4.856 -14.249  0.00  0.00    +0.038 C 
ATOM     14  O   UNL     1       0.613   6.220 -15.905  0.00  0.00    -0.287 OA
ATOM     15  C   UNL     1      -0.045   7.685 -11.556  0.00  0.00    +0.180 C 
ATOM     16  F   UNL     1      -1.553   7.706 -11.648  0.00  0.00    -0.233 F 
ATOM     17  C   UNL     1       2.349   6.706 -12.385  0.00  0.00    +0.011 C 
ATOM     18  C   UNL     1       1.526   4.512 -12.963  0.00  0.00    -0.017 C 
ATOM     19  C   UNL     1      -0.095   6.949 -10.078  0.00  0.00    +0.042 C 
ATOM     20  C   UNL     1       1.526   7.394  -7.528  0.00  0.00    +0.004 C 
ATOM     21  C   UNL     1       3.629   6.681  -8.191  0.00  0.00    +0.004 C 
ATOM     22  C   UNL     1       2.810   4.360  -8.824  0.00  0.00    +0.039 C 
ATOM     23  C   UNL     1       1.705   6.634  -6.091  0.00  0.00    +0.044 C 
ATOM     24  C   UNL     1       3.098   7.412  -5.737  0.00  0.00    +0.004 C 
ENDROOT
BRANCH   1  25
ATOM     25  C   UNL     1       3.581   4.989  -5.834  0.00  0.00    +0.203 C 
ATOM     26  O   UNL     1       4.696   5.083  -6.309  0.00  0.00    -0.291 OA
BRANCH  25  27
ATOM     27  C   UNL     1       3.488   4.461  -4.448  0.00  0.00    +0.163 C 
ATOM     28 CL   UNL     1       4.795   5.153  -3.451  0.00  0.00    -0.105 Cl
ENDBRANCH  25  27
ENDBRANCH   1  25
BRANCH   1  29
ATOM     29  O   UNL     1       1.324   4.419  -6.503  0.00  0.00    -0.449 OA
BRANCH  29  30
ATOM     30  C   UNL     1       0.179   4.871  -5.884  0.00  0.00    +0.317 C 
ATOM     31  O   UNL     1       0.303   4.895  -4.622  0.00  0.00    -0.250 OA
BRANCH  30  33
ATOM     32  C   UNL     1      -1.922   5.756  -6.052  0.00  0.00    +0.012 C 
ATOM     33  C   UNL     1      -1.138   5.033  -6.563  0.00  0.00    +0.110 C 
ENDBRANCH  30  33
ENDBRANCH  29  30
ENDBRANCH   1  29
TORSDOF 5
ENDMDL
