MODEL 1
REMARK VINA RESULT:      -5.7      0.000      0.000
REMARK  Name = 
REMARK  1 active torsions:
REMARK  status: ('A' for Active; 'I' for Inactive)
REMARK    1  A    between atoms: C_6  and  C_7
REMARK                            x       y       z     vdW  Elec       q    Type
REMARK                         _______ _______ _______ _____ _____    ______ ____
ROOT
ATOM      1  C   UNL     1       3.309   5.602  -5.350  0.00  0.00    +0.160 C 
ATOM      2  N   UNL     1       1.913   5.440  -5.025  0.00  0.00    -0.182 N 
ATOM      3  C   UNL     1       1.014   5.292  -6.028  0.00  0.00    +0.355 A 
ATOM      4  O   UNL     1       1.359   4.779  -7.131  0.00  0.00    -0.244 OA
ATOM      5  N   UNL     1      -0.290   5.529  -5.844  0.00  0.00    -0.222 N 
ATOM      6  C   UNL     1      -0.709   5.801  -4.585  0.00  0.00    +0.198 A 
ATOM      7  C   UNL     1      -2.097   5.789  -4.621  0.00  0.00    +0.176 A 
ATOM      8  N   UNL     1      -2.433   5.693  -5.929  0.00  0.00    -0.217 NA
ATOM      9  N   UNL     1       0.181   5.665  -3.596  0.00  0.00    -0.110 NA
ATOM     10  C   UNL     1      -1.361   5.269  -6.621  0.00  0.00    +0.188 A 
ATOM     11  N   UNL     1       1.452   5.321  -3.794  0.00  0.00    -0.059 NA
ENDROOT
BRANCH   7  12
ATOM     12  C   UNL     1      -2.988   5.648  -3.463  0.00  0.00    +0.305 C 
ATOM     13  O   UNL     1      -2.882   4.565  -2.815  0.00  0.00    -0.265 OA
ATOM     14  N   UNL     1      -3.149   6.832  -2.672  0.00  0.00    -0.082 NA
ENDBRANCH   7  12
TORSDOF 1
ENDMDL
MODEL 2
REMARK VINA RESULT:      -5.6      6.863      9.398
REMARK  Name = 
REMARK  1 active torsions:
REMARK  status: ('A' for Active; 'I' for Inactive)
REMARK    1  A    between atoms: C_6  and  C_7
REMARK                            x       y       z     vdW  Elec       q    Type
REMARK                         _______ _______ _______ _____ _____    ______ ____
ROOT
ATOM      1  C   UNL     1       1.261   6.525  -9.365  0.00  0.00    +0.160 C 
ATOM      2  N   UNL     1       2.510   6.417 -10.079  0.00  0.00    -0.182 N 
ATOM      3  C   UNL     1       2.492   6.134 -11.404  0.00  0.00    +0.355 A 
ATOM      4  O   UNL     1       1.505   6.468 -12.120  0.00  0.00    -0.244 OA
ATOM      5  N   UNL     1       3.564   5.640 -12.032  0.00  0.00    -0.222 N 
ATOM      6  C   UNL     1       4.719   5.549 -11.329  0.00  0.00    +0.198 A 
ATOM      7  C   UNL     1       5.713   5.225 -12.244  0.00  0.00    +0.176 A 
ATOM      8  N   UNL     1       5.072   4.960 -13.407  0.00  0.00    -0.217 NA
ATOM      9  N   UNL     1       4.744   6.098 -10.110  0.00  0.00    -0.110 NA
ATOM     10  C   UNL     1       3.830   5.469 -13.343  0.00  0.00    +0.188 A 
ATOM     11  N   UNL     1       3.688   6.683  -9.546  0.00  0.00    -0.059 NA
ENDROOT
BRANCH   7  12
ATOM     12  C   UNL     1       7.157   5.393 -12.044  0.00  0.00    +0.305 C 
ATOM     13  O   UNL     1       7.898   4.578 -12.670  0.00  0.00    -0.265 OA
ATOM     14  N   UNL     1       7.613   6.750 -12.014  0.00  0.00    -0.082 NA
ENDBRANCH   7  12
TORSDOF 1
ENDMDL
MODEL 3
REMARK VINA RESULT:      -5.5      1.648      1.782
REMARK  Name = 
REMARK  1 active torsions:
REMARK  status: ('A' for Active; 'I' for Inactive)
REMARK    1  A    between atoms: C_6  and  C_7
REMARK                            x       y       z     vdW  Elec       q    Type
REMARK                         _______ _______ _______ _____ _____    ______ ____
ROOT
ATOM      1  C   UNL     1       2.408   5.478  -8.105  0.00  0.00    +0.160 C 
ATOM      2  N   UNL     1       1.459   5.309  -7.032  0.00  0.00    -0.182 N 
ATOM      3  C   UNL     1       0.143   5.529  -7.272  0.00  0.00    +0.355 A 
ATOM      4  O   UNL     1      -0.337   5.358  -8.429  0.00  0.00    -0.244 OA
ATOM      5  N   UNL     1      -0.720   5.777  -6.281  0.00  0.00    -0.222 N 
ATOM      6  C   UNL     1      -0.265   5.676  -5.009  0.00  0.00    +0.198 A 
ATOM      7  C   UNL     1      -1.380   5.759  -4.184  0.00  0.00    +0.176 A 
ATOM      8  N   UNL     1      -2.415   6.088  -4.993  0.00  0.00    -0.217 NA
ATOM      9  N   UNL     1       0.968   5.191  -4.832  0.00  0.00    -0.110 NA
ATOM     10  C   UNL     1      -2.068   5.832  -6.266  0.00  0.00    +0.188 A 
ATOM     11  N   UNL     1       1.774   4.847  -5.836  0.00  0.00    -0.059 NA
ENDROOT
BRANCH   7  12
ATOM     12  C   UNL     1      -1.450   5.325  -2.784  0.00  0.00    +0.305 C 
ATOM     13  O   UNL     1      -0.778   6.015  -1.960  0.00  0.00    -0.265 OA
ATOM     14  N   UNL     1      -2.748   4.917  -2.338  0.00  0.00    -0.082 NA
ENDBRANCH   7  12
TORSDOF 1
ENDMDL
MODEL 4
REMARK VINA RESULT:      -5.4      8.218      9.715
REMARK  Name = 
REMARK  1 active torsions:
REMARK  status: ('A' for Active; 'I' for Inactive)
REMARK    1  A    between atoms: C_6  and  C_7
REMARK                            x       y       z     vdW  Elec       q    Type
REMARK                         _______ _______ _______ _____ _____    ______ ____
ROOT
ATOM      1  C   UNL     1       8.336   5.188 -11.622  0.00  0.00    +0.160 C 
ATOM      2  N   UNL     1       7.004   5.420 -12.126  0.00  0.00    -0.182 N 
ATOM      3  C   UNL     1       6.100   6.049 -11.337  0.00  0.00    +0.355 A 
ATOM      4  O   UNL     1       6.477   6.871 -10.453  0.00  0.00    -0.244 OA
ATOM      5  N   UNL     1       4.785   5.953 -11.561  0.00  0.00    -0.222 N 
ATOM      6  C   UNL     1       4.382   5.307 -12.682  0.00  0.00    +0.198 A 
ATOM      7  C   UNL     1       3.017   5.531 -12.797  0.00  0.00    +0.176 A 
ATOM      8  N   UNL     1       2.643   6.141 -11.647  0.00  0.00    -0.217 NA
ATOM      9  N   UNL     1       5.326   4.947 -13.558  0.00  0.00    -0.110 NA
ATOM     10  C   UNL     1       3.739   6.627 -11.040  0.00  0.00    +0.188 A 
ATOM     11  N   UNL     1       6.628   5.152 -13.362  0.00  0.00    -0.059 NA
ENDROOT
BRANCH   7  12
ATOM     12  C   UNL     1       2.217   5.371 -14.018  0.00  0.00    +0.305 C 
ATOM     13  O   UNL     1       2.453   6.203 -14.944  0.00  0.00    -0.265 OA
ATOM     14  N   UNL     1       2.012   4.017 -14.437  0.00  0.00    -0.082 NA
ENDBRANCH   7  12
TORSDOF 1
ENDMDL
MODEL 5
REMARK VINA RESULT:      -5.3      2.450      3.247
REMARK  Name = 
REMARK  1 active torsions:
REMARK  status: ('A' for Active; 'I' for Inactive)
REMARK    1  A    between atoms: C_6  and  C_7
REMARK                            x       y       z     vdW  Elec       q    Type
REMARK                         _______ _______ _______ _____ _____    ______ ____
ROOT
ATOM      1  C   UNL     1       4.294   6.970  -4.645  0.00  0.00    +0.160 C 
ATOM      2  N   UNL     1       2.943   6.784  -4.176  0.00  0.00    -0.182 N 
ATOM      3  C   UNL     1       2.735   6.379  -2.900  0.00  0.00    +0.355 A 
ATOM      4  O   UNL     1       3.571   6.658  -1.993  0.00  0.00    -0.244 OA
ATOM      5  N   UNL     1       1.582   5.819  -2.518  0.00  0.00    -0.222 N 
ATOM      6  C   UNL     1       0.572   5.780  -3.421  0.00  0.00    +0.198 A 
ATOM      7  C   UNL     1      -0.558   5.362  -2.729  0.00  0.00    +0.176 A 
ATOM      8  N   UNL     1      -0.125   4.999  -1.498  0.00  0.00    -0.217 NA
ATOM      9  N   UNL     1       0.748   6.437  -4.571  0.00  0.00    -0.110 NA
ATOM     10  C   UNL     1       1.095   5.525  -1.296  0.00  0.00    +0.188 A 
ATOM     11  N   UNL     1       1.870   7.083  -4.885  0.00  0.00    -0.059 NA
ENDROOT
BRANCH   7  12
ATOM     12  C   UNL     1      -1.949   5.532  -3.167  0.00  0.00    +0.305 C 
ATOM     13  O   UNL     1      -2.755   4.625  -2.802  0.00  0.00    -0.265 OA
ATOM     14  N   UNL     1      -2.449   6.872  -3.099  0.00  0.00    -0.082 NA
ENDBRANCH   7  12
TORSDOF 1
ENDMDL
MODEL 6
REMARK VINA RESULT:      -5.3      6.153      9.171
REMARK  Name = 
REMARK  1 active torsions:
REMARK  status: ('A' for Active; 'I' for Inactive)
REMARK    1  A    between atoms: C_6  and  C_7
REMARK                            x       y       z     vdW  Elec       q    Type
REMARK                         _______ _______ _______ _____ _____    ______ ____
ROOT
ATOM      1  C   UNL     1       1.045   6.160  -9.234  0.00  0.00    +0.160 C 
ATOM      2  N   UNL     1       2.318   5.888  -9.856  0.00  0.00    -0.182 N 
ATOM      3  C   UNL     1       3.397   5.643  -9.074  0.00  0.00    +0.355 A 
ATOM      4  O   UNL     1       3.257   5.137  -7.923  0.00  0.00    -0.244 OA
ATOM      5  N   UNL     1       4.645   5.773  -9.536  0.00  0.00    -0.222 N 
ATOM      6  C   UNL     1       4.803   6.037 -10.856  0.00  0.00    +0.198 A 
ATOM      7  C   UNL     1       6.160   5.907 -11.124  0.00  0.00    +0.176 A 
ATOM      8  N   UNL     1       6.762   5.754  -9.920  0.00  0.00    -0.217 NA
ATOM      9  N   UNL     1       3.712   5.998 -11.627  0.00  0.00    -0.110 NA
ATOM     10  C   UNL     1       5.833   5.407  -9.013  0.00  0.00    +0.188 A 
ATOM     11  N   UNL     1       2.488   5.758 -11.159  0.00  0.00    -0.059 NA
ENDROOT
BRANCH   7  12
ATOM     12  C   UNL     1       6.763   5.717 -12.449  0.00  0.00    +0.305 C 
ATOM     13  O   UNL     1       7.050   6.778 -13.079  0.00  0.00    -0.265 OA
ATOM     14  N   UNL     1       7.730   4.665 -12.532  0.00  0.00    -0.082 NA
ENDBRANCH   7  12
TORSDOF 1
ENDMDL
MODEL 7
REMARK VINA RESULT:      -5.3      2.617      4.972
REMARK  Name = 
REMARK  1 active torsions:
REMARK  status: ('A' for Active; 'I' for Inactive)
REMARK    1  A    between atoms: C_6  and  C_7
REMARK                            x       y       z     vdW  Elec       q    Type
REMARK                         _______ _______ _______ _____ _____    ______ ____
ROOT
ATOM      1  C   UNL     1      -1.586   6.404   0.206  0.00  0.00    +0.160 C 
ATOM      2  N   UNL     1      -0.935   5.871  -0.965  0.00  0.00    -0.182 N 
ATOM      3  C   UNL     1       0.408   6.001  -1.092  0.00  0.00    +0.355 A 
ATOM      4  O   UNL     1       1.147   6.075  -0.069  0.00  0.00    -0.244 OA
ATOM      5  N   UNL     1       1.015   5.898  -2.280  0.00  0.00    -0.222 N 
ATOM      6  C   UNL     1       0.260   5.532  -3.343  0.00  0.00    +0.198 A 
ATOM      7  C   UNL     1       1.143   5.285  -4.387  0.00  0.00    +0.176 A 
ATOM      8  N   UNL     1       2.357   5.693  -3.948  0.00  0.00    -0.217 NA
ATOM      9  N   UNL     1      -1.000   5.153  -3.104  0.00  0.00    -0.110 NA
ATOM     10  C   UNL     1       2.319   5.803  -2.609  0.00  0.00    +0.188 A 
ATOM     11  N   UNL     1      -1.552   5.160  -1.891  0.00  0.00    -0.059 NA
ENDROOT
BRANCH   7  12
ATOM     12  C   UNL     1       0.851   4.509  -5.598  0.00  0.00    +0.305 C 
ATOM     13  O   UNL     1       0.027   5.036  -6.404  0.00  0.00    -0.265 OA
ATOM     14  N   UNL     1       1.983   3.869  -6.198  0.00  0.00    -0.082 NA
ENDBRANCH   7  12
TORSDOF 1
ENDMDL
MODEL 8
REMARK VINA RESULT:      -5.2      6.245      8.869
REMARK  Name = 
REMARK  1 active torsions:
REMARK  status: ('A' for Active; 'I' for Inactive)
REMARK    1  A    between atoms: C_6  and  C_7
REMARK                            x       y       z     vdW  Elec       q    Type
REMARK                         _______ _______ _______ _____ _____    ______ ____
ROOT
ATOM      1  C   UNL     1       2.820   5.037  -7.332  0.00  0.00    +0.160 C 
ATOM      2  N   UNL     1       3.597   5.385  -8.496  0.00  0.00    -0.182 N 
ATOM      3  C   UNL     1       2.959   5.656  -9.660  0.00  0.00    +0.355 A 
ATOM      4  O   UNL     1       1.783   6.121  -9.657  0.00  0.00    -0.244 OA
ATOM      5  N   UNL     1       3.590   5.598 -10.838  0.00  0.00    -0.222 N 
ATOM      6  C   UNL     1       4.928   5.381 -10.826  0.00  0.00    +0.198 A 
ATOM      7  C   UNL     1       5.371   5.581 -12.127  0.00  0.00    +0.176 A 
ATOM      8  N   UNL     1       4.255   5.725 -12.880  0.00  0.00    -0.217 NA
ATOM      9  N   UNL     1       5.543   5.394  -9.639  0.00  0.00    -0.110 NA
ATOM     10  C   UNL     1       3.219   6.002 -12.070  0.00  0.00    +0.188 A 
ATOM     11  N   UNL     1       4.905   5.563  -8.481  0.00  0.00    -0.059 NA
ENDROOT
BRANCH   7  12
ATOM     12  C   UNL     1       6.758   5.838 -12.535  0.00  0.00    +0.305 C 
ATOM     13  O   UNL     1       7.272   6.910 -12.094  0.00  0.00    -0.265 OA
ATOM     14  N   UNL     1       7.615   4.691 -12.531  0.00  0.00    -0.082 NA
ENDBRANCH   7  12
TORSDOF 1
ENDMDL
MODEL 9
REMARK VINA RESULT:      -5.2      8.113      9.650
REMARK  Name = 
REMARK  1 active torsions:
REMARK  status: ('A' for Active; 'I' for Inactive)
REMARK    1  A    between atoms: C_6  and  C_7
REMARK                            x       y       z     vdW  Elec       q    Type
REMARK                         _______ _______ _______ _____ _____    ______ ____
ROOT
ATOM      1  C   UNL     1       0.818   5.404 -13.231  0.00  0.00    +0.160 C 
ATOM      2  N   UNL     1       2.127   5.692 -12.699  0.00  0.00    -0.182 N 
ATOM      3  C   UNL     1       3.218   5.468 -13.470  0.00  0.00    +0.355 A 
ATOM      4  O   UNL     1       3.139   5.530 -14.731  0.00  0.00    -0.244 OA
ATOM      5  N   UNL     1       4.438   5.332 -12.940  0.00  0.00    -0.222 N 
ATOM      6  C   UNL     1       4.575   5.552 -11.609  0.00  0.00    +0.198 A 
ATOM      7  C   UNL     1       5.940   5.568 -11.351  0.00  0.00    +0.176 A 
ATOM      8  N   UNL     1       6.538   5.175 -12.501  0.00  0.00    -0.217 NA
ATOM      9  N   UNL     1       3.515   6.036 -10.953  0.00  0.00    -0.110 NA
ATOM     10  C   UNL     1       5.660   5.298 -13.510  0.00  0.00    +0.188 A 
ATOM     11  N   UNL     1       2.336   6.266 -11.528  0.00  0.00    -0.059 NA
ENDROOT
BRANCH   7  12
ATOM     12  C   UNL     1       6.585   6.139 -10.163  0.00  0.00    +0.305 C 
ATOM     13  O   UNL     1       6.604   5.397  -9.136  0.00  0.00    -0.265 OA
ATOM     14  N   UNL     1       7.787   6.875 -10.419  0.00  0.00    -0.082 NA
ENDBRANCH   7  12
TORSDOF 1
ENDMDL
