MODEL 1
REMARK VINA RESULT:      -5.8      0.000      0.000
REMARK  Name = 
REMARK  2 active torsions:
REMARK  status: ('A' for Active; 'I' for Inactive)
REMARK    1  A    between atoms: N_5  and  C_6
REMARK    2  A    between atoms: C_9  and  C_10
REMARK                            x       y       z     vdW  Elec       q    Type
REMARK                         _______ _______ _______ _____ _____    ______ ____
ROOT
ATOM      1  N   UNL     1      -2.562   5.033  -2.293  0.00  0.00    -0.107 NA
ATOM      2  C   UNL     1      -1.474   5.241  -2.466  0.00  0.00    +0.176 A 
ATOM      3  N   UNL     1      -0.557   4.972  -1.504  0.00  0.00    -0.174 NA
ATOM      4  C   UNL     1       0.775   5.073  -1.743  0.00  0.00    +0.353 A 
ATOM      5  O   UNL     1       1.604   4.852  -0.805  0.00  0.00    -0.244 OA
ATOM      6  N   UNL     1       1.215   6.086  -2.534  0.00  0.00    -0.255 N 
ATOM      7  C   UNL     1       0.350   6.402  -3.536  0.00  0.00    +0.085 A 
ATOM      8  C   UNL     1      -0.937   5.871  -3.582  0.00  0.00    +0.057 A 
ENDROOT
BRANCH   6   9
ATOM      9  C   UNL     1       2.617   5.729  -3.250  0.00  0.00    +0.220 C 
ATOM     10  O   UNL     1       1.887   4.955  -4.375  0.00  0.00    -0.323 OA
ATOM     11  C   UNL     1       3.153   4.524  -5.020  0.00  0.00    +0.198 C 
ATOM     12  S   UNL     1       3.599   6.339  -5.529  0.00  0.00    -0.105 S 
ATOM     13  C   UNL     1       2.641   7.113  -4.210  0.00  0.00    +0.114 C 
BRANCH  11  14
ATOM     14  C   UNL     1       2.442   4.224  -6.440  0.00  0.00    +0.223 C 
ATOM     15  O   UNL     1       1.173   3.827  -6.053  0.00  0.00    -0.217 OA
ENDBRANCH  11  14
ENDBRANCH   6   9
TORSDOF 2
ENDMDL
MODEL 2
REMARK VINA RESULT:      -5.7      7.508      9.967
REMARK  Name = 
REMARK  2 active torsions:
REMARK  status: ('A' for Active; 'I' for Inactive)
REMARK    1  A    between atoms: N_5  and  C_6
REMARK    2  A    between atoms: C_9  and  C_10
REMARK                            x       y       z     vdW  Elec       q    Type
REMARK                         _______ _______ _______ _____ _____    ______ ____
ROOT
ATOM      1  N   UNL     1       9.398   5.758 -12.144  0.00  0.00    -0.107 NA
ATOM      2  C   UNL     1       8.297   5.721 -11.928  0.00  0.00    +0.176 A 
ATOM      3  N   UNL     1       7.428   5.234 -12.847  0.00  0.00    -0.174 NA
ATOM      4  C   UNL     1       6.118   5.042 -12.554  0.00  0.00    +0.353 A 
ATOM      5  O   UNL     1       5.323   4.621 -13.452  0.00  0.00    -0.244 OA
ATOM      6  N   UNL     1       5.492   5.947 -11.756  0.00  0.00    -0.255 N 
ATOM      7  C   UNL     1       6.303   6.469 -10.796  0.00  0.00    +0.085 A 
ATOM      8  C   UNL     1       7.677   6.239 -10.797  0.00  0.00    +0.057 A 
ENDROOT
BRANCH   6   9
ATOM      9  C   UNL     1       4.235   5.302 -10.978  0.00  0.00    +0.220 C 
ATOM     10  O   UNL     1       4.348   6.355  -9.848  0.00  0.00    -0.323 OA
ATOM     11  C   UNL     1       3.255   5.743  -9.049  0.00  0.00    +0.198 C 
ATOM     12  S   UNL     1       1.923   6.211 -10.375  0.00  0.00    -0.105 S 
ATOM     13  C   UNL     1       3.083   6.255 -11.757  0.00  0.00    +0.114 C 
BRANCH  11  14
ATOM     14  C   UNL     1       2.988   7.092  -8.200  0.00  0.00    +0.223 C 
ATOM     15  O   UNL     1       1.749   7.492  -8.671  0.00  0.00    -0.217 OA
ENDBRANCH  11  14
ENDBRANCH   6   9
TORSDOF 2
ENDMDL
MODEL 3
REMARK VINA RESULT:      -5.6      3.276      5.051
REMARK  Name = 
REMARK  2 active torsions:
REMARK  status: ('A' for Active; 'I' for Inactive)
REMARK    1  A    between atoms: N_5  and  C_6
REMARK    2  A    between atoms: C_9  and  C_10
REMARK                            x       y       z     vdW  Elec       q    Type
REMARK                         _______ _______ _______ _____ _____    ______ ____
ROOT
ATOM      1  N   UNL     1       2.809   3.627  -8.630  0.00  0.00    -0.107 NA
ATOM      2  C   UNL     1       2.535   4.268  -7.751  0.00  0.00    +0.176 A 
ATOM      3  N   UNL     1       2.933   5.562  -7.687  0.00  0.00    -0.174 NA
ATOM      4  C   UNL     1       2.490   6.395  -6.712  0.00  0.00    +0.353 A 
ATOM      5  O   UNL     1       2.916   7.591  -6.660  0.00  0.00    -0.244 OA
ATOM      6  N   UNL     1       2.329   5.896  -5.458  0.00  0.00    -0.255 N 
ATOM      7  C   UNL     1       1.913   4.600  -5.444  0.00  0.00    +0.085 A 
ATOM      8  C   UNL     1       1.878   3.833  -6.606  0.00  0.00    +0.057 A 
ENDROOT
BRANCH   6   9
ATOM      9  C   UNL     1       1.234   6.726  -4.612  0.00  0.00    +0.220 C 
ATOM     10  O   UNL     1       0.113   6.331  -5.606  0.00  0.00    -0.323 OA
ATOM     11  C   UNL     1      -0.911   7.155  -4.915  0.00  0.00    +0.198 C 
ATOM     12  S   UNL     1      -0.871   6.020  -3.345  0.00  0.00    -0.105 S 
ATOM     13  C   UNL     1       0.814   5.432  -3.617  0.00  0.00    +0.114 C 
BRANCH  11  14
ATOM     14  C   UNL     1      -2.146   6.337  -5.562  0.00  0.00    +0.223 C 
ATOM     15  O   UNL     1      -1.511   5.550  -6.507  0.00  0.00    -0.217 OA
ENDBRANCH  11  14
ENDBRANCH   6   9
TORSDOF 2
ENDMDL
MODEL 4
REMARK VINA RESULT:      -5.5      1.279      1.378
REMARK  Name = 
REMARK  2 active torsions:
REMARK  status: ('A' for Active; 'I' for Inactive)
REMARK    1  A    between atoms: N_5  and  C_6
REMARK    2  A    between atoms: C_9  and  C_10
REMARK                            x       y       z     vdW  Elec       q    Type
REMARK                         _______ _______ _______ _____ _____    ______ ____
ROOT
ATOM      1  N   UNL     1      -2.732   5.012  -2.240  0.00  0.00    -0.107 NA
ATOM      2  C   UNL     1      -1.665   5.202  -2.530  0.00  0.00    +0.176 A 
ATOM      3  N   UNL     1      -0.669   5.075  -1.619  0.00  0.00    -0.174 NA
ATOM      4  C   UNL     1       0.637   5.152  -1.978  0.00  0.00    +0.353 A 
ATOM      5  O   UNL     1       1.543   5.069  -1.091  0.00  0.00    -0.244 OA
ATOM      6  N   UNL     1       0.993   6.049  -2.935  0.00  0.00    -0.255 N 
ATOM      7  C   UNL     1       0.045   6.216  -3.896  0.00  0.00    +0.085 A 
ATOM      8  C   UNL     1      -1.232   5.674  -3.763  0.00  0.00    +0.057 A 
ENDROOT
BRANCH   6   9
ATOM      9  C   UNL     1       2.339   5.606  -3.708  0.00  0.00    +0.220 C 
ATOM     10  O   UNL     1       1.713   5.962  -5.079  0.00  0.00    -0.323 OA
ATOM     11  C   UNL     1       2.893   5.482  -5.841  0.00  0.00    +0.198 C 
ATOM     12  S   UNL     1       4.014   6.898  -5.142  0.00  0.00    -0.105 S 
ATOM     13  C   UNL     1       3.053   7.130  -3.632  0.00  0.00    +0.114 C 
BRANCH  11  14
ATOM     14  C   UNL     1       2.512   6.337  -7.159  0.00  0.00    +0.223 C 
ATOM     15  O   UNL     1       2.899   7.617  -6.798  0.00  0.00    -0.217 OA
ENDBRANCH  11  14
ENDBRANCH   6   9
TORSDOF 2
ENDMDL
MODEL 5
REMARK VINA RESULT:      -5.5      3.703      5.268
REMARK  Name = 
REMARK  2 active torsions:
REMARK  status: ('A' for Active; 'I' for Inactive)
REMARK    1  A    between atoms: N_5  and  C_6
REMARK    2  A    between atoms: C_9  and  C_10
REMARK                            x       y       z     vdW  Elec       q    Type
REMARK                         _______ _______ _______ _____ _____    ______ ____
ROOT
ATOM      1  N   UNL     1       0.631   5.768  -9.820  0.00  0.00    -0.107 NA
ATOM      2  C   UNL     1       0.569   5.866  -8.704  0.00  0.00    +0.176 A 
ATOM      3  N   UNL     1       1.597   6.398  -7.998  0.00  0.00    -0.174 NA
ATOM      4  C   UNL     1       1.486   6.664  -6.673  0.00  0.00    +0.353 A 
ATOM      5  O   UNL     1       2.484   7.126  -6.035  0.00  0.00    -0.244 OA
ATOM      6  N   UNL     1       0.788   5.797  -5.894  0.00  0.00    -0.255 N 
ATOM      7  C   UNL     1      -0.272   5.233  -6.534  0.00  0.00    +0.085 A 
ATOM      8  C   UNL     1      -0.462   5.386  -7.905  0.00  0.00    +0.057 A 
ENDROOT
BRANCH   6   9
ATOM      9  C   UNL     1       0.187   6.513  -4.578  0.00  0.00    +0.220 C 
ATOM     10  O   UNL     1      -1.146   5.737  -4.720  0.00  0.00    -0.323 OA
ATOM     11  C   UNL     1      -1.775   6.436  -3.571  0.00  0.00    +0.198 C 
ATOM     12  S   UNL     1      -0.562   5.610  -2.308  0.00  0.00    -0.105 S 
ATOM     13  C   UNL     1       0.759   5.344  -3.508  0.00  0.00    +0.114 C 
BRANCH  11  14
ATOM     14  C   UNL     1      -2.892   5.287  -3.359  0.00  0.00    +0.223 C 
ATOM     15  O   UNL     1      -2.656   4.888  -2.054  0.00  0.00    -0.217 OA
ENDBRANCH  11  14
ENDBRANCH   6   9
TORSDOF 2
ENDMDL
MODEL 6
REMARK VINA RESULT:      -5.5      2.261      3.194
REMARK  Name = 
REMARK  2 active torsions:
REMARK  status: ('A' for Active; 'I' for Inactive)
REMARK    1  A    between atoms: N_5  and  C_6
REMARK    2  A    between atoms: C_9  and  C_10
REMARK                            x       y       z     vdW  Elec       q    Type
REMARK                         _______ _______ _______ _____ _____    ______ ____
ROOT
ATOM      1  N   UNL     1      -2.741   5.139  -2.246  0.00  0.00    -0.107 NA
ATOM      2  C   UNL     1      -2.029   5.355  -3.085  0.00  0.00    +0.176 A 
ATOM      3  N   UNL     1      -2.470   5.429  -4.365  0.00  0.00    -0.174 NA
ATOM      4  C   UNL     1      -1.659   5.834  -5.374  0.00  0.00    +0.353 A 
ATOM      5  O   UNL     1      -2.096   5.853  -6.567  0.00  0.00    -0.244 OA
ATOM      6  N   UNL     1      -0.357   5.447  -5.354  0.00  0.00    -0.255 N 
ATOM      7  C   UNL     1       0.161   5.366  -4.098  0.00  0.00    +0.085 A 
ATOM      8  C   UNL     1      -0.648   5.464  -2.968  0.00  0.00    +0.057 A 
ENDROOT
BRANCH   6   9
ATOM      9  C   UNL     1       0.592   6.472  -6.162  0.00  0.00    +0.220 C 
ATOM     10  O   UNL     1       1.838   5.998  -5.374  0.00  0.00    -0.323 OA
ATOM     11  C   UNL     1       2.734   6.987  -6.025  0.00  0.00    +0.198 C 
ATOM     12  S   UNL     1       2.565   6.116  -7.748  0.00  0.00    -0.105 S 
ATOM     13  C   UNL     1       0.953   5.384  -7.397  0.00  0.00    +0.114 C 
BRANCH  11  14
ATOM     14  C   UNL     1       4.073   6.159  -5.659  0.00  0.00    +0.223 C 
ATOM     15  O   UNL     1       3.561   5.043  -5.021  0.00  0.00    -0.217 OA
ENDBRANCH  11  14
ENDBRANCH   6   9
TORSDOF 2
ENDMDL
MODEL 7
REMARK VINA RESULT:      -5.5      7.222      9.494
REMARK  Name = 
REMARK  2 active torsions:
REMARK  status: ('A' for Active; 'I' for Inactive)
REMARK    1  A    between atoms: N_5  and  C_6
REMARK    2  A    between atoms: C_9  and  C_10
REMARK                            x       y       z     vdW  Elec       q    Type
REMARK                         _______ _______ _______ _____ _____    ______ ____
ROOT
ATOM      1  N   UNL     1       7.835   4.737 -12.617  0.00  0.00    -0.107 NA
ATOM      2  C   UNL     1       6.820   5.130 -12.344  0.00  0.00    +0.176 A 
ATOM      3  N   UNL     1       5.766   4.965 -13.180  0.00  0.00    -0.174 NA
ATOM      4  C   UNL     1       4.505   5.297 -12.809  0.00  0.00    +0.353 A 
ATOM      5  O   UNL     1       3.547   5.166 -13.634  0.00  0.00    -0.244 OA
ATOM      6  N   UNL     1       4.325   6.409 -12.049  0.00  0.00    -0.255 N 
ATOM      7  C   UNL     1       5.340   6.630 -11.170  0.00  0.00    +0.085 A 
ATOM      8  C   UNL     1       6.524   5.897 -11.224  0.00  0.00    +0.057 A 
ENDROOT
BRANCH   6   9
ATOM      9  C   UNL     1       2.978   6.325 -11.164  0.00  0.00    +0.220 C 
ATOM     10  O   UNL     1       3.475   5.037 -10.462  0.00  0.00    -0.323 OA
ATOM     11  C   UNL     1       2.216   4.866  -9.692  0.00  0.00    +0.198 C 
ATOM     12  S   UNL     1       2.551   6.463  -8.648  0.00  0.00    -0.105 S 
ATOM     13  C   UNL     1       3.584   7.256  -9.897  0.00  0.00    +0.114 C 
BRANCH  11  14
ATOM     14  C   UNL     1       2.908   3.912  -8.587  0.00  0.00    +0.223 C 
ATOM     15  O   UNL     1       4.253   4.048  -8.883  0.00  0.00    -0.217 OA
ENDBRANCH  11  14
ENDBRANCH   6   9
TORSDOF 2
ENDMDL
MODEL 8
REMARK VINA RESULT:      -5.5      3.619      5.363
REMARK  Name = 
REMARK  2 active torsions:
REMARK  status: ('A' for Active; 'I' for Inactive)
REMARK    1  A    between atoms: N_5  and  C_6
REMARK    2  A    between atoms: C_9  and  C_10
REMARK                            x       y       z     vdW  Elec       q    Type
REMARK                         _______ _______ _______ _____ _____    ______ ____
ROOT
ATOM      1  N   UNL     1       1.172   4.689 -10.041  0.00  0.00    -0.107 NA
ATOM      2  C   UNL     1       1.679   5.194  -9.178  0.00  0.00    +0.176 A 
ATOM      3  N   UNL     1       1.673   6.545  -9.067  0.00  0.00    -0.174 NA
ATOM      4  C   UNL     1       2.147   7.170  -7.960  0.00  0.00    +0.353 A 
ATOM      5  O   UNL     1       2.163   8.440  -7.909  0.00  0.00    -0.244 OA
ATOM      6  N   UNL     1       3.247   6.658  -7.349  0.00  0.00    -0.255 N 
ATOM      7  C   UNL     1       3.312   5.300  -7.406  0.00  0.00    +0.085 A 
ATOM      8  C   UNL     1       2.440   4.561  -8.202  0.00  0.00    +0.057 A 
ENDROOT
BRANCH   6   9
ATOM      9  C   UNL     1       3.303   7.043  -5.782  0.00  0.00    +0.220 C 
ATOM     10  O   UNL     1       2.014   6.232  -5.500  0.00  0.00    -0.323 OA
ATOM     11  C   UNL     1       1.971   6.634  -4.070  0.00  0.00    +0.198 C 
ATOM     12  S   UNL     1       3.583   5.639  -3.666  0.00  0.00    -0.105 S 
ATOM     13  C   UNL     1       4.241   5.714  -5.344  0.00  0.00    +0.114 C 
BRANCH  11  14
ATOM     14  C   UNL     1       1.017   5.398  -3.652  0.00  0.00    +0.223 C 
ATOM     15  O   UNL     1       0.602   4.919  -4.883  0.00  0.00    -0.217 OA
ENDBRANCH  11  14
ENDBRANCH   6   9
TORSDOF 2
ENDMDL
MODEL 9
REMARK VINA RESULT:      -5.4      5.981      7.754
REMARK  Name = 
REMARK  2 active torsions:
REMARK  status: ('A' for Active; 'I' for Inactive)
REMARK    1  A    between atoms: N_5  and  C_6
REMARK    2  A    between atoms: C_9  and  C_10
REMARK                            x       y       z     vdW  Elec       q    Type
REMARK                         _______ _______ _______ _____ _____    ______ ____
ROOT
ATOM      1  N   UNL     1       3.598   5.726  -5.650  0.00  0.00    -0.107 NA
ATOM      2  C   UNL     1       3.828   5.822  -6.744  0.00  0.00    +0.176 A 
ATOM      3  N   UNL     1       2.879   6.243  -7.615  0.00  0.00    -0.174 NA
ATOM      4  C   UNL     1       3.172   6.510  -8.913  0.00  0.00    +0.353 A 
ATOM      5  O   UNL     1       2.248   6.865  -9.710  0.00  0.00    -0.244 OA
ATOM      6  N   UNL     1       4.067   5.712  -9.551  0.00  0.00    -0.255 N 
ATOM      7  C   UNL     1       5.063   5.263  -8.740  0.00  0.00    +0.085 A 
ATOM      8  C   UNL     1       5.015   5.443  -7.359  0.00  0.00    +0.057 A 
ENDROOT
BRANCH   6   9
ATOM      9  C   UNL     1       4.796   6.476 -10.771  0.00  0.00    +0.220 C 
ATOM     10  O   UNL     1       6.109   5.692 -10.527  0.00  0.00    -0.323 OA
ATOM     11  C   UNL     1       6.851   6.432 -11.579  0.00  0.00    +0.198 C 
ATOM     12  S   UNL     1       5.770   5.659 -12.988  0.00  0.00    -0.105 S 
ATOM     13  C   UNL     1       4.335   5.351 -11.938  0.00  0.00    +0.114 C 
BRANCH  11  14
ATOM     14  C   UNL     1       7.983   5.288 -11.722  0.00  0.00    +0.223 C 
ATOM     15  O   UNL     1       7.611   4.654 -12.895  0.00  0.00    -0.217 OA
ENDBRANCH  11  14
ENDBRANCH   6   9
TORSDOF 2
ENDMDL
