MODEL 1
REMARK VINA RESULT:      -5.7      0.000      0.000
REMARK  Name = 
REMARK  1 active torsions:
REMARK  status: ('A' for Active; 'I' for Inactive)
REMARK    1  A    between atoms: N_2  and  C_3
REMARK                            x       y       z     vdW  Elec       q    Type
REMARK                         _______ _______ _______ _____ _____    ______ ____
ROOT
ATOM      1  C   UNL     1       5.703   6.389 -11.327  0.00  0.00    +0.059 C 
ATOM      2  C   UNL     1       6.410   7.377 -12.261  0.00  0.00    +0.014 C 
ATOM      3  C   UNL     1       6.432   8.542 -11.398  0.00  0.00    +0.001 C 
ATOM      4  C   UNL     1       6.673   7.306 -13.614  0.00  0.00    +0.001 C 
ATOM      5  C   UNL     1       7.131   6.123 -11.618  0.00  0.00    +0.001 C 
ATOM      6  C   UNL     1       7.809   7.145 -10.447  0.00  0.00    +0.001 C 
ATOM      7  C   UNL     1       8.577   5.949 -12.179  0.00  0.00    +0.000 C 
ATOM      8  C   UNL     1       7.950   4.986 -11.075  0.00  0.00    +0.001 C 
ATOM      9  C   UNL     1       6.836   5.880 -10.213  0.00  0.00    +0.015 C 
ATOM     10  C   UNL     1       4.699   7.021 -10.438  0.00  0.00    +0.017 C 
ENDROOT
BRANCH   1  12
ATOM     11  C   UNL     1       4.064   5.388 -12.297  0.00  0.00    +0.107 C 
ATOM     12  N   UNL     1       5.066   5.284 -11.852  0.00  0.00    -0.219 NA
ENDBRANCH   1  12
TORSDOF 1
ENDMDL
MODEL 2
REMARK VINA RESULT:      -5.4      1.196      2.854
REMARK  Name = 
REMARK  1 active torsions:
REMARK  status: ('A' for Active; 'I' for Inactive)
REMARK    1  A    between atoms: N_2  and  C_3
REMARK                            x       y       z     vdW  Elec       q    Type
REMARK                         _______ _______ _______ _____ _____    ______ ____
ROOT
ATOM      1  C   UNL     1       6.345   6.295 -12.070  0.00  0.00    +0.059 C 
ATOM      2  C   UNL     1       6.939   7.061 -10.883  0.00  0.00    +0.014 C 
ATOM      3  C   UNL     1       6.489   8.398 -11.217  0.00  0.00    +0.001 C 
ATOM      4  C   UNL     1       7.876   6.680  -9.943  0.00  0.00    +0.001 C 
ATOM      5  C   UNL     1       5.746   6.030 -10.741  0.00  0.00    +0.001 C 
ATOM      6  C   UNL     1       4.659   7.331 -10.704  0.00  0.00    +0.001 C 
ATOM      7  C   UNL     1       5.377   5.790  -9.244  0.00  0.00    +0.000 C 
ATOM      8  C   UNL     1       4.607   5.092 -10.453  0.00  0.00    +0.001 C 
ATOM      9  C   UNL     1       4.714   6.117 -11.765  0.00  0.00    +0.015 C 
ATOM     10  C   UNL     1       6.312   7.077 -13.329  0.00  0.00    +0.017 C 
ENDROOT
BRANCH   1  12
ATOM     11  C   UNL     1       7.761   5.020 -13.070  0.00  0.00    +0.107 C 
ATOM     12  N   UNL     1       6.868   5.070 -12.427  0.00  0.00    -0.219 NA
ENDBRANCH   1  12
TORSDOF 1
ENDMDL
MODEL 3
REMARK VINA RESULT:      -5.2      9.157     11.278
REMARK  Name = 
REMARK  1 active torsions:
REMARK  status: ('A' for Active; 'I' for Inactive)
REMARK    1  A    between atoms: N_2  and  C_3
REMARK                            x       y       z     vdW  Elec       q    Type
REMARK                         _______ _______ _______ _____ _____    ______ ____
ROOT
ATOM      1  C   UNL     1      -0.659   6.193  -4.337  0.00  0.00    +0.059 C 
ATOM      2  C   UNL     1      -1.756   7.182  -4.748  0.00  0.00    +0.014 C 
ATOM      3  C   UNL     1      -2.469   6.357  -5.704  0.00  0.00    +0.001 C 
ATOM      4  C   UNL     1      -1.872   8.540  -4.530  0.00  0.00    +0.001 C 
ATOM      5  C   UNL     1      -1.676   6.523  -3.310  0.00  0.00    +0.001 C 
ATOM      6  C   UNL     1      -2.863   5.408  -3.782  0.00  0.00    +0.001 C 
ATOM      7  C   UNL     1      -2.746   7.126  -2.348  0.00  0.00    +0.000 C 
ATOM      8  C   UNL     1      -1.737   5.971  -1.913  0.00  0.00    +0.001 C 
ATOM      9  C   UNL     1      -1.359   5.102  -3.287  0.00  0.00    +0.015 C 
ATOM     10  C   UNL     1      -0.226   5.293  -5.431  0.00  0.00    +0.017 C 
ENDROOT
BRANCH   1  12
ATOM     11  C   UNL     1       1.434   6.691  -4.379  0.00  0.00    +0.107 C 
ATOM     12  N   UNL     1       0.511   6.662  -3.778  0.00  0.00    -0.219 NA
ENDBRANCH   1  12
TORSDOF 1
ENDMDL
MODEL 4
REMARK VINA RESULT:      -5.2      9.241     10.795
REMARK  Name = 
REMARK  1 active torsions:
REMARK  status: ('A' for Active; 'I' for Inactive)
REMARK    1  A    between atoms: N_2  and  C_3
REMARK                            x       y       z     vdW  Elec       q    Type
REMARK                         _______ _______ _______ _____ _____    ______ ____
ROOT
ATOM      1  C   UNL     1      -1.646   6.285  -3.612  0.00  0.00    +0.059 C 
ATOM      2  C   UNL     1      -2.238   6.317  -5.025  0.00  0.00    +0.014 C 
ATOM      3  C   UNL     1      -2.257   7.752  -5.239  0.00  0.00    +0.001 C 
ATOM      4  C   UNL     1      -2.859   5.331  -5.764  0.00  0.00    +0.001 C 
ATOM      5  C   UNL     1      -0.789   5.765  -4.704  0.00  0.00    +0.001 C 
ATOM      6  C   UNL     1      -0.138   7.242  -5.222  0.00  0.00    +0.001 C 
ATOM      7  C   UNL     1      -0.131   5.129  -5.967  0.00  0.00    +0.000 C 
ATOM      8  C   UNL     1       0.604   5.221  -4.555  0.00  0.00    +0.001 C 
ATOM      9  C   UNL     1      -0.007   6.559  -3.767  0.00  0.00    +0.015 C 
ATOM     10  C   UNL     1      -2.045   7.438  -2.770  0.00  0.00    +0.017 C 
ENDROOT
BRANCH   1  12
ATOM     11  C   UNL     1      -2.474   5.252  -1.916  0.00  0.00    +0.107 C 
ATOM     12  N   UNL     1      -1.839   5.178  -2.813  0.00  0.00    -0.219 NA
ENDBRANCH   1  12
TORSDOF 1
ENDMDL
MODEL 5
REMARK VINA RESULT:      -5.0      4.496      6.404
REMARK  Name = 
REMARK  1 active torsions:
REMARK  status: ('A' for Active; 'I' for Inactive)
REMARK    1  A    between atoms: N_2  and  C_3
REMARK                            x       y       z     vdW  Elec       q    Type
REMARK                         _______ _______ _______ _____ _____    ______ ____
ROOT
ATOM      1  C   UNL     1       2.696   5.052  -6.750  0.00  0.00    +0.059 C 
ATOM      2  C   UNL     1       3.518   4.821  -8.023  0.00  0.00    +0.014 C 
ATOM      3  C   UNL     1       2.685   3.820  -8.661  0.00  0.00    +0.001 C 
ATOM      4  C   UNL     1       4.807   5.197  -8.343  0.00  0.00    +0.001 C 
ATOM      5  C   UNL     1       2.740   6.167  -7.725  0.00  0.00    +0.001 C 
ATOM      6  C   UNL     1       1.492   5.641  -8.745  0.00  0.00    +0.001 C 
ATOM      7  C   UNL     1       3.049   7.252  -8.803  0.00  0.00    +0.000 C 
ATOM      8  C   UNL     1       2.046   7.493  -7.587  0.00  0.00    +0.001 C 
ATOM      9  C   UNL     1       1.399   6.010  -7.178  0.00  0.00    +0.015 C 
ATOM     10  C   UNL     1       2.000   3.839  -6.259  0.00  0.00    +0.017 C 
ENDROOT
BRANCH   1  12
ATOM     11  C   UNL     1       3.687   4.928  -4.843  0.00  0.00    +0.107 C 
ATOM     12  N   UNL     1       3.300   5.591  -5.633  0.00  0.00    -0.219 NA
ENDBRANCH   1  12
TORSDOF 1
ENDMDL
MODEL 6
REMARK VINA RESULT:      -5.0      5.656      7.416
REMARK  Name = 
REMARK  1 active torsions:
REMARK  status: ('A' for Active; 'I' for Inactive)
REMARK    1  A    between atoms: N_2  and  C_3
REMARK                            x       y       z     vdW  Elec       q    Type
REMARK                         _______ _______ _______ _____ _____    ______ ____
ROOT
ATOM      1  C   UNL     1       3.124   6.384  -6.330  0.00  0.00    +0.059 C 
ATOM      2  C   UNL     1       2.174   5.880  -5.238  0.00  0.00    +0.014 C 
ATOM      3  C   UNL     1       2.492   4.466  -5.284  0.00  0.00    +0.001 C 
ATOM      4  C   UNL     1       1.113   6.501  -4.611  0.00  0.00    +0.001 C 
ATOM      5  C   UNL     1       3.439   6.784  -4.938  0.00  0.00    +0.001 C 
ATOM      6  C   UNL     1       4.291   5.393  -4.476  0.00  0.00    +0.001 C 
ATOM      7  C   UNL     1       3.490   7.210  -3.438  0.00  0.00    +0.000 C 
ATOM      8  C   UNL     1       4.605   7.625  -4.499  0.00  0.00    +0.001 C 
ATOM      9  C   UNL     1       4.652   6.427  -5.661  0.00  0.00    +0.015 C 
ATOM     10  C   UNL     1       3.329   5.419  -7.436  0.00  0.00    +0.017 C 
ENDROOT
BRANCH   1  12
ATOM     11  C   UNL     1       2.225   7.625  -7.841  0.00  0.00    +0.107 C 
ATOM     12  N   UNL     1       2.875   7.589  -6.953  0.00  0.00    -0.219 NA
ENDBRANCH   1  12
TORSDOF 1
ENDMDL
MODEL 7
REMARK VINA RESULT:      -4.9      6.204      8.386
REMARK  Name = 
REMARK  1 active torsions:
REMARK  status: ('A' for Active; 'I' for Inactive)
REMARK    1  A    between atoms: N_2  and  C_3
REMARK                            x       y       z     vdW  Elec       q    Type
REMARK                         _______ _______ _______ _____ _____    ______ ____
ROOT
ATOM      1  C   UNL     1       1.599   6.427  -6.344  0.00  0.00    +0.059 C 
ATOM      2  C   UNL     1       0.722   5.309  -6.918  0.00  0.00    +0.014 C 
ATOM      3  C   UNL     1       1.324   4.172  -6.249  0.00  0.00    +0.001 C 
ATOM      4  C   UNL     1      -0.163   5.313  -7.977  0.00  0.00    +0.001 C 
ATOM      5  C   UNL     1       0.184   6.401  -5.906  0.00  0.00    +0.001 C 
ATOM      6  C   UNL     1       0.344   5.277  -4.647  0.00  0.00    +0.001 C 
ATOM      7  C   UNL     1      -1.359   6.279  -5.705  0.00  0.00    +0.000 C 
ATOM      8  C   UNL     1      -0.465   7.359  -4.946  0.00  0.00    +0.001 C 
ATOM      9  C   UNL     1       1.065   6.712  -4.789  0.00  0.00    +0.015 C 
ATOM     10  C   UNL     1       3.001   6.016  -6.089  0.00  0.00    +0.017 C 
ENDROOT
BRANCH   1  12
ATOM     11  C   UNL     1       2.343   7.717  -7.897  0.00  0.00    +0.107 C 
ATOM     12  N   UNL     1       1.698   7.631  -7.009  0.00  0.00    -0.219 NA
ENDBRANCH   1  12
TORSDOF 1
ENDMDL
MODEL 8
REMARK VINA RESULT:      -4.9      6.229      7.183
REMARK  Name = 
REMARK  1 active torsions:
REMARK  status: ('A' for Active; 'I' for Inactive)
REMARK    1  A    between atoms: N_2  and  C_3
REMARK                            x       y       z     vdW  Elec       q    Type
REMARK                         _______ _______ _______ _____ _____    ______ ____
ROOT
ATOM      1  C   UNL     1       0.524   5.838  -6.509  0.00  0.00    +0.059 C 
ATOM      2  C   UNL     1       1.145   6.295  -7.835  0.00  0.00    +0.014 C 
ATOM      3  C   UNL     1       1.886   7.449  -7.361  0.00  0.00    +0.001 C 
ATOM      4  C   UNL     1       0.858   5.934  -9.135  0.00  0.00    +0.001 C 
ATOM      5  C   UNL     1       1.559   4.956  -7.099  0.00  0.00    +0.001 C 
ATOM      6  C   UNL     1       2.927   5.747  -6.483  0.00  0.00    +0.001 C 
ATOM      7  C   UNL     1       2.544   4.112  -7.967  0.00  0.00    +0.000 C 
ATOM      8  C   UNL     1       2.063   3.666  -6.514  0.00  0.00    +0.001 C 
ATOM      9  C   UNL     1       1.726   5.058  -5.655  0.00  0.00    +0.015 C 
ATOM     10  C   UNL     1       0.201   6.951  -5.586  0.00  0.00    +0.017 C 
ENDROOT
BRANCH   1  12
ATOM     11  C   UNL     1      -1.602   5.509  -6.530  0.00  0.00    +0.107 C 
ATOM     12  N   UNL     1      -0.604   5.045  -6.519  0.00  0.00    -0.219 NA
ENDBRANCH   1  12
TORSDOF 1
ENDMDL
MODEL 9
REMARK VINA RESULT:      -4.9      5.342      7.220
REMARK  Name = 
REMARK  1 active torsions:
REMARK  status: ('A' for Active; 'I' for Inactive)
REMARK    1  A    between atoms: N_2  and  C_3
REMARK                            x       y       z     vdW  Elec       q    Type
REMARK                         _______ _______ _______ _____ _____    ______ ____
ROOT
ATOM      1  C   UNL     1       3.021   5.870  -5.828  0.00  0.00    +0.059 C 
ATOM      2  C   UNL     1       2.843   6.475  -7.225  0.00  0.00    +0.014 C 
ATOM      3  C   UNL     1       3.877   5.744  -7.931  0.00  0.00    +0.001 C 
ATOM      4  C   UNL     1       2.143   7.590  -7.641  0.00  0.00    +0.001 C 
ATOM      5  C   UNL     1       1.773   5.525  -6.548  0.00  0.00    +0.001 C 
ATOM      6  C   UNL     1       2.376   4.233  -7.467  0.00  0.00    +0.001 C 
ATOM      7  C   UNL     1       0.477   5.422  -7.412  0.00  0.00    +0.000 C 
ATOM      8  C   UNL     1       0.675   4.631  -6.042  0.00  0.00    +0.001 C 
ATOM      9  C   UNL     1       2.312   4.360  -5.860  0.00  0.00    +0.015 C 
ATOM     10  C   UNL     1       4.423   5.516  -5.505  0.00  0.00    +0.017 C 
ENDROOT
BRANCH   1  12
ATOM     11  C   UNL     1       3.261   7.164  -4.126  0.00  0.00    +0.107 C 
ATOM     12  N   UNL     1       2.564   6.554  -4.721  0.00  0.00    -0.219 NA
ENDBRANCH   1  12
TORSDOF 1
ENDMDL
