MODEL 1
REMARK VINA RESULT:      -8.8      0.000      0.000
REMARK  Name = 
REMARK  0 active torsions:
REMARK  status: ('A' for Active; 'I' for Inactive)
REMARK                            x       y       z     vdW  Elec       q    Type
REMARK                         _______ _______ _______ _____ _____    ______ ____
ROOT
ATOM      1  C   UNL     1       4.037   4.752  -2.217  0.00  0.00    +0.090 C 
ATOM      2  N   UNL     1       3.995   5.459  -3.472  0.00  0.00    -0.265 NA
ATOM      3  C   UNL     1       3.373   4.705  -4.529  0.00  0.00    +0.124 C 
ATOM      4  C   UNL     1       3.470   5.540  -5.795  0.00  0.00    +0.220 C 
ATOM      5  N   UNL     1       2.569   6.674  -5.617  0.00  0.00    -0.188 N 
ATOM      6  C   UNL     1       1.508   6.788  -6.563  0.00  0.00    +0.327 C 
ATOM      7  C   UNL     1       0.180   6.316  -6.156  0.00  0.00    +0.117 A 
ATOM      8  C   UNL     1      -0.804   5.643  -6.869  0.00  0.00    +0.153 A 
ATOM      9  C   UNL     1      -2.085   5.602  -6.329  0.00  0.00    +0.039 A 
ATOM     10  C   UNL     1      -2.273   6.050  -5.031  0.00  0.00    +0.015 A 
ATOM     11  C   UNL     1      -1.166   6.216  -4.213  0.00  0.00    +0.058 A 
ATOM     12 CL   UNL     1      -1.351   6.007  -2.484  0.00  0.00    -0.082 Cl
ATOM     13  O   UNL     1      -0.773   5.265  -8.215  0.00  0.00    -0.449 OA
ATOM     14  C   UNL     1       0.185   5.621  -9.169  0.00  0.00    +0.188 A 
ATOM     15  C   UNL     1       1.230   6.523  -9.001  0.00  0.00    +0.227 A 
ATOM     16  C   UNL     1       2.047   6.718 -10.092  0.00  0.00    +0.050 A 
ATOM     17  C   UNL     1       1.679   6.233 -11.341  0.00  0.00    +0.004 A 
ATOM     18  C   UNL     1       0.932   5.062 -11.332  0.00  0.00    +0.003 A 
ATOM     19  C   UNL     1       0.259   4.676 -10.185  0.00  0.00    +0.041 A 
ATOM     20  C   UNL     1       0.071   6.462  -4.793  0.00  0.00    +0.022 A 
ATOM     21  N   UNL     1       1.865   6.974  -7.798  0.00  0.00    -0.037 NA
ATOM     22  C   UNL     1       2.311   7.076  -4.253  0.00  0.00    +0.220 C 
ATOM     23  C   UNL     1       3.489   6.803  -3.357  0.00  0.00    +0.124 C 
ENDROOT
TORSDOF 0
ENDMDL
MODEL 2
REMARK VINA RESULT:      -8.6      1.088      1.201
REMARK  Name = 
REMARK  0 active torsions:
REMARK  status: ('A' for Active; 'I' for Inactive)
REMARK                            x       y       z     vdW  Elec       q    Type
REMARK                         _______ _______ _______ _____ _____    ______ ____
ROOT
ATOM      1  C   UNL     1       3.896   4.624  -1.376  0.00  0.00    +0.090 C 
ATOM      2  N   UNL     1       4.091   5.416  -2.565  0.00  0.00    -0.265 NA
ATOM      3  C   UNL     1       3.785   4.704  -3.779  0.00  0.00    +0.124 C 
ATOM      4  C   UNL     1       4.108   5.633  -4.938  0.00  0.00    +0.220 C 
ATOM      5  N   UNL     1       3.109   6.696  -4.911  0.00  0.00    -0.188 N 
ATOM      6  C   UNL     1       2.287   6.815  -6.071  0.00  0.00    +0.327 C 
ATOM      7  C   UNL     1       0.940   6.238  -6.012  0.00  0.00    +0.117 A 
ATOM      8  C   UNL     1       0.198   5.562  -6.972  0.00  0.00    +0.153 A 
ATOM      9  C   UNL     1      -1.166   5.407  -6.749  0.00  0.00    +0.039 A 
ATOM     10  C   UNL     1      -1.679   5.749  -5.508  0.00  0.00    +0.015 A 
ATOM     11  C   UNL     1      -0.804   5.921  -4.446  0.00  0.00    +0.058 A 
ATOM     12 CL   UNL     1      -1.364   5.577  -2.823  0.00  0.00    -0.082 Cl
ATOM     13  O   UNL     1       0.564   5.283  -8.292  0.00  0.00    -0.449 OA
ATOM     14  C   UNL     1       1.686   5.763  -8.975  0.00  0.00    +0.188 A 
ATOM     15  C   UNL     1       2.595   6.710  -8.517  0.00  0.00    +0.227 A 
ATOM     16  C   UNL     1       3.624   7.030  -9.375  0.00  0.00    +0.050 A 
ATOM     17  C   UNL     1       3.589   6.615 -10.700  0.00  0.00    +0.004 A 
ATOM     18  C   UNL     1       2.948   5.405 -10.932  0.00  0.00    +0.003 A 
ATOM     19  C   UNL     1       2.061   4.899  -9.997  0.00  0.00    +0.041 A 
ATOM     20  C   UNL     1       0.511   6.279  -4.706  0.00  0.00    +0.022 A 
ATOM     21  N   UNL     1       2.904   7.110  -7.176  0.00  0.00    -0.037 NA
ATOM     22  C   UNL     1       2.516   6.983  -3.625  0.00  0.00    +0.220 C 
ATOM     23  C   UNL     1       3.474   6.716  -2.496  0.00  0.00    +0.124 C 
ENDROOT
TORSDOF 0
ENDMDL
MODEL 3
REMARK VINA RESULT:      -8.5      2.666      4.659
REMARK  Name = 
REMARK  0 active torsions:
REMARK  status: ('A' for Active; 'I' for Inactive)
REMARK                            x       y       z     vdW  Elec       q    Type
REMARK                         _______ _______ _______ _____ _____    ______ ____
ROOT
ATOM      1  C   UNL     1      -2.369   7.329  -2.041  0.00  0.00    +0.090 C 
ATOM      2  N   UNL     1      -1.725   6.348  -2.877  0.00  0.00    -0.265 NA
ATOM      3  C   UNL     1      -1.026   6.925  -3.996  0.00  0.00    +0.124 C 
ATOM      4  C   UNL     1      -0.467   5.776  -4.820  0.00  0.00    +0.220 C 
ATOM      5  N   UNL     1       0.602   5.177  -4.028  0.00  0.00    -0.188 N 
ATOM      6  C   UNL     1       1.902   5.194  -4.615  0.00  0.00    +0.327 C 
ATOM      7  C   UNL     1       2.837   6.231  -4.167  0.00  0.00    +0.117 A 
ATOM      8  C   UNL     1       3.773   6.977  -4.873  0.00  0.00    +0.153 A 
ATOM      9  C   UNL     1       4.742   7.659  -4.145  0.00  0.00    +0.039 A 
ATOM     10  C   UNL     1       4.612   7.729  -2.767  0.00  0.00    +0.015 A 
ATOM     11  C   UNL     1       3.390   7.411  -2.193  0.00  0.00    +0.058 A 
ATOM     12 CL   UNL     1       2.933   8.185  -0.690  0.00  0.00    -0.082 Cl
ATOM     13  O   UNL     1       4.080   6.891  -6.234  0.00  0.00    -0.449 OA
ATOM     14  C   UNL     1       3.626   5.930  -7.142  0.00  0.00    +0.188 A 
ATOM     15  C   UNL     1       2.878   4.797  -6.847  0.00  0.00    +0.227 A 
ATOM     16  C   UNL     1       2.551   3.989  -7.913  0.00  0.00    +0.050 A 
ATOM     17  C   UNL     1       3.157   4.176  -9.149  0.00  0.00    +0.004 A 
ATOM     18  C   UNL     1       3.504   5.487  -9.453  0.00  0.00    +0.003 A 
ATOM     19  C   UNL     1       3.630   6.424  -8.441  0.00  0.00    +0.041 A 
ATOM     20  C   UNL     1       2.530   6.554  -2.867  0.00  0.00    +0.022 A 
ATOM     21  N   UNL     1       2.035   4.523  -5.721  0.00  0.00    -0.037 NA
ATOM     22  C   UNL     1       0.501   5.333  -2.596  0.00  0.00    +0.220 C 
ATOM     23  C   UNL     1      -0.932   5.397  -2.140  0.00  0.00    +0.124 C 
ENDROOT
TORSDOF 0
ENDMDL
MODEL 4
REMARK VINA RESULT:      -8.5      2.556      5.112
REMARK  Name = 
REMARK  0 active torsions:
REMARK  status: ('A' for Active; 'I' for Inactive)
REMARK                            x       y       z     vdW  Elec       q    Type
REMARK                         _______ _______ _______ _____ _____    ______ ____
ROOT
ATOM      1  C   UNL     1       6.105   7.435  -4.130  0.00  0.00    +0.090 C 
ATOM      2  N   UNL     1       4.967   6.783  -3.533  0.00  0.00    -0.265 NA
ATOM      3  C   UNL     1       3.720   7.449  -3.809  0.00  0.00    +0.124 C 
ATOM      4  C   UNL     1       2.632   6.697  -3.059  0.00  0.00    +0.220 C 
ATOM      5  N   UNL     1       2.480   5.409  -3.727  0.00  0.00    -0.188 N 
ATOM      6  C   UNL     1       1.193   5.137  -4.279  0.00  0.00    +0.327 C 
ATOM      7  C   UNL     1       1.016   5.335  -5.721  0.00  0.00    +0.117 A 
ATOM      8  C   UNL     1      -0.058   5.841  -6.444  0.00  0.00    +0.153 A 
ATOM      9  C   UNL     1      -0.078   5.620  -7.817  0.00  0.00    +0.039 A 
ATOM     10  C   UNL     1       1.052   5.094  -8.422  0.00  0.00    +0.015 A 
ATOM     11  C   UNL     1       2.251   5.105  -7.725  0.00  0.00    +0.058 A 
ATOM     12 CL   UNL     1       3.752   5.208  -8.622  0.00  0.00    -0.082 Cl
ATOM     13  O   UNL     1      -1.292   6.271  -5.948  0.00  0.00    -0.449 OA
ATOM     14  C   UNL     1      -1.768   6.138  -4.640  0.00  0.00    +0.188 A 
ATOM     15  C   UNL     1      -1.160   5.441  -3.602  0.00  0.00    +0.227 A 
ATOM     16  C   UNL     1      -1.825   5.446  -2.396  0.00  0.00    +0.050 A 
ATOM     17  C   UNL     1      -3.134   5.903  -2.316  0.00  0.00    +0.004 A 
ATOM     18  C   UNL     1      -3.471   6.913  -3.209  0.00  0.00    +0.003 A 
ATOM     19  C   UNL     1      -2.705   7.120  -4.344  0.00  0.00    +0.041 A 
ATOM     20  C   UNL     1       2.226   5.118  -6.337  0.00  0.00    +0.022 A 
ATOM     21  N   UNL     1       0.212   5.070  -3.429  0.00  0.00    -0.037 NA
ATOM     22  C   UNL     1       3.640   4.912  -4.429  0.00  0.00    +0.220 C 
ATOM     23  C   UNL     1       4.922   5.364  -3.782  0.00  0.00    +0.124 C 
ENDROOT
TORSDOF 0
ENDMDL
MODEL 5
REMARK VINA RESULT:      -8.4      4.060      6.050
REMARK  Name = 
REMARK  0 active torsions:
REMARK  status: ('A' for Active; 'I' for Inactive)
REMARK                            x       y       z     vdW  Elec       q    Type
REMARK                         _______ _______ _______ _____ _____    ______ ____
ROOT
ATOM      1  C   UNL     1       1.007   4.322  -6.230  0.00  0.00    +0.090 C 
ATOM      2  N   UNL     1       2.145   5.090  -6.666  0.00  0.00    -0.265 NA
ATOM      3  C   UNL     1       2.896   4.448  -7.715  0.00  0.00    +0.124 C 
ATOM      4  C   UNL     1       4.096   5.332  -8.014  0.00  0.00    +0.220 C 
ATOM      5  N   UNL     1       3.579   6.534  -8.659  0.00  0.00    -0.188 N 
ATOM      6  C   UNL     1       4.052   6.791  -9.979  0.00  0.00    +0.327 C 
ATOM      7  C   UNL     1       3.177   6.425 -11.099  0.00  0.00    +0.117 A 
ATOM      8  C   UNL     1       3.473   5.881 -12.343  0.00  0.00    +0.153 A 
ATOM      9  C   UNL     1       2.489   5.932 -13.324  0.00  0.00    +0.039 A 
ATOM     10  C   UNL     1       1.212   6.332 -12.964  0.00  0.00    +0.015 A 
ATOM     11  C   UNL     1       0.871   6.355 -11.620  0.00  0.00    +0.058 A 
ATOM     12 CL   UNL     1      -0.797   6.079 -11.163  0.00  0.00    -0.082 Cl
ATOM     13  O   UNL     1       4.734   5.567 -12.858  0.00  0.00    -0.449 OA
ATOM     14  C   UNL     1       5.975   5.880 -12.297  0.00  0.00    +0.188 A 
ATOM     15  C   UNL     1       6.206   6.673 -11.178  0.00  0.00    +0.227 A 
ATOM     16  C   UNL     1       7.523   6.844 -10.815  0.00  0.00    +0.050 A 
ATOM     17  C   UNL     1       8.545   6.456 -11.672  0.00  0.00    +0.004 A 
ATOM     18  C   UNL     1       8.266   5.360 -12.479  0.00  0.00    +0.003 A 
ATOM     19  C   UNL     1       6.954   4.982 -12.708  0.00  0.00    +0.041 A 
ATOM     20  C   UNL     1       1.873   6.514 -10.672  0.00  0.00    +0.022 A 
ATOM     21  N   UNL     1       5.329   7.004 -10.095  0.00  0.00    -0.037 NA
ATOM     22  C   UNL     1       2.215   6.891  -8.343  0.00  0.00    +0.220 C 
ATOM     23  C   UNL     1       1.834   6.468  -6.950  0.00  0.00    +0.124 C 
ENDROOT
TORSDOF 0
ENDMDL
MODEL 6
REMARK VINA RESULT:      -7.9      2.326      6.071
REMARK  Name = 
REMARK  0 active torsions:
REMARK  status: ('A' for Active; 'I' for Inactive)
REMARK                            x       y       z     vdW  Elec       q    Type
REMARK                         _______ _______ _______ _____ _____    ______ ____
ROOT
ATOM      1  C   UNL     1       1.796   6.899  -9.447  0.00  0.00    +0.090 C 
ATOM      2  N   UNL     1       2.450   6.294  -8.315  0.00  0.00    -0.265 NA
ATOM      3  C   UNL     1       2.407   7.111  -7.129  0.00  0.00    +0.124 C 
ATOM      4  C   UNL     1       3.194   6.383  -6.052  0.00  0.00    +0.220 C 
ATOM      5  N   UNL     1       2.408   5.212  -5.680  0.00  0.00    -0.188 N 
ATOM      6  C   UNL     1       1.991   5.142  -4.319  0.00  0.00    +0.327 C 
ATOM      7  C   UNL     1       0.614   5.539  -4.007  0.00  0.00    +0.117 A 
ATOM      8  C   UNL     1       0.091   6.237  -2.925  0.00  0.00    +0.153 A 
ATOM      9  C   UNL     1      -1.285   6.195  -2.730  0.00  0.00    +0.039 A 
ATOM     10  C   UNL     1      -2.081   5.639  -3.719  0.00  0.00    +0.015 A 
ATOM     11  C   UNL     1      -1.540   5.442  -4.981  0.00  0.00    +0.058 A 
ATOM     12 CL   UNL     1      -2.597   5.507  -6.375  0.00  0.00    -0.082 Cl
ATOM     13  O   UNL     1       0.781   6.722  -1.811  0.00  0.00    -0.449 OA
ATOM     14  C   UNL     1       2.113   6.473  -1.470  0.00  0.00    +0.188 A 
ATOM     15  C   UNL     1       2.982   5.592  -2.104  0.00  0.00    +0.227 A 
ATOM     16  C   UNL     1       4.254   5.511  -1.581  0.00  0.00    +0.050 A 
ATOM     17  C   UNL     1       4.546   6.083  -0.349  0.00  0.00    +0.004 A 
ATOM     18  C   UNL     1       3.823   7.226  -0.034  0.00  0.00    +0.003 A 
ATOM     19  C   UNL     1       2.633   7.498  -0.689  0.00  0.00    +0.041 A 
ATOM     20  C   UNL     1      -0.167   5.281  -5.109  0.00  0.00    +0.022 A 
ATOM     21  N   UNL     1       2.942   5.066  -3.436  0.00  0.00    -0.037 NA
ATOM     22  C   UNL     1       1.516   4.694  -6.692  0.00  0.00    +0.220 C 
ATOM     23  C   UNL     1       2.048   4.930  -8.080  0.00  0.00    +0.124 C 
ENDROOT
TORSDOF 0
ENDMDL
MODEL 7
REMARK VINA RESULT:      -7.9      3.016      6.036
REMARK  Name = 
REMARK  0 active torsions:
REMARK  status: ('A' for Active; 'I' for Inactive)
REMARK                            x       y       z     vdW  Elec       q    Type
REMARK                         _______ _______ _______ _____ _____    ______ ____
ROOT
ATOM      1  C   UNL     1       4.707   6.478  -6.586  0.00  0.00    +0.090 C 
ATOM      2  N   UNL     1       4.088   6.019  -5.369  0.00  0.00    -0.265 NA
ATOM      3  C   UNL     1       3.157   6.966  -4.811  0.00  0.00    +0.124 C 
ATOM      4  C   UNL     1       2.648   6.381  -3.504  0.00  0.00    +0.220 C 
ATOM      5  N   UNL     1       1.800   5.247  -3.858  0.00  0.00    -0.188 N 
ATOM      6  C   UNL     1       0.439   5.328  -3.442  0.00  0.00    +0.327 C 
ATOM      7  C   UNL     1      -0.555   5.734  -4.441  0.00  0.00    +0.117 A 
ATOM      8  C   UNL     1      -1.679   6.543  -4.329  0.00  0.00    +0.153 A 
ATOM      9  C   UNL     1      -2.614   6.501  -5.357  0.00  0.00    +0.039 A 
ATOM     10  C   UNL     1      -2.293   5.822  -6.521  0.00  0.00    +0.015 A 
ATOM     11  C   UNL     1      -0.967   5.489  -6.758  0.00  0.00    +0.058 A 
ATOM     12 CL   UNL     1      -0.404   5.376  -8.412  0.00  0.00    -0.082 Cl
ATOM     13  O   UNL     1      -2.169   7.166  -3.177  0.00  0.00    -0.449 OA
ATOM     14  C   UNL     1      -1.726   6.979  -1.865  0.00  0.00    +0.188 A 
ATOM     15  C   UNL     1      -0.792   6.047  -1.428  0.00  0.00    +0.227 A 
ATOM     16  C   UNL     1      -0.518   6.047  -0.078  0.00  0.00    +0.050 A 
ATOM     17  C   UNL     1      -1.320   6.762   0.803  0.00  0.00    +0.004 A 
ATOM     18  C   UNL     1      -1.887   7.922   0.289  0.00  0.00    +0.003 A 
ATOM     19  C   UNL     1      -1.989   8.097  -1.081  0.00  0.00    +0.041 A 
ATOM     20  C   UNL     1      -0.106   5.338  -5.679  0.00  0.00    +0.022 A 
ATOM     21  N   UNL     1       0.238   5.370  -2.159  0.00  0.00    -0.037 NA
ATOM     22  C   UNL     1       2.090   4.601  -5.117  0.00  0.00    +0.220 C 
ATOM     23  C   UNL     1       3.552   4.684  -5.465  0.00  0.00    +0.124 C 
ENDROOT
TORSDOF 0
ENDMDL
MODEL 8
REMARK VINA RESULT:      -7.8      3.835      5.955
REMARK  Name = 
REMARK  0 active torsions:
REMARK  status: ('A' for Active; 'I' for Inactive)
REMARK                            x       y       z     vdW  Elec       q    Type
REMARK                         _______ _______ _______ _____ _____    ______ ____
ROOT
ATOM      1  C   UNL     1       4.821   9.098   1.090  0.00  0.00    +0.090 C 
ATOM      2  N   UNL     1       3.779   8.128   0.866  0.00  0.00    -0.265 NA
ATOM      3  C   UNL     1       2.766   8.583  -0.051  0.00  0.00    +0.124 C 
ATOM      4  C   UNL     1       1.707   7.495  -0.127  0.00  0.00    +0.220 C 
ATOM      5  N   UNL     1       2.315   6.369  -0.829  0.00  0.00    -0.188 N 
ATOM      6  C   UNL     1       1.685   5.974  -2.046  0.00  0.00    +0.327 C 
ATOM      7  C   UNL     1       2.287   6.431  -3.303  0.00  0.00    +0.117 A 
ATOM      8  C   UNL     1       1.701   6.858  -4.489  0.00  0.00    +0.153 A 
ATOM      9  C   UNL     1       2.505   6.929  -5.621  0.00  0.00    +0.039 A 
ATOM     10  C   UNL     1       3.874   6.770  -5.476  0.00  0.00    +0.015 A 
ATOM     11  C   UNL     1       4.428   6.867  -4.208  0.00  0.00    +0.058 A 
ATOM     12 CL   UNL     1       6.074   7.444  -4.045  0.00  0.00    -0.082 Cl
ATOM     13  O   UNL     1       0.338   6.928  -4.789  0.00  0.00    -0.449 OA
ATOM     14  C   UNL     1      -0.721   6.435  -4.020  0.00  0.00    +0.188 A 
ATOM     15  C   UNL     1      -0.623   5.668  -2.865  0.00  0.00    +0.227 A 
ATOM     16  C   UNL     1      -1.812   5.292  -2.281  0.00  0.00    +0.050 A 
ATOM     17  C   UNL     1      -3.012   5.460  -2.960  0.00  0.00    +0.004 A 
ATOM     18  C   UNL     1      -3.066   6.548  -3.821  0.00  0.00    +0.003 A 
ATOM     19  C   UNL     1      -1.895   7.133  -4.276  0.00  0.00    +0.041 A 
ATOM     20  C   UNL     1       3.638   6.585  -3.102  0.00  0.00    +0.022 A 
ATOM     21  N   UNL     1       0.464   5.542  -1.940  0.00  0.00    -0.037 NA
ATOM     22  C   UNL     1       3.754   6.265  -0.742  0.00  0.00    +0.220 C 
ATOM     23  C   UNL     1       4.277   6.812   0.558  0.00  0.00    +0.124 C 
ENDROOT
TORSDOF 0
ENDMDL
MODEL 9
REMARK VINA RESULT:      -7.7      2.945      4.334
REMARK  Name = 
REMARK  0 active torsions:
REMARK  status: ('A' for Active; 'I' for Inactive)
REMARK                            x       y       z     vdW  Elec       q    Type
REMARK                         _______ _______ _______ _____ _____    ______ ____
ROOT
ATOM      1  C   UNL     1       3.426   4.638  -4.444  0.00  0.00    +0.090 C 
ATOM      2  N   UNL     1       4.011   5.466  -5.468  0.00  0.00    -0.265 NA
ATOM      3  C   UNL     1       4.222   4.770  -6.711  0.00  0.00    +0.124 C 
ATOM      4  C   UNL     1       4.907   5.740  -7.660  0.00  0.00    +0.220 C 
ATOM      5  N   UNL     1       3.917   6.753  -8.007  0.00  0.00    -0.188 N 
ATOM      6  C   UNL     1       3.587   6.860  -9.390  0.00  0.00    +0.327 C 
ATOM      7  C   UNL     1       2.349   6.219  -9.845  0.00  0.00    +0.117 A 
ATOM      8  C   UNL     1       2.060   5.531 -11.017  0.00  0.00    +0.153 A 
ATOM      9  C   UNL     1       0.723   5.306 -11.325  0.00  0.00    +0.039 A 
ATOM     10  C   UNL     1      -0.237   5.593 -10.368  0.00  0.00    +0.015 A 
ATOM     11  C   UNL     1       0.163   5.781  -9.054  0.00  0.00    +0.058 A 
ATOM     12 CL   UNL     1      -0.947   5.372  -7.762  0.00  0.00    -0.082 Cl
ATOM     13  O   UNL     1       2.910   5.302 -12.103  0.00  0.00    -0.449 OA
ATOM     14  C   UNL     1       4.179   5.850 -12.310  0.00  0.00    +0.188 A 
ATOM     15  C   UNL     1       4.797   6.829 -11.540  0.00  0.00    +0.227 A 
ATOM     16  C   UNL     1       6.055   7.218 -11.946  0.00  0.00    +0.050 A 
ATOM     17  C   UNL     1       6.543   6.834 -13.188  0.00  0.00    +0.004 A 
ATOM     18  C   UNL     1       6.102   5.600 -13.649  0.00  0.00    +0.003 A 
ATOM     19  C   UNL     1       4.956   5.030 -13.120  0.00  0.00    +0.041 A 
ATOM     20  C   UNL     1       1.459   6.208  -8.797  0.00  0.00    +0.022 A 
ATOM     21  N   UNL     1       4.557   7.211 -10.180  0.00  0.00    -0.037 NA
ATOM     22  C   UNL     1       2.870   6.981  -7.038  0.00  0.00    +0.220 C 
ATOM     23  C   UNL     1       3.345   6.734  -5.631  0.00  0.00    +0.124 C 
ENDROOT
TORSDOF 0
ENDMDL
