MODEL 1
REMARK VINA RESULT:      -8.2      0.000      0.000
REMARK  Name = 
REMARK  4 active torsions:
REMARK  status: ('A' for Active; 'I' for Inactive)
REMARK    1  A    between atoms: N_4  and  N_5
REMARK    2  A    between atoms: C_6  and  C_7
REMARK    3  A    between atoms: C_10  and  C_11
REMARK    4  A    between atoms: C_14  and  N_15
REMARK                            x       y       z     vdW  Elec       q    Type
REMARK                         _______ _______ _______ _____ _____    ______ ____
ROOT
ATOM      1  C   UNL     1       2.294   5.388  -7.575  0.00  0.00    +0.166 A 
ATOM      2  O   UNL     1       3.472   5.945  -7.789  0.00  0.00    -0.452 OA
ATOM      3  C   UNL     1       4.086   5.382  -8.792  0.00  0.00    +0.145 A 
ATOM      4  C   UNL     1       3.595   4.082  -8.820  0.00  0.00    +0.041 A 
ATOM      5  C   UNL     1       2.314   4.199  -8.295  0.00  0.00    +0.042 A 
ENDROOT
BRANCH   3   6
ATOM      6  C   UNL     1       5.265   5.893  -9.505  0.00  0.00    +0.035 A 
ATOM      7  C   UNL     1       6.532   5.547  -9.122  0.00  0.00    +0.009 A 
ATOM      8  C   UNL     1       7.567   5.764 -10.020  0.00  0.00    +0.075 A 
ATOM      9  C   UNL     1       7.313   6.144 -11.328  0.00  0.00    +0.290 A 
ATOM     10  C   UNL     1       6.049   6.567 -11.705  0.00  0.00    +0.075 A 
ATOM     11  C   UNL     1       5.076   6.539 -10.714  0.00  0.00    +0.009 A 
BRANCH   9  12
ATOM     12  N   UNL     1       8.221   5.744 -12.355  0.00  0.00    +0.081 N 
ATOM     13  O   UNL     1       7.770   4.833 -13.270  0.00  0.00    -0.576 OA
ATOM     14  O   UNL     1       9.441   5.841 -12.148  0.00  0.00    +0.041 OA
ENDBRANCH   9  12
ENDBRANCH   3   6
BRANCH   1  16
ATOM     15  N   UNL     1       1.315   6.965  -6.167  0.00  0.00    -0.169 NA
ATOM     16  C   UNL     1       1.123   6.192  -7.197  0.00  0.00    +0.155 C 
BRANCH  15  22
ATOM     17  O   UNL     1       3.506   4.916  -2.388  0.00  0.00    -0.271 OA
ATOM     18  C   UNL     1       2.645   5.571  -3.035  0.00  0.00    +0.272 C 
ATOM     19  N   UNL     1       1.236   5.580  -2.934  0.00  0.00    -0.125 NA
ATOM     20  C   UNL     1       0.737   5.725  -4.118  0.00  0.00    +0.349 C 
ATOM     21  O   UNL     1      -0.618   5.518  -4.394  0.00  0.00    -0.249 OA
ATOM     22  N   UNL     1       1.717   6.283  -5.001  0.00  0.00    -0.154 N 
ATOM     23  C   UNL     1       2.956   6.352  -4.274  0.00  0.00    +0.208 C 
ENDBRANCH  15  22
ENDBRANCH   1  16
TORSDOF 4
ENDMDL
MODEL 2
REMARK VINA RESULT:      -8.0      3.287      8.896
REMARK  Name = 
REMARK  4 active torsions:
REMARK  status: ('A' for Active; 'I' for Inactive)
REMARK    1  A    between atoms: N_4  and  N_5
REMARK    2  A    between atoms: C_6  and  C_7
REMARK    3  A    between atoms: C_10  and  C_11
REMARK    4  A    between atoms: C_14  and  N_15
REMARK                            x       y       z     vdW  Elec       q    Type
REMARK                         _______ _______ _______ _____ _____    ______ ____
ROOT
ATOM      1  C   UNL     1       3.060   5.099  -9.638  0.00  0.00    +0.166 A 
ATOM      2  O   UNL     1       1.910   5.598  -9.223  0.00  0.00    -0.452 OA
ATOM      3  C   UNL     1       1.596   5.145  -8.041  0.00  0.00    +0.145 A 
ATOM      4  C   UNL     1       2.210   3.899  -7.968  0.00  0.00    +0.041 A 
ATOM      5  C   UNL     1       3.322   4.028  -8.791  0.00  0.00    +0.042 A 
ENDROOT
BRANCH   3   6
ATOM      6  C   UNL     1       0.562   5.671  -7.139  0.00  0.00    +0.035 A 
ATOM      7  C   UNL     1      -0.757   5.353  -7.310  0.00  0.00    +0.009 A 
ATOM      8  C   UNL     1      -1.625   5.580  -6.252  0.00  0.00    +0.075 A 
ATOM      9  C   UNL     1      -1.150   5.942  -5.002  0.00  0.00    +0.290 A 
ATOM     10  C   UNL     1       0.167   6.337  -4.836  0.00  0.00    +0.075 A 
ATOM     11  C   UNL     1       0.962   6.301  -5.974  0.00  0.00    +0.009 A 
BRANCH   9  12
ATOM     12  N   UNL     1      -1.884   5.549  -3.842  0.00  0.00    +0.081 N 
ATOM     13  O   UNL     1      -1.163   5.168  -2.744  0.00  0.00    -0.576 OA
ATOM     14  O   UNL     1      -3.045   5.130  -3.978  0.00  0.00    +0.041 OA
ENDBRANCH   9  12
ENDBRANCH   3   6
BRANCH   1  16
ATOM     15  N   UNL     1       3.523   6.556 -11.396  0.00  0.00    -0.169 NA
ATOM     16  C   UNL     1       4.028   5.919 -10.380  0.00  0.00    +0.155 C 
BRANCH  15  22
ATOM     17  O   UNL     1       0.639   4.004 -14.305  0.00  0.00    -0.271 OA
ATOM     18  C   UNL     1       1.594   4.747 -13.953  0.00  0.00    +0.272 C 
ATOM     19  N   UNL     1       2.946   4.760 -14.366  0.00  0.00    -0.125 NA
ATOM     20  C   UNL     1       3.685   5.064 -13.351  0.00  0.00    +0.349 C 
ATOM     21  O   UNL     1       5.076   4.911 -13.361  0.00  0.00    -0.249 OA
ATOM     22  N   UNL     1       2.902   5.722 -12.348  0.00  0.00    -0.154 N 
ATOM     23  C   UNL     1       1.532   5.680 -12.784  0.00  0.00    +0.208 C 
ENDBRANCH  15  22
ENDBRANCH   1  16
TORSDOF 4
ENDMDL
MODEL 3
REMARK VINA RESULT:      -7.9      1.716      2.250
REMARK  Name = 
REMARK  4 active torsions:
REMARK  status: ('A' for Active; 'I' for Inactive)
REMARK    1  A    between atoms: N_4  and  N_5
REMARK    2  A    between atoms: C_6  and  C_7
REMARK    3  A    between atoms: C_10  and  C_11
REMARK    4  A    between atoms: C_14  and  N_15
REMARK                            x       y       z     vdW  Elec       q    Type
REMARK                         _______ _______ _______ _____ _____    ______ ____
ROOT
ATOM      1  C   UNL     1       2.006   5.010  -7.574  0.00  0.00    +0.166 A 
ATOM      2  O   UNL     1       3.103   4.806  -8.282  0.00  0.00    -0.452 OA
ATOM      3  C   UNL     1       3.594   5.929  -8.727  0.00  0.00    +0.145 A 
ATOM      4  C   UNL     1       2.495   6.773  -8.841  0.00  0.00    +0.041 A 
ATOM      5  C   UNL     1       1.622   6.315  -7.862  0.00  0.00    +0.042 A 
ENDROOT
BRANCH   3   6
ATOM      6  C   UNL     1       4.931   6.143  -9.299  0.00  0.00    +0.035 A 
ATOM      7  C   UNL     1       6.028   5.496  -8.800  0.00  0.00    +0.009 A 
ATOM      8  C   UNL     1       7.175   5.461  -9.580  0.00  0.00    +0.075 A 
ATOM      9  C   UNL     1       7.161   5.903 -10.893  0.00  0.00    +0.290 A 
ATOM     10  C   UNL     1       6.085   6.624 -11.383  0.00  0.00    +0.075 A 
ATOM     11  C   UNL     1       5.034   6.826 -10.498  0.00  0.00    +0.009 A 
BRANCH   9  12
ATOM     12  N   UNL     1       8.051   5.302 -11.835  0.00  0.00    +0.081 N 
ATOM     13  O   UNL     1       9.255   5.918 -12.040  0.00  0.00    -0.576 OA
ATOM     14  O   UNL     1       7.581   4.579 -12.729  0.00  0.00    +0.041 OA
ENDBRANCH   9  12
ENDBRANCH   3   6
BRANCH   1  16
ATOM     15  N   UNL     1       1.634   4.950  -5.275  0.00  0.00    -0.169 NA
ATOM     16  C   UNL     1       1.723   4.234  -6.358  0.00  0.00    +0.155 C 
BRANCH  15  22
ATOM     17  O   UNL     1       5.049   8.269  -4.492  0.00  0.00    -0.271 OA
ATOM     18  C   UNL     1       4.337   7.247  -4.301  0.00  0.00    +0.272 C 
ATOM     19  N   UNL     1       4.691   5.954  -3.853  0.00  0.00    -0.125 NA
ATOM     20  C   UNL     1       3.960   5.087  -4.471  0.00  0.00    +0.349 C 
ATOM     21  O   UNL     1       4.235   3.716  -4.447  0.00  0.00    -0.249 OA
ATOM     22  N   UNL     1       2.784   5.716  -4.995  0.00  0.00    -0.154 N 
ATOM     23  C   UNL     1       2.916   7.128  -4.757  0.00  0.00    +0.208 C 
ENDBRANCH  15  22
ENDBRANCH   1  16
TORSDOF 4
ENDMDL
MODEL 4
REMARK VINA RESULT:      -7.9      3.278      4.983
REMARK  Name = 
REMARK  4 active torsions:
REMARK  status: ('A' for Active; 'I' for Inactive)
REMARK    1  A    between atoms: N_4  and  N_5
REMARK    2  A    between atoms: C_6  and  C_7
REMARK    3  A    between atoms: C_10  and  C_11
REMARK    4  A    between atoms: C_14  and  N_15
REMARK                            x       y       z     vdW  Elec       q    Type
REMARK                         _______ _______ _______ _____ _____    ______ ____
ROOT
ATOM      1  C   UNL     1       1.816   5.397  -8.504  0.00  0.00    +0.166 A 
ATOM      2  O   UNL     1       2.859   6.166  -8.760  0.00  0.00    -0.452 OA
ATOM      3  C   UNL     1       3.844   5.476  -9.265  0.00  0.00    +0.145 A 
ATOM      4  C   UNL     1       3.670   4.193  -8.756  0.00  0.00    +0.041 A 
ATOM      5  C   UNL     1       2.298   4.095  -8.565  0.00  0.00    +0.042 A 
ENDROOT
BRANCH   3   6
ATOM      6  C   UNL     1       5.042   6.003  -9.933  0.00  0.00    +0.035 A 
ATOM      7  C   UNL     1       6.293   5.775  -9.430  0.00  0.00    +0.009 A 
ATOM      8  C   UNL     1       7.380   5.986 -10.265  0.00  0.00    +0.075 A 
ATOM      9  C   UNL     1       7.206   6.238 -11.616  0.00  0.00    +0.290 A 
ATOM     10  C   UNL     1       5.953   6.543 -12.120  0.00  0.00    +0.075 A 
ATOM     11  C   UNL     1       4.909   6.532 -11.205  0.00  0.00    +0.009 A 
BRANCH   9  12
ATOM     12  N   UNL     1       8.214   5.816 -12.535  0.00  0.00    +0.081 N 
ATOM     13  O   UNL     1       7.878   4.834 -13.426  0.00  0.00    -0.576 OA
ATOM     14  O   UNL     1       9.408   5.976 -12.233  0.00  0.00    +0.041 OA
ENDBRANCH   9  12
ENDBRANCH   3   6
BRANCH   1  16
ATOM     15  N   UNL     1      -0.089   5.415  -9.844  0.00  0.00    -0.169 NA
ATOM     16  C   UNL     1       0.443   5.863  -8.744  0.00  0.00    +0.155 C 
BRANCH  15  22
ATOM     17  O   UNL     1       2.772   5.685 -13.720  0.00  0.00    -0.271 OA
ATOM     18  C   UNL     1       1.728   5.778 -13.020  0.00  0.00    +0.272 C 
ATOM     19  N   UNL     1       0.748   6.795 -12.969  0.00  0.00    -0.125 NA
ATOM     20  C   UNL     1       0.342   6.917 -11.749  0.00  0.00    +0.349 C 
ATOM     21  O   UNL     1      -0.431   8.000 -11.318  0.00  0.00    -0.249 OA
ATOM     22  N   UNL     1       0.642   5.729 -11.007  0.00  0.00    -0.154 N 
ATOM     23  C   UNL     1       1.419   4.877 -11.866  0.00  0.00    +0.208 C 
ENDBRANCH  15  22
ENDBRANCH   1  16
TORSDOF 4
ENDMDL
MODEL 5
REMARK VINA RESULT:      -7.9      2.912      8.650
REMARK  Name = 
REMARK  4 active torsions:
REMARK  status: ('A' for Active; 'I' for Inactive)
REMARK    1  A    between atoms: N_4  and  N_5
REMARK    2  A    between atoms: C_6  and  C_7
REMARK    3  A    between atoms: C_10  and  C_11
REMARK    4  A    between atoms: C_14  and  N_15
REMARK                            x       y       z     vdW  Elec       q    Type
REMARK                         _______ _______ _______ _____ _____    ______ ____
ROOT
ATOM      1  C   UNL     1       1.797   6.543  -8.700  0.00  0.00    +0.166 A 
ATOM      2  O   UNL     1       1.227   5.667  -7.892  0.00  0.00    -0.452 OA
ATOM      3  C   UNL     1       0.865   6.224  -6.770  0.00  0.00    +0.145 A 
ATOM      4  C   UNL     1       1.749   7.284  -6.603  0.00  0.00    +0.041 A 
ATOM      5  C   UNL     1       2.085   7.644  -7.901  0.00  0.00    +0.042 A 
ENDROOT
BRANCH   3   6
ATOM      6  C   UNL     1      -0.037   5.661  -5.755  0.00  0.00    +0.035 A 
ATOM      7  C   UNL     1       0.406   5.374  -4.493  0.00  0.00    +0.009 A 
ATOM      8  C   UNL     1      -0.541   5.184  -3.497  0.00  0.00    +0.075 A 
ATOM      9  C   UNL     1      -1.881   5.455  -3.722  0.00  0.00    +0.290 A 
ATOM     10  C   UNL     1      -2.349   5.672  -5.008  0.00  0.00    +0.075 A 
ATOM     11  C   UNL     1      -1.395   5.644  -6.016  0.00  0.00    +0.009 A 
BRANCH   9  12
ATOM     12  N   UNL     1      -2.694   5.886  -2.630  0.00  0.00    +0.081 N 
ATOM     13  O   UNL     1      -2.533   5.239  -1.436  0.00  0.00    -0.576 OA
ATOM     14  O   UNL     1      -3.772   6.452  -2.871  0.00  0.00    +0.041 OA
ENDBRANCH   9  12
ENDBRANCH   3   6
BRANCH   1  16
ATOM     15  N   UNL     1       2.236   5.616 -10.792  0.00  0.00    -0.169 NA
ATOM     16  C   UNL     1       1.554   6.520 -10.149  0.00  0.00    +0.155 C 
BRANCH  15  22
ATOM     17  O   UNL     1       6.941   6.689 -10.768  0.00  0.00    -0.271 OA
ATOM     18  C   UNL     1       5.804   6.376 -10.324  0.00  0.00    +0.272 C 
ATOM     19  N   UNL     1       5.434   5.436  -9.336  0.00  0.00    -0.125 NA
ATOM     20  C   UNL     1       4.314   4.892  -9.682  0.00  0.00    +0.349 C 
ATOM     21  O   UNL     1       3.809   3.748  -9.056  0.00  0.00    -0.249 OA
ATOM     22  N   UNL     1       3.632   5.724 -10.628  0.00  0.00    -0.154 N 
ATOM     23  C   UNL     1       4.518   6.808 -10.956  0.00  0.00    +0.208 C 
ENDBRANCH  15  22
ENDBRANCH   1  16
TORSDOF 4
ENDMDL
MODEL 6
REMARK VINA RESULT:      -7.8      3.886      7.692
REMARK  Name = 
REMARK  4 active torsions:
REMARK  status: ('A' for Active; 'I' for Inactive)
REMARK    1  A    between atoms: N_4  and  N_5
REMARK    2  A    between atoms: C_6  and  C_7
REMARK    3  A    between atoms: C_10  and  C_11
REMARK    4  A    between atoms: C_14  and  N_15
REMARK                            x       y       z     vdW  Elec       q    Type
REMARK                         _______ _______ _______ _____ _____    ______ ____
ROOT
ATOM      1  C   UNL     1       2.952   5.865  -7.680  0.00  0.00    +0.166 A 
ATOM      2  O   UNL     1       1.896   6.549  -7.278  0.00  0.00    -0.452 OA
ATOM      3  C   UNL     1       0.886   5.760  -7.036  0.00  0.00    +0.145 A 
ATOM      4  C   UNL     1       1.088   4.665  -7.868  0.00  0.00    +0.041 A 
ATOM      5  C   UNL     1       2.469   4.603  -8.006  0.00  0.00    +0.042 A 
ENDROOT
BRANCH   3   6
ATOM      6  C   UNL     1      -0.348   6.101  -6.313  0.00  0.00    +0.035 A 
ATOM      7  C   UNL     1      -1.532   5.479  -6.598  0.00  0.00    +0.009 A 
ATOM      8  C   UNL     1      -2.560   5.580  -5.673  0.00  0.00    +0.075 A 
ATOM      9  C   UNL     1      -2.345   6.130  -4.420  0.00  0.00    +0.290 A 
ATOM     10  C   UNL     1      -1.179   6.827  -4.148  0.00  0.00    +0.075 A 
ATOM     11  C   UNL     1      -0.252   6.889  -5.180  0.00  0.00    +0.009 A 
BRANCH   9  12
ATOM     12  N   UNL     1      -3.122   5.667  -3.316  0.00  0.00    +0.081 N 
ATOM     13  O   UNL     1      -3.935   6.575  -2.697  0.00  0.00    -0.576 OA
ATOM     14  O   UNL     1      -2.732   4.673  -2.682  0.00  0.00    +0.041 OA
ENDBRANCH   9  12
ENDBRANCH   3   6
BRANCH   1  16
ATOM     15  N   UNL     1       4.709   5.617  -6.170  0.00  0.00    -0.169 NA
ATOM     16  C   UNL     1       4.310   6.227  -7.248  0.00  0.00    +0.155 C 
BRANCH  15  22
ATOM     17  O   UNL     1       1.546   5.490  -2.528  0.00  0.00    -0.271 OA
ATOM     18  C   UNL     1       2.634   5.682  -3.134  0.00  0.00    +0.272 C 
ATOM     19  N   UNL     1       3.557   6.748  -3.044  0.00  0.00    -0.125 NA
ATOM     20  C   UNL     1       4.049   6.969  -4.218  0.00  0.00    +0.349 C 
ATOM     21  O   UNL     1       4.792   8.115  -4.519  0.00  0.00    -0.249 OA
ATOM     22  N   UNL     1       3.874   5.818  -5.052  0.00  0.00    -0.154 N 
ATOM     23  C   UNL     1       3.081   4.873  -4.312  0.00  0.00    +0.208 C 
ENDBRANCH  15  22
ENDBRANCH   1  16
TORSDOF 4
ENDMDL
MODEL 7
REMARK VINA RESULT:      -7.8      1.877      2.471
REMARK  Name = 
REMARK  4 active torsions:
REMARK  status: ('A' for Active; 'I' for Inactive)
REMARK    1  A    between atoms: N_4  and  N_5
REMARK    2  A    between atoms: C_6  and  C_7
REMARK    3  A    between atoms: C_10  and  C_11
REMARK    4  A    between atoms: C_14  and  N_15
REMARK                            x       y       z     vdW  Elec       q    Type
REMARK                         _______ _______ _______ _____ _____    ______ ____
ROOT
ATOM      1  C   UNL     1       1.283   5.595  -5.940  0.00  0.00    +0.166 A 
ATOM      2  O   UNL     1       2.286   6.080  -6.649  0.00  0.00    -0.452 OA
ATOM      3  C   UNL     1       2.735   5.198  -7.498  0.00  0.00    +0.145 A 
ATOM      4  C   UNL     1       2.450   3.970  -6.911  0.00  0.00    +0.041 A 
ATOM      5  C   UNL     1       1.318   4.221  -6.148  0.00  0.00    +0.042 A 
ENDROOT
BRANCH   3   6
ATOM      6  C   UNL     1       3.633   5.443  -8.635  0.00  0.00    +0.035 A 
ATOM      7  C   UNL     1       3.312   6.345  -9.612  0.00  0.00    +0.009 A 
ATOM      8  C   UNL     1       4.325   6.787 -10.450  0.00  0.00    +0.075 A 
ATOM      9  C   UNL     1       5.651   6.474 -10.198  0.00  0.00    +0.290 A 
ATOM     10  C   UNL     1       5.980   5.507  -9.263  0.00  0.00    +0.075 A 
ATOM     11  C   UNL     1       4.916   4.926  -8.586  0.00  0.00    +0.009 A 
BRANCH   9  12
ATOM     12  N   UNL     1       6.668   7.391 -10.603  0.00  0.00    +0.081 N 
ATOM     13  O   UNL     1       6.301   8.400 -11.449  0.00  0.00    -0.576 OA
ATOM     14  O   UNL     1       7.853   7.021 -10.579  0.00  0.00    +0.041 OA
ENDBRANCH   9  12
ENDBRANCH   3   6
BRANCH   1  16
ATOM     15  N   UNL     1       0.213   7.012  -4.431  0.00  0.00    -0.169 NA
ATOM     16  C   UNL     1       0.121   6.425  -5.589  0.00  0.00    +0.155 C 
BRANCH  15  22
ATOM     17  O   UNL     1       1.711   4.287  -0.740  0.00  0.00    -0.271 OA
ATOM     18  C   UNL     1       0.974   5.063  -1.406  0.00  0.00    +0.272 C 
ATOM     19  N   UNL     1      -0.431   5.085  -1.559  0.00  0.00    -0.125 NA
ATOM     20  C   UNL     1      -0.710   5.445  -2.768  0.00  0.00    +0.349 C 
ATOM     21  O   UNL     1      -1.991   5.319  -3.314  0.00  0.00    -0.249 OA
ATOM     22  N   UNL     1       0.407   6.127  -3.350  0.00  0.00    -0.154 N 
ATOM     23  C   UNL     1       1.494   6.041  -2.413  0.00  0.00    +0.208 C 
ENDBRANCH  15  22
ENDBRANCH   1  16
TORSDOF 4
ENDMDL
MODEL 8
REMARK VINA RESULT:      -7.7      1.686      2.850
REMARK  Name = 
REMARK  4 active torsions:
REMARK  status: ('A' for Active; 'I' for Inactive)
REMARK    1  A    between atoms: N_4  and  N_5
REMARK    2  A    between atoms: C_6  and  C_7
REMARK    3  A    between atoms: C_10  and  C_11
REMARK    4  A    between atoms: C_14  and  N_15
REMARK                            x       y       z     vdW  Elec       q    Type
REMARK                         _______ _______ _______ _____ _____    ______ ____
ROOT
ATOM      1  C   UNL     1       2.579   6.092  -6.664  0.00  0.00    +0.166 A 
ATOM      2  O   UNL     1       3.215   5.337  -7.541  0.00  0.00    -0.452 OA
ATOM      3  C   UNL     1       3.776   6.060  -8.470  0.00  0.00    +0.145 A 
ATOM      4  C   UNL     1       2.990   7.205  -8.546  0.00  0.00    +0.041 A 
ATOM      5  C   UNL     1       2.479   7.343  -7.261  0.00  0.00    +0.042 A 
ENDROOT
BRANCH   3   6
ATOM      6  C   UNL     1       4.789   5.622  -9.441  0.00  0.00    +0.035 A 
ATOM      7  C   UNL     1       4.477   5.445 -10.760  0.00  0.00    +0.009 A 
ATOM      8  C   UNL     1       5.519   5.377 -11.673  0.00  0.00    +0.075 A 
ATOM      9  C   UNL     1       6.821   5.663 -11.296  0.00  0.00    +0.290 A 
ATOM     10  C   UNL     1       7.159   5.770  -9.957  0.00  0.00    +0.075 A 
ATOM     11  C   UNL     1       6.117   5.619  -9.052  0.00  0.00    +0.009 A 
BRANCH   9  12
ATOM     12  N   UNL     1       7.716   6.219 -12.260  0.00  0.00    +0.081 N 
ATOM     13  O   UNL     1       7.165   6.747 -13.394  0.00  0.00    -0.576 OA
ATOM     14  O   UNL     1       8.892   5.822 -12.287  0.00  0.00    +0.041 OA
ENDBRANCH   9  12
ENDBRANCH   3   6
BRANCH   1  16
ATOM     15  N   UNL     1       1.670   4.942  -4.853  0.00  0.00    -0.169 NA
ATOM     16  C   UNL     1       2.595   5.777  -5.228  0.00  0.00    +0.155 C 
BRANCH  15  22
ATOM     17  O   UNL     1      -2.667   6.036  -6.664  0.00  0.00    -0.271 OA
ATOM     18  C   UNL     1      -1.807   5.617  -5.844  0.00  0.00    +0.272 C 
ATOM     19  N   UNL     1      -1.723   5.780  -4.443  0.00  0.00    -0.125 NA
ATOM     20  C   UNL     1      -0.478   5.899  -4.115  0.00  0.00    +0.349 C 
ATOM     21  O   UNL     1      -0.072   6.327  -2.847  0.00  0.00    -0.249 OA
ATOM     22  N   UNL     1       0.358   5.366  -5.148  0.00  0.00    -0.154 N 
ATOM     23  C   UNL     1      -0.498   5.014  -6.249  0.00  0.00    +0.208 C 
ENDBRANCH  15  22
ENDBRANCH   1  16
TORSDOF 4
ENDMDL
MODEL 9
REMARK VINA RESULT:      -7.7      4.269      8.702
REMARK  Name = 
REMARK  4 active torsions:
REMARK  status: ('A' for Active; 'I' for Inactive)
REMARK    1  A    between atoms: N_4  and  N_5
REMARK    2  A    between atoms: C_6  and  C_7
REMARK    3  A    between atoms: C_10  and  C_11
REMARK    4  A    between atoms: C_14  and  N_15
REMARK                            x       y       z     vdW  Elec       q    Type
REMARK                         _______ _______ _______ _____ _____    ______ ____
ROOT
ATOM      1  C   UNL     1       2.740   5.413  -7.839  0.00  0.00    +0.166 A 
ATOM      2  O   UNL     1       1.694   5.187  -7.066  0.00  0.00    -0.452 OA
ATOM      3  C   UNL     1       1.081   6.298  -6.763  0.00  0.00    +0.145 A 
ATOM      4  C   UNL     1       2.073   7.271  -6.815  0.00  0.00    +0.041 A 
ATOM      5  C   UNL     1       2.970   6.781  -7.755  0.00  0.00    +0.042 A 
ENDROOT
BRANCH   3   6
ATOM      6  C   UNL     1      -0.258   6.436  -6.173  0.00  0.00    +0.035 A 
ATOM      7  C   UNL     1      -1.266   5.569  -6.491  0.00  0.00    +0.009 A 
ATOM      8  C   UNL     1      -2.377   5.528  -5.662  0.00  0.00    +0.075 A 
ATOM      9  C   UNL     1      -2.392   6.202  -4.451  0.00  0.00    +0.290 A 
ATOM     10  C   UNL     1      -1.415   7.137  -4.154  0.00  0.00    +0.075 A 
ATOM     11  C   UNL     1      -0.424   7.309  -5.112  0.00  0.00    +0.009 A 
BRANCH   9  12
ATOM     12  N   UNL     1      -3.166   5.675  -3.373  0.00  0.00    +0.081 N 
ATOM     13  O   UNL     1      -3.848   6.569  -2.596  0.00  0.00    -0.576 OA
ATOM     14  O   UNL     1      -2.857   4.570  -2.897  0.00  0.00    +0.041 OA
ENDBRANCH   9  12
ENDBRANCH   3   6
BRANCH   1  16
ATOM     15  N   UNL     1       3.092   5.072 -10.117  0.00  0.00    -0.169 NA
ATOM     16  C   UNL     1       3.086   4.507  -8.945  0.00  0.00    +0.155 C 
BRANCH  15  22
ATOM     17  O   UNL     1      -0.615   7.888 -11.387  0.00  0.00    -0.271 OA
ATOM     18  C   UNL     1       0.155   6.891 -11.379  0.00  0.00    +0.272 C 
ATOM     19  N   UNL     1      -0.135   5.510 -11.449  0.00  0.00    -0.125 NA
ATOM     20  C   UNL     1       0.706   4.872 -10.704  0.00  0.00    +0.349 C 
ATOM     21  O   UNL     1       0.534   3.529 -10.354  0.00  0.00    -0.249 OA
ATOM     22  N   UNL     1       1.869   5.677 -10.472  0.00  0.00    -0.154 N 
ATOM     23  C   UNL     1       1.612   6.970 -11.046  0.00  0.00    +0.208 C 
ENDBRANCH  15  22
ENDBRANCH   1  16
TORSDOF 4
ENDMDL
