MODEL 1
REMARK VINA RESULT:      -6.9      0.000      0.000
REMARK  Name = 
REMARK  5 active torsions:
REMARK  status: ('A' for Active; 'I' for Inactive)
REMARK    1  A    between atoms: C_2  and  C_3
REMARK    2  A    between atoms: C_5  and  C_7
REMARK    3  A    between atoms: C_11  and  O_12
REMARK    4  A    between atoms: O_12  and  C_13
REMARK    5  A    between atoms: C_15  and  C_16
REMARK                            x       y       z     vdW  Elec       q    Type
REMARK                         _______ _______ _______ _____ _____    ______ ____
ROOT
ATOM      1  O   UNL     1       4.247   4.981  -9.198  0.00  0.00    -0.326 OA
ENDROOT
BRANCH   1   2
ATOM      2  C   UNL     1       3.587   5.800  -8.085  0.00  0.00    +0.270 C 
ATOM      3  C   UNL     1       2.606   4.479  -7.592  0.00  0.00    +0.241 C 
ATOM      4  O   UNL     1       1.661   4.724  -8.723  0.00  0.00    -0.215 OA
ATOM      5  C   UNL     1       1.668   5.422  -6.537  0.00  0.00    +0.220 C 
ATOM      6  O   UNL     1       1.878   4.613  -5.294  0.00  0.00    -0.217 OA
ATOM      7  C   UNL     1       2.712   6.731  -6.267  0.00  0.00    +0.214 C 
ATOM      8  O   UNL     1       2.358   6.852  -4.796  0.00  0.00    -0.218 OA
ATOM      9  C   UNL     1       4.267   6.158  -5.874  0.00  0.00    +0.183 C 
ATOM     10  O   UNL     1       4.517   5.237  -7.028  0.00  0.00    -0.326 OA
BRANCH   9  11
ATOM     11  C   UNL     1       3.930   4.939  -4.848  0.00  0.00    +0.214 C 
ATOM     12  O   UNL     1       5.095   4.958  -4.101  0.00  0.00    -0.218 OA
ENDBRANCH   9  11
ENDBRANCH   1   2
BRANCH   1  14
ATOM     13  C   UNL     1       4.438   5.517 -11.534  0.00  0.00    +0.180 C 
ATOM     14  C   UNL     1       4.795   6.132  -9.985  0.00  0.00    +0.183 C 
ATOM     15  C   UNL     1       6.317   5.410 -10.305  0.00  0.00    +0.238 C 
ATOM     16  O   UNL     1       6.931   6.343  -9.282  0.00  0.00    -0.215 OA
ATOM     17  C   UNL     1       6.537   6.317 -11.652  0.00  0.00    +0.281 C 
ATOM     18  O   UNL     1       7.370   7.344 -11.338  0.00  0.00    -0.190 OA
ATOM     19  O   UNL     1       5.220   6.733 -11.978  0.00  0.00    -0.325 OA
BRANCH  13  21
ATOM     20  O   UNL     1       2.697   5.947 -12.646  0.00  0.00    -0.218 OA
ATOM     21  C   UNL     1       2.968   6.239 -11.557  0.00  0.00    +0.214 C 
ENDBRANCH  13  21
BRANCH  17  22
ATOM     22  C   UNL     1       6.849   5.493 -12.815  0.00  0.00    +0.243 C 
ATOM     23  O   UNL     1       7.842   4.687 -13.044  0.00  0.00    -0.215 OA
ENDBRANCH  17  22
ENDBRANCH   1  14
TORSDOF 5
ENDMDL
MODEL 2
REMARK VINA RESULT:      -6.8      3.871      8.519
REMARK  Name = 
REMARK  5 active torsions:
REMARK  status: ('A' for Active; 'I' for Inactive)
REMARK    1  A    between atoms: C_2  and  C_3
REMARK    2  A    between atoms: C_5  and  C_7
REMARK    3  A    between atoms: C_11  and  O_12
REMARK    4  A    between atoms: O_12  and  C_13
REMARK    5  A    between atoms: C_15  and  C_16
REMARK                            x       y       z     vdW  Elec       q    Type
REMARK                         _______ _______ _______ _____ _____    ______ ____
ROOT
ATOM      1  O   UNL     1       0.067   6.435  -4.525  0.00  0.00    -0.326 OA
ENDROOT
BRANCH   1   2
ATOM      2  C   UNL     1       0.704   5.615  -5.651  0.00  0.00    +0.270 C 
ATOM      3  C   UNL     1      -0.427   6.187  -6.809  0.00  0.00    +0.241 C 
ATOM      4  O   UNL     1      -1.462   5.232  -6.312  0.00  0.00    -0.215 OA
ATOM      5  C   UNL     1       0.078   5.098  -8.009  0.00  0.00    +0.220 C 
ATOM      6  O   UNL     1       0.380   6.097  -9.083  0.00  0.00    -0.217 OA
ATOM      7  C   UNL     1       1.635   4.715  -7.456  0.00  0.00    +0.214 C 
ATOM      8  O   UNL     1       2.243   4.694  -8.847  0.00  0.00    -0.218 OA
ATOM      9  C   UNL     1       2.481   6.144  -7.079  0.00  0.00    +0.183 C 
ATOM     10  O   UNL     1       1.506   6.800  -6.150  0.00  0.00    -0.326 OA
BRANCH   9  11
ATOM     11  C   UNL     1       2.089   7.111  -8.330  0.00  0.00    +0.214 C 
ATOM     12  O   UNL     1       2.229   8.338  -7.705  0.00  0.00    -0.218 OA
ENDBRANCH   9  11
ENDBRANCH   1   2
BRANCH   1  14
ATOM     13  C   UNL     1      -0.958   6.076  -2.380  0.00  0.00    +0.180 C 
ATOM     14  C   UNL     1       0.197   5.408  -3.441  0.00  0.00    +0.183 C 
ATOM     15  C   UNL     1       1.274   6.322  -2.469  0.00  0.00    +0.238 C 
ATOM     16  O   UNL     1       2.393   5.404  -2.915  0.00  0.00    -0.215 OA
ATOM     17  C   UNL     1       0.815   5.535  -1.108  0.00  0.00    +0.281 C 
ATOM     18  O   UNL     1       1.756   4.594  -0.826  0.00  0.00    -0.190 OA
ATOM     19  O   UNL     1      -0.446   4.990  -1.460  0.00  0.00    -0.325 OA
BRANCH  13  21
ATOM     20  O   UNL     1      -2.714   4.955  -2.035  0.00  0.00    -0.218 OA
ATOM     21  C   UNL     1      -2.171   5.189  -3.033  0.00  0.00    +0.214 C 
ENDBRANCH  13  21
BRANCH  17  22
ATOM     22  C   UNL     1       0.416   6.462  -0.053  0.00  0.00    +0.243 C 
ATOM     23  O   UNL     1       1.046   6.859   1.012  0.00  0.00    -0.215 OA
ENDBRANCH  17  22
ENDBRANCH   1  14
TORSDOF 5
ENDMDL
MODEL 3
REMARK VINA RESULT:      -6.7      1.538      1.684
REMARK  Name = 
REMARK  5 active torsions:
REMARK  status: ('A' for Active; 'I' for Inactive)
REMARK    1  A    between atoms: C_2  and  C_3
REMARK    2  A    between atoms: C_5  and  C_7
REMARK    3  A    between atoms: C_11  and  O_12
REMARK    4  A    between atoms: O_12  and  C_13
REMARK    5  A    between atoms: C_15  and  C_16
REMARK                            x       y       z     vdW  Elec       q    Type
REMARK                         _______ _______ _______ _____ _____    ______ ____
ROOT
ATOM      1  O   UNL     1       3.654   5.038 -10.587  0.00  0.00    -0.326 OA
ENDROOT
BRANCH   1   2
ATOM      2  C   UNL     1       2.818   5.906  -9.641  0.00  0.00    +0.270 C 
ATOM      3  C   UNL     1       1.928   4.554  -9.066  0.00  0.00    +0.241 C 
ATOM      4  O   UNL     1       1.072   4.564 -10.290  0.00  0.00    -0.215 OA
ATOM      5  C   UNL     1       0.812   5.507  -8.214  0.00  0.00    +0.220 C 
ATOM      6  O   UNL     1       0.984   4.876  -6.868  0.00  0.00    -0.217 OA
ATOM      7  C   UNL     1       1.696   6.943  -8.028  0.00  0.00    +0.214 C 
ATOM      8  O   UNL     1       1.199   7.196  -6.617  0.00  0.00    -0.218 OA
ATOM      9  C   UNL     1       3.256   6.589  -7.445  0.00  0.00    +0.183 C 
ATOM     10  O   UNL     1       3.698   5.572  -8.452  0.00  0.00    -0.326 OA
BRANCH   9  11
ATOM     11  C   UNL     1       2.946   5.468  -6.305  0.00  0.00    +0.214 C 
ATOM     12  O   UNL     1       4.183   5.445  -5.684  0.00  0.00    -0.218 OA
ENDBRANCH   9  11
ENDBRANCH   1   2
BRANCH   1  14
ATOM     13  C   UNL     1       4.291   5.160 -12.902  0.00  0.00    +0.180 C 
ATOM     14  C   UNL     1       4.091   6.130 -11.514  0.00  0.00    +0.183 C 
ATOM     15  C   UNL     1       5.772   5.831 -11.350  0.00  0.00    +0.238 C 
ATOM     16  O   UNL     1       5.869   7.075 -10.491  0.00  0.00    -0.215 OA
ATOM     17  C   UNL     1       6.099   6.494 -12.811  0.00  0.00    +0.281 C 
ATOM     18  O   UNL     1       6.558   7.758 -12.608  0.00  0.00    -0.190 OA
ATOM     19  O   UNL     1       4.846   6.445 -13.475  0.00  0.00    -0.325 OA
BRANCH  13  21
ATOM     20  O   UNL     1       2.819   4.814 -14.375  0.00  0.00    -0.218 OA
ATOM     21  C   UNL     1       2.745   5.412 -13.384  0.00  0.00    +0.214 C 
ENDBRANCH  13  21
BRANCH  17  22
ATOM     22  C   UNL     1       6.879   5.594 -13.654  0.00  0.00    +0.243 C 
ATOM     23  O   UNL     1       7.798   4.727 -13.348  0.00  0.00    -0.215 OA
ENDBRANCH  17  22
ENDBRANCH   1  14
TORSDOF 5
ENDMDL
MODEL 4
REMARK VINA RESULT:      -6.7      5.624      8.191
REMARK  Name = 
REMARK  5 active torsions:
REMARK  status: ('A' for Active; 'I' for Inactive)
REMARK    1  A    between atoms: C_2  and  C_3
REMARK    2  A    between atoms: C_5  and  C_7
REMARK    3  A    between atoms: C_11  and  O_12
REMARK    4  A    between atoms: O_12  and  C_13
REMARK    5  A    between atoms: C_15  and  C_16
REMARK                            x       y       z     vdW  Elec       q    Type
REMARK                         _______ _______ _______ _____ _____    ______ ____
ROOT
ATOM      1  O   UNL     1       1.502   5.476  -3.729  0.00  0.00    -0.326 OA
ENDROOT
BRANCH   1   2
ATOM      2  C   UNL     1       0.366   6.349  -4.270  0.00  0.00    +0.270 C 
ATOM      3  C   UNL     1      -0.123   5.148  -5.396  0.00  0.00    +0.241 C 
ATOM      4  O   UNL     1       0.989   5.524  -6.320  0.00  0.00    -0.215 OA
ATOM      5  C   UNL     1      -1.207   6.178  -6.197  0.00  0.00    +0.220 C 
ATOM      6  O   UNL     1      -2.434   5.329  -6.069  0.00  0.00    -0.217 OA
ATOM      7  C   UNL     1      -1.480   7.347  -5.000  0.00  0.00    +0.214 C 
ATOM      8  O   UNL     1      -2.958   7.486  -5.315  0.00  0.00    -0.218 OA
ATOM      9  C   UNL     1      -1.839   6.585  -3.520  0.00  0.00    +0.183 C 
ATOM     10  O   UNL     1      -0.667   5.661  -3.399  0.00  0.00    -0.326 OA
BRANCH   9  11
ATOM     11  C   UNL     1      -2.852   5.398  -3.986  0.00  0.00    +0.214 C 
ATOM     12  O   UNL     1      -2.883   4.668  -2.811  0.00  0.00    -0.218 OA
ENDBRANCH   9  11
ENDBRANCH   1   2
BRANCH   1  14
ATOM     13  C   UNL     1       3.684   6.159  -2.985  0.00  0.00    +0.180 C 
ATOM     14  C   UNL     1       2.025   6.447  -2.715  0.00  0.00    +0.183 C 
ATOM     15  C   UNL     1       2.265   5.287  -1.475  0.00  0.00    +0.238 C 
ATOM     16  O   UNL     1       1.040   5.839  -0.776  0.00  0.00    -0.215 OA
ATOM     17  C   UNL     1       3.416   6.201  -0.753  0.00  0.00    +0.281 C 
ATOM     18  O   UNL     1       2.845   6.842   0.302  0.00  0.00    -0.190 OA
ATOM     19  O   UNL     1       3.832   7.074  -1.790  0.00  0.00    -0.325 OA
BRANCH  13  21
ATOM     20  O   UNL     1       4.916   7.520  -4.026  0.00  0.00    -0.218 OA
ATOM     21  C   UNL     1       3.774   7.339  -4.118  0.00  0.00    +0.214 C 
ENDBRANCH  13  21
BRANCH  17  22
ATOM     22  C   UNL     1       4.646   5.449  -0.531  0.00  0.00    +0.243 C 
ATOM     23  O   UNL     1       4.868   4.169  -0.514  0.00  0.00    -0.215 OA
ENDBRANCH  17  22
ENDBRANCH   1  14
TORSDOF 5
ENDMDL
MODEL 5
REMARK VINA RESULT:      -6.6      3.227      8.282
REMARK  Name = 
REMARK  5 active torsions:
REMARK  status: ('A' for Active; 'I' for Inactive)
REMARK    1  A    between atoms: C_2  and  C_3
REMARK    2  A    between atoms: C_5  and  C_7
REMARK    3  A    between atoms: C_11  and  O_12
REMARK    4  A    between atoms: O_12  and  C_13
REMARK    5  A    between atoms: C_15  and  C_16
REMARK                            x       y       z     vdW  Elec       q    Type
REMARK                         _______ _______ _______ _____ _____    ______ ____
ROOT
ATOM      1  O   UNL     1       0.640   4.921  -5.400  0.00  0.00    -0.326 OA
ENDROOT
BRANCH   1   2
ATOM      2  C   UNL     1       1.527   5.614  -6.438  0.00  0.00    +0.270 C 
ATOM      3  C   UNL     1       2.314   4.147  -6.856  0.00  0.00    +0.241 C 
ATOM      4  O   UNL     1       3.179   4.233  -5.641  0.00  0.00    -0.215 OA
ATOM      5  C   UNL     1       3.489   4.915  -7.810  0.00  0.00    +0.220 C 
ATOM      6  O   UNL     1       3.262   4.149  -9.076  0.00  0.00    -0.217 OA
ATOM      7  C   UNL     1       2.708   6.379  -8.158  0.00  0.00    +0.214 C 
ATOM      8  O   UNL     1       3.210   6.435  -9.589  0.00  0.00    -0.218 OA
ATOM      9  C   UNL     1       1.122   6.074  -8.697  0.00  0.00    +0.183 C 
ATOM     10  O   UNL     1       0.617   5.212  -7.582  0.00  0.00    -0.326 OA
BRANCH   9  11
ATOM     11  C   UNL     1       1.342   4.812  -9.703  0.00  0.00    +0.214 C 
ATOM     12  O   UNL     1       0.060   4.718 -10.215  0.00  0.00    -0.218 OA
ENDBRANCH   9  11
ENDBRANCH   1   2
BRANCH   1  14
ATOM     13  C   UNL     1       0.345   5.364  -3.055  0.00  0.00    +0.180 C 
ATOM     14  C   UNL     1       0.325   6.133  -4.577  0.00  0.00    +0.183 C 
ATOM     15  C   UNL     1      -1.357   5.820  -4.451  0.00  0.00    +0.238 C 
ATOM     16  O   UNL     1      -1.599   6.935  -5.448  0.00  0.00    -0.215 OA
ATOM     17  C   UNL     1      -1.478   6.680  -3.062  0.00  0.00    +0.281 C 
ATOM     18  O   UNL     1      -1.983   7.906  -3.367  0.00  0.00    -0.190 OA
ATOM     19  O   UNL     1      -0.141   6.718  -2.588  0.00  0.00    -0.325 OA
BRANCH  13  21
ATOM     20  O   UNL     1       2.005   5.282  -1.754  0.00  0.00    -0.218 OA
ATOM     21  C   UNL     1       1.940   5.673  -2.844  0.00  0.00    +0.214 C 
ENDBRANCH  13  21
BRANCH  17  22
ATOM     22  C   UNL     1      -2.113   5.908  -1.998  0.00  0.00    +0.243 C 
ATOM     23  O   UNL     1      -2.845   4.835  -2.049  0.00  0.00    -0.215 OA
ENDBRANCH  17  22
ENDBRANCH   1  14
TORSDOF 5
ENDMDL
MODEL 6
REMARK VINA RESULT:      -6.5      4.511      8.339
REMARK  Name = 
REMARK  5 active torsions:
REMARK  status: ('A' for Active; 'I' for Inactive)
REMARK    1  A    between atoms: C_2  and  C_3
REMARK    2  A    between atoms: C_5  and  C_7
REMARK    3  A    between atoms: C_11  and  O_12
REMARK    4  A    between atoms: O_12  and  C_13
REMARK    5  A    between atoms: C_15  and  C_16
REMARK                            x       y       z     vdW  Elec       q    Type
REMARK                         _______ _______ _______ _____ _____    ______ ____
ROOT
ATOM      1  O   UNL     1       0.612   6.731  -4.516  0.00  0.00    -0.326 OA
ENDROOT
BRANCH   1   2
ATOM      2  C   UNL     1       1.850   5.830  -4.492  0.00  0.00    +0.270 C 
ATOM      3  C   UNL     1       2.721   6.873  -5.542  0.00  0.00    +0.241 C 
ATOM      4  O   UNL     1       1.997   6.328  -6.729  0.00  0.00    -0.215 OA
ATOM      5  C   UNL     1       4.000   5.778  -5.755  0.00  0.00    +0.220 C 
ATOM      6  O   UNL     1       5.119   6.680  -5.335  0.00  0.00    -0.217 OA
ATOM      7  C   UNL     1       3.818   4.804  -4.378  0.00  0.00    +0.214 C 
ATOM      8  O   UNL     1       5.310   4.676  -4.135  0.00  0.00    -0.218 OA
ATOM      9  C   UNL     1       3.650   5.785  -2.996  0.00  0.00    +0.183 C 
ATOM     10  O   UNL     1       2.525   6.674  -3.428  0.00  0.00    -0.326 OA
BRANCH   9  11
ATOM     11  C   UNL     1       4.781   6.928  -3.251  0.00  0.00    +0.214 C 
ATOM     12  O   UNL     1       4.323   7.886  -2.363  0.00  0.00    -0.218 OA
ENDBRANCH   9  11
ENDBRANCH   1   2
BRANCH   1  14
ATOM     13  C   UNL     1      -1.759   6.429  -4.784  0.00  0.00    +0.180 C 
ATOM     14  C   UNL     1      -0.386   5.698  -4.087  0.00  0.00    +0.183 C 
ATOM     15  C   UNL     1      -0.926   6.548  -2.699  0.00  0.00    +0.238 C 
ATOM     16  O   UNL     1      -0.150   5.568  -1.845  0.00  0.00    -0.215 OA
ATOM     17  C   UNL     1      -2.377   5.788  -2.719  0.00  0.00    +0.281 C 
ATOM     18  O   UNL     1      -2.346   4.795  -1.790  0.00  0.00    -0.190 OA
ATOM     19  O   UNL     1      -2.475   5.316  -4.053  0.00  0.00    -0.325 OA
BRANCH  13  21
ATOM     20  O   UNL     1      -2.670   5.680  -6.534  0.00  0.00    -0.218 OA
ATOM     21  C   UNL     1      -1.564   5.614  -6.191  0.00  0.00    +0.214 C 
ENDBRANCH  13  21
BRANCH  17  22
ATOM     22  C   UNL     1      -3.486   6.736  -2.693  0.00  0.00    +0.243 C 
ATOM     23  O   UNL     1      -4.768   6.540  -2.606  0.00  0.00    -0.215 OA
ENDBRANCH  17  22
ENDBRANCH   1  14
TORSDOF 5
ENDMDL
MODEL 7
REMARK VINA RESULT:      -6.4      1.407      1.751
REMARK  Name = 
REMARK  5 active torsions:
REMARK  status: ('A' for Active; 'I' for Inactive)
REMARK    1  A    between atoms: C_2  and  C_3
REMARK    2  A    between atoms: C_5  and  C_7
REMARK    3  A    between atoms: C_11  and  O_12
REMARK    4  A    between atoms: O_12  and  C_13
REMARK    5  A    between atoms: C_15  and  C_16
REMARK                            x       y       z     vdW  Elec       q    Type
REMARK                         _______ _______ _______ _____ _____    ______ ____
ROOT
ATOM      1  O   UNL     1       2.674   5.099  -8.666  0.00  0.00    -0.326 OA
ENDROOT
BRANCH   1   2
ATOM      2  C   UNL     1       2.581   5.984  -7.419  0.00  0.00    +0.270 C 
ATOM      3  C   UNL     1       1.566   4.862  -6.607  0.00  0.00    +0.241 C 
ATOM      4  O   UNL     1       0.378   5.336  -7.380  0.00  0.00    -0.215 OA
ATOM      5  C   UNL     1       1.223   5.923  -5.328  0.00  0.00    +0.220 C 
ATOM      6  O   UNL     1       1.652   5.036  -4.201  0.00  0.00    -0.217 OA
ATOM      7  C   UNL     1       2.537   6.989  -5.438  0.00  0.00    +0.214 C 
ATOM      8  O   UNL     1       2.703   7.114  -3.935  0.00  0.00    -0.218 OA
ATOM      9  C   UNL     1       3.988   6.105  -5.553  0.00  0.00    +0.183 C 
ATOM     10  O   UNL     1       3.668   5.204  -6.704  0.00  0.00    -0.326 OA
BRANCH   9  11
ATOM     11  C   UNL     1       3.760   4.933  -4.445  0.00  0.00    +0.214 C 
ATOM     12  O   UNL     1       5.082   4.690  -4.114  0.00  0.00    -0.218 OA
ENDBRANCH   9  11
ENDBRANCH   1   2
BRANCH   1  14
ATOM     13  C   UNL     1       2.313   5.592 -10.992  0.00  0.00    +0.180 C 
ATOM     14  C   UNL     1       3.147   6.157  -9.616  0.00  0.00    +0.183 C 
ATOM     15  C   UNL     1       4.417   5.222 -10.292  0.00  0.00    +0.238 C 
ATOM     16  O   UNL     1       5.401   6.061  -9.504  0.00  0.00    -0.215 OA
ATOM     17  C   UNL     1       4.395   6.081 -11.686  0.00  0.00    +0.281 C 
ATOM     18  O   UNL     1       5.416   6.980 -11.644  0.00  0.00    -0.190 OA
ATOM     19  O   UNL     1       3.109   6.681 -11.675  0.00  0.00    -0.325 OA
BRANCH  13  21
ATOM     20  O   UNL     1       0.234   5.864 -11.233  0.00  0.00    -0.218 OA
ATOM     21  C   UNL     1       1.003   6.519 -10.662  0.00  0.00    +0.214 C 
ENDBRANCH  13  21
BRANCH  17  22
ATOM     22  C   UNL     1       4.273   5.217 -12.855  0.00  0.00    +0.243 C 
ATOM     23  O   UNL     1       5.175   4.569 -13.531  0.00  0.00    -0.215 OA
ENDBRANCH  17  22
ENDBRANCH   1  14
TORSDOF 5
ENDMDL
MODEL 8
REMARK VINA RESULT:      -6.4      1.893      3.702
REMARK  Name = 
REMARK  5 active torsions:
REMARK  status: ('A' for Active; 'I' for Inactive)
REMARK    1  A    between atoms: C_2  and  C_3
REMARK    2  A    between atoms: C_5  and  C_7
REMARK    3  A    between atoms: C_11  and  O_12
REMARK    4  A    between atoms: O_12  and  C_13
REMARK    5  A    between atoms: C_15  and  C_16
REMARK                            x       y       z     vdW  Elec       q    Type
REMARK                         _______ _______ _______ _____ _____    ______ ____
ROOT
ATOM      1  O   UNL     1       4.809   6.312 -10.553  0.00  0.00    -0.326 OA
ENDROOT
BRANCH   1   2
ATOM      2  C   UNL     1       3.958   5.552  -9.530  0.00  0.00    +0.270 C 
ATOM      3  C   UNL     1       4.882   6.144  -8.209  0.00  0.00    +0.241 C 
ATOM      4  O   UNL     1       5.960   5.145  -8.480  0.00  0.00    -0.215 OA
ATOM      5  C   UNL     1       4.141   5.115  -7.082  0.00  0.00    +0.220 C 
ATOM      6  O   UNL     1       3.683   6.162  -6.114  0.00  0.00    -0.217 OA
ATOM      7  C   UNL     1       2.696   4.747  -7.889  0.00  0.00    +0.214 C 
ATOM      8  O   UNL     1       1.851   4.794  -6.629  0.00  0.00    -0.218 OA
ATOM      9  C   UNL     1       1.973   6.179  -8.461  0.00  0.00    +0.183 C 
ATOM     10  O   UNL     1       3.116   6.774  -9.223  0.00  0.00    -0.326 OA
BRANCH   9  11
ATOM     11  C   UNL     1       2.165   7.185  -7.195  0.00  0.00    +0.214 C 
ATOM     12  O   UNL     1       2.104   8.392  -7.869  0.00  0.00    -0.218 OA
ENDBRANCH   9  11
ENDBRANCH   1   2
BRANCH   1  14
ATOM     13  C   UNL     1       5.896   5.998 -12.674  0.00  0.00    +0.180 C 
ATOM     14  C   UNL     1       4.693   5.323 -11.672  0.00  0.00    +0.183 C 
ATOM     15  C   UNL     1       3.667   6.290 -12.649  0.00  0.00    +0.238 C 
ATOM     16  O   UNL     1       2.515   5.383 -12.269  0.00  0.00    -0.215 OA
ATOM     17  C   UNL     1       4.154   5.537 -14.019  0.00  0.00    +0.281 C 
ATOM     18  O   UNL     1       3.203   4.626 -14.361  0.00  0.00    -0.190 OA
ATOM     19  O   UNL     1       5.392   4.953 -13.644  0.00  0.00    -0.325 OA
BRANCH  13  21
ATOM     20  O   UNL     1       7.551   4.732 -13.012  0.00  0.00    -0.218 OA
ATOM     21  C   UNL     1       7.068   5.064 -12.011  0.00  0.00    +0.214 C 
ENDBRANCH  13  21
BRANCH  17  22
ATOM     22  C   UNL     1       4.607   6.488 -15.030  0.00  0.00    +0.243 C 
ATOM     23  O   UNL     1       4.016   6.940 -16.095  0.00  0.00    -0.215 OA
ENDBRANCH  17  22
ENDBRANCH   1  14
TORSDOF 5
ENDMDL
MODEL 9
REMARK VINA RESULT:      -6.3      3.899      8.413
REMARK  Name = 
REMARK  5 active torsions:
REMARK  status: ('A' for Active; 'I' for Inactive)
REMARK    1  A    between atoms: C_2  and  C_3
REMARK    2  A    between atoms: C_5  and  C_7
REMARK    3  A    between atoms: C_11  and  O_12
REMARK    4  A    between atoms: O_12  and  C_13
REMARK    5  A    between atoms: C_15  and  C_16
REMARK                            x       y       z     vdW  Elec       q    Type
REMARK                         _______ _______ _______ _____ _____    ______ ____
ROOT
ATOM      1  O   UNL     1       1.623   6.539  -3.483  0.00  0.00    -0.326 OA
ENDROOT
BRANCH   1   2
ATOM      2  C   UNL     1       1.821   5.467  -4.560  0.00  0.00    +0.270 C 
ATOM      3  C   UNL     1       0.490   6.040  -5.481  0.00  0.00    +0.241 C 
ATOM      4  O   UNL     1      -0.472   5.352  -4.569  0.00  0.00    -0.215 OA
ATOM      5  C   UNL     1       0.510   4.718  -6.544  0.00  0.00    +0.220 C 
ATOM      6  O   UNL     1       0.619   5.483  -7.826  0.00  0.00    -0.217 OA
ATOM      7  C   UNL     1       2.102   4.170  -6.341  0.00  0.00    +0.214 C 
ATOM      8  O   UNL     1       2.294   3.843  -7.811  0.00  0.00    -0.218 OA
ATOM      9  C   UNL     1       3.182   5.481  -6.463  0.00  0.00    +0.183 C 
ATOM     10  O   UNL     1       2.588   6.418  -5.458  0.00  0.00    -0.326 OA
BRANCH   9  11
ATOM     11  C   UNL     1       2.578   6.303  -7.732  0.00  0.00    +0.214 C 
ATOM     12  O   UNL     1       2.920   7.585  -7.341  0.00  0.00    -0.218 OA
ENDBRANCH   9  11
ENDBRANCH   1   2
BRANCH   1  14
ATOM     13  C   UNL     1       1.331   6.491  -1.097  0.00  0.00    +0.180 C 
ATOM     14  C   UNL     1       2.253   5.790  -2.348  0.00  0.00    +0.183 C 
ATOM     15  C   UNL     1       3.354   7.031  -1.915  0.00  0.00    +0.238 C 
ATOM     16  O   UNL     1       4.464   6.210  -2.539  0.00  0.00    -0.215 OA
ATOM     17  C   UNL     1       3.461   6.488  -0.374  0.00  0.00    +0.281 C 
ATOM     18  O   UNL     1       4.610   5.771  -0.257  0.00  0.00    -0.190 OA
ATOM     19  O   UNL     1       2.286   5.706  -0.225  0.00  0.00    -0.325 OA
BRANCH  13  21
ATOM     20  O   UNL     1      -0.628   5.890  -0.592  0.00  0.00    -0.218 OA
ATOM     21  C   UNL     1       0.186   5.323  -1.193  0.00  0.00    +0.214 C 
ENDBRANCH  13  21
BRANCH  17  22
ATOM     22  C   UNL     1       3.196   7.547   0.595  0.00  0.00    +0.243 C 
ATOM     23  O   UNL     1       3.259   7.546   1.893  0.00  0.00    -0.215 OA
ENDBRANCH  17  22
ENDBRANCH   1  14
TORSDOF 5
ENDMDL
