MODEL 1
REMARK VINA RESULT:      -6.0      0.000      0.000
REMARK  Name = 
REMARK  15 active torsions:
REMARK  status: ('A' for Active; 'I' for Inactive)
REMARK    1  A    between atoms: C_2  and  C_3
REMARK    2  A    between atoms: C_4  and  C_5
REMARK    3  A    between atoms: C_5  and  C_6
REMARK    4  A    between atoms: C_7  and  C_8
REMARK    5  A    between atoms: C_8  and  C_9
REMARK    6  A    between atoms: C_10  and  C_11
REMARK    7  A    between atoms: C_11  and  C_12
REMARK    8  A    between atoms: C_13  and  C_14
REMARK    9  A    between atoms: C_14  and  C_15
REMARK   10  A    between atoms: C_16  and  C_17
REMARK   11  A    between atoms: C_17  and  C_18
REMARK   12  A    between atoms: C_18  and  C_19
REMARK   13  A    between atoms: C_19  and  C_20
REMARK   14  A    between atoms: C_20  and  O_22
REMARK   15  A    between atoms: O_22  and  C_23
REMARK                            x       y       z     vdW  Elec       q    Type
REMARK                         _______ _______ _______ _____ _____    ______ ____
ROOT
ATOM      1  C   UNL     1       1.885   6.042  -2.320  0.00  0.00    -0.026 C 
ATOM      2  C   UNL     1       3.217   5.967  -2.213  0.00  0.00    -0.026 C 
ENDROOT
BRANCH   1   3
ATOM      3  C   UNL     1       1.248   6.329  -3.647  0.00  0.00    +0.051 C 
BRANCH   3   5
ATOM      4  C   UNL     1       0.766   4.953  -5.544  0.00  0.00    -0.026 C 
ATOM      5  C   UNL     1       0.763   5.039  -4.207  0.00  0.00    -0.026 C 
BRANCH   4   6
ATOM      6  C   UNL     1      -0.014   6.039  -6.225  0.00  0.00    +0.051 C 
BRANCH   6   8
ATOM      7  C   UNL     1      -2.481   5.840  -6.340  0.00  0.00    -0.026 C 
ATOM      8  C   UNL     1      -1.284   5.379  -6.672  0.00  0.00    -0.026 C 
BRANCH   7   9
ATOM      9  C   UNL     1      -2.581   6.491  -4.996  0.00  0.00    +0.051 C 
BRANCH   9  11
ATOM     10  C   UNL     1      -2.681   5.835  -2.658  0.00  0.00    -0.030 C 
ATOM     11  C   UNL     1      -2.906   5.490  -3.932  0.00  0.00    -0.026 C 
BRANCH  10  13
ATOM     12  C   UNL     1      -1.898   7.391  -0.893  0.00  0.00    +0.005 C 
ATOM     13  C   UNL     1      -2.111   7.190  -2.369  0.00  0.00    +0.026 C 
ENDBRANCH  10  13
ENDBRANCH   9  11
ENDBRANCH   7   9
ENDBRANCH   6   8
ENDBRANCH   4   6
ENDBRANCH   3   5
ENDBRANCH   1   3
BRANCH   2  14
ATOM     14  C   UNL     1       4.084   6.598  -3.240  0.00  0.00    +0.051 C 
BRANCH  14  15
ATOM     15  C   UNL     1       4.706   5.585  -4.150  0.00  0.00    -0.026 C 
ATOM     16  C   UNL     1       4.428   5.505  -5.441  0.00  0.00    -0.030 C 
BRANCH  16  17
ATOM     17  C   UNL     1       3.993   6.755  -6.113  0.00  0.00    +0.026 C 
BRANCH  17  18
ATOM     18  C   UNL     1       3.484   6.457  -7.517  0.00  0.00    +0.016 C 
BRANCH  18  19
ATOM     19  C   UNL     1       3.787   4.987  -7.771  0.00  0.00    +0.110 C 
BRANCH  19  20
ATOM     20  C   UNL     1       3.179   4.605  -9.084  0.00  0.00    +0.317 C 
ATOM     21  O   UNL     1       3.590   5.271 -10.081  0.00  0.00    -0.250 OA
BRANCH  20  22
ATOM     22  O   UNL     1       1.838   4.245  -9.099  0.00  0.00    -0.448 OA
BRANCH  22  23
ATOM     23  C   UNL     1       0.948   5.141  -9.739  0.00  0.00    +0.209 C 
ATOM     24  C   UNL     1       0.164   4.423 -10.818  0.00  0.00    +0.051 C 
ENDBRANCH  22  23
ENDBRANCH  20  22
ENDBRANCH  19  20
ENDBRANCH  18  19
ENDBRANCH  17  18
ENDBRANCH  16  17
ENDBRANCH  14  15
ENDBRANCH   2  14
TORSDOF 15
ENDMDL
MODEL 2
REMARK VINA RESULT:      -6.0      1.394      2.128
REMARK  Name = 
REMARK  15 active torsions:
REMARK  status: ('A' for Active; 'I' for Inactive)
REMARK    1  A    between atoms: C_2  and  C_3
REMARK    2  A    between atoms: C_4  and  C_5
REMARK    3  A    between atoms: C_5  and  C_6
REMARK    4  A    between atoms: C_7  and  C_8
REMARK    5  A    between atoms: C_8  and  C_9
REMARK    6  A    between atoms: C_10  and  C_11
REMARK    7  A    between atoms: C_11  and  C_12
REMARK    8  A    between atoms: C_13  and  C_14
REMARK    9  A    between atoms: C_14  and  C_15
REMARK   10  A    between atoms: C_16  and  C_17
REMARK   11  A    between atoms: C_17  and  C_18
REMARK   12  A    between atoms: C_18  and  C_19
REMARK   13  A    between atoms: C_19  and  C_20
REMARK   14  A    between atoms: C_20  and  O_22
REMARK   15  A    between atoms: O_22  and  C_23
REMARK                            x       y       z     vdW  Elec       q    Type
REMARK                         _______ _______ _______ _____ _____    ______ ____
ROOT
ATOM      1  C   UNL     1       1.665   6.166  -2.353  0.00  0.00    -0.026 C 
ATOM      2  C   UNL     1       2.970   6.006  -2.108  0.00  0.00    -0.026 C 
ENDROOT
BRANCH   1   3
ATOM      3  C   UNL     1       1.179   6.373  -3.757  0.00  0.00    +0.051 C 
BRANCH   3   5
ATOM      4  C   UNL     1       0.783   4.920  -5.616  0.00  0.00    -0.026 C 
ATOM      5  C   UNL     1       0.735   5.055  -4.284  0.00  0.00    -0.026 C 
BRANCH   4   6
ATOM      6  C   UNL     1       0.006   5.965  -6.361  0.00  0.00    +0.051 C 
BRANCH   6   8
ATOM      7  C   UNL     1      -2.461   5.723  -6.375  0.00  0.00    -0.026 C 
ATOM      8  C   UNL     1      -1.271   5.286  -6.758  0.00  0.00    -0.026 C 
BRANCH   7   9
ATOM      9  C   UNL     1      -2.515   6.363  -5.023  0.00  0.00    +0.051 C 
BRANCH   9  11
ATOM     10  C   UNL     1      -2.918   5.783  -2.697  0.00  0.00    -0.030 C 
ATOM     11  C   UNL     1      -2.934   5.380  -3.974  0.00  0.00    -0.026 C 
BRANCH  10  13
ATOM     12  C   UNL     1      -1.661   7.230  -1.124  0.00  0.00    +0.005 C 
ATOM     13  C   UNL     1      -2.476   7.180  -2.388  0.00  0.00    +0.026 C 
ENDBRANCH  10  13
ENDBRANCH   9  11
ENDBRANCH   7   9
ENDBRANCH   6   8
ENDBRANCH   4   6
ENDBRANCH   3   5
ENDBRANCH   1   3
BRANCH   2  14
ATOM     14  C   UNL     1       3.977   6.474  -3.094  0.00  0.00    +0.051 C 
BRANCH  14  15
ATOM     15  C   UNL     1       4.750   5.339  -3.689  0.00  0.00    -0.026 C 
ATOM     16  C   UNL     1       4.636   4.970  -4.955  0.00  0.00    -0.030 C 
BRANCH  16  17
ATOM     17  C   UNL     1       4.229   6.018  -5.924  0.00  0.00    +0.026 C 
BRANCH  17  18
ATOM     18  C   UNL     1       4.047   5.419  -7.313  0.00  0.00    +0.016 C 
BRANCH  18  19
ATOM     19  C   UNL     1       3.356   6.488  -8.146  0.00  0.00    +0.110 C 
BRANCH  19  20
ATOM     20  C   UNL     1       3.907   6.425  -9.536  0.00  0.00    +0.317 C 
ATOM     21  O   UNL     1       3.042   6.482 -10.461  0.00  0.00    -0.250 OA
BRANCH  20  22
ATOM     22  O   UNL     1       4.996   5.595  -9.767  0.00  0.00    -0.448 OA
BRANCH  22  23
ATOM     23  C   UNL     1       6.169   6.212 -10.265  0.00  0.00    +0.209 C 
ATOM     24  C   UNL     1       7.380   5.749  -9.481  0.00  0.00    +0.051 C 
ENDBRANCH  22  23
ENDBRANCH  20  22
ENDBRANCH  19  20
ENDBRANCH  18  19
ENDBRANCH  17  18
ENDBRANCH  16  17
ENDBRANCH  14  15
ENDBRANCH   2  14
TORSDOF 15
ENDMDL
MODEL 3
REMARK VINA RESULT:      -6.0      1.422      2.274
REMARK  Name = 
REMARK  15 active torsions:
REMARK  status: ('A' for Active; 'I' for Inactive)
REMARK    1  A    between atoms: C_2  and  C_3
REMARK    2  A    between atoms: C_4  and  C_5
REMARK    3  A    between atoms: C_5  and  C_6
REMARK    4  A    between atoms: C_7  and  C_8
REMARK    5  A    between atoms: C_8  and  C_9
REMARK    6  A    between atoms: C_10  and  C_11
REMARK    7  A    between atoms: C_11  and  C_12
REMARK    8  A    between atoms: C_13  and  C_14
REMARK    9  A    between atoms: C_14  and  C_15
REMARK   10  A    between atoms: C_16  and  C_17
REMARK   11  A    between atoms: C_17  and  C_18
REMARK   12  A    between atoms: C_18  and  C_19
REMARK   13  A    between atoms: C_19  and  C_20
REMARK   14  A    between atoms: C_20  and  O_22
REMARK   15  A    between atoms: O_22  and  C_23
REMARK                            x       y       z     vdW  Elec       q    Type
REMARK                         _______ _______ _______ _____ _____    ______ ____
ROOT
ATOM      1  C   UNL     1       2.930   6.180  -3.350  0.00  0.00    -0.026 C 
ATOM      2  C   UNL     1       4.047   6.127  -4.086  0.00  0.00    -0.026 C 
ENDROOT
BRANCH   1   3
ATOM      3  C   UNL     1       1.613   6.488  -3.997  0.00  0.00    +0.051 C 
BRANCH   3   5
ATOM      4  C   UNL     1       0.688   4.908  -5.538  0.00  0.00    -0.026 C 
ATOM      5  C   UNL     1       0.917   5.198  -4.250  0.00  0.00    -0.026 C 
BRANCH   4   6
ATOM      6  C   UNL     1      -0.085   5.965  -6.270  0.00  0.00    +0.051 C 
BRANCH   6   8
ATOM      7  C   UNL     1      -2.553   5.741  -6.263  0.00  0.00    -0.026 C 
ATOM      8  C   UNL     1      -1.370   5.300  -6.664  0.00  0.00    -0.026 C 
BRANCH   7   9
ATOM      9  C   UNL     1      -2.590   6.366  -4.903  0.00  0.00    +0.051 C 
BRANCH   9  11
ATOM     10  C   UNL     1      -2.504   5.615  -2.593  0.00  0.00    -0.030 C 
ATOM     11  C   UNL     1      -2.889   5.348  -3.847  0.00  0.00    -0.026 C 
BRANCH  10  13
ATOM     12  C   UNL     1      -1.982   7.341  -0.891  0.00  0.00    +0.005 C 
ATOM     13  C   UNL     1      -1.791   6.904  -2.318  0.00  0.00    +0.026 C 
ENDBRANCH  10  13
ENDBRANCH   9  11
ENDBRANCH   7   9
ENDBRANCH   6   8
ENDBRANCH   4   6
ENDBRANCH   3   5
ENDBRANCH   1   3
BRANCH   2  14
ATOM     14  C   UNL     1       4.101   6.800  -5.408  0.00  0.00    +0.051 C 
BRANCH  14  15
ATOM     15  C   UNL     1       4.261   5.823  -6.530  0.00  0.00    -0.026 C 
ATOM     16  C   UNL     1       3.499   5.830  -7.611  0.00  0.00    -0.030 C 
BRANCH  16  17
ATOM     17  C   UNL     1       2.906   7.132  -8.005  0.00  0.00    +0.026 C 
BRANCH  17  18
ATOM     18  C   UNL     1       1.824   6.928  -9.058  0.00  0.00    +0.016 C 
BRANCH  18  19
ATOM     19  C   UNL     1       2.232   5.693  -9.847  0.00  0.00    +0.110 C 
BRANCH  19  20
ATOM     20  C   UNL     1       2.505   6.108 -11.258  0.00  0.00    +0.317 C 
ATOM     21  O   UNL     1       1.782   5.546 -12.135  0.00  0.00    -0.250 OA
BRANCH  20  22
ATOM     22  O   UNL     1       3.823   6.356 -11.619  0.00  0.00    -0.448 OA
BRANCH  22  23
ATOM     23  C   UNL     1       4.805   5.501 -11.062  0.00  0.00    +0.209 C 
ATOM     24  C   UNL     1       5.899   6.315 -10.403  0.00  0.00    +0.051 C 
ENDBRANCH  22  23
ENDBRANCH  20  22
ENDBRANCH  19  20
ENDBRANCH  18  19
ENDBRANCH  17  18
ENDBRANCH  16  17
ENDBRANCH  14  15
ENDBRANCH   2  14
TORSDOF 15
ENDMDL
MODEL 4
REMARK VINA RESULT:      -5.9      2.144      3.764
REMARK  Name = 
REMARK  15 active torsions:
REMARK  status: ('A' for Active; 'I' for Inactive)
REMARK    1  A    between atoms: C_2  and  C_3
REMARK    2  A    between atoms: C_4  and  C_5
REMARK    3  A    between atoms: C_5  and  C_6
REMARK    4  A    between atoms: C_7  and  C_8
REMARK    5  A    between atoms: C_8  and  C_9
REMARK    6  A    between atoms: C_10  and  C_11
REMARK    7  A    between atoms: C_11  and  C_12
REMARK    8  A    between atoms: C_13  and  C_14
REMARK    9  A    between atoms: C_14  and  C_15
REMARK   10  A    between atoms: C_16  and  C_17
REMARK   11  A    between atoms: C_17  and  C_18
REMARK   12  A    between atoms: C_18  and  C_19
REMARK   13  A    between atoms: C_19  and  C_20
REMARK   14  A    between atoms: C_20  and  O_22
REMARK   15  A    between atoms: O_22  and  C_23
REMARK                            x       y       z     vdW  Elec       q    Type
REMARK                         _______ _______ _______ _____ _____    ______ ____
ROOT
ATOM      1  C   UNL     1       4.356   5.870  -6.257  0.00  0.00    -0.026 C 
ATOM      2  C   UNL     1       4.738   5.470  -7.475  0.00  0.00    -0.026 C 
ENDROOT
BRANCH   1   3
ATOM      3  C   UNL     1       2.952   6.340  -6.021  0.00  0.00    +0.051 C 
BRANCH   3   5
ATOM      4  C   UNL     1       1.074   4.856  -6.011  0.00  0.00    -0.026 C 
ATOM      5  C   UNL     1       2.200   5.225  -5.384  0.00  0.00    -0.026 C 
BRANCH   4   6
ATOM      6  C   UNL     1       0.096   5.976  -6.213  0.00  0.00    +0.051 C 
BRANCH   6   8
ATOM      7  C   UNL     1      -2.369   5.747  -6.329  0.00  0.00    -0.026 C 
ATOM      8  C   UNL     1      -1.167   5.307  -6.669  0.00  0.00    -0.026 C 
BRANCH   7   9
ATOM      9  C   UNL     1      -2.475   6.376  -4.975  0.00  0.00    +0.051 C 
BRANCH   9  11
ATOM     10  C   UNL     1      -2.271   5.268  -2.821  0.00  0.00    -0.030 C 
ATOM     11  C   UNL     1      -2.967   5.393  -3.959  0.00  0.00    -0.026 C 
BRANCH  10  13
ATOM     12  C   UNL     1       0.166   5.248  -2.363  0.00  0.00    +0.005 C 
ATOM     13  C   UNL     1      -1.042   6.103  -2.633  0.00  0.00    +0.026 C 
ENDBRANCH  10  13
ENDBRANCH   9  11
ENDBRANCH   7   9
ENDBRANCH   6   8
ENDBRANCH   4   6
ENDBRANCH   3   5
ENDBRANCH   1   3
BRANCH   2  14
ATOM     14  C   UNL     1       3.975   5.899  -8.674  0.00  0.00    +0.051 C 
BRANCH  14  15
ATOM     15  C   UNL     1       3.263   4.755  -9.326  0.00  0.00    -0.026 C 
ATOM     16  C   UNL     1       1.953   4.728  -9.509  0.00  0.00    -0.030 C 
BRANCH  16  17
ATOM     17  C   UNL     1       1.265   6.037  -9.635  0.00  0.00    +0.026 C 
BRANCH  17  18
ATOM     18  C   UNL     1       0.029   5.908 -10.516  0.00  0.00    +0.016 C 
BRANCH  18  19
ATOM     19  C   UNL     1      -0.078   7.216 -11.285  0.00  0.00    +0.110 C 
BRANCH  19  20
ATOM     20  C   UNL     1       0.672   7.064 -12.571  0.00  0.00    +0.317 C 
ATOM     21  O   UNL     1       0.489   7.994 -13.414  0.00  0.00    -0.250 OA
BRANCH  20  22
ATOM     22  O   UNL     1       0.816   5.785 -13.093  0.00  0.00    -0.448 OA
BRANCH  22  23
ATOM     23  C   UNL     1       2.011   5.522 -13.806  0.00  0.00    +0.209 C 
ATOM     24  C   UNL     1       3.213   5.700 -12.902  0.00  0.00    +0.051 C 
ENDBRANCH  22  23
ENDBRANCH  20  22
ENDBRANCH  19  20
ENDBRANCH  18  19
ENDBRANCH  17  18
ENDBRANCH  16  17
ENDBRANCH  14  15
ENDBRANCH   2  14
TORSDOF 15
ENDMDL
MODEL 5
REMARK VINA RESULT:      -5.9      3.800      9.002
REMARK  Name = 
REMARK  15 active torsions:
REMARK  status: ('A' for Active; 'I' for Inactive)
REMARK    1  A    between atoms: C_2  and  C_3
REMARK    2  A    between atoms: C_4  and  C_5
REMARK    3  A    between atoms: C_5  and  C_6
REMARK    4  A    between atoms: C_7  and  C_8
REMARK    5  A    between atoms: C_8  and  C_9
REMARK    6  A    between atoms: C_10  and  C_11
REMARK    7  A    between atoms: C_11  and  C_12
REMARK    8  A    between atoms: C_13  and  C_14
REMARK    9  A    between atoms: C_14  and  C_15
REMARK   10  A    between atoms: C_16  and  C_17
REMARK   11  A    between atoms: C_17  and  C_18
REMARK   12  A    between atoms: C_18  and  C_19
REMARK   13  A    between atoms: C_19  and  C_20
REMARK   14  A    between atoms: C_20  and  O_22
REMARK   15  A    between atoms: O_22  and  C_23
REMARK                            x       y       z     vdW  Elec       q    Type
REMARK                         _______ _______ _______ _____ _____    ______ ____
ROOT
ATOM      1  C   UNL     1       2.207   4.557  -7.762  0.00  0.00    -0.026 C 
ATOM      2  C   UNL     1       1.437   4.601  -6.669  0.00  0.00    -0.026 C 
ENDROOT
BRANCH   1   3
ATOM      3  C   UNL     1       2.494   5.810  -8.535  0.00  0.00    +0.051 C 
BRANCH   3   5
ATOM      4  C   UNL     1       4.095   5.118 -10.173  0.00  0.00    -0.026 C 
ATOM      5  C   UNL     1       2.811   5.419  -9.935  0.00  0.00    -0.026 C 
BRANCH   4   6
ATOM      6  C   UNL     1       5.054   6.212  -9.804  0.00  0.00    +0.051 C 
BRANCH   6   8
ATOM      7  C   UNL     1       7.482   5.935  -9.390  0.00  0.00    -0.026 C 
ATOM      8  C   UNL     1       6.241   5.504  -9.221  0.00  0.00    -0.026 C 
BRANCH   7   9
ATOM      9  C   UNL     1       7.765   6.612 -10.695  0.00  0.00    +0.051 C 
BRANCH   9  11
ATOM     10  C   UNL     1       7.688   5.644 -12.923  0.00  0.00    -0.030 C 
ATOM     11  C   UNL     1       8.264   5.636 -11.714  0.00  0.00    -0.026 C 
BRANCH  10  13
ATOM     12  C   UNL     1       5.523   6.013 -14.075  0.00  0.00    +0.005 C 
ATOM     13  C   UNL     1       6.577   6.614 -13.185  0.00  0.00    +0.026 C 
ENDBRANCH  10  13
ENDBRANCH   9  11
ENDBRANCH   7   9
ENDBRANCH   6   8
ENDBRANCH   4   6
ENDBRANCH   3   5
ENDBRANCH   1   3
BRANCH   2  14
ATOM     14  C   UNL     1       0.501   5.735  -6.461  0.00  0.00    +0.051 C 
BRANCH  14  15
ATOM     15  C   UNL     1      -0.889   5.405  -6.904  0.00  0.00    -0.026 C 
ATOM     16  C   UNL     1      -1.965   5.699  -6.191  0.00  0.00    -0.030 C 
BRANCH  16  17
ATOM     17  C   UNL     1      -1.867   6.864  -5.277  0.00  0.00    +0.026 C 
BRANCH  17  18
ATOM     18  C   UNL     1      -2.873   6.737  -4.141  0.00  0.00    +0.016 C 
BRANCH  18  19
ATOM     19  C   UNL     1      -2.093   6.983  -2.858  0.00  0.00    +0.110 C 
BRANCH  19  20
ATOM     20  C   UNL     1      -1.586   5.666  -2.360  0.00  0.00    +0.317 C 
ATOM     21  O   UNL     1      -2.434   4.723  -2.373  0.00  0.00    -0.250 OA
BRANCH  20  22
ATOM     22  O   UNL     1      -0.695   5.672  -1.295  0.00  0.00    -0.448 OA
BRANCH  22  23
ATOM     23  C   UNL     1       0.551   5.035  -1.507  0.00  0.00    +0.209 C 
ATOM     24  C   UNL     1       1.098   5.391  -2.874  0.00  0.00    +0.051 C 
ENDBRANCH  22  23
ENDBRANCH  20  22
ENDBRANCH  19  20
ENDBRANCH  18  19
ENDBRANCH  17  18
ENDBRANCH  16  17
ENDBRANCH  14  15
ENDBRANCH   2  14
TORSDOF 15
ENDMDL
MODEL 6
REMARK VINA RESULT:      -5.9      1.715      4.877
REMARK  Name = 
REMARK  15 active torsions:
REMARK  status: ('A' for Active; 'I' for Inactive)
REMARK    1  A    between atoms: C_2  and  C_3
REMARK    2  A    between atoms: C_4  and  C_5
REMARK    3  A    between atoms: C_5  and  C_6
REMARK    4  A    between atoms: C_7  and  C_8
REMARK    5  A    between atoms: C_8  and  C_9
REMARK    6  A    between atoms: C_10  and  C_11
REMARK    7  A    between atoms: C_11  and  C_12
REMARK    8  A    between atoms: C_13  and  C_14
REMARK    9  A    between atoms: C_14  and  C_15
REMARK   10  A    between atoms: C_16  and  C_17
REMARK   11  A    between atoms: C_17  and  C_18
REMARK   12  A    between atoms: C_18  and  C_19
REMARK   13  A    between atoms: C_19  and  C_20
REMARK   14  A    between atoms: C_20  and  O_22
REMARK   15  A    between atoms: O_22  and  C_23
REMARK                            x       y       z     vdW  Elec       q    Type
REMARK                         _______ _______ _______ _____ _____    ______ ____
ROOT
ATOM      1  C   UNL     1      -2.246   5.532  -6.380  0.00  0.00    -0.026 C 
ATOM      2  C   UNL     1      -1.099   5.237  -7.003  0.00  0.00    -0.026 C 
ENDROOT
BRANCH   1   3
ATOM      3  C   UNL     1      -2.289   6.623  -5.351  0.00  0.00    +0.051 C 
BRANCH   3   5
ATOM      4  C   UNL     1      -2.144   6.593  -2.963  0.00  0.00    -0.026 C 
ATOM      5  C   UNL     1      -2.665   6.007  -4.050  0.00  0.00    -0.026 C 
BRANCH   4   6
ATOM      6  C   UNL     1      -0.646   6.683  -2.980  0.00  0.00    +0.051 C 
BRANCH   6   8
ATOM      7  C   UNL     1       1.046   5.200  -1.940  0.00  0.00    -0.026 C 
ATOM      8  C   UNL     1      -0.175   5.372  -2.425  0.00  0.00    -0.026 C 
BRANCH   7   9
ATOM      9  C   UNL     1       2.127   5.999  -2.599  0.00  0.00    +0.051 C 
BRANCH   9  11
ATOM     10  C   UNL     1       4.172   5.598  -3.851  0.00  0.00    -0.030 C 
ATOM     11  C   UNL     1       3.304   5.139  -2.941  0.00  0.00    -0.026 C 
BRANCH  10  13
ATOM     12  C   UNL     1       5.026   7.902  -4.184  0.00  0.00    +0.005 C 
ATOM     13  C   UNL     1       3.915   6.932  -4.482  0.00  0.00    +0.026 C 
ENDBRANCH  10  13
ENDBRANCH   9  11
ENDBRANCH   7   9
ENDBRANCH   6   8
ENDBRANCH   4   6
ENDBRANCH   3   5
ENDBRANCH   1   3
BRANCH   2  14
ATOM     14  C   UNL     1       0.199   5.626  -6.398  0.00  0.00    +0.051 C 
BRANCH  14  15
ATOM     15  C   UNL     1       0.903   4.458  -5.780  0.00  0.00    -0.026 C 
ATOM     16  C   UNL     1       1.954   3.873  -6.331  0.00  0.00    -0.030 C 
BRANCH  16  17
ATOM     17  C   UNL     1       2.803   4.711  -7.215  0.00  0.00    +0.026 C 
BRANCH  17  18
ATOM     18  C   UNL     1       2.822   4.146  -8.629  0.00  0.00    +0.016 C 
BRANCH  18  19
ATOM     19  C   UNL     1       4.127   4.615  -9.253  0.00  0.00    +0.110 C 
BRANCH  19  20
ATOM     20  C   UNL     1       3.804   5.624 -10.309  0.00  0.00    +0.317 C 
ATOM     21  O   UNL     1       2.663   5.495 -10.846  0.00  0.00    -0.250 OA
BRANCH  20  22
ATOM     22  O   UNL     1       4.831   6.039 -11.147  0.00  0.00    -0.448 OA
BRANCH  22  23
ATOM     23  C   UNL     1       5.349   7.338 -10.921  0.00  0.00    +0.209 C 
ATOM     24  C   UNL     1       6.863   7.307 -10.922  0.00  0.00    +0.051 C 
ENDBRANCH  22  23
ENDBRANCH  20  22
ENDBRANCH  19  20
ENDBRANCH  18  19
ENDBRANCH  17  18
ENDBRANCH  16  17
ENDBRANCH  14  15
ENDBRANCH   2  14
TORSDOF 15
ENDMDL
MODEL 7
REMARK VINA RESULT:      -5.8      1.217      4.448
REMARK  Name = 
REMARK  15 active torsions:
REMARK  status: ('A' for Active; 'I' for Inactive)
REMARK    1  A    between atoms: C_2  and  C_3
REMARK    2  A    between atoms: C_4  and  C_5
REMARK    3  A    between atoms: C_5  and  C_6
REMARK    4  A    between atoms: C_7  and  C_8
REMARK    5  A    between atoms: C_8  and  C_9
REMARK    6  A    between atoms: C_10  and  C_11
REMARK    7  A    between atoms: C_11  and  C_12
REMARK    8  A    between atoms: C_13  and  C_14
REMARK    9  A    between atoms: C_14  and  C_15
REMARK   10  A    between atoms: C_16  and  C_17
REMARK   11  A    between atoms: C_17  and  C_18
REMARK   12  A    between atoms: C_18  and  C_19
REMARK   13  A    between atoms: C_19  and  C_20
REMARK   14  A    between atoms: C_20  and  O_22
REMARK   15  A    between atoms: O_22  and  C_23
REMARK                            x       y       z     vdW  Elec       q    Type
REMARK                         _______ _______ _______ _____ _____    ______ ____
ROOT
ATOM      1  C   UNL     1      -2.372   5.617  -6.348  0.00  0.00    -0.026 C 
ATOM      2  C   UNL     1      -1.216   5.348  -6.966  0.00  0.00    -0.026 C 
ENDROOT
BRANCH   1   3
ATOM      3  C   UNL     1      -2.436   6.680  -5.291  0.00  0.00    +0.051 C 
BRANCH   3   5
ATOM      4  C   UNL     1      -2.387   6.598  -2.900  0.00  0.00    -0.026 C 
ATOM      5  C   UNL     1      -2.859   6.033  -4.020  0.00  0.00    -0.026 C 
BRANCH   4   6
ATOM      6  C   UNL     1      -0.891   6.700  -2.855  0.00  0.00    +0.051 C 
BRANCH   6   8
ATOM      7  C   UNL     1       0.794   5.115  -1.965  0.00  0.00    -0.026 C 
ATOM      8  C   UNL     1      -0.425   5.339  -2.431  0.00  0.00    -0.026 C 
BRANCH   7   9
ATOM      9  C   UNL     1       1.879   5.971  -2.540  0.00  0.00    +0.051 C 
BRANCH   9  11
ATOM     10  C   UNL     1       4.296   5.980  -2.802  0.00  0.00    -0.030 C 
ATOM     11  C   UNL     1       3.202   5.271  -2.497  0.00  0.00    -0.026 C 
BRANCH  10  13
ATOM     12  C   UNL     1       5.142   7.828  -4.221  0.00  0.00    +0.005 C 
ATOM     13  C   UNL     1       4.139   7.422  -3.177  0.00  0.00    +0.026 C 
ENDBRANCH  10  13
ENDBRANCH   9  11
ENDBRANCH   7   9
ENDBRANCH   6   8
ENDBRANCH   4   6
ENDBRANCH   3   5
ENDBRANCH   1   3
BRANCH   2  14
ATOM     14  C   UNL     1       0.072   5.732  -6.336  0.00  0.00    +0.051 C 
BRANCH  14  15
ATOM     15  C   UNL     1       0.842   4.541  -5.859  0.00  0.00    -0.026 C 
ATOM     16  C   UNL     1       2.137   4.380  -6.077  0.00  0.00    -0.030 C 
BRANCH  16  17
ATOM     17  C   UNL     1       2.947   5.613  -6.246  0.00  0.00    +0.026 C 
BRANCH  17  18
ATOM     18  C   UNL     1       4.019   5.405  -7.307  0.00  0.00    +0.016 C 
BRANCH  18  19
ATOM     19  C   UNL     1       3.291   4.919  -8.552  0.00  0.00    +0.110 C 
BRANCH  19  20
ATOM     20  C   UNL     1       2.924   6.114  -9.374  0.00  0.00    +0.317 C 
ATOM     21  O   UNL     1       3.799   7.031  -9.412  0.00  0.00    -0.250 OA
BRANCH  20  22
ATOM     22  O   UNL     1       1.600   6.532  -9.358  0.00  0.00    -0.448 OA
BRANCH  22  23
ATOM     23  C   UNL     1       0.845   6.293 -10.531  0.00  0.00    +0.209 C 
ATOM     24  C   UNL     1       0.120   4.966 -10.429  0.00  0.00    +0.051 C 
ENDBRANCH  22  23
ENDBRANCH  20  22
ENDBRANCH  19  20
ENDBRANCH  18  19
ENDBRANCH  17  18
ENDBRANCH  16  17
ENDBRANCH  14  15
ENDBRANCH   2  14
TORSDOF 15
ENDMDL
MODEL 8
REMARK VINA RESULT:      -5.8      3.075      7.162
REMARK  Name = 
REMARK  15 active torsions:
REMARK  status: ('A' for Active; 'I' for Inactive)
REMARK    1  A    between atoms: C_2  and  C_3
REMARK    2  A    between atoms: C_4  and  C_5
REMARK    3  A    between atoms: C_5  and  C_6
REMARK    4  A    between atoms: C_7  and  C_8
REMARK    5  A    between atoms: C_8  and  C_9
REMARK    6  A    between atoms: C_10  and  C_11
REMARK    7  A    between atoms: C_11  and  C_12
REMARK    8  A    between atoms: C_13  and  C_14
REMARK    9  A    between atoms: C_14  and  C_15
REMARK   10  A    between atoms: C_16  and  C_17
REMARK   11  A    between atoms: C_17  and  C_18
REMARK   12  A    between atoms: C_18  and  C_19
REMARK   13  A    between atoms: C_19  and  C_20
REMARK   14  A    between atoms: C_20  and  O_22
REMARK   15  A    between atoms: O_22  and  C_23
REMARK                            x       y       z     vdW  Elec       q    Type
REMARK                         _______ _______ _______ _____ _____    ______ ____
ROOT
ATOM      1  C   UNL     1       1.340   6.366  -7.785  0.00  0.00    -0.026 C 
ATOM      2  C   UNL     1       0.305   5.518  -7.811  0.00  0.00    -0.026 C 
ENDROOT
BRANCH   1   3
ATOM      3  C   UNL     1       2.101   6.590  -6.512  0.00  0.00    +0.051 C 
BRANCH   3   5
ATOM      4  C   UNL     1       4.270   6.101  -5.628  0.00  0.00    -0.026 C 
ATOM      5  C   UNL     1       3.485   6.083  -6.714  0.00  0.00    -0.026 C 
BRANCH   4   6
ATOM      6  C   UNL     1       4.396   7.454  -4.992  0.00  0.00    +0.051 C 
BRANCH   6   8
ATOM      7  C   UNL     1       4.995   7.133  -2.608  0.00  0.00    -0.026 C 
ATOM      8  C   UNL     1       5.374   7.263  -3.871  0.00  0.00    -0.026 C 
BRANCH   7   9
ATOM      9  C   UNL     1       3.768   7.894  -2.214  0.00  0.00    +0.051 C 
BRANCH   9  11
ATOM     10  C   UNL     1       1.915   6.541  -1.412  0.00  0.00    -0.030 C 
ATOM     11  C   UNL     1       3.036   7.204  -1.105  0.00  0.00    -0.026 C 
BRANCH  10  13
ATOM     12  C   UNL     1       0.951   5.172  -3.241  0.00  0.00    +0.005 C 
ATOM     13  C   UNL     1       1.450   6.533  -2.836  0.00  0.00    +0.026 C 
ENDBRANCH  10  13
ENDBRANCH   9  11
ENDBRANCH   7   9
ENDBRANCH   6   8
ENDBRANCH   4   6
ENDBRANCH   3   5
ENDBRANCH   1   3
BRANCH   2  14
ATOM     14  C   UNL     1      -0.390   5.150  -6.552  0.00  0.00    +0.051 C 
BRANCH  14  15
ATOM     15  C   UNL     1      -1.834   5.539  -6.573  0.00  0.00    -0.026 C 
ATOM     16  C   UNL     1      -2.373   6.371  -5.696  0.00  0.00    -0.030 C 
BRANCH  16  17
ATOM     17  C   UNL     1      -1.470   7.377  -5.083  0.00  0.00    +0.026 C 
BRANCH  17  18
ATOM     18  C   UNL     1      -2.007   7.820  -3.728  0.00  0.00    +0.016 C 
BRANCH  18  19
ATOM     19  C   UNL     1      -2.941   6.712  -3.263  0.00  0.00    +0.110 C 
BRANCH  19  20
ATOM     20  C   UNL     1      -2.391   6.138  -1.996  0.00  0.00    +0.317 C 
ATOM     21  O   UNL     1      -2.617   4.903  -1.822  0.00  0.00    -0.250 OA
BRANCH  20  22
ATOM     22  O   UNL     1      -2.419   6.932  -0.857  0.00  0.00    -0.448 OA
BRANCH  22  23
ATOM     23  C   UNL     1      -1.540   6.567   0.192  0.00  0.00    +0.209 C 
ATOM     24  C   UNL     1      -1.336   7.734   1.136  0.00  0.00    +0.051 C 
ENDBRANCH  22  23
ENDBRANCH  20  22
ENDBRANCH  19  20
ENDBRANCH  18  19
ENDBRANCH  17  18
ENDBRANCH  16  17
ENDBRANCH  14  15
ENDBRANCH   2  14
TORSDOF 15
ENDMDL
MODEL 9
REMARK VINA RESULT:      -5.8      2.775      7.079
REMARK  Name = 
REMARK  15 active torsions:
REMARK  status: ('A' for Active; 'I' for Inactive)
REMARK    1  A    between atoms: C_2  and  C_3
REMARK    2  A    between atoms: C_4  and  C_5
REMARK    3  A    between atoms: C_5  and  C_6
REMARK    4  A    between atoms: C_7  and  C_8
REMARK    5  A    between atoms: C_8  and  C_9
REMARK    6  A    between atoms: C_10  and  C_11
REMARK    7  A    between atoms: C_11  and  C_12
REMARK    8  A    between atoms: C_13  and  C_14
REMARK    9  A    between atoms: C_14  and  C_15
REMARK   10  A    between atoms: C_16  and  C_17
REMARK   11  A    between atoms: C_17  and  C_18
REMARK   12  A    between atoms: C_18  and  C_19
REMARK   13  A    between atoms: C_19  and  C_20
REMARK   14  A    between atoms: C_20  and  O_22
REMARK   15  A    between atoms: O_22  and  C_23
REMARK                            x       y       z     vdW  Elec       q    Type
REMARK                         _______ _______ _______ _____ _____    ______ ____
ROOT
ATOM      1  C   UNL     1      -1.335   5.398  -6.764  0.00  0.00    -0.026 C 
ATOM      2  C   UNL     1      -2.442   5.474  -6.016  0.00  0.00    -0.026 C 
ENDROOT
BRANCH   1   3
ATOM      3  C   UNL     1      -0.038   5.955  -6.255  0.00  0.00    +0.051 C 
BRANCH   3   5
ATOM      4  C   UNL     1       1.860   5.132  -5.054  0.00  0.00    -0.026 C 
ATOM      5  C   UNL     1       0.810   4.813  -5.822  0.00  0.00    -0.026 C 
BRANCH   4   6
ATOM      6  C   UNL     1       2.781   6.142  -5.673  0.00  0.00    +0.051 C 
BRANCH   6   8
ATOM      7  C   UNL     1       4.710   5.524  -7.102  0.00  0.00    -0.026 C 
ATOM      8  C   UNL     1       4.042   5.386  -5.966  0.00  0.00    -0.026 C 
BRANCH   7   9
ATOM      9  C   UNL     1       3.881   5.804  -8.316  0.00  0.00    +0.051 C 
BRANCH   9  11
ATOM     10  C   UNL     1       1.994   4.715  -9.394  0.00  0.00    -0.030 C 
ATOM     11  C   UNL     1       3.180   4.569  -8.790  0.00  0.00    -0.026 C 
BRANCH  10  13
ATOM     12  C   UNL     1       0.072   6.060 -10.196  0.00  0.00    +0.005 C 
ATOM     13  C   UNL     1       1.431   6.094  -9.552  0.00  0.00    +0.026 C 
ENDBRANCH  10  13
ENDBRANCH   9  11
ENDBRANCH   7   9
ENDBRANCH   6   8
ENDBRANCH   4   6
ENDBRANCH   3   5
ENDBRANCH   1   3
BRANCH   2  14
ATOM     14  C   UNL     1      -2.536   6.475  -4.923  0.00  0.00    +0.051 C 
BRANCH  14  15
ATOM     15  C   UNL     1      -3.050   5.874  -3.653  0.00  0.00    -0.026 C 
ATOM     16  C   UNL     1      -2.258   5.429  -2.691  0.00  0.00    -0.030 C 
BRANCH  16  17
ATOM     17  C   UNL     1      -0.917   6.057  -2.581  0.00  0.00    +0.026 C 
BRANCH  17  18
ATOM     18  C   UNL     1       0.062   5.108  -1.904  0.00  0.00    +0.016 C 
BRANCH  18  19
ATOM     19  C   UNL     1       0.986   5.981  -1.068  0.00  0.00    +0.110 C 
BRANCH  19  20
ATOM     20  C   UNL     1       2.381   5.458  -1.213  0.00  0.00    +0.317 C 
ATOM     21  O   UNL     1       2.573   4.299  -0.738  0.00  0.00    -0.250 OA
BRANCH  20  22
ATOM     22  O   UNL     1       3.430   6.357  -1.075  0.00  0.00    -0.448 OA
BRANCH  22  23
ATOM     23  C   UNL     1       4.252   6.552  -2.212  0.00  0.00    +0.209 C 
ATOM     24  C   UNL     1       4.108   7.969  -2.728  0.00  0.00    +0.051 C 
ENDBRANCH  22  23
ENDBRANCH  20  22
ENDBRANCH  19  20
ENDBRANCH  18  19
ENDBRANCH  17  18
ENDBRANCH  16  17
ENDBRANCH  14  15
ENDBRANCH   2  14
TORSDOF 15
ENDMDL
