MODEL 1
REMARK VINA RESULT:      -4.8      0.000      0.000
REMARK  Name = 
REMARK  1 active torsions:
REMARK  status: ('A' for Active; 'I' for Inactive)
REMARK    1  A    between atoms: C_8  and  N_9
REMARK                            x       y       z     vdW  Elec       q    Type
REMARK                         _______ _______ _______ _____ _____    ______ ____
ROOT
ATOM      1  C   UNL     1      -1.705   6.993  -3.013  0.00  0.00    +0.131 C 
ATOM      2  N   UNL     1      -1.463   6.579  -4.382  0.00  0.00    -0.323 N 
ATOM      3  C   UNL     1      -0.285   5.801  -4.625  0.00  0.00    +0.083 A 
ATOM      4  C   UNL     1       0.318   5.220  -3.602  0.00  0.00    +0.162 C 
ATOM      5  C   UNL     1      -0.133   5.335  -6.008  0.00  0.00    +0.019 A 
ATOM      6  C   UNL     1      -1.127   5.404  -6.896  0.00  0.00    +0.003 A 
ATOM      7  C   UNL     1      -2.468   5.760  -6.413  0.00  0.00    +0.019 A 
ATOM      8  C   UNL     1      -2.473   6.628  -5.398  0.00  0.00    +0.076 A 
ENDROOT
BRANCH   4   9
ATOM      9  N   UNL     1      -0.266   5.129  -2.299  0.00  0.00    -0.026 NA
ATOM     10  O   UNL     1       0.336   4.439  -1.436  0.00  0.00    -0.143 OA
ENDBRANCH   4   9
TORSDOF 1
ENDMDL
MODEL 2
REMARK VINA RESULT:      -4.7      8.638      9.644
REMARK  Name = 
REMARK  1 active torsions:
REMARK  status: ('A' for Active; 'I' for Inactive)
REMARK    1  A    between atoms: C_8  and  N_9
REMARK                            x       y       z     vdW  Elec       q    Type
REMARK                         _______ _______ _______ _____ _____    ______ ____
ROOT
ATOM      1  C   UNL     1       7.418   5.736  -9.846  0.00  0.00    +0.131 C 
ATOM      2  N   UNL     1       5.971   5.667  -9.772  0.00  0.00    -0.323 N 
ATOM      3  C   UNL     1       5.255   5.738 -11.011  0.00  0.00    +0.083 A 
ATOM      4  C   UNL     1       5.909   5.520 -12.139  0.00  0.00    +0.162 C 
ATOM      5  C   UNL     1       3.802   5.576 -10.890  0.00  0.00    +0.019 A 
ATOM      6  C   UNL     1       3.226   5.140  -9.767  0.00  0.00    +0.003 A 
ATOM      7  C   UNL     1       4.088   4.609  -8.703  0.00  0.00    +0.019 A 
ATOM      8  C   UNL     1       5.274   5.217  -8.604  0.00  0.00    +0.076 A 
ENDROOT
BRANCH   4   9
ATOM      9  N   UNL     1       7.238   4.988 -12.183  0.00  0.00    -0.026 NA
ATOM     10  O   UNL     1       7.704   4.674 -13.309  0.00  0.00    -0.143 OA
ENDBRANCH   4   9
TORSDOF 1
ENDMDL
MODEL 3
REMARK VINA RESULT:      -4.6      9.324     10.232
REMARK  Name = 
REMARK  1 active torsions:
REMARK  status: ('A' for Active; 'I' for Inactive)
REMARK    1  A    between atoms: C_8  and  N_9
REMARK                            x       y       z     vdW  Elec       q    Type
REMARK                         _______ _______ _______ _____ _____    ______ ____
ROOT
ATOM      1  C   UNL     1       5.063   7.277 -10.782  0.00  0.00    +0.131 C 
ATOM      2  N   UNL     1       6.315   6.918 -11.420  0.00  0.00    -0.323 N 
ATOM      3  C   UNL     1       7.278   6.230 -10.615  0.00  0.00    +0.083 A 
ATOM      4  C   UNL     1       6.880   5.663  -9.489  0.00  0.00    +0.162 C 
ATOM      5  C   UNL     1       8.490   5.814 -11.331  0.00  0.00    +0.019 A 
ATOM      6  C   UNL     1       8.574   5.839 -12.663  0.00  0.00    +0.003 A 
ATOM      7  C   UNL     1       7.348   6.089 -13.432  0.00  0.00    +0.019 A 
ATOM      8  C   UNL     1       6.491   6.927 -12.842  0.00  0.00    +0.076 A 
ENDROOT
BRANCH   4   9
ATOM      9  N   UNL     1       5.502   5.496  -9.141  0.00  0.00    -0.026 NA
ATOM     10  O   UNL     1       5.233   5.185  -7.953  0.00  0.00    -0.143 OA
ENDBRANCH   4   9
TORSDOF 1
ENDMDL
MODEL 4
REMARK VINA RESULT:      -4.6      7.487      8.479
REMARK  Name = 
REMARK  1 active torsions:
REMARK  status: ('A' for Active; 'I' for Inactive)
REMARK    1  A    between atoms: C_8  and  N_9
REMARK                            x       y       z     vdW  Elec       q    Type
REMARK                         _______ _______ _______ _____ _____    ______ ____
ROOT
ATOM      1  C   UNL     1       3.313   6.684 -10.028  0.00  0.00    +0.131 C 
ATOM      2  N   UNL     1       4.763   6.717  -9.988  0.00  0.00    -0.323 N 
ATOM      3  C   UNL     1       5.411   5.742  -9.162  0.00  0.00    +0.083 A 
ATOM      4  C   UNL     1       4.724   4.683  -8.767  0.00  0.00    +0.162 C 
ATOM      5  C   UNL     1       6.877   5.762  -9.225  0.00  0.00    +0.019 A 
ATOM      6  C   UNL     1       7.539   6.445 -10.161  0.00  0.00    +0.003 A 
ATOM      7  C   UNL     1       6.775   7.014 -11.279  0.00  0.00    +0.019 A 
ATOM      8  C   UNL     1       5.550   7.431 -10.950  0.00  0.00    +0.076 A 
ENDROOT
BRANCH   4   9
ATOM      9  N   UNL     1       3.444   4.335  -9.305  0.00  0.00    -0.026 NA
ATOM     10  O   UNL     1       2.724   3.550  -8.636  0.00  0.00    -0.143 OA
ENDBRANCH   4   9
TORSDOF 1
ENDMDL
MODEL 5
REMARK VINA RESULT:      -4.6      1.662      2.573
REMARK  Name = 
REMARK  1 active torsions:
REMARK  status: ('A' for Active; 'I' for Inactive)
REMARK    1  A    between atoms: C_8  and  N_9
REMARK                            x       y       z     vdW  Elec       q    Type
REMARK                         _______ _______ _______ _____ _____    ______ ____
ROOT
ATOM      1  C   UNL     1      -2.258   5.708  -5.118  0.00  0.00    +0.131 C 
ATOM      2  N   UNL     1      -0.814   5.575  -5.167  0.00  0.00    -0.323 N 
ATOM      3  C   UNL     1      -0.116   5.634  -3.918  0.00  0.00    +0.083 A 
ATOM      4  C   UNL     1      -0.796   5.460  -2.798  0.00  0.00    +0.162 C 
ATOM      5  C   UNL     1       1.331   5.408  -4.013  0.00  0.00    +0.019 A 
ATOM      6  C   UNL     1       1.905   4.932  -5.120  0.00  0.00    +0.003 A 
ATOM      7  C   UNL     1       1.038   4.423  -6.190  0.00  0.00    +0.019 A 
ATOM      8  C   UNL     1      -0.119   5.080  -6.318  0.00  0.00    +0.076 A 
ENDROOT
BRANCH   4   9
ATOM      9  N   UNL     1      -2.147   4.986  -2.767  0.00  0.00    -0.026 NA
ATOM     10  O   UNL     1      -2.748   5.006  -1.663  0.00  0.00    -0.143 OA
ENDBRANCH   4   9
TORSDOF 1
ENDMDL
MODEL 6
REMARK VINA RESULT:      -4.5      4.704      5.864
REMARK  Name = 
REMARK  1 active torsions:
REMARK  status: ('A' for Active; 'I' for Inactive)
REMARK    1  A    between atoms: C_8  and  N_9
REMARK                            x       y       z     vdW  Elec       q    Type
REMARK                         _______ _______ _______ _____ _____    ______ ____
ROOT
ATOM      1  C   UNL     1       1.259   6.762  -4.832  0.00  0.00    +0.131 C 
ATOM      2  N   UNL     1       2.620   6.865  -4.341  0.00  0.00    -0.323 N 
ATOM      3  C   UNL     1       3.668   6.786  -5.315  0.00  0.00    +0.083 A 
ATOM      4  C   UNL     1       3.368   6.969  -6.590  0.00  0.00    +0.162 C 
ATOM      5  C   UNL     1       5.020   6.981  -4.779  0.00  0.00    +0.019 A 
ATOM      6  C   UNL     1       5.236   7.450  -3.548  0.00  0.00    +0.003 A 
ATOM      7  C   UNL     1       4.092   7.981  -2.795  0.00  0.00    +0.019 A 
ATOM      8  C   UNL     1       2.939   7.350  -3.031  0.00  0.00    +0.076 A 
ENDROOT
BRANCH   4   9
ATOM      9  N   UNL     1       2.103   7.471  -7.032  0.00  0.00    -0.026 NA
ATOM     10  O   UNL     1       2.107   8.450  -7.823  0.00  0.00    -0.143 OA
ENDBRANCH   4   9
TORSDOF 1
ENDMDL
MODEL 7
REMARK VINA RESULT:      -4.5      3.262      4.149
REMARK  Name = 
REMARK  1 active torsions:
REMARK  status: ('A' for Active; 'I' for Inactive)
REMARK    1  A    between atoms: C_8  and  N_9
REMARK                            x       y       z     vdW  Elec       q    Type
REMARK                         _______ _______ _______ _____ _____    ______ ____
ROOT
ATOM      1  C   UNL     1       0.236   5.437  -8.398  0.00  0.00    +0.131 C 
ATOM      2  N   UNL     1      -0.352   5.548  -7.077  0.00  0.00    -0.323 N 
ATOM      3  C   UNL     1       0.463   6.127  -6.051  0.00  0.00    +0.083 A 
ATOM      4  C   UNL     1       1.530   6.825  -6.403  0.00  0.00    +0.162 C 
ATOM      5  C   UNL     1      -0.207   6.296  -4.757  0.00  0.00    +0.019 A 
ATOM      6  C   UNL     1      -1.529   6.168  -4.618  0.00  0.00    +0.003 A 
ATOM      7  C   UNL     1      -2.349   6.066  -5.832  0.00  0.00    +0.019 A 
ATOM      8  C   UNL     1      -1.760   5.416  -6.840  0.00  0.00    +0.076 A 
ENDROOT
BRANCH   4   9
ATOM      9  N   UNL     1       1.790   7.232  -7.750  0.00  0.00    -0.026 NA
ATOM     10  O   UNL     1       2.128   8.428  -7.944  0.00  0.00    -0.143 OA
ENDBRANCH   4   9
TORSDOF 1
ENDMDL
MODEL 8
REMARK VINA RESULT:      -4.5      2.271      2.707
REMARK  Name = 
REMARK  1 active torsions:
REMARK  status: ('A' for Active; 'I' for Inactive)
REMARK    1  A    between atoms: C_8  and  N_9
REMARK                            x       y       z     vdW  Elec       q    Type
REMARK                         _______ _______ _______ _____ _____    ______ ____
ROOT
ATOM      1  C   UNL     1       1.289   6.935  -4.790  0.00  0.00    +0.131 C 
ATOM      2  N   UNL     1      -0.013   6.706  -5.389  0.00  0.00    -0.323 N 
ATOM      3  C   UNL     1      -0.125   5.600  -6.292  0.00  0.00    +0.083 A 
ATOM      4  C   UNL     1       0.812   4.667  -6.277  0.00  0.00    +0.162 C 
ATOM      5  C   UNL     1      -1.479   5.359  -6.802  0.00  0.00    +0.019 A 
ATOM      6  C   UNL     1      -2.554   5.948  -6.273  0.00  0.00    +0.003 A 
ATOM      7  C   UNL     1      -2.392   6.688  -5.014  0.00  0.00    +0.019 A 
ATOM      8  C   UNL     1      -1.214   7.305  -4.887  0.00  0.00    +0.076 A 
ENDROOT
BRANCH   4   9
ATOM      9  N   UNL     1       1.808   4.574  -5.253  0.00  0.00    -0.026 NA
ATOM     10  O   UNL     1       2.918   4.068  -5.562  0.00  0.00    -0.143 OA
ENDBRANCH   4   9
TORSDOF 1
ENDMDL
MODEL 9
REMARK VINA RESULT:      -4.5      9.458     10.546
REMARK  Name = 
REMARK  1 active torsions:
REMARK  status: ('A' for Active; 'I' for Inactive)
REMARK    1  A    between atoms: C_8  and  N_9
REMARK                            x       y       z     vdW  Elec       q    Type
REMARK                         _______ _______ _______ _____ _____    ______ ____
ROOT
ATOM      1  C   UNL     1       3.187   6.223 -11.443  0.00  0.00    +0.131 C 
ATOM      2  N   UNL     1       4.632   6.344 -11.453  0.00  0.00    -0.323 N 
ATOM      3  C   UNL     1       5.345   5.530 -12.391  0.00  0.00    +0.083 A 
ATOM      4  C   UNL     1       4.682   4.992 -13.401  0.00  0.00    +0.162 C 
ATOM      5  C   UNL     1       6.795   5.753 -12.420  0.00  0.00    +0.019 A 
ATOM      6  C   UNL     1       7.366   6.799 -11.820  0.00  0.00    +0.003 A 
ATOM      7  C   UNL     1       6.496   7.863 -11.300  0.00  0.00    +0.019 A 
ATOM      8  C   UNL     1       5.324   7.431 -10.826  0.00  0.00    +0.076 A 
ENDROOT
BRANCH   4   9
ATOM      9  N   UNL     1       3.342   5.363 -13.744  0.00  0.00    -0.026 NA
ATOM     10  O   UNL     1       3.141   5.825 -14.896  0.00  0.00    -0.143 OA
ENDBRANCH   4   9
TORSDOF 1
ENDMDL
