MODEL 1
REMARK VINA RESULT:      -8.9      0.000      0.000
REMARK  Name = 
REMARK  4 active torsions:
REMARK  status: ('A' for Active; 'I' for Inactive)
REMARK    1  A    between atoms: C_23  and  O_24
REMARK    2  A    between atoms: C_26  and  C_27
REMARK    3  A    between atoms: C_27  and  C_28
REMARK    4  A    between atoms: C_28  and  C_30
REMARK                            x       y       z     vdW  Elec       q    Type
REMARK                         _______ _______ _______ _____ _____    ______ ____
ROOT
ATOM      1  C   UNL     1      -4.538   6.189  -2.833  0.00  0.00    -0.007 C 
ATOM      2  C   UNL     1      -3.967   5.678  -2.960  0.00  0.00    -0.015 C 
ATOM      3  C   UNL     1      -2.604   5.647  -2.068  0.00  0.00    +0.134 C 
ATOM      4  O   UNL     1      -1.673   5.393  -3.253  0.00  0.00    -0.354 OA
ATOM      5  C   UNL     1      -2.395   6.330  -4.195  0.00  0.00    +0.120 C 
ATOM      6  C   UNL     1      -1.657   5.644  -5.494  0.00  0.00    +0.035 C 
ATOM      7  C   UNL     1      -0.523   6.635  -5.621  0.00  0.00    +0.059 C 
ATOM      8  C   UNL     1       0.574   5.901  -6.350  0.00  0.00    +0.190 C 
ATOM      9  O   UNL     1       0.107   4.829  -6.949  0.00  0.00    -0.332 OA
ATOM     10  C   UNL     1       1.324   4.226  -7.587  0.00  0.00    +0.174 C 
ATOM     11  C   UNL     1       1.715   5.590  -8.484  0.00  0.00    +0.150 C 
ATOM     12  O   UNL     1       3.128   5.492  -8.164  0.00  0.00    -0.351 OA
ATOM     13  C   UNL     1       3.518   5.015  -6.827  0.00  0.00    +0.174 C 
ATOM     14  C   UNL     1       2.555   6.400  -6.038  0.00  0.00    +0.176 C 
ATOM     15  C   UNL     1       3.517   6.473  -4.726  0.00  0.00    +0.172 C 
ATOM     16  C   UNL     1       4.283   5.789  -6.089  0.00  0.00    +0.145 C 
ATOM     17  C   UNL     1       4.713   7.338  -5.932  0.00  0.00    +0.035 C 
ATOM     18  C   UNL     1       5.249   6.790  -4.547  0.00  0.00    +0.033 C 
ATOM     19  C   UNL     1       4.029   6.336  -3.488  0.00  0.00    +0.123 C 
ATOM     20  C   UNL     1       4.981   5.444  -2.522  0.00  0.00    +0.094 C 
ATOM     21  C   UNL     1       4.726   6.451  -1.430  0.00  0.00    +0.153 C 
ATOM     22  C   UNL     1       3.593   6.214  -0.553  0.00  0.00    +0.070 C 
ATOM     23  C   UNL     1       3.218   7.730  -0.157  0.00  0.00    +0.064 C 
ATOM     24  C   UNL     1       2.175   7.239   1.090  0.00  0.00    +0.121 C 
ATOM     25  C   UNL     1       0.882   7.833   0.274  0.00  0.00    +0.063 C 
ATOM     26  C   UNL     1       0.106   8.701   1.452  0.00  0.00    +0.136 C 
ATOM     27  C   UNL     1      -0.447   7.390   2.250  0.00  0.00    -0.018 C 
ATOM     28  C   UNL     1       0.111   7.234   3.447  0.00  0.00    -0.007 C 
ATOM     29  C   UNL     1      -2.025   7.628   2.353  0.00  0.00    +0.023 C 
ATOM     30  C   UNL     1      -2.303   6.250   3.193  0.00  0.00    +0.005 C 
ATOM     31  C   UNL     1      -2.044   6.857   0.918  0.00  0.00    +0.034 C 
ATOM     32  C   UNL     1      -2.128   8.267   0.064  0.00  0.00    +0.116 C 
ATOM     33  C   UNL     1      -1.276   7.587  -1.193  0.00  0.00    +0.032 C 
ATOM     34  O   UNL     1      -1.024   9.042   0.601  0.00  0.00    -0.355 OA
ATOM     35  O   UNL     1       2.565   8.550   1.756  0.00  0.00    -0.356 OA
ATOM     36  C   UNL     1       3.671   7.672   2.306  0.00  0.00    +0.145 C 
ATOM     37  C   UNL     1       4.582   7.784   0.842  0.00  0.00    +0.145 C 
ATOM     38  O   UNL     1       5.436   7.412  -1.544  0.00  0.00    -0.296 OA
ATOM     39  O   UNL     1       2.760   6.011  -6.543  0.00  0.00    -0.351 OA
ATOM     40  O   UNL     1       3.500   5.056  -4.184  0.00  0.00    -0.353 OA
ATOM     41  C   UNL     1       2.205   4.562  -6.172  0.00  0.00    +0.174 C 
ATOM     42  O   UNL     1       1.484   5.744  -5.276  0.00  0.00    -0.332 OA
ATOM     43  C   UNL     1       1.066   6.691  -7.441  0.00  0.00    +0.088 C 
ATOM     44  C   UNL     1      -2.375   7.283  -2.158  0.00  0.00    +0.036 C 
ATOM     45  C   UNL     1      -3.607   5.204  -4.267  0.00  0.00    +0.054 C 
ENDROOT
BRANCH  37  46
ATOM     46  O   UNL     1       4.718   9.266   0.810  0.00  0.00    -0.351 OA
ATOM     47  C   UNL     1       4.020  10.030  -0.090  0.00  0.00    +0.174 C 
ENDBRANCH  37  46
BRANCH  36  48
ATOM     48  C   UNL     1       4.464   8.913   3.039  0.00  0.00    +0.066 C 
BRANCH  48  49
ATOM     49  C   UNL     1       5.963   8.290   2.725  0.00  0.00    +0.173 C 
ATOM     50  O   UNL     1       5.801   7.175   3.749  0.00  0.00    -0.221 OA
BRANCH  49  51
ATOM     51  C   UNL     1       6.755   9.308   3.750  0.00  0.00    +0.142 C 
ATOM     52  N   UNL     1       7.797   9.929   3.098  0.00  0.00    -0.129 NA
ENDBRANCH  49  51
ENDBRANCH  48  49
ENDBRANCH  36  48
TORSDOF 4
ENDMDL
