MODEL 1
REMARK VINA RESULT:      -7.5      0.000      0.000
REMARK  Name = 
REMARK  1 active torsions:
REMARK  status: ('A' for Active; 'I' for Inactive)
REMARK    1  A    between atoms: N_9  and  C_10
REMARK                            x       y       z     vdW  Elec       q    Type
REMARK                         _______ _______ _______ _____ _____    ______ ____
ROOT
ATOM      1  N   UNL     1      -0.139   4.909  -1.475  0.00  0.00    -0.128 NA
ATOM      2  C   UNL     1      -0.845   5.641  -2.458  0.00  0.00    +0.087 A 
ATOM      3  C   UNL     1      -0.427   5.618  -3.778  0.00  0.00    +0.019 A 
ATOM      4  C   UNL     1       0.900   5.378  -4.409  0.00  0.00    +0.122 C 
ATOM      5  N   UNL     1       0.620   4.979  -5.777  0.00  0.00    -0.265 N 
ATOM      6  C   UNL     1      -0.746   5.357  -5.997  0.00  0.00    +0.249 C 
ATOM      7  O   UNL     1      -1.342   5.148  -7.082  0.00  0.00    -0.270 OA
ATOM      8  C   UNL     1      -1.374   5.816  -4.770  0.00  0.00    +0.053 A 
ATOM      9  C   UNL     1      -2.514   6.562  -4.480  0.00  0.00    +0.004 A 
ATOM     10  C   UNL     1      -2.667   7.034  -3.183  0.00  0.00    +0.002 A 
ATOM     11  C   UNL     1      -2.025   6.322  -2.186  0.00  0.00    +0.018 A 
ENDROOT
BRANCH   5  12
ATOM     12  C   UNL     1       1.660   5.613  -6.814  0.00  0.00    +0.155 C 
ATOM     13  C   UNL     1       2.119   4.159  -7.414  0.00  0.00    +0.266 C 
ATOM     14  O   UNL     1       2.179   3.233  -6.574  0.00  0.00    -0.271 OA
ATOM     15  N   UNL     1       3.275   4.515  -8.199  0.00  0.00    -0.143 NA
ATOM     16  C   UNL     1       3.903   5.793  -8.000  0.00  0.00    +0.248 C 
ATOM     17  O   UNL     1       4.085   6.608  -8.954  0.00  0.00    -0.273 OA
ATOM     18  C   UNL     1       4.023   6.200  -6.565  0.00  0.00    +0.089 C 
ATOM     19  C   UNL     1       2.912   5.594  -5.715  0.00  0.00    +0.039 C 
ENDBRANCH   5  12
TORSDOF 1
ENDMDL
MODEL 2
REMARK VINA RESULT:      -7.4      3.570      5.065
REMARK  Name = 
REMARK  1 active torsions:
REMARK  status: ('A' for Active; 'I' for Inactive)
REMARK    1  A    between atoms: N_9  and  C_10
REMARK                            x       y       z     vdW  Elec       q    Type
REMARK                         _______ _______ _______ _____ _____    ______ ____
ROOT
ATOM      1  N   UNL     1      -3.062   4.875  -2.756  0.00  0.00    -0.128 NA
ATOM      2  C   UNL     1      -2.204   5.395  -3.753  0.00  0.00    +0.087 A 
ATOM      3  C   UNL     1      -0.854   5.564  -3.491  0.00  0.00    +0.019 A 
ATOM      4  C   UNL     1      -0.093   5.780  -2.230  0.00  0.00    +0.122 C 
ATOM      5  N   UNL     1       1.272   5.377  -2.519  0.00  0.00    -0.265 N 
ATOM      6  C   UNL     1       1.342   5.319  -3.950  0.00  0.00    +0.249 C 
ATOM      7  O   UNL     1       2.384   4.986  -4.567  0.00  0.00    -0.270 OA
ATOM      8  C   UNL     1       0.033   5.502  -4.554  0.00  0.00    +0.053 A 
ATOM      9  C   UNL     1      -0.412   5.842  -5.829  0.00  0.00    +0.004 A 
ATOM     10  C   UNL     1      -1.750   6.182  -5.980  0.00  0.00    +0.002 A 
ATOM     11  C   UNL     1      -2.629   5.660  -5.048  0.00  0.00    +0.018 A 
ENDROOT
BRANCH   5  12
ATOM     12  C   UNL     1       2.344   6.350  -1.840  0.00  0.00    +0.155 C 
ATOM     13  C   UNL     1       3.158   5.130  -1.112  0.00  0.00    +0.266 C 
ATOM     14  O   UNL     1       2.444   4.191  -0.693  0.00  0.00    -0.271 OA
ATOM     15  N   UNL     1       4.027   5.848  -0.214  0.00  0.00    -0.143 NA
ATOM     16  C   UNL     1       3.757   7.229   0.084  0.00  0.00    +0.248 C 
ATOM     17  O   UNL     1       4.626   8.136  -0.091  0.00  0.00    -0.273 OA
ATOM     18  C   UNL     1       2.309   7.537   0.300  0.00  0.00    +0.089 C 
ATOM     19  C   UNL     1       1.410   6.585  -0.480  0.00  0.00    +0.039 C 
ENDBRANCH   5  12
TORSDOF 1
ENDMDL
MODEL 3
REMARK VINA RESULT:      -7.4      3.318      8.065
REMARK  Name = 
REMARK  1 active torsions:
REMARK  status: ('A' for Active; 'I' for Inactive)
REMARK    1  A    between atoms: N_9  and  C_10
REMARK                            x       y       z     vdW  Elec       q    Type
REMARK                         _______ _______ _______ _____ _____    ______ ____
ROOT
ATOM      1  N   UNL     1       5.280   4.987 -13.506  0.00  0.00    -0.128 NA
ATOM      2  C   UNL     1       5.892   5.665 -12.426  0.00  0.00    +0.087 A 
ATOM      3  C   UNL     1       5.317   5.631 -11.166  0.00  0.00    +0.019 A 
ATOM      4  C   UNL     1       3.914   5.437 -10.706  0.00  0.00    +0.122 C 
ATOM      5  N   UNL     1       4.010   4.996  -9.326  0.00  0.00    -0.265 N 
ATOM      6  C   UNL     1       5.354   5.308  -8.933  0.00  0.00    +0.249 C 
ATOM      7  O   UNL     1       5.805   5.049  -7.790  0.00  0.00    -0.270 OA
ATOM      8  C   UNL     1       6.144   5.765 -10.063  0.00  0.00    +0.053 A 
ATOM      9  C   UNL     1       7.341   6.466 -10.194  0.00  0.00    +0.004 A 
ATOM     10  C   UNL     1       7.669   6.959 -11.450  0.00  0.00    +0.002 A 
ATOM     11  C   UNL     1       7.123   6.298 -12.536  0.00  0.00    +0.018 A 
ENDROOT
BRANCH   5  12
ATOM     12  C   UNL     1       2.880   5.653  -8.404  0.00  0.00    +0.155 C 
ATOM     13  C   UNL     1       2.502   4.240  -7.667  0.00  0.00    +0.266 C 
ATOM     14  O   UNL     1       2.548   3.228  -8.403  0.00  0.00    -0.271 OA
ATOM     15  N   UNL     1       1.288   4.584  -6.970  0.00  0.00    -0.143 NA
ATOM     16  C   UNL     1       0.577   5.781  -7.331  0.00  0.00    +0.248 C 
ATOM     17  O   UNL     1       0.291   6.676  -6.478  0.00  0.00    -0.273 OA
ATOM     18  C   UNL     1       0.494   6.025  -8.805  0.00  0.00    +0.089 C 
ATOM     19  C   UNL     1       1.684   5.420  -9.541  0.00  0.00    +0.039 C 
ENDBRANCH   5  12
TORSDOF 1
ENDMDL
MODEL 4
REMARK VINA RESULT:      -7.3      2.594      3.214
REMARK  Name = 
REMARK  1 active torsions:
REMARK  status: ('A' for Active; 'I' for Inactive)
REMARK    1  A    between atoms: N_9  and  C_10
REMARK                            x       y       z     vdW  Elec       q    Type
REMARK                         _______ _______ _______ _____ _____    ______ ____
ROOT
ATOM      1  N   UNL     1      -2.359   5.019  -2.618  0.00  0.00    -0.128 NA
ATOM      2  C   UNL     1      -2.064   5.335  -3.965  0.00  0.00    +0.087 A 
ATOM      3  C   UNL     1      -0.750   5.507  -4.369  0.00  0.00    +0.019 A 
ATOM      4  C   UNL     1       0.482   5.913  -3.637  0.00  0.00    +0.122 C 
ATOM      5  N   UNL     1       1.593   5.428  -4.436  0.00  0.00    -0.265 N 
ATOM      6  C   UNL     1       1.020   5.124  -5.715  0.00  0.00    +0.249 C 
ATOM      7  O   UNL     1       1.693   4.659  -6.668  0.00  0.00    -0.270 OA
ATOM      8  C   UNL     1      -0.428   5.238  -5.689  0.00  0.00    +0.053 A 
ATOM      9  C   UNL     1      -1.412   5.367  -6.666  0.00  0.00    +0.004 A 
ATOM     10  C   UNL     1      -2.692   5.715  -6.255  0.00  0.00    +0.002 A 
ATOM     11  C   UNL     1      -3.035   5.386  -4.957  0.00  0.00    +0.018 A 
ENDROOT
BRANCH   5  12
ATOM     12  C   UNL     1       2.804   6.472  -4.482  0.00  0.00    +0.155 C 
ATOM     13  C   UNL     1       3.942   5.336  -4.173  0.00  0.00    +0.266 C 
ATOM     14  O   UNL     1       3.594   4.438  -3.373  0.00  0.00    -0.271 OA
ATOM     15  N   UNL     1       5.105   6.146  -3.907  0.00  0.00    -0.143 NA
ATOM     16  C   UNL     1       4.944   7.548  -3.627  0.00  0.00    +0.248 C 
ATOM     17  O   UNL     1       5.551   8.439  -4.295  0.00  0.00    -0.273 OA
ATOM     18  C   UNL     1       3.791   7.866  -2.729  0.00  0.00    +0.089 C 
ATOM     19  C   UNL     1       2.676   6.834  -2.860  0.00  0.00    +0.039 C 
ENDBRANCH   5  12
TORSDOF 1
ENDMDL
MODEL 5
REMARK VINA RESULT:      -7.1      3.530      7.889
REMARK  Name = 
REMARK  1 active torsions:
REMARK  status: ('A' for Active; 'I' for Inactive)
REMARK    1  A    between atoms: N_9  and  C_10
REMARK                            x       y       z     vdW  Elec       q    Type
REMARK                         _______ _______ _______ _____ _____    ______ ____
ROOT
ATOM      1  N   UNL     1       6.665   8.376 -11.289  0.00  0.00    -0.128 NA
ATOM      2  C   UNL     1       6.065   7.220 -11.840  0.00  0.00    +0.087 A 
ATOM      3  C   UNL     1       4.941   6.669 -11.248  0.00  0.00    +0.019 A 
ATOM      4  C   UNL     1       4.421   6.700  -9.853  0.00  0.00    +0.122 C 
ATOM      5  N   UNL     1       3.003   6.403  -9.954  0.00  0.00    -0.265 N 
ATOM      6  C   UNL     1       2.835   5.856 -11.269  0.00  0.00    +0.249 C 
ATOM      7  O   UNL     1       1.720   5.494 -11.718  0.00  0.00    -0.270 OA
ATOM      8  C   UNL     1       4.058   5.961 -12.048  0.00  0.00    +0.053 A 
ATOM      9  C   UNL     1       4.534   5.341 -13.200  0.00  0.00    +0.004 A 
ATOM     10  C   UNL     1       5.876   5.506 -13.517  0.00  0.00    +0.002 A 
ATOM     11  C   UNL     1       6.491   6.646 -13.031  0.00  0.00    +0.018 A 
ENDROOT
BRANCH   5  12
ATOM     12  C   UNL     1       2.501   5.452  -8.770  0.00  0.00    +0.155 C 
ATOM     13  C   UNL     1       1.428   6.546  -8.194  0.00  0.00    +0.266 C 
ATOM     14  O   UNL     1       1.802   7.739  -8.256  0.00  0.00    -0.271 OA
ATOM     15  N   UNL     1       1.054   5.958  -6.932  0.00  0.00    -0.143 NA
ATOM     16  C   UNL     1       1.865   4.913  -6.367  0.00  0.00    +0.248 C 
ATOM     17  O   UNL     1       1.379   3.786  -6.046  0.00  0.00    -0.273 OA
ATOM     18  C   UNL     1       3.337   5.145  -6.490  0.00  0.00    +0.089 C 
ATOM     19  C   UNL     1       3.672   5.991  -7.714  0.00  0.00    +0.039 C 
ENDBRANCH   5  12
TORSDOF 1
ENDMDL
MODEL 6
REMARK VINA RESULT:      -7.0      1.664      1.995
REMARK  Name = 
REMARK  1 active torsions:
REMARK  status: ('A' for Active; 'I' for Inactive)
REMARK    1  A    between atoms: N_9  and  C_10
REMARK                            x       y       z     vdW  Elec       q    Type
REMARK                         _______ _______ _______ _____ _____    ______ ____
ROOT
ATOM      1  N   UNL     1       1.256   5.577  -0.338  0.00  0.00    -0.128 NA
ATOM      2  C   UNL     1       0.120   6.207  -0.898  0.00  0.00    +0.087 A 
ATOM      3  C   UNL     1      -0.092   6.174  -2.266  0.00  0.00    +0.019 A 
ATOM      4  C   UNL     1       0.833   6.031  -3.424  0.00  0.00    +0.122 C 
ATOM      5  N   UNL     1       0.014   5.561  -4.527  0.00  0.00    -0.265 N 
ATOM      6  C   UNL     1      -1.336   5.807  -4.113  0.00  0.00    +0.249 C 
ATOM      7  O   UNL     1      -2.330   5.507  -4.820  0.00  0.00    -0.270 OA
ATOM      8  C   UNL     1      -1.395   6.251  -2.731  0.00  0.00    +0.053 A 
ATOM      9  C   UNL     1      -2.353   6.902  -1.957  0.00  0.00    +0.004 A 
ATOM     10  C   UNL     1      -1.958   7.404  -0.724  0.00  0.00    +0.002 A 
ATOM     11  C   UNL     1      -0.875   6.788  -0.123  0.00  0.00    +0.018 A 
ENDROOT
BRANCH   5  12
ATOM     12  C   UNL     1       0.419   6.248  -5.914  0.00  0.00    +0.155 C 
ATOM     13  C   UNL     1       0.672   4.820  -6.676  0.00  0.00    +0.266 C 
ATOM     14  O   UNL     1       1.180   3.922  -5.966  0.00  0.00    -0.271 OA
ATOM     15  N   UNL     1       1.316   5.245  -7.894  0.00  0.00    -0.143 NA
ATOM     16  C   UNL     1       1.862   6.572  -7.983  0.00  0.00    +0.248 C 
ATOM     17  O   UNL     1       1.528   7.375  -8.906  0.00  0.00    -0.273 OA
ATOM     18  C   UNL     1       2.584   7.023  -6.752  0.00  0.00    +0.089 C 
ATOM     19  C   UNL     1       2.030   6.353  -5.500  0.00  0.00    +0.039 C 
ENDBRANCH   5  12
TORSDOF 1
ENDMDL
MODEL 7
REMARK VINA RESULT:      -6.9      3.397      5.602
REMARK  Name = 
REMARK  1 active torsions:
REMARK  status: ('A' for Active; 'I' for Inactive)
REMARK    1  A    between atoms: N_9  and  C_10
REMARK                            x       y       z     vdW  Elec       q    Type
REMARK                         _______ _______ _______ _____ _____    ______ ____
ROOT
ATOM      1  N   UNL     1       3.754   6.183 -10.467  0.00  0.00    -0.128 NA
ATOM      2  C   UNL     1       2.528   5.797  -9.878  0.00  0.00    +0.087 A 
ATOM      3  C   UNL     1       2.350   5.897  -8.507  0.00  0.00    +0.019 A 
ATOM      4  C   UNL     1       3.305   5.880  -7.365  0.00  0.00    +0.122 C 
ATOM      5  N   UNL     1       2.614   6.523  -6.263  0.00  0.00    -0.265 N 
ATOM      6  C   UNL     1       1.233   6.537  -6.653  0.00  0.00    +0.249 C 
ATOM      7  O   UNL     1       0.330   7.038  -5.940  0.00  0.00    -0.270 OA
ATOM      8  C   UNL     1       1.065   6.085  -8.024  0.00  0.00    +0.053 A 
ATOM      9  C   UNL     1      -0.015   5.618  -8.769  0.00  0.00    +0.004 A 
ATOM     10  C   UNL     1       0.253   5.025  -9.996  0.00  0.00    +0.002 A 
ATOM     11  C   UNL     1       1.424   5.406 -10.625  0.00  0.00    +0.018 A 
ENDROOT
BRANCH   5  12
ATOM     12  C   UNL     1       2.901   5.798  -4.866  0.00  0.00    +0.155 C 
ATOM     13  C   UNL     1       3.468   7.157  -4.150  0.00  0.00    +0.266 C 
ATOM     14  O   UNL     1       4.133   7.912  -4.894  0.00  0.00    -0.271 OA
ATOM     15  N   UNL     1       4.040   6.634  -2.934  0.00  0.00    -0.143 NA
ATOM     16  C   UNL     1       4.298   5.224  -2.819  0.00  0.00    +0.248 C 
ATOM     17  O   UNL     1       3.826   4.530  -1.868  0.00  0.00    -0.273 OA
ATOM     18  C   UNL     1       4.877   4.604  -4.052  0.00  0.00    +0.089 C 
ATOM     19  C   UNL     1       4.443   5.347  -5.310  0.00  0.00    +0.039 C 
ENDBRANCH   5  12
TORSDOF 1
ENDMDL
MODEL 8
REMARK VINA RESULT:      -6.9      3.802      6.535
REMARK  Name = 
REMARK  1 active torsions:
REMARK  status: ('A' for Active; 'I' for Inactive)
REMARK    1  A    between atoms: N_9  and  C_10
REMARK                            x       y       z     vdW  Elec       q    Type
REMARK                         _______ _______ _______ _____ _____    ______ ____
ROOT
ATOM      1  N   UNL     1       6.575   5.417  -9.375  0.00  0.00    -0.128 NA
ATOM      2  C   UNL     1       5.167   5.520  -9.464  0.00  0.00    +0.087 A 
ATOM      3  C   UNL     1       4.422   5.874  -8.351  0.00  0.00    +0.019 A 
ATOM      4  C   UNL     1       4.669   5.735  -6.890  0.00  0.00    +0.122 C 
ATOM      5  N   UNL     1       3.813   6.716  -6.249  0.00  0.00    -0.265 N 
ATOM      6  C   UNL     1       2.869   7.096  -7.261  0.00  0.00    +0.249 C 
ATOM      7  O   UNL     1       1.971   7.951  -7.067  0.00  0.00    -0.270 OA
ATOM      8  C   UNL     1       3.211   6.518  -8.549  0.00  0.00    +0.053 A 
ATOM      9  C   UNL     1       2.514   6.299  -9.735  0.00  0.00    +0.004 A 
ATOM     10  C   UNL     1       3.098   5.475 -10.688  0.00  0.00    +0.002 A 
ATOM     11  C   UNL     1       4.477   5.379 -10.661  0.00  0.00    +0.018 A 
ENDROOT
BRANCH   5  12
ATOM     12  C   UNL     1       3.154   6.156  -4.904  0.00  0.00    +0.155 C 
ATOM     13  C   UNL     1       3.603   7.453  -4.011  0.00  0.00    +0.266 C 
ATOM     14  O   UNL     1       4.722   7.935  -4.300  0.00  0.00    -0.271 OA
ATOM     15  N   UNL     1       3.322   7.002  -2.671  0.00  0.00    -0.143 NA
ATOM     16  C   UNL     1       3.116   5.600  -2.422  0.00  0.00    +0.248 C 
ATOM     17  O   UNL     1       2.067   5.167  -1.855  0.00  0.00    -0.273 OA
ATOM     18  C   UNL     1       4.060   4.702  -3.156  0.00  0.00    +0.089 C 
ATOM     19  C   UNL     1       4.533   5.330  -4.462  0.00  0.00    +0.039 C 
ENDBRANCH   5  12
TORSDOF 1
ENDMDL
MODEL 9
REMARK VINA RESULT:      -6.7      3.780      7.337
REMARK  Name = 
REMARK  1 active torsions:
REMARK  status: ('A' for Active; 'I' for Inactive)
REMARK    1  A    between atoms: N_9  and  C_10
REMARK                            x       y       z     vdW  Elec       q    Type
REMARK                         _______ _______ _______ _____ _____    ______ ____
ROOT
ATOM      1  N   UNL     1       5.045   6.222 -13.050  0.00  0.00    -0.128 NA
ATOM      2  C   UNL     1       3.728   5.710 -12.990  0.00  0.00    +0.087 A 
ATOM      3  C   UNL     1       2.991   5.818 -11.821  0.00  0.00    +0.019 A 
ATOM      4  C   UNL     1       3.386   5.934 -10.390  0.00  0.00    +0.122 C 
ATOM      5  N   UNL     1       2.243   6.515  -9.711  0.00  0.00    -0.265 N 
ATOM      6  C   UNL     1       1.153   6.363 -10.631  0.00  0.00    +0.249 C 
ATOM      7  O   UNL     1      -0.008   6.771 -10.383  0.00  0.00    -0.270 OA
ATOM      8  C   UNL     1       1.610   5.866 -11.918  0.00  0.00    +0.053 A 
ATOM      9  C   UNL     1       0.985   5.263 -13.006  0.00  0.00    +0.004 A 
ATOM     10  C   UNL     1       1.791   4.679 -13.975  0.00  0.00    +0.002 A 
ATOM     11  C   UNL     1       3.075   5.179 -14.095  0.00  0.00    +0.018 A 
ENDROOT
BRANCH   5  12
ATOM     12  C   UNL     1       1.996   5.857  -8.274  0.00  0.00    +0.155 C 
ATOM     13  C   UNL     1       1.680   7.291  -7.548  0.00  0.00    +0.266 C 
ATOM     14  O   UNL     1       2.362   8.257  -7.959  0.00  0.00    -0.271 OA
ATOM     15  N   UNL     1       1.693   6.925  -6.153  0.00  0.00    -0.143 NA
ATOM     16  C   UNL     1       2.275   5.672  -5.753  0.00  0.00    +0.248 C 
ATOM     17  O   UNL     1       1.628   4.818  -5.074  0.00  0.00    -0.273 OA
ATOM     18  C   UNL     1       3.551   5.335  -6.457  0.00  0.00    +0.089 C 
ATOM     19  C   UNL     1       3.604   5.956  -7.849  0.00  0.00    +0.039 C 
ENDBRANCH   5  12
TORSDOF 1
ENDMDL
