MODEL 1
REMARK VINA RESULT:     -10.3      0.000      0.000
REMARK  Name = 
REMARK  2 active torsions:
REMARK  status: ('A' for Active; 'I' for Inactive)
REMARK    1  A    between atoms: C_11  and  C_12
REMARK    2  A    between atoms: C_15  and  C_16
REMARK                            x       y       z     vdW  Elec       q    Type
REMARK                         _______ _______ _______ _____ _____    ______ ____
ROOT
ATOM      1  O   UNL     1       1.186   5.378  -2.890  0.00  0.00    -0.283 OA
ATOM      2  C   UNL     1       1.179   5.430  -4.068  0.00  0.00    +0.234 C 
ATOM      3  C   UNL     1       2.377   5.302  -4.906  0.00  0.00    +0.233 C 
ATOM      4  O   UNL     1       3.621   5.289  -4.268  0.00  0.00    -0.283 OA
ATOM      5  C   UNL     1       2.269   4.932  -6.183  0.00  0.00    +0.059 C 
ATOM      6  C   UNL     1       0.986   4.795  -6.763  0.00  0.00    +0.195 C 
ATOM      7  O   UNL     1       0.938   4.634  -8.020  0.00  0.00    -0.287 OA
ATOM      8  C   UNL     1      -0.284   5.061  -6.061  0.00  0.00    +0.042 A 
ATOM      9  C   UNL     1      -1.344   5.655  -6.737  0.00  0.00    +0.003 A 
ATOM     10  C   UNL     1      -2.451   6.144  -6.052  0.00  0.00    +0.000 A 
ATOM     11  C   UNL     1      -2.396   6.313  -4.683  0.00  0.00    +0.000 A 
ATOM     12  C   UNL     1      -1.235   5.902  -4.068  0.00  0.00    +0.003 A 
ATOM     13  C   UNL     1      -0.131   5.436  -4.732  0.00  0.00    +0.045 A 
ENDROOT
BRANCH   5  14
ATOM     14  C   UNL     1       3.531   5.441  -7.042  0.00  0.00    +0.029 C 
ATOM     15  C   UNL     1       2.783   6.760  -7.691  0.00  0.00    +0.005 C 
ATOM     16  C   UNL     1       3.250   6.842  -9.094  0.00  0.00    +0.005 C 
ATOM     17  C   UNL     1       4.789   6.260  -9.030  0.00  0.00    +0.022 C 
ATOM     18  C   UNL     1       4.283   4.721  -9.327  0.00  0.00    +0.005 C 
ATOM     19  C   UNL     1       3.141   4.497  -8.336  0.00  0.00    +0.005 C 
BRANCH  17  20
ATOM     20  C   UNL     1       5.089   6.602 -10.578  0.00  0.00    -0.022 A 
ATOM     21  C   UNL     1       5.241   5.436 -11.324  0.00  0.00    -0.003 A 
ATOM     22  C   UNL     1       6.193   5.312 -12.333  0.00  0.00    +0.011 A 
ATOM     23  C   UNL     1       7.091   6.359 -12.507  0.00  0.00    +0.058 A 
ATOM     24 CL   UNL     1       8.802   6.076 -12.827  0.00  0.00    -0.082 Cl
ATOM     25  C   UNL     1       6.602   7.597 -12.100  0.00  0.00    +0.011 A 
ATOM     26  C   UNL     1       5.962   7.602 -10.857  0.00  0.00    -0.003 A 
ENDBRANCH  17  20
ENDBRANCH   5  14
TORSDOF 2
ENDMDL
MODEL 2
REMARK VINA RESULT:     -10.1      3.761      8.372
REMARK  Name = 
REMARK  2 active torsions:
REMARK  status: ('A' for Active; 'I' for Inactive)
REMARK    1  A    between atoms: C_11  and  C_12
REMARK    2  A    between atoms: C_15  and  C_16
REMARK                            x       y       z     vdW  Elec       q    Type
REMARK                         _______ _______ _______ _____ _____    ______ ____
ROOT
ATOM      1  O   UNL     1       3.431   5.898 -12.670  0.00  0.00    -0.283 OA
ATOM      2  C   UNL     1       3.408   5.791 -11.497  0.00  0.00    +0.234 C 
ATOM      3  C   UNL     1       2.179   5.662 -10.704  0.00  0.00    +0.233 C 
ATOM      4  O   UNL     1       0.959   5.851 -11.359  0.00  0.00    -0.283 OA
ATOM      5  C   UNL     1       2.216   5.115  -9.489  0.00  0.00    +0.059 C 
ATOM      6  C   UNL     1       3.464   4.782  -8.911  0.00  0.00    +0.195 C 
ATOM      7  O   UNL     1       3.460   4.450  -7.687  0.00  0.00    -0.287 OA
ATOM      8  C   UNL     1       4.773   5.023  -9.548  0.00  0.00    +0.042 A 
ATOM      9  C   UNL     1       5.861   5.419  -8.779  0.00  0.00    +0.003 A 
ATOM     10  C   UNL     1       7.027   5.891  -9.372  0.00  0.00    +0.000 A 
ATOM     11  C   UNL     1       7.028   6.248 -10.706  0.00  0.00    +0.000 A 
ATOM     12  C   UNL     1       5.853   6.033 -11.391  0.00  0.00    +0.003 A 
ATOM     13  C   UNL     1       4.693   5.586 -10.816  0.00  0.00    +0.045 A 
ENDROOT
BRANCH   5  14
ATOM     14  C   UNL     1       0.979   5.618  -8.589  0.00  0.00    +0.029 C 
ATOM     15  C   UNL     1       1.729   6.961  -7.995  0.00  0.00    +0.005 C 
ATOM     16  C   UNL     1       1.316   7.061  -6.576  0.00  0.00    +0.005 C 
ATOM     17  C   UNL     1      -0.214   6.452  -6.569  0.00  0.00    +0.022 C 
ATOM     18  C   UNL     1       0.331   4.928  -6.264  0.00  0.00    +0.005 C 
ATOM     19  C   UNL     1       1.437   4.706  -7.295  0.00  0.00    +0.005 C 
BRANCH  17  20
ATOM     20  C   UNL     1      -0.459   6.818  -5.017  0.00  0.00    -0.022 A 
ATOM     21  C   UNL     1      -0.579   5.664  -4.247  0.00  0.00    -0.003 A 
ATOM     22  C   UNL     1      -1.494   5.552  -3.202  0.00  0.00    +0.011 A 
ATOM     23  C   UNL     1      -2.389   6.599  -3.013  0.00  0.00    +0.058 A 
ATOM     24 CL   UNL     1      -4.086   6.316  -2.626  0.00  0.00    -0.082 Cl
ATOM     25  C   UNL     1      -1.920   7.832  -3.456  0.00  0.00    +0.011 A 
ATOM     26  C   UNL     1      -1.325   7.819  -4.722  0.00  0.00    -0.003 A 
ENDBRANCH  17  20
ENDBRANCH   5  14
TORSDOF 2
ENDMDL
MODEL 3
REMARK VINA RESULT:      -9.8      3.743      8.646
REMARK  Name = 
REMARK  2 active torsions:
REMARK  status: ('A' for Active; 'I' for Inactive)
REMARK    1  A    between atoms: C_11  and  C_12
REMARK    2  A    between atoms: C_15  and  C_16
REMARK                            x       y       z     vdW  Elec       q    Type
REMARK                         _______ _______ _______ _____ _____    ______ ____
ROOT
ATOM      1  O   UNL     1       2.516   6.400 -11.890  0.00  0.00    -0.283 OA
ATOM      2  C   UNL     1       2.687   6.235 -10.735  0.00  0.00    +0.234 C 
ATOM      3  C   UNL     1       1.618   6.271  -9.730  0.00  0.00    +0.233 C 
ATOM      4  O   UNL     1       0.351   6.696 -10.141  0.00  0.00    -0.283 OA
ATOM      5  C   UNL     1       1.778   5.661  -8.555  0.00  0.00    +0.059 C 
ATOM      6  C   UNL     1       3.033   5.093  -8.230  0.00  0.00    +0.195 C 
ATOM      7  O   UNL     1       3.192   4.700  -7.034  0.00  0.00    -0.287 OA
ATOM      8  C   UNL     1       4.226   5.146  -9.095  0.00  0.00    +0.042 A 
ATOM      9  C   UNL     1       5.488   5.312  -8.534  0.00  0.00    +0.003 A 
ATOM     10  C   UNL     1       6.591   5.614  -9.324  0.00  0.00    +0.000 A 
ATOM     11  C   UNL     1       6.413   6.037 -10.627  0.00  0.00    +0.000 A 
ATOM     12  C   UNL     1       5.115   6.059 -11.084  0.00  0.00    +0.003 A 
ATOM     13  C   UNL     1       4.018   5.782 -10.313  0.00  0.00    +0.045 A 
ENDROOT
BRANCH   5  14
ATOM     14  C   UNL     1       0.831   6.314  -7.429  0.00  0.00    +0.029 C 
ATOM     15  C   UNL     1       1.580   5.611  -6.140  0.00  0.00    +0.005 C 
ATOM     16  C   UNL     1       0.500   5.235  -5.198  0.00  0.00    +0.005 C 
ATOM     17  C   UNL     1      -0.638   6.405  -5.420  0.00  0.00    +0.022 C 
ATOM     18  C   UNL     1      -1.399   5.526  -6.587  0.00  0.00    +0.005 C 
ATOM     19  C   UNL     1      -0.278   5.099  -7.535  0.00  0.00    +0.005 C 
BRANCH  17  20
ATOM     20  C   UNL     1      -1.570   5.866  -4.219  0.00  0.00    -0.022 A 
ATOM     21  C   UNL     1      -2.654   6.714  -4.012  0.00  0.00    -0.003 A 
ATOM     22  C   UNL     1      -3.131   7.024  -2.740  0.00  0.00    +0.011 A 
ATOM     23  C   UNL     1      -2.412   6.551  -1.648  0.00  0.00    +0.058 A 
ATOM     24 CL   UNL     1      -2.125   7.545  -0.220  0.00  0.00    -0.082 Cl
ATOM     25  C   UNL     1      -1.692   5.388  -1.905  0.00  0.00    +0.011 A 
ATOM     26  C   UNL     1      -0.966   5.393  -3.101  0.00  0.00    -0.003 A 
ENDBRANCH  17  20
ENDBRANCH   5  14
TORSDOF 2
ENDMDL
MODEL 4
REMARK VINA RESULT:      -9.8      1.780      3.273
REMARK  Name = 
REMARK  2 active torsions:
REMARK  status: ('A' for Active; 'I' for Inactive)
REMARK    1  A    between atoms: C_11  and  C_12
REMARK    2  A    between atoms: C_15  and  C_16
REMARK                            x       y       z     vdW  Elec       q    Type
REMARK                         _______ _______ _______ _____ _____    ______ ____
ROOT
ATOM      1  O   UNL     1      -2.247   5.565  -4.067  0.00  0.00    -0.283 OA
ATOM      2  C   UNL     1      -1.126   5.659  -4.419  0.00  0.00    +0.234 C 
ATOM      3  C   UNL     1      -0.711   5.812  -5.820  0.00  0.00    +0.233 C 
ATOM      4  O   UNL     1      -1.688   5.665  -6.808  0.00  0.00    -0.283 OA
ATOM      5  C   UNL     1       0.476   6.342  -6.115  0.00  0.00    +0.059 C 
ATOM      6  C   UNL     1       1.389   6.633  -5.074  0.00  0.00    +0.195 C 
ATOM      7  O   UNL     1       2.568   6.950  -5.417  0.00  0.00    -0.287 OA
ATOM      8  C   UNL     1       1.143   6.364  -3.645  0.00  0.00    +0.042 A 
ATOM      9  C   UNL     1       2.181   5.927  -2.828  0.00  0.00    +0.003 A 
ATOM     10  C   UNL     1       1.933   5.431  -1.554  0.00  0.00    +0.000 A 
ATOM     11  C   UNL     1       0.646   5.091  -1.183  0.00  0.00    +0.000 A 
ATOM     12  C   UNL     1      -0.338   5.346  -2.111  0.00  0.00    +0.003 A 
ATOM     13  C   UNL     1      -0.106   5.819  -3.376  0.00  0.00    +0.045 A 
ENDROOT
BRANCH   5  14
ATOM     14  C   UNL     1       0.979   5.863  -7.568  0.00  0.00    +0.029 C 
ATOM     15  C   UNL     1       1.977   4.669  -7.023  0.00  0.00    +0.005 C 
ATOM     16  C   UNL     1       3.178   4.718  -7.888  0.00  0.00    +0.005 C 
ATOM     17  C   UNL     1       2.589   5.202  -9.349  0.00  0.00    +0.022 C 
ATOM     18  C   UNL     1       2.831   6.791  -8.985  0.00  0.00    +0.005 C 
ATOM     19  C   UNL     1       2.203   6.965  -7.603  0.00  0.00    +0.005 C 
BRANCH  17  20
ATOM     20  C   UNL     1       4.009   5.019 -10.093  0.00  0.00    -0.022 A 
ATOM     21  C   UNL     1       5.064   5.207  -9.204  0.00  0.00    -0.003 A 
ATOM     22  C   UNL     1       6.235   5.873  -9.562  0.00  0.00    +0.011 A 
ATOM     23  C   UNL     1       6.283   6.465 -10.819  0.00  0.00    +0.058 A 
ATOM     24 CL   UNL     1       6.998   8.057 -11.072  0.00  0.00    -0.082 Cl
ATOM     25  C   UNL     1       5.461   5.857 -11.763  0.00  0.00    +0.011 A 
ATOM     26  C   UNL     1       4.165   5.570 -11.322  0.00  0.00    -0.003 A 
ENDBRANCH  17  20
ENDBRANCH   5  14
TORSDOF 2
ENDMDL
MODEL 5
REMARK VINA RESULT:      -9.7      2.429      4.082
REMARK  Name = 
REMARK  2 active torsions:
REMARK  status: ('A' for Active; 'I' for Inactive)
REMARK    1  A    between atoms: C_11  and  C_12
REMARK    2  A    between atoms: C_15  and  C_16
REMARK                            x       y       z     vdW  Elec       q    Type
REMARK                         _______ _______ _______ _____ _____    ______ ____
ROOT
ATOM      1  O   UNL     1       0.362   5.967  -1.863  0.00  0.00    -0.283 OA
ATOM      2  C   UNL     1       1.303   6.126  -2.556  0.00  0.00    +0.234 C 
ATOM      3  C   UNL     1       1.302   5.914  -4.009  0.00  0.00    +0.233 C 
ATOM      4  O   UNL     1       0.171   5.324  -4.580  0.00  0.00    -0.283 OA
ATOM      5  C   UNL     1       2.215   6.511  -4.776  0.00  0.00    +0.059 C 
ATOM      6  C   UNL     1       3.265   7.241  -4.171  0.00  0.00    +0.195 C 
ATOM      7  O   UNL     1       4.209   7.622  -4.928  0.00  0.00    -0.287 OA
ATOM      8  C   UNL     1       3.459   7.379  -2.716  0.00  0.00    +0.042 A 
ATOM      9  C   UNL     1       4.742   7.379  -2.179  0.00  0.00    +0.003 A 
ATOM     10  C   UNL     1       4.949   7.256  -0.811  0.00  0.00    +0.000 A 
ATOM     11  C   UNL     1       3.917   6.845   0.010  0.00  0.00    +0.000 A 
ATOM     12  C   UNL     1       2.699   6.651  -0.600  0.00  0.00    +0.003 A 
ATOM     13  C   UNL     1       2.484   6.751  -1.950  0.00  0.00    +0.045 A 
ENDROOT
BRANCH   5  14
ATOM     14  C   UNL     1       2.434   5.702  -6.151  0.00  0.00    +0.029 C 
ATOM     15  C   UNL     1       3.976   5.217  -5.825  0.00  0.00    +0.005 C 
ATOM     16  C   UNL     1       4.712   5.321  -7.106  0.00  0.00    +0.005 C 
ATOM     17  C   UNL     1       3.572   4.977  -8.244  0.00  0.00    +0.022 C 
ATOM     18  C   UNL     1       3.159   6.564  -8.394  0.00  0.00    +0.005 C 
ATOM     19  C   UNL     1       2.952   7.042  -6.957  0.00  0.00    +0.005 C 
BRANCH  17  20
ATOM     20  C   UNL     1       4.634   5.001  -9.458  0.00  0.00    -0.022 A 
ATOM     21  C   UNL     1       5.905   5.338  -9.001  0.00  0.00    -0.003 A 
ATOM     22  C   UNL     1       6.765   6.166  -9.720  0.00  0.00    +0.011 A 
ATOM     23  C   UNL     1       6.272   6.760 -10.876  0.00  0.00    +0.058 A 
ATOM     24 CL   UNL     1       6.625   8.439 -11.285  0.00  0.00    -0.082 Cl
ATOM     25  C   UNL     1       5.251   6.041 -11.492  0.00  0.00    +0.011 A 
ATOM     26  C   UNL     1       4.256   5.570 -10.630  0.00  0.00    -0.003 A 
ENDBRANCH  17  20
ENDBRANCH   5  14
TORSDOF 2
ENDMDL
MODEL 6
REMARK VINA RESULT:      -9.6      3.358      7.999
REMARK  Name = 
REMARK  2 active torsions:
REMARK  status: ('A' for Active; 'I' for Inactive)
REMARK    1  A    between atoms: C_11  and  C_12
REMARK    2  A    between atoms: C_15  and  C_16
REMARK                            x       y       z     vdW  Elec       q    Type
REMARK                         _______ _______ _______ _____ _____    ______ ____
ROOT
ATOM      1  O   UNL     1       3.478   5.764 -12.673  0.00  0.00    -0.283 OA
ATOM      2  C   UNL     1       3.757   5.815 -11.528  0.00  0.00    +0.234 C 
ATOM      3  C   UNL     1       2.798   5.605 -10.436  0.00  0.00    +0.233 C 
ATOM      4  O   UNL     1       1.444   5.510 -10.766  0.00  0.00    -0.283 OA
ATOM      5  C   UNL     1       3.227   5.242  -9.226  0.00  0.00    +0.059 C 
ATOM      6  C   UNL     1       4.616   5.190  -8.965  0.00  0.00    +0.195 C 
ATOM      7  O   UNL     1       4.967   5.030  -7.756  0.00  0.00    -0.287 OA
ATOM      8  C   UNL     1       5.666   5.542  -9.939  0.00  0.00    +0.042 A 
ATOM      9  C   UNL     1       6.814   6.205  -9.518  0.00  0.00    +0.003 A 
ATOM     10  C   UNL     1       7.695   6.768 -10.434  0.00  0.00    +0.000 A 
ATOM     11  C   UNL     1       7.311   6.935 -11.750  0.00  0.00    +0.000 A 
ATOM     12  C   UNL     1       6.067   6.449 -12.084  0.00  0.00    +0.003 A 
ATOM     13  C   UNL     1       5.182   5.908 -11.189  0.00  0.00    +0.045 A 
ENDROOT
BRANCH   5  14
ATOM     14  C   UNL     1       2.170   5.663  -8.087  0.00  0.00    +0.029 C 
ATOM     15  C   UNL     1       3.013   6.970  -7.540  0.00  0.00    +0.005 C 
ATOM     16  C   UNL     1       2.860   6.964  -6.067  0.00  0.00    +0.005 C 
ATOM     17  C   UNL     1       1.356   6.336  -5.831  0.00  0.00    +0.022 C 
ATOM     18  C   UNL     1       1.947   4.801  -5.740  0.00  0.00    +0.005 C 
ATOM     19  C   UNL     1       2.852   4.667  -6.965  0.00  0.00    +0.005 C 
BRANCH  17  20
ATOM     20  C   UNL     1       1.392   6.587  -4.238  0.00  0.00    -0.022 A 
ATOM     21  C   UNL     1       2.645   7.041  -3.835  0.00  0.00    -0.003 A 
ATOM     22  C   UNL     1       3.246   6.624  -2.649  0.00  0.00    +0.011 A 
ATOM     23  C   UNL     1       2.608   5.630  -1.916  0.00  0.00    +0.058 A 
ATOM     24 CL   UNL     1       3.502   4.313  -1.156  0.00  0.00    -0.082 Cl
ATOM     25  C   UNL     1       1.229   5.588  -2.100  0.00  0.00    +0.011 A 
ATOM     26  C   UNL     1       0.807   5.669  -3.430  0.00  0.00    -0.003 A 
ENDBRANCH  17  20
ENDBRANCH   5  14
TORSDOF 2
ENDMDL
MODEL 7
REMARK VINA RESULT:      -9.5      3.348      8.151
REMARK  Name = 
REMARK  2 active torsions:
REMARK  status: ('A' for Active; 'I' for Inactive)
REMARK    1  A    between atoms: C_11  and  C_12
REMARK    2  A    between atoms: C_15  and  C_16
REMARK                            x       y       z     vdW  Elec       q    Type
REMARK                         _______ _______ _______ _____ _____    ______ ____
ROOT
ATOM      1  O   UNL     1       7.548   5.737  -8.992  0.00  0.00    -0.283 OA
ATOM      2  C   UNL     1       6.555   5.703  -9.627  0.00  0.00    +0.234 C 
ATOM      3  C   UNL     1       5.208   5.634  -9.048  0.00  0.00    +0.233 C 
ATOM      4  O   UNL     1       5.100   5.425  -7.671  0.00  0.00    -0.283 OA
ATOM      5  C   UNL     1       4.151   6.034  -9.756  0.00  0.00    +0.059 C 
ATOM      6  C   UNL     1       4.317   6.398 -11.113  0.00  0.00    +0.195 C 
ATOM      7  O   UNL     1       3.261   6.581 -11.792  0.00  0.00    -0.287 OA
ATOM      8  C   UNL     1       5.596   6.343 -11.845  0.00  0.00    +0.042 A 
ATOM      9  C   UNL     1       5.622   5.949 -13.178  0.00  0.00    +0.003 A 
ATOM     10  C   UNL     1       6.820   5.649 -13.816  0.00  0.00    +0.000 A 
ATOM     11  C   UNL     1       7.968   5.455 -13.074  0.00  0.00    +0.000 A 
ATOM     12  C   UNL     1       7.852   5.651 -11.716  0.00  0.00    +0.003 A 
ATOM     13  C   UNL     1       6.675   5.930 -11.072  0.00  0.00    +0.045 A 
ENDROOT
BRANCH   5  14
ATOM     14  C   UNL     1       2.802   5.328  -9.232  0.00  0.00    +0.029 C 
ATOM     15  C   UNL     1       1.966   6.723  -8.962  0.00  0.00    +0.005 C 
ATOM     16  C   UNL     1       1.205   6.504  -7.710  0.00  0.00    +0.005 C 
ATOM     17  C   UNL     1       0.855   4.895  -7.740  0.00  0.00    +0.022 C 
ATOM     18  C   UNL     1       2.235   4.519  -6.923  0.00  0.00    +0.005 C 
ATOM     19  C   UNL     1       3.338   5.266  -7.674  0.00  0.00    +0.005 C 
BRANCH  17  20
ATOM     20  C   UNL     1      -0.066   4.969  -6.418  0.00  0.00    -0.022 A 
ATOM     21  C   UNL     1      -1.382   5.284  -6.745  0.00  0.00    -0.003 A 
ATOM     22  C   UNL     1      -2.161   6.141  -5.971  0.00  0.00    +0.011 A 
ATOM     23  C   UNL     1      -1.547   6.784  -4.902  0.00  0.00    +0.058 A 
ATOM     24 CL   UNL     1      -1.863   8.478  -4.527  0.00  0.00    -0.082 Cl
ATOM     25  C   UNL     1      -0.461   6.093  -4.374  0.00  0.00    +0.011 A 
ATOM     26  C   UNL     1       0.436   5.587  -5.320  0.00  0.00    -0.003 A 
ENDBRANCH  17  20
ENDBRANCH   5  14
TORSDOF 2
ENDMDL
MODEL 8
REMARK VINA RESULT:      -9.4      1.665      3.005
REMARK  Name = 
REMARK  2 active torsions:
REMARK  status: ('A' for Active; 'I' for Inactive)
REMARK    1  A    between atoms: C_11  and  C_12
REMARK    2  A    between atoms: C_15  and  C_16
REMARK                            x       y       z     vdW  Elec       q    Type
REMARK                         _______ _______ _______ _____ _____    ______ ____
ROOT
ATOM      1  O   UNL     1      -2.799   5.692  -6.626  0.00  0.00    -0.283 OA
ATOM      2  C   UNL     1      -1.786   5.743  -6.025  0.00  0.00    +0.234 C 
ATOM      3  C   UNL     1      -0.456   5.654  -6.640  0.00  0.00    +0.233 C 
ATOM      4  O   UNL     1      -0.386   5.317  -7.994  0.00  0.00    -0.283 OA
ATOM      5  C   UNL     1       0.611   6.146  -6.009  0.00  0.00    +0.059 C 
ATOM      6  C   UNL     1       0.477   6.632  -4.687  0.00  0.00    +0.195 C 
ATOM      7  O   UNL     1       1.549   6.906  -4.065  0.00  0.00    -0.287 OA
ATOM      8  C   UNL     1      -0.777   6.616  -3.911  0.00  0.00    +0.042 A 
ATOM      9  C   UNL     1      -0.750   6.350  -2.546  0.00  0.00    +0.003 A 
ATOM     10  C   UNL     1      -1.918   6.081  -1.843  0.00  0.00    +0.000 A 
ATOM     11  C   UNL     1      -3.083   5.789  -2.524  0.00  0.00    +0.000 A 
ATOM     12  C   UNL     1      -3.015   5.858  -3.897  0.00  0.00    +0.003 A 
ATOM     13  C   UNL     1      -1.867   6.104  -4.604  0.00  0.00    +0.045 A 
ENDROOT
BRANCH   5  14
ATOM     14  C   UNL     1       1.962   5.426  -6.510  0.00  0.00    +0.029 C 
ATOM     15  C   UNL     1       2.788   6.815  -6.840  0.00  0.00    +0.005 C 
ATOM     16  C   UNL     1       3.546   6.549  -8.085  0.00  0.00    +0.005 C 
ATOM     17  C   UNL     1       3.906   4.945  -7.990  0.00  0.00    +0.022 C 
ATOM     18  C   UNL     1       2.525   4.528  -8.785  0.00  0.00    +0.005 C 
ATOM     19  C   UNL     1       1.420   5.298  -8.061  0.00  0.00    +0.005 C 
BRANCH  17  20
ATOM     20  C   UNL     1       4.821   4.970  -9.319  0.00  0.00    -0.022 A 
ATOM     21  C   UNL     1       6.124   5.358  -9.017  0.00  0.00    -0.003 A 
ATOM     22  C   UNL     1       6.867   6.193  -9.848  0.00  0.00    +0.011 A 
ATOM     23  C   UNL     1       6.226   6.742 -10.953  0.00  0.00    +0.058 A 
ATOM     24 CL   UNL     1       6.474   8.419 -11.438  0.00  0.00    -0.082 Cl
ATOM     25  C   UNL     1       5.168   5.975 -11.432  0.00  0.00    +0.011 A 
ATOM     26  C   UNL     1       4.293   5.496 -10.451  0.00  0.00    -0.003 A 
ENDBRANCH  17  20
ENDBRANCH   5  14
TORSDOF 2
ENDMDL
MODEL 9
REMARK VINA RESULT:      -9.0      3.942      7.328
REMARK  Name = 
REMARK  2 active torsions:
REMARK  status: ('A' for Active; 'I' for Inactive)
REMARK    1  A    between atoms: C_11  and  C_12
REMARK    2  A    between atoms: C_15  and  C_16
REMARK                            x       y       z     vdW  Elec       q    Type
REMARK                         _______ _______ _______ _____ _____    ______ ____
ROOT
ATOM      1  O   UNL     1       4.494   5.429 -11.734  0.00  0.00    -0.283 OA
ATOM      2  C   UNL     1       3.868   5.600 -10.750  0.00  0.00    +0.234 C 
ATOM      3  C   UNL     1       4.450   5.669  -9.404  0.00  0.00    +0.233 C 
ATOM      4  O   UNL     1       5.801   5.343  -9.261  0.00  0.00    -0.283 OA
ATOM      5  C   UNL     1       3.794   6.283  -8.418  0.00  0.00    +0.059 C 
ATOM      6  C   UNL     1       2.478   6.750  -8.641  0.00  0.00    +0.195 C 
ATOM      7  O   UNL     1       1.830   7.149  -7.626  0.00  0.00    -0.287 OA
ATOM      8  C   UNL     1       1.732   6.585  -9.903  0.00  0.00    +0.042 A 
ATOM      9  C   UNL     1       0.366   6.324  -9.878  0.00  0.00    +0.003 A 
ATOM     10  C   UNL     1      -0.309   5.919 -11.024  0.00  0.00    +0.000 A 
ATOM     11  C   UNL     1       0.400   5.490 -12.129  0.00  0.00    +0.000 A 
ATOM     12  C   UNL     1       1.772   5.568 -12.036  0.00  0.00    +0.003 A 
ATOM     13  C   UNL     1       2.450   5.948 -10.908  0.00  0.00    +0.045 A 
ENDROOT
BRANCH   5  14
ATOM     14  C   UNL     1       4.260   5.729  -6.980  0.00  0.00    +0.029 C 
ATOM     15  C   UNL     1       2.969   4.729  -6.751  0.00  0.00    +0.005 C 
ATOM     16  C   UNL     1       2.618   4.842  -5.316  0.00  0.00    +0.005 C 
ATOM     17  C   UNL     1       4.067   5.102  -4.577  0.00  0.00    +0.022 C 
ATOM     18  C   UNL     1       3.906   6.736  -4.707  0.00  0.00    +0.005 C 
ATOM     19  C   UNL     1       3.531   6.967  -6.172  0.00  0.00    +0.005 C 
BRANCH  17  20
ATOM     20  C   UNL     1       3.437   5.025  -3.094  0.00  0.00    -0.022 A 
ATOM     21  C   UNL     1       2.292   5.812  -2.999  0.00  0.00    -0.003 A 
ATOM     22  C   UNL     1       1.997   6.569  -1.867  0.00  0.00    +0.011 A 
ATOM     23  C   UNL     1       2.949   6.619  -0.856  0.00  0.00    +0.058 A 
ATOM     24 CL   UNL     1       3.326   8.115  -0.003  0.00  0.00    -0.082 Cl
ATOM     25  C   UNL     1       3.775   5.500  -0.801  0.00  0.00    +0.011 A 
ATOM     26  C   UNL     1       4.281   5.077  -2.035  0.00  0.00    -0.003 A 
ENDBRANCH  17  20
ENDBRANCH   5  14
TORSDOF 2
ENDMDL
