MODEL 1
REMARK VINA RESULT:      -7.3      0.000      0.000
REMARK  Name = 
REMARK  20 active torsions:
REMARK  status: ('A' for Active; 'I' for Inactive)
REMARK    1  A    between atoms: C_2  and  C_4
REMARK    2  A    between atoms: C_4  and  N_5
REMARK    3  A    between atoms: N_5  and  C_6
REMARK    4  A    between atoms: N_5  and  C_17
REMARK    5  A    between atoms: C_6  and  C_7
REMARK    6  A    between atoms: C_7  and  N_8
REMARK    7  A    between atoms: N_8  and  C_9
REMARK    8  A    between atoms: N_8  and  C_13
REMARK    9  A    between atoms: C_9  and  C_10
REMARK   10  A    between atoms: C_13  and  C_14
REMARK   11  A    between atoms: C_17  and  C_18
REMARK   12  A    between atoms: C_18  and  N_19
REMARK   13  A    between atoms: N_19  and  C_20
REMARK   14  A    between atoms: N_19  and  C_24
REMARK   15  A    between atoms: C_20  and  C_21
REMARK   16  A    between atoms: C_24  and  C_25
REMARK   17  A    between atoms: C_24  and  C_34
REMARK   18  A    between atoms: C_25  and  O_26
REMARK   19  A    between atoms: O_26  and  C_27
REMARK   20  A    between atoms: C_27  and  C_28
REMARK                            x       y       z     vdW  Elec       q    Type
REMARK                         _______ _______ _______ _____ _____    ______ ____
ROOT
ATOM      1  C   UNL     1       2.040   4.490  -8.761  0.00  0.00    +0.091 C 
ENDROOT
BRANCH   1   2
ATOM      2  N   UNL     1       2.155   5.072  -7.472  0.00  0.00    -0.252 NA
BRANCH   2   3
ATOM      3  C   UNL     1       1.016   4.282  -6.711  0.00  0.00    +0.192 C 
BRANCH   3   4
ATOM      4  C   UNL     1       1.625   4.622  -5.260  0.00  0.00    +0.381 C 
ATOM      5  O   UNL     1       2.963   4.340  -5.148  0.00  0.00    -0.244 OA
ATOM      6  O   UNL     1       0.865   4.949  -4.362  0.00  0.00    -0.244 OA
ENDBRANCH   3   4
BRANCH   3   7
ATOM      7  C   UNL     1       0.004   5.580  -6.696  0.00  0.00    +0.170 C 
BRANCH   7   8
ATOM      8  O   UNL     1      -1.227   4.909  -6.747  0.00  0.00    -0.347 OA
BRANCH   8   9
ATOM      9  C   UNL     1      -2.202   5.834  -6.422  0.00  0.00    +0.169 C 
BRANCH   9  10
ATOM     10  C   UNL     1      -2.290   6.117  -4.975  0.00  0.00    +0.007 A 
ATOM     11  C   UNL     1      -1.984   7.410  -4.571  0.00  0.00    -0.002 A 
ATOM     12  C   UNL     1      -2.185   7.782  -3.263  0.00  0.00    -0.000 A 
ATOM     13  C   UNL     1      -2.735   6.933  -2.334  0.00  0.00    -0.000 A 
ATOM     14  C   UNL     1      -3.075   5.661  -2.729  0.00  0.00    -0.000 A 
ATOM     15  C   UNL     1      -2.920   5.307  -4.061  0.00  0.00    -0.002 A 
ENDBRANCH   9  10
ENDBRANCH   8   9
ENDBRANCH   7   8
ENDBRANCH   3   7
ENDBRANCH   2   3
BRANCH   2  16
ATOM     16  C   UNL     1       1.507   6.381  -7.618  0.00  0.00    +0.188 C 
BRANCH  16  17
ATOM     17  C   UNL     1       2.429   7.497  -7.364  0.00  0.00    +0.381 C 
ATOM     18  O   UNL     1       2.393   8.697  -8.075  0.00  0.00    -0.244 OA
ATOM     19  O   UNL     1       3.240   7.443  -6.411  0.00  0.00    -0.244 OA
ENDBRANCH  16  17
ENDBRANCH   2  16
ENDBRANCH   1   2
BRANCH   1  20
ATOM     20  C   UNL     1       1.191   4.954  -9.782  0.00  0.00    +0.090 C 
BRANCH  20  21
ATOM     21  N   UNL     1       1.516   5.275 -11.080  0.00  0.00    -0.261 NA
BRANCH  21  22
ATOM     22  C   UNL     1       0.518   5.613 -12.021  0.00  0.00    +0.188 C 
BRANCH  22  24
ATOM     23  O   UNL     1      -0.383   7.552 -11.381  0.00  0.00    -0.244 OA
ATOM     24  C   UNL     1       0.259   7.084 -12.117  0.00  0.00    +0.381 C 
ATOM     25  O   UNL     1       0.740   7.847 -13.188  0.00  0.00    -0.244 OA
ENDBRANCH  22  24
ENDBRANCH  21  22
BRANCH  21  26
ATOM     26  C   UNL     1       2.706   6.082 -11.133  0.00  0.00    +0.090 C 
BRANCH  26  27
ATOM     27  C   UNL     1       3.726   5.501 -12.072  0.00  0.00    +0.091 C 
BRANCH  27  28
ATOM     28  N   UNL     1       5.031   5.757 -11.532  0.00  0.00    -0.252 NA
BRANCH  28  29
ATOM     29  C   UNL     1       5.031   6.342 -10.225  0.00  0.00    +0.188 C 
BRANCH  29  30
ATOM     30  C   UNL     1       5.938   5.690  -9.265  0.00  0.00    +0.381 C 
ATOM     31  O   UNL     1       5.412   4.955  -8.211  0.00  0.00    -0.244 OA
ATOM     32  O   UNL     1       7.155   5.606  -9.573  0.00  0.00    -0.244 OA
ENDBRANCH  29  30
ENDBRANCH  28  29
BRANCH  28  33
ATOM     33  C   UNL     1       5.837   6.448 -12.499  0.00  0.00    +0.188 C 
BRANCH  33  34
ATOM     34  C   UNL     1       6.491   5.392 -13.335  0.00  0.00    +0.381 C 
ATOM     35  O   UNL     1       6.783   5.773 -14.648  0.00  0.00    -0.244 OA
ATOM     36  O   UNL     1       7.384   4.683 -12.779  0.00  0.00    -0.244 OA
ENDBRANCH  33  34
ENDBRANCH  28  33
ENDBRANCH  27  28
ENDBRANCH  26  27
ENDBRANCH  21  26
ENDBRANCH  20  21
ENDBRANCH   1  20
TORSDOF 20
ENDMDL
MODEL 2
REMARK VINA RESULT:      -7.1      1.969      4.099
REMARK  Name = 
REMARK  20 active torsions:
REMARK  status: ('A' for Active; 'I' for Inactive)
REMARK    1  A    between atoms: C_2  and  C_4
REMARK    2  A    between atoms: C_4  and  N_5
REMARK    3  A    between atoms: N_5  and  C_6
REMARK    4  A    between atoms: N_5  and  C_17
REMARK    5  A    between atoms: C_6  and  C_7
REMARK    6  A    between atoms: C_7  and  N_8
REMARK    7  A    between atoms: N_8  and  C_9
REMARK    8  A    between atoms: N_8  and  C_13
REMARK    9  A    between atoms: C_9  and  C_10
REMARK   10  A    between atoms: C_13  and  C_14
REMARK   11  A    between atoms: C_17  and  C_18
REMARK   12  A    between atoms: C_18  and  N_19
REMARK   13  A    between atoms: N_19  and  C_20
REMARK   14  A    between atoms: N_19  and  C_24
REMARK   15  A    between atoms: C_20  and  C_21
REMARK   16  A    between atoms: C_24  and  C_25
REMARK   17  A    between atoms: C_24  and  C_34
REMARK   18  A    between atoms: C_25  and  O_26
REMARK   19  A    between atoms: O_26  and  C_27
REMARK   20  A    between atoms: C_27  and  C_28
REMARK                            x       y       z     vdW  Elec       q    Type
REMARK                         _______ _______ _______ _____ _____    ______ ____
ROOT
ATOM      1  C   UNL     1       4.600   6.051  -7.251  0.00  0.00    +0.091 C 
ENDROOT
BRANCH   1   2
ATOM      2  N   UNL     1       3.587   5.578  -6.378  0.00  0.00    -0.252 NA
BRANCH   2   3
ATOM      3  C   UNL     1       2.350   5.586  -7.365  0.00  0.00    +0.192 C 
BRANCH   3   4
ATOM      4  C   UNL     1       2.282   3.978  -7.435  0.00  0.00    +0.381 C 
ATOM      5  O   UNL     1       2.397   3.480  -8.709  0.00  0.00    -0.244 OA
ATOM      6  O   UNL     1       1.999   3.354  -6.425  0.00  0.00    -0.244 OA
ENDBRANCH   3   4
BRANCH   3   7
ATOM      7  C   UNL     1       1.259   5.673  -6.135  0.00  0.00    +0.170 C 
BRANCH   7   8
ATOM      8  O   UNL     1       0.186   6.256  -6.826  0.00  0.00    -0.347 OA
BRANCH   8   9
ATOM      9  C   UNL     1      -0.953   5.564  -6.456  0.00  0.00    +0.169 C 
BRANCH   9  10
ATOM     10  C   UNL     1      -1.673   6.175  -5.321  0.00  0.00    +0.007 A 
ATOM     11  C   UNL     1      -2.475   5.333  -4.563  0.00  0.00    -0.002 A 
ATOM     12  C   UNL     1      -3.058   5.801  -3.409  0.00  0.00    -0.000 A 
ATOM     13  C   UNL     1      -2.834   7.071  -2.936  0.00  0.00    -0.000 A 
ATOM     14  C   UNL     1      -2.015   7.905  -3.659  0.00  0.00    -0.000 A 
ATOM     15  C   UNL     1      -1.388   7.412  -4.794  0.00  0.00    -0.002 A 
ENDBRANCH   9  10
ENDBRANCH   8   9
ENDBRANCH   7   8
ENDBRANCH   3   7
ENDBRANCH   2   3
BRANCH   2  16
ATOM     16  C   UNL     1       3.262   6.744  -5.549  0.00  0.00    +0.188 C 
BRANCH  16  17
ATOM     17  C   UNL     1       4.271   6.995  -4.511  0.00  0.00    +0.381 C 
ATOM     18  O   UNL     1       4.977   8.193  -4.402  0.00  0.00    -0.244 OA
ATOM     19  O   UNL     1       4.469   6.152  -3.606  0.00  0.00    -0.244 OA
ENDBRANCH  16  17
ENDBRANCH   2  16
ENDBRANCH   1   2
BRANCH   1  20
ATOM     20  C   UNL     1       5.200   5.295  -8.274  0.00  0.00    +0.090 C 
BRANCH  20  21
ATOM     21  N   UNL     1       5.746   5.742  -9.457  0.00  0.00    -0.261 NA
BRANCH  21  22
ATOM     22  C   UNL     1       7.127   5.611  -9.719  0.00  0.00    +0.188 C 
BRANCH  22  24
ATOM     23  O   UNL     1       7.428   7.674 -10.515  0.00  0.00    -0.244 OA
ATOM     24  C   UNL     1       7.653   6.629 -10.683  0.00  0.00    +0.381 C 
ATOM     25  O   UNL     1       8.340   6.255 -11.844  0.00  0.00    -0.244 OA
ENDBRANCH  22  24
ENDBRANCH  21  22
BRANCH  21  26
ATOM     26  C   UNL     1       4.880   5.454 -10.569  0.00  0.00    +0.090 C 
BRANCH  26  27
ATOM     27  C   UNL     1       3.986   6.618 -10.890  0.00  0.00    +0.091 C 
BRANCH  27  28
ATOM     28  N   UNL     1       3.081   6.217 -11.929  0.00  0.00    -0.252 NA
BRANCH  28  29
ATOM     29  C   UNL     1       1.853   5.648 -11.463  0.00  0.00    +0.188 C 
BRANCH  29  30
ATOM     30  C   UNL     1       0.760   6.619 -11.283  0.00  0.00    +0.381 C 
ATOM     31  O   UNL     1       0.536   7.179 -10.032  0.00  0.00    -0.244 OA
ATOM     32  O   UNL     1       0.228   7.101 -12.316  0.00  0.00    -0.244 OA
ENDBRANCH  29  30
ENDBRANCH  28  29
BRANCH  28  33
ATOM     33  C   UNL     1       3.775   5.427 -12.908  0.00  0.00    +0.188 C 
BRANCH  33  34
ATOM     34  C   UNL     1       2.802   5.183 -14.019  0.00  0.00    +0.381 C 
ATOM     35  O   UNL     1       2.685   6.226 -14.943  0.00  0.00    -0.244 OA
ATOM     36  O   UNL     1       2.781   4.022 -14.528  0.00  0.00    -0.244 OA
ENDBRANCH  33  34
ENDBRANCH  28  33
ENDBRANCH  27  28
ENDBRANCH  26  27
ENDBRANCH  21  26
ENDBRANCH  20  21
ENDBRANCH   1  20
TORSDOF 20
ENDMDL
MODEL 3
REMARK VINA RESULT:      -7.1      2.947      8.063
REMARK  Name = 
REMARK  20 active torsions:
REMARK  status: ('A' for Active; 'I' for Inactive)
REMARK    1  A    between atoms: C_2  and  C_4
REMARK    2  A    between atoms: C_4  and  N_5
REMARK    3  A    between atoms: N_5  and  C_6
REMARK    4  A    between atoms: N_5  and  C_17
REMARK    5  A    between atoms: C_6  and  C_7
REMARK    6  A    between atoms: C_7  and  N_8
REMARK    7  A    between atoms: N_8  and  C_9
REMARK    8  A    between atoms: N_8  and  C_13
REMARK    9  A    between atoms: C_9  and  C_10
REMARK   10  A    between atoms: C_13  and  C_14
REMARK   11  A    between atoms: C_17  and  C_18
REMARK   12  A    between atoms: C_18  and  N_19
REMARK   13  A    between atoms: N_19  and  C_20
REMARK   14  A    between atoms: N_19  and  C_24
REMARK   15  A    between atoms: C_20  and  C_21
REMARK   16  A    between atoms: C_24  and  C_25
REMARK   17  A    between atoms: C_24  and  C_34
REMARK   18  A    between atoms: C_25  and  O_26
REMARK   19  A    between atoms: O_26  and  C_27
REMARK   20  A    between atoms: C_27  and  C_28
REMARK                            x       y       z     vdW  Elec       q    Type
REMARK                         _______ _______ _______ _____ _____    ______ ____
ROOT
ATOM      1  C   UNL     1       1.124   6.540  -6.556  0.00  0.00    +0.091 C 
ENDROOT
BRANCH   1   2
ATOM      2  N   UNL     1       1.301   5.580  -7.586  0.00  0.00    -0.252 NA
BRANCH   2   3
ATOM      3  C   UNL     1       2.826   5.222  -7.366  0.00  0.00    +0.192 C 
BRANCH   3   4
ATOM      4  C   UNL     1       2.509   4.234  -6.134  0.00  0.00    +0.381 C 
ATOM      5  O   UNL     1       1.331   3.544  -6.275  0.00  0.00    -0.244 OA
ATOM      6  O   UNL     1       3.224   4.274  -5.146  0.00  0.00    -0.244 OA
ENDBRANCH   3   4
BRANCH   3   7
ATOM      7  C   UNL     1       2.789   4.006  -8.475  0.00  0.00    +0.170 C 
BRANCH   7   8
ATOM      8  O   UNL     1       4.140   4.005  -8.855  0.00  0.00    -0.347 OA
BRANCH   8   9
ATOM      9  C   UNL     1       4.675   5.211  -8.437  0.00  0.00    +0.169 C 
BRANCH   9  10
ATOM     10  C   UNL     1       5.522   5.865  -9.454  0.00  0.00    +0.007 A 
ATOM     11  C   UNL     1       4.905   6.806 -10.269  0.00  0.00    -0.002 A 
ATOM     12  C   UNL     1       5.661   7.558 -11.137  0.00  0.00    -0.000 A 
ATOM     13  C   UNL     1       7.031   7.455 -11.196  0.00  0.00    -0.000 A 
ATOM     14  C   UNL     1       7.657   6.552 -10.371  0.00  0.00    -0.000 A 
ATOM     15  C   UNL     1       6.895   5.835  -9.460  0.00  0.00    -0.002 A 
ENDBRANCH   9  10
ENDBRANCH   8   9
ENDBRANCH   7   8
ENDBRANCH   3   7
ENDBRANCH   2   3
BRANCH   2  16
ATOM     16  C   UNL     1       1.399   6.388  -8.807  0.00  0.00    +0.188 C 
BRANCH  16  17
ATOM     17  C   UNL     1       0.324   6.095  -9.764  0.00  0.00    +0.381 C 
ATOM     18  O   UNL     1      -0.063   6.975 -10.775  0.00  0.00    -0.244 OA
ATOM     19  O   UNL     1      -0.235   4.973  -9.764  0.00  0.00    -0.244 OA
ENDBRANCH  16  17
ENDBRANCH   2  16
ENDBRANCH   1   2
BRANCH   1  20
ATOM     20  C   UNL     1      -0.046   6.692  -5.789  0.00  0.00    +0.090 C 
BRANCH  20  21
ATOM     21  N   UNL     1      -0.209   6.504  -4.436  0.00  0.00    -0.261 NA
BRANCH  21  22
ATOM     22  C   UNL     1      -0.793   5.323  -3.927  0.00  0.00    +0.188 C 
BRANCH  22  24
ATOM     23  O   UNL     1      -2.467   4.851  -2.528  0.00  0.00    -0.244 OA
ATOM     24  C   UNL     1      -2.130   5.542  -3.291  0.00  0.00    +0.381 C 
ATOM     25  O   UNL     1      -2.995   6.553  -3.726  0.00  0.00    -0.244 OA
ENDBRANCH  22  24
ENDBRANCH  21  22
BRANCH  21  26
ATOM     26  C   UNL     1       0.932   6.988  -3.704  0.00  0.00    +0.090 C 
BRANCH  26  27
ATOM     27  C   UNL     1       1.535   5.913  -2.845  0.00  0.00    +0.091 C 
BRANCH  27  28
ATOM     28  N   UNL     1       2.796   6.387  -2.351  0.00  0.00    -0.252 NA
BRANCH  28  29
ATOM     29  C   UNL     1       2.884   6.473  -0.925  0.00  0.00    +0.188 C 
BRANCH  29  30
ATOM     30  C   UNL     1       4.116   5.903  -0.353  0.00  0.00    +0.381 C 
ATOM     31  O   UNL     1       4.673   6.470   0.786  0.00  0.00    -0.244 OA
ATOM     32  O   UNL     1       4.481   4.770  -0.761  0.00  0.00    -0.244 OA
ENDBRANCH  29  30
ENDBRANCH  28  29
BRANCH  28  33
ATOM     33  C   UNL     1       3.180   7.582  -3.049  0.00  0.00    +0.188 C 
BRANCH  33  34
ATOM     34  C   UNL     1       4.392   7.230  -3.853  0.00  0.00    +0.381 C 
ATOM     35  O   UNL     1       4.324   7.573  -5.207  0.00  0.00    -0.244 OA
ATOM     36  O   UNL     1       5.523   7.427  -3.314  0.00  0.00    -0.244 OA
ENDBRANCH  33  34
ENDBRANCH  28  33
ENDBRANCH  27  28
ENDBRANCH  26  27
ENDBRANCH  21  26
ENDBRANCH  20  21
ENDBRANCH   1  20
TORSDOF 20
ENDMDL
MODEL 4
REMARK VINA RESULT:      -7.1      2.428      8.492
REMARK  Name = 
REMARK  20 active torsions:
REMARK  status: ('A' for Active; 'I' for Inactive)
REMARK    1  A    between atoms: C_2  and  C_4
REMARK    2  A    between atoms: C_4  and  N_5
REMARK    3  A    between atoms: N_5  and  C_6
REMARK    4  A    between atoms: N_5  and  C_17
REMARK    5  A    between atoms: C_6  and  C_7
REMARK    6  A    between atoms: C_7  and  N_8
REMARK    7  A    between atoms: N_8  and  C_9
REMARK    8  A    between atoms: N_8  and  C_13
REMARK    9  A    between atoms: C_9  and  C_10
REMARK   10  A    between atoms: C_13  and  C_14
REMARK   11  A    between atoms: C_17  and  C_18
REMARK   12  A    between atoms: C_18  and  N_19
REMARK   13  A    between atoms: N_19  and  C_20
REMARK   14  A    between atoms: N_19  and  C_24
REMARK   15  A    between atoms: C_20  and  C_21
REMARK   16  A    between atoms: C_24  and  C_25
REMARK   17  A    between atoms: C_24  and  C_34
REMARK   18  A    between atoms: C_25  and  O_26
REMARK   19  A    between atoms: O_26  and  C_27
REMARK   20  A    between atoms: C_27  and  C_28
REMARK                            x       y       z     vdW  Elec       q    Type
REMARK                         _______ _______ _______ _____ _____    ______ ____
ROOT
ATOM      1  C   UNL     1       0.496   6.108  -8.438  0.00  0.00    +0.091 C 
ENDROOT
BRANCH   1   2
ATOM      2  N   UNL     1       1.477   5.477  -9.245  0.00  0.00    -0.252 NA
BRANCH   2   3
ATOM      3  C   UNL     1       2.782   6.171  -8.681  0.00  0.00    +0.192 C 
BRANCH   3   4
ATOM      4  C   UNL     1       3.334   4.806  -8.029  0.00  0.00    +0.381 C 
ATOM      5  O   UNL     1       4.167   5.009  -6.956  0.00  0.00    -0.244 OA
ATOM      6  O   UNL     1       3.107   3.747  -8.592  0.00  0.00    -0.244 OA
ENDBRANCH   3   4
BRANCH   3   7
ATOM      7  C   UNL     1       3.612   5.948 -10.085  0.00  0.00    +0.170 C 
BRANCH   7   8
ATOM      8  O   UNL     1       4.815   6.581  -9.740  0.00  0.00    -0.347 OA
BRANCH   8   9
ATOM      9  C   UNL     1       5.142   7.422 -10.789  0.00  0.00    +0.169 C 
BRANCH   9  10
ATOM     10  C   UNL     1       6.333   6.987 -11.545  0.00  0.00    +0.007 A 
ATOM     11  C   UNL     1       7.390   6.472 -10.806  0.00  0.00    -0.002 A 
ATOM     12  C   UNL     1       8.468   5.915 -11.451  0.00  0.00    -0.000 A 
ATOM     13  C   UNL     1       8.522   5.794 -12.819  0.00  0.00    -0.000 A 
ATOM     14  C   UNL     1       7.468   6.269 -13.562  0.00  0.00    -0.000 A 
ATOM     15  C   UNL     1       6.360   6.781 -12.904  0.00  0.00    -0.002 A 
ENDBRANCH   9  10
ENDBRANCH   8   9
ENDBRANCH   7   8
ENDBRANCH   3   7
ENDBRANCH   2   3
BRANCH   2  16
ATOM     16  C   UNL     1       1.361   6.160 -10.539  0.00  0.00    +0.188 C 
BRANCH  16  17
ATOM     17  C   UNL     1       0.044   5.969 -11.159  0.00  0.00    +0.381 C 
ATOM     18  O   UNL     1      -0.817   7.024 -11.469  0.00  0.00    -0.244 OA
ATOM     19  O   UNL     1      -0.324   4.830 -11.528  0.00  0.00    -0.244 OA
ENDBRANCH  16  17
ENDBRANCH   2  16
ENDBRANCH   1   2
BRANCH   1  20
ATOM     20  C   UNL     1      -0.079   5.547  -7.283  0.00  0.00    +0.090 C 
BRANCH  20  21
ATOM     21  N   UNL     1      -0.352   6.161  -6.081  0.00  0.00    -0.261 NA
BRANCH  21  22
ATOM     22  C   UNL     1      -1.419   5.728  -5.265  0.00  0.00    +0.188 C 
BRANCH  22  24
ATOM     23  O   UNL     1      -2.756   7.514  -5.197  0.00  0.00    -0.244 OA
ATOM     24  C   UNL     1      -2.153   6.847  -4.594  0.00  0.00    +0.381 C 
ATOM     25  O   UNL     1      -1.999   7.112  -3.228  0.00  0.00    -0.244 OA
ENDBRANCH  22  24
ENDBRANCH  21  22
BRANCH  21  26
ATOM     26  C   UNL     1       0.861   6.492  -5.381  0.00  0.00    +0.090 C 
BRANCH  26  27
ATOM     27  C   UNL     1       1.409   5.308  -4.634  0.00  0.00    +0.091 C 
BRANCH  27  28
ATOM     28  N   UNL     1       2.190   5.794  -3.534  0.00  0.00    -0.252 NA
BRANCH  28  29
ATOM     29  C   UNL     1       1.425   6.243  -2.410  0.00  0.00    +0.188 C 
BRANCH  29  30
ATOM     30  C   UNL     1       0.979   5.168  -1.507  0.00  0.00    +0.381 C 
ATOM     31  O   UNL     1      -0.290   4.624  -1.658  0.00  0.00    -0.244 OA
ATOM     32  O   UNL     1       1.848   4.601  -0.797  0.00  0.00    -0.244 OA
ENDBRANCH  29  30
ENDBRANCH  28  29
BRANCH  28  33
ATOM     33  C   UNL     1       3.172   6.732  -4.003  0.00  0.00    +0.188 C 
BRANCH  33  34
ATOM     34  C   UNL     1       4.453   6.384  -3.311  0.00  0.00    +0.381 C 
ATOM     35  O   UNL     1       5.068   5.211  -3.759  0.00  0.00    -0.244 OA
ATOM     36  O   UNL     1       5.252   7.335  -3.056  0.00  0.00    -0.244 OA
ENDBRANCH  33  34
ENDBRANCH  28  33
ENDBRANCH  27  28
ENDBRANCH  26  27
ENDBRANCH  21  26
ENDBRANCH  20  21
ENDBRANCH   1  20
TORSDOF 20
ENDMDL
MODEL 5
REMARK VINA RESULT:      -7.0      3.012      9.112
REMARK  Name = 
REMARK  20 active torsions:
REMARK  status: ('A' for Active; 'I' for Inactive)
REMARK    1  A    between atoms: C_2  and  C_4
REMARK    2  A    between atoms: C_4  and  N_5
REMARK    3  A    between atoms: N_5  and  C_6
REMARK    4  A    between atoms: N_5  and  C_17
REMARK    5  A    between atoms: C_6  and  C_7
REMARK    6  A    between atoms: C_7  and  N_8
REMARK    7  A    between atoms: N_8  and  C_9
REMARK    8  A    between atoms: N_8  and  C_13
REMARK    9  A    between atoms: C_9  and  C_10
REMARK   10  A    between atoms: C_13  and  C_14
REMARK   11  A    between atoms: C_17  and  C_18
REMARK   12  A    between atoms: C_18  and  N_19
REMARK   13  A    between atoms: N_19  and  C_20
REMARK   14  A    between atoms: N_19  and  C_24
REMARK   15  A    between atoms: C_20  and  C_21
REMARK   16  A    between atoms: C_24  and  C_25
REMARK   17  A    between atoms: C_24  and  C_34
REMARK   18  A    between atoms: C_25  and  O_26
REMARK   19  A    between atoms: O_26  and  C_27
REMARK   20  A    between atoms: C_27  and  C_28
REMARK                            x       y       z     vdW  Elec       q    Type
REMARK                         _______ _______ _______ _____ _____    ______ ____
ROOT
ATOM      1  C   UNL     1       2.140   4.694  -6.588  0.00  0.00    +0.091 C 
ENDROOT
BRANCH   1   2
ATOM      2  N   UNL     1       2.794   5.850  -7.086  0.00  0.00    -0.252 NA
BRANCH   2   3
ATOM      3  C   UNL     1       2.810   5.511  -8.631  0.00  0.00    +0.192 C 
BRANCH   3   4
ATOM      4  C   UNL     1       1.843   6.744  -9.003  0.00  0.00    +0.381 C 
ATOM      5  O   UNL     1       2.044   7.853  -8.220  0.00  0.00    -0.244 OA
ATOM      6  O   UNL     1       0.946   6.568  -9.813  0.00  0.00    -0.244 OA
ENDBRANCH   3   4
BRANCH   3   7
ATOM      7  C   UNL     1       4.181   6.382  -8.897  0.00  0.00    +0.170 C 
BRANCH   7   8
ATOM      8  O   UNL     1       4.244   6.285 -10.295  0.00  0.00    -0.347 OA
BRANCH   8   9
ATOM      9  C   UNL     1       5.021   7.340 -10.737  0.00  0.00    +0.169 C 
BRANCH   9  10
ATOM     10  C   UNL     1       6.223   6.917 -11.483  0.00  0.00    +0.007 A 
ATOM     11  C   UNL     1       7.342   6.587 -10.729  0.00  0.00    -0.002 A 
ATOM     12  C   UNL     1       8.446   6.047 -11.346  0.00  0.00    -0.000 A 
ATOM     13  C   UNL     1       8.471   5.764 -12.690  0.00  0.00    -0.000 A 
ATOM     14  C   UNL     1       7.357   6.053 -13.442  0.00  0.00    -0.000 A 
ATOM     15  C   UNL     1       6.228   6.548 -12.807  0.00  0.00    -0.002 A 
ENDBRANCH   9  10
ENDBRANCH   8   9
ENDBRANCH   7   8
ENDBRANCH   3   7
ENDBRANCH   2   3
BRANCH   2  16
ATOM     16  C   UNL     1       4.207   5.625  -6.759  0.00  0.00    +0.188 C 
BRANCH  16  17
ATOM     17  C   UNL     1       4.527   5.986  -5.371  0.00  0.00    +0.381 C 
ATOM     18  O   UNL     1       4.981   5.066  -4.425  0.00  0.00    -0.244 OA
ATOM     19  O   UNL     1       4.493   7.184  -5.005  0.00  0.00    -0.244 OA
ENDBRANCH  16  17
ENDBRANCH   2  16
ENDBRANCH   1   2
BRANCH   1  20
ATOM     20  C   UNL     1       1.173   4.693  -5.566  0.00  0.00    +0.090 C 
BRANCH  20  21
ATOM     21  N   UNL     1       0.355   5.725  -5.165  0.00  0.00    -0.261 NA
BRANCH  21  22
ATOM     22  C   UNL     1      -1.041   5.550  -5.056  0.00  0.00    +0.188 C 
BRANCH  22  24
ATOM     23  O   UNL     1      -2.799   6.038  -6.342  0.00  0.00    -0.244 OA
ATOM     24  C   UNL     1      -1.768   5.707  -6.355  0.00  0.00    +0.381 C 
ATOM     25  O   UNL     1      -1.184   5.340  -7.573  0.00  0.00    -0.244 OA
ENDBRANCH  22  24
ENDBRANCH  21  22
BRANCH  21  26
ATOM     26  C   UNL     1       0.963   6.486  -4.106  0.00  0.00    +0.090 C 
BRANCH  26  27
ATOM     27  C   UNL     1       1.559   5.592  -3.054  0.00  0.00    +0.091 C 
BRANCH  27  28
ATOM     28  N   UNL     1       1.799   6.379  -1.879  0.00  0.00    -0.252 NA
BRANCH  28  29
ATOM     29  C   UNL     1       3.177   6.686  -1.638  0.00  0.00    +0.188 C 
BRANCH  29  30
ATOM     30  C   UNL     1       3.862   5.748  -0.733  0.00  0.00    +0.381 C 
ATOM     31  O   UNL     1       4.232   4.492  -1.196  0.00  0.00    -0.244 OA
ATOM     32  O   UNL     1       4.318   6.203   0.347  0.00  0.00    -0.244 OA
ENDBRANCH  29  30
ENDBRANCH  28  29
BRANCH  28  33
ATOM     33  C   UNL     1       1.106   5.812  -0.756  0.00  0.00    +0.188 C 
BRANCH  33  34
ATOM     34  C   UNL     1       0.599   6.965   0.053  0.00  0.00    +0.381 C 
ATOM     35  O   UNL     1      -0.708   7.364  -0.240  0.00  0.00    -0.244 OA
ATOM     36  O   UNL     1       0.893   6.981   1.287  0.00  0.00    -0.244 OA
ENDBRANCH  33  34
ENDBRANCH  28  33
ENDBRANCH  27  28
ENDBRANCH  26  27
ENDBRANCH  21  26
ENDBRANCH  20  21
ENDBRANCH   1  20
TORSDOF 20
ENDMDL
MODEL 6
REMARK VINA RESULT:      -7.0      2.641      9.023
REMARK  Name = 
REMARK  20 active torsions:
REMARK  status: ('A' for Active; 'I' for Inactive)
REMARK    1  A    between atoms: C_2  and  C_4
REMARK    2  A    between atoms: C_4  and  N_5
REMARK    3  A    between atoms: N_5  and  C_6
REMARK    4  A    between atoms: N_5  and  C_17
REMARK    5  A    between atoms: C_6  and  C_7
REMARK    6  A    between atoms: C_7  and  N_8
REMARK    7  A    between atoms: N_8  and  C_9
REMARK    8  A    between atoms: N_8  and  C_13
REMARK    9  A    between atoms: C_9  and  C_10
REMARK   10  A    between atoms: C_13  and  C_14
REMARK   11  A    between atoms: C_17  and  C_18
REMARK   12  A    between atoms: C_18  and  N_19
REMARK   13  A    between atoms: N_19  and  C_20
REMARK   14  A    between atoms: N_19  and  C_24
REMARK   15  A    between atoms: C_20  and  C_21
REMARK   16  A    between atoms: C_24  and  C_25
REMARK   17  A    between atoms: C_24  and  C_34
REMARK   18  A    between atoms: C_25  and  O_26
REMARK   19  A    between atoms: O_26  and  C_27
REMARK   20  A    between atoms: C_27  and  C_28
REMARK                            x       y       z     vdW  Elec       q    Type
REMARK                         _______ _______ _______ _____ _____    ______ ____
ROOT
ATOM      1  C   UNL     1       1.886   4.446  -6.867  0.00  0.00    +0.091 C 
ENDROOT
BRANCH   1   2
ATOM      2  N   UNL     1       2.501   5.504  -7.585  0.00  0.00    -0.252 NA
BRANCH   2   3
ATOM      3  C   UNL     1       2.475   4.896  -9.045  0.00  0.00    +0.192 C 
BRANCH   3   4
ATOM      4  C   UNL     1       1.256   5.837  -9.513  0.00  0.00    +0.381 C 
ATOM      5  O   UNL     1       1.391   7.145  -9.119  0.00  0.00    -0.244 OA
ATOM      6  O   UNL     1       0.276   5.323 -10.029  0.00  0.00    -0.244 OA
ENDBRANCH   3   4
BRANCH   3   7
ATOM      7  C   UNL     1       3.620   5.943  -9.595  0.00  0.00    +0.170 C 
BRANCH   7   8
ATOM      8  O   UNL     1       3.713   5.500 -10.923  0.00  0.00    -0.347 OA
BRANCH   8   9
ATOM      9  C   UNL     1       4.422   6.462 -11.619  0.00  0.00    +0.169 C 
BRANCH   9  10
ATOM     10  C   UNL     1       5.854   6.142 -11.777  0.00  0.00    +0.007 A 
ATOM     11  C   UNL     1       6.240   5.582 -12.987  0.00  0.00    -0.002 A 
ATOM     12  C   UNL     1       7.575   5.394 -13.258  0.00  0.00    -0.000 A 
ATOM     13  C   UNL     1       8.563   5.793 -12.391  0.00  0.00    -0.000 A 
ATOM     14  C   UNL     1       8.197   6.380 -11.204  0.00  0.00    -0.000 A 
ATOM     15  C   UNL     1       6.852   6.616 -10.959  0.00  0.00    -0.002 A 
ENDBRANCH   9  10
ENDBRANCH   8   9
ENDBRANCH   7   8
ENDBRANCH   3   7
ENDBRANCH   2   3
BRANCH   2  16
ATOM     16  C   UNL     1       3.927   5.361  -7.271  0.00  0.00    +0.188 C 
BRANCH  16  17
ATOM     17  C   UNL     1       4.243   5.760  -5.893  0.00  0.00    +0.381 C 
ATOM     18  O   UNL     1       4.882   4.920  -4.980  0.00  0.00    -0.244 OA
ATOM     19  O   UNL     1       4.028   6.933  -5.509  0.00  0.00    -0.244 OA
ENDBRANCH  16  17
ENDBRANCH   2  16
ENDBRANCH   1   2
BRANCH   1  20
ATOM     20  C   UNL     1       0.785   4.590  -6.004  0.00  0.00    +0.090 C 
BRANCH  20  21
ATOM     21  N   UNL     1      -0.031   5.686  -5.840  0.00  0.00    -0.261 NA
BRANCH  21  22
ATOM     22  C   UNL     1      -1.328   5.722  -6.398  0.00  0.00    +0.188 C 
BRANCH  22  24
ATOM     23  O   UNL     1      -2.936   5.345  -4.896  0.00  0.00    -0.244 OA
ATOM     24  C   UNL     1      -2.390   6.119  -5.421  0.00  0.00    +0.381 C 
ATOM     25  O   UNL     1      -2.764   7.457  -5.245  0.00  0.00    -0.244 OA
ENDBRANCH  22  24
ENDBRANCH  21  22
BRANCH  21  26
ATOM     26  C   UNL     1       0.078   6.220  -4.508  0.00  0.00    +0.090 C 
BRANCH  26  27
ATOM     27  C   UNL     1       0.751   5.249  -3.578  0.00  0.00    +0.091 C 
BRANCH  27  28
ATOM     28  N   UNL     1       0.489   5.664  -2.230  0.00  0.00    -0.252 NA
BRANCH  28  29
ATOM     29  C   UNL     1      -0.721   6.411  -2.060  0.00  0.00    +0.188 C 
BRANCH  29  30
ATOM     30  C   UNL     1      -1.718   5.768  -1.187  0.00  0.00    +0.381 C 
ATOM     31  O   UNL     1      -1.876   6.211   0.120  0.00  0.00    -0.244 OA
ATOM     32  O   UNL     1      -2.569   5.014  -1.725  0.00  0.00    -0.244 OA
ENDBRANCH  29  30
ENDBRANCH  28  29
BRANCH  28  33
ATOM     33  C   UNL     1       1.658   6.282  -1.668  0.00  0.00    +0.188 C 
BRANCH  33  34
ATOM     34  C   UNL     1       2.717   5.224  -1.633  0.00  0.00    +0.381 C 
ATOM     35  O   UNL     1       4.010   5.673  -1.921  0.00  0.00    -0.244 OA
ATOM     36  O   UNL     1       2.651   4.367  -0.701  0.00  0.00    -0.244 OA
ENDBRANCH  33  34
ENDBRANCH  28  33
ENDBRANCH  27  28
ENDBRANCH  26  27
ENDBRANCH  21  26
ENDBRANCH  20  21
ENDBRANCH   1  20
TORSDOF 20
ENDMDL
MODEL 7
REMARK VINA RESULT:      -7.0      1.297      2.403
REMARK  Name = 
REMARK  20 active torsions:
REMARK  status: ('A' for Active; 'I' for Inactive)
REMARK    1  A    between atoms: C_2  and  C_4
REMARK    2  A    between atoms: C_4  and  N_5
REMARK    3  A    between atoms: N_5  and  C_6
REMARK    4  A    between atoms: N_5  and  C_17
REMARK    5  A    between atoms: C_6  and  C_7
REMARK    6  A    between atoms: C_7  and  N_8
REMARK    7  A    between atoms: N_8  and  C_9
REMARK    8  A    between atoms: N_8  and  C_13
REMARK    9  A    between atoms: C_9  and  C_10
REMARK   10  A    between atoms: C_13  and  C_14
REMARK   11  A    between atoms: C_17  and  C_18
REMARK   12  A    between atoms: C_18  and  N_19
REMARK   13  A    between atoms: N_19  and  C_20
REMARK   14  A    between atoms: N_19  and  C_24
REMARK   15  A    between atoms: C_20  and  C_21
REMARK   16  A    between atoms: C_24  and  C_25
REMARK   17  A    between atoms: C_24  and  C_34
REMARK   18  A    between atoms: C_25  and  O_26
REMARK   19  A    between atoms: O_26  and  C_27
REMARK   20  A    between atoms: C_27  and  C_28
REMARK                            x       y       z     vdW  Elec       q    Type
REMARK                         _______ _______ _______ _____ _____    ______ ____
ROOT
ATOM      1  C   UNL     1       1.513   4.869  -8.798  0.00  0.00    +0.091 C 
ENDROOT
BRANCH   1   2
ATOM      2  N   UNL     1       1.850   5.220  -7.465  0.00  0.00    -0.252 NA
BRANCH   2   3
ATOM      3  C   UNL     1       0.771   4.374  -6.678  0.00  0.00    +0.192 C 
BRANCH   3   4
ATOM      4  C   UNL     1       1.443   4.681  -5.247  0.00  0.00    +0.381 C 
ATOM      5  O   UNL     1       2.791   4.426  -5.208  0.00  0.00    -0.244 OA
ATOM      6  O   UNL     1       0.721   4.964  -4.304  0.00  0.00    -0.244 OA
ENDBRANCH   3   4
BRANCH   3   7
ATOM      7  C   UNL     1      -0.271   5.643  -6.568  0.00  0.00    +0.170 C 
BRANCH   7   8
ATOM      8  O   UNL     1      -1.483   4.954  -6.725  0.00  0.00    -0.347 OA
BRANCH   8   9
ATOM      9  C   UNL     1      -2.487   5.805  -6.298  0.00  0.00    +0.169 C 
BRANCH   9  10
ATOM     10  C   UNL     1      -2.427   6.111  -4.855  0.00  0.00    +0.007 A 
ATOM     11  C   UNL     1      -2.145   7.426  -4.506  0.00  0.00    -0.002 A 
ATOM     12  C   UNL     1      -2.217   7.814  -3.190  0.00  0.00    -0.000 A 
ATOM     13  C   UNL     1      -2.615   6.957  -2.192  0.00  0.00    -0.000 A 
ATOM     14  C   UNL     1      -2.930   5.662  -2.528  0.00  0.00    -0.000 A 
ATOM     15  C   UNL     1      -2.907   5.290  -3.864  0.00  0.00    -0.002 A 
ENDBRANCH   9  10
ENDBRANCH   8   9
ENDBRANCH   7   8
ENDBRANCH   3   7
ENDBRANCH   2   3
BRANCH   2  16
ATOM     16  C   UNL     1       1.290   6.567  -7.303  0.00  0.00    +0.188 C 
BRANCH  16  17
ATOM     17  C   UNL     1       2.329   7.602  -7.217  0.00  0.00    +0.381 C 
ATOM     18  O   UNL     1       3.384   7.555  -6.305  0.00  0.00    -0.244 OA
ATOM     19  O   UNL     1       2.356   8.540  -8.046  0.00  0.00    -0.244 OA
ENDBRANCH  16  17
ENDBRANCH   2  16
ENDBRANCH   1   2
BRANCH   1  20
ATOM     20  C   UNL     1       2.380   4.968  -9.901  0.00  0.00    +0.090 C 
BRANCH  20  21
ATOM     21  N   UNL     1       2.207   5.690 -11.060  0.00  0.00    -0.261 NA
BRANCH  21  22
ATOM     22  C   UNL     1       1.053   6.477 -11.266  0.00  0.00    +0.188 C 
BRANCH  22  24
ATOM     23  O   UNL     1       0.497   7.790 -12.982  0.00  0.00    -0.244 OA
ATOM     24  C   UNL     1       0.786   6.784 -12.706  0.00  0.00    +0.381 C 
ATOM     25  O   UNL     1       0.803   5.785 -13.687  0.00  0.00    -0.244 OA
ENDBRANCH  22  24
ENDBRANCH  21  22
BRANCH  21  26
ATOM     26  C   UNL     1       3.443   6.293 -11.484  0.00  0.00    +0.090 C 
BRANCH  26  27
ATOM     27  C   UNL     1       4.509   5.260 -11.722  0.00  0.00    +0.091 C 
BRANCH  27  28
ATOM     28  N   UNL     1       5.605   5.893 -12.398  0.00  0.00    -0.252 NA
BRANCH  28  29
ATOM     29  C   UNL     1       5.735   5.544 -13.781  0.00  0.00    +0.188 C 
BRANCH  29  30
ATOM     30  C   UNL     1       5.212   6.555 -14.717  0.00  0.00    +0.381 C 
ATOM     31  O   UNL     1       6.082   7.465 -15.303  0.00  0.00    -0.244 OA
ATOM     32  O   UNL     1       4.042   6.401 -15.152  0.00  0.00    -0.244 OA
ENDBRANCH  29  30
ENDBRANCH  28  29
BRANCH  28  33
ATOM     33  C   UNL     1       6.809   5.747 -11.628  0.00  0.00    +0.188 C 
BRANCH  33  34
ATOM     34  C   UNL     1       7.272   7.133 -11.303  0.00  0.00    +0.381 C 
ATOM     35  O   UNL     1       6.415   8.156 -11.721  0.00  0.00    -0.244 OA
ATOM     36  O   UNL     1       7.798   7.317 -10.164  0.00  0.00    -0.244 OA
ENDBRANCH  33  34
ENDBRANCH  28  33
ENDBRANCH  27  28
ENDBRANCH  26  27
ENDBRANCH  21  26
ENDBRANCH  20  21
ENDBRANCH   1  20
TORSDOF 20
ENDMDL
MODEL 8
REMARK VINA RESULT:      -7.0      2.574      8.378
REMARK  Name = 
REMARK  20 active torsions:
REMARK  status: ('A' for Active; 'I' for Inactive)
REMARK    1  A    between atoms: C_2  and  C_4
REMARK    2  A    between atoms: C_4  and  N_5
REMARK    3  A    between atoms: N_5  and  C_6
REMARK    4  A    between atoms: N_5  and  C_17
REMARK    5  A    between atoms: C_6  and  C_7
REMARK    6  A    between atoms: C_7  and  N_8
REMARK    7  A    between atoms: N_8  and  C_9
REMARK    8  A    between atoms: N_8  and  C_13
REMARK    9  A    between atoms: C_9  and  C_10
REMARK   10  A    between atoms: C_13  and  C_14
REMARK   11  A    between atoms: C_17  and  C_18
REMARK   12  A    between atoms: C_18  and  N_19
REMARK   13  A    between atoms: N_19  and  C_20
REMARK   14  A    between atoms: N_19  and  C_24
REMARK   15  A    between atoms: C_20  and  C_21
REMARK   16  A    between atoms: C_24  and  C_25
REMARK   17  A    between atoms: C_24  and  C_34
REMARK   18  A    between atoms: C_25  and  O_26
REMARK   19  A    between atoms: O_26  and  C_27
REMARK   20  A    between atoms: C_27  and  C_28
REMARK                            x       y       z     vdW  Elec       q    Type
REMARK                         _______ _______ _______ _____ _____    ______ ____
ROOT
ATOM      1  C   UNL     1       0.068   5.699  -7.763  0.00  0.00    +0.091 C 
ENDROOT
BRANCH   1   2
ATOM      2  N   UNL     1       0.939   5.395  -8.841  0.00  0.00    -0.252 NA
BRANCH   2   3
ATOM      3  C   UNL     1       2.337   5.573  -8.122  0.00  0.00    +0.192 C 
BRANCH   3   4
ATOM      4  C   UNL     1       2.476   4.000  -7.807  0.00  0.00    +0.381 C 
ATOM      5  O   UNL     1       2.459   3.705  -6.467  0.00  0.00    -0.244 OA
ATOM      6  O   UNL     1       2.723   3.233  -8.725  0.00  0.00    -0.244 OA
ENDBRANCH   3   4
BRANCH   3   7
ATOM      7  C   UNL     1       3.176   5.462  -9.534  0.00  0.00    +0.170 C 
BRANCH   7   8
ATOM      8  O   UNL     1       4.342   6.146  -9.159  0.00  0.00    -0.347 OA
BRANCH   8   9
ATOM      9  C   UNL     1       4.662   6.995 -10.203  0.00  0.00    +0.169 C 
BRANCH   9  10
ATOM     10  C   UNL     1       5.969   6.701 -10.824  0.00  0.00    +0.007 A 
ATOM     11  C   UNL     1       6.885   6.000 -10.051  0.00  0.00    -0.002 A 
ATOM     12  C   UNL     1       8.062   5.566 -10.613  0.00  0.00    -0.000 A 
ATOM     13  C   UNL     1       8.353   5.750 -11.943  0.00  0.00    -0.000 A 
ATOM     14  C   UNL     1       7.440   6.413 -12.728  0.00  0.00    -0.000 A 
ATOM     15  C   UNL     1       6.232   6.802 -12.169  0.00  0.00    -0.002 A 
ENDBRANCH   9  10
ENDBRANCH   8   9
ENDBRANCH   7   8
ENDBRANCH   3   7
ENDBRANCH   2   3
BRANCH   2  16
ATOM     16  C   UNL     1       0.917   6.609  -9.665  0.00  0.00    +0.188 C 
BRANCH  16  17
ATOM     17  C   UNL     1      -0.036   6.516 -10.779  0.00  0.00    +0.381 C 
ATOM     18  O   UNL     1      -0.650   7.628 -11.357  0.00  0.00    -0.244 OA
ATOM     19  O   UNL     1      -0.264   5.413 -11.325  0.00  0.00    -0.244 OA
ENDBRANCH  16  17
ENDBRANCH   2  16
ENDBRANCH   1   2
BRANCH   1  20
ATOM     20  C   UNL     1       0.414   6.472  -6.641  0.00  0.00    +0.090 C 
BRANCH  20  21
ATOM     21  N   UNL     1      -0.148   6.452  -5.385  0.00  0.00    -0.261 NA
BRANCH  21  22
ATOM     22  C   UNL     1      -1.043   5.430  -5.001  0.00  0.00    +0.188 C 
BRANCH  22  24
ATOM     23  O   UNL     1      -2.660   6.951  -4.772  0.00  0.00    -0.244 OA
ATOM     24  C   UNL     1      -2.366   5.939  -4.523  0.00  0.00    +0.381 C 
ATOM     25  O   UNL     1      -3.186   5.179  -3.679  0.00  0.00    -0.244 OA
ENDBRANCH  22  24
ENDBRANCH  21  22
BRANCH  21  26
ATOM     26  C   UNL     1       0.809   6.838  -4.382  0.00  0.00    +0.090 C 
BRANCH  26  27
ATOM     27  C   UNL     1       1.601   5.658  -3.891  0.00  0.00    +0.091 C 
BRANCH  27  28
ATOM     28  N   UNL     1       2.588   6.134  -2.965  0.00  0.00    -0.252 NA
BRANCH  28  29
ATOM     29  C   UNL     1       3.238   7.348  -3.356  0.00  0.00    +0.188 C 
BRANCH  29  30
ATOM     30  C   UNL     1       4.444   7.156  -4.180  0.00  0.00    +0.381 C 
ATOM     31  O   UNL     1       4.316   6.802  -5.516  0.00  0.00    -0.244 OA
ATOM     32  O   UNL     1       5.540   7.567  -3.718  0.00  0.00    -0.244 OA
ENDBRANCH  29  30
ENDBRANCH  28  29
BRANCH  28  33
ATOM     33  C   UNL     1       3.479   5.066  -2.603  0.00  0.00    +0.188 C 
BRANCH  33  34
ATOM     34  C   UNL     1       3.298   4.845  -1.134  0.00  0.00    +0.381 C 
ATOM     35  O   UNL     1       4.190   5.545  -0.316  0.00  0.00    -0.244 OA
ATOM     36  O   UNL     1       2.108   4.796  -0.697  0.00  0.00    -0.244 OA
ENDBRANCH  33  34
ENDBRANCH  28  33
ENDBRANCH  27  28
ENDBRANCH  26  27
ENDBRANCH  21  26
ENDBRANCH  20  21
ENDBRANCH   1  20
TORSDOF 20
ENDMDL
MODEL 9
REMARK VINA RESULT:      -6.9      2.381      9.369
REMARK  Name = 
REMARK  20 active torsions:
REMARK  status: ('A' for Active; 'I' for Inactive)
REMARK    1  A    between atoms: C_2  and  C_4
REMARK    2  A    between atoms: C_4  and  N_5
REMARK    3  A    between atoms: N_5  and  C_6
REMARK    4  A    between atoms: N_5  and  C_17
REMARK    5  A    between atoms: C_6  and  C_7
REMARK    6  A    between atoms: C_7  and  N_8
REMARK    7  A    between atoms: N_8  and  C_9
REMARK    8  A    between atoms: N_8  and  C_13
REMARK    9  A    between atoms: C_9  and  C_10
REMARK   10  A    between atoms: C_13  and  C_14
REMARK   11  A    between atoms: C_17  and  C_18
REMARK   12  A    between atoms: C_18  and  N_19
REMARK   13  A    between atoms: N_19  and  C_20
REMARK   14  A    between atoms: N_19  and  C_24
REMARK   15  A    between atoms: C_20  and  C_21
REMARK   16  A    between atoms: C_24  and  C_25
REMARK   17  A    between atoms: C_24  and  C_34
REMARK   18  A    between atoms: C_25  and  O_26
REMARK   19  A    between atoms: O_26  and  C_27
REMARK   20  A    between atoms: C_27  and  C_28
REMARK                            x       y       z     vdW  Elec       q    Type
REMARK                         _______ _______ _______ _____ _____    ______ ____
ROOT
ATOM      1  C   UNL     1       2.271   7.155  -7.440  0.00  0.00    +0.091 C 
ENDROOT
BRANCH   1   2
ATOM      2  N   UNL     1       2.365   6.068  -8.347  0.00  0.00    -0.252 NA
BRANCH   2   3
ATOM      3  C   UNL     1       3.691   6.465  -9.112  0.00  0.00    +0.192 C 
BRANCH   3   4
ATOM      4  C   UNL     1       4.464   5.128  -8.651  0.00  0.00    +0.381 C 
ATOM      5  O   UNL     1       3.842   3.972  -9.050  0.00  0.00    -0.244 OA
ATOM      6  O   UNL     1       5.416   5.228  -7.894  0.00  0.00    -0.244 OA
ENDBRANCH   3   4
BRANCH   3   7
ATOM      7  C   UNL     1       3.179   5.796 -10.526  0.00  0.00    +0.170 C 
BRANCH   7   8
ATOM      8  O   UNL     1       3.798   6.673 -11.429  0.00  0.00    -0.347 OA
BRANCH   8   9
ATOM      9  C   UNL     1       4.511   5.894 -12.323  0.00  0.00    +0.169 C 
BRANCH   9  10
ATOM     10  C   UNL     1       5.966   5.892 -12.075  0.00  0.00    +0.007 A 
ATOM     11  C   UNL     1       6.756   5.220 -12.999  0.00  0.00    -0.002 A 
ATOM     12  C   UNL     1       8.126   5.300 -12.912  0.00  0.00    -0.000 A 
ATOM     13  C   UNL     1       8.758   6.072 -11.968  0.00  0.00    -0.000 A 
ATOM     14  C   UNL     1       7.988   6.769 -11.068  0.00  0.00    -0.000 A 
ATOM     15  C   UNL     1       6.607   6.728 -11.193  0.00  0.00    -0.002 A 
ENDBRANCH   9  10
ENDBRANCH   8   9
ENDBRANCH   7   8
ENDBRANCH   3   7
ENDBRANCH   2   3
BRANCH   2  16
ATOM     16  C   UNL     1       1.369   6.381  -9.378  0.00  0.00    +0.188 C 
BRANCH  16  17
ATOM     17  C   UNL     1       0.196   5.500  -9.314  0.00  0.00    +0.381 C 
ATOM     18  O   UNL     1      -0.177   4.645 -10.352  0.00  0.00    -0.244 OA
ATOM     19  O   UNL     1      -0.474   5.414  -8.259  0.00  0.00    -0.244 OA
ENDBRANCH  16  17
ENDBRANCH   2  16
ENDBRANCH   1   2
BRANCH   1  20
ATOM     20  C   UNL     1       1.815   7.059  -6.113  0.00  0.00    +0.090 C 
BRANCH  20  21
ATOM     21  N   UNL     1       2.193   6.158  -5.144  0.00  0.00    -0.261 NA
BRANCH  21  22
ATOM     22  C   UNL     1       3.069   6.530  -4.101  0.00  0.00    +0.188 C 
BRANCH  22  24
ATOM     23  O   UNL     1       4.733   5.141  -4.634  0.00  0.00    -0.244 OA
ATOM     24  C   UNL     1       4.497   6.161  -4.356  0.00  0.00    +0.381 C 
ATOM     25  O   UNL     1       5.540   7.070  -4.146  0.00  0.00    -0.244 OA
ENDBRANCH  22  24
ENDBRANCH  21  22
BRANCH  21  26
ATOM     26  C   UNL     1       1.087   5.327  -4.748  0.00  0.00    +0.090 C 
BRANCH  26  27
ATOM     27  C   UNL     1       0.607   5.666  -3.365  0.00  0.00    +0.091 C 
BRANCH  27  28
ATOM     28  N   UNL     1      -0.752   6.116  -3.459  0.00  0.00    -0.252 NA
BRANCH  28  29
ATOM     29  C   UNL     1      -0.989   7.090  -4.481  0.00  0.00    +0.188 C 
BRANCH  29  30
ATOM     30  C   UNL     1      -2.186   6.836  -5.300  0.00  0.00    +0.381 C 
ATOM     31  O   UNL     1      -2.516   5.534  -5.653  0.00  0.00    -0.244 OA
ATOM     32  O   UNL     1      -3.010   7.776  -5.440  0.00  0.00    -0.244 OA
ENDBRANCH  29  30
ENDBRANCH  28  29
BRANCH  28  33
ATOM     33  C   UNL     1      -1.241   6.480  -2.158  0.00  0.00    +0.188 C 
BRANCH  33  34
ATOM     34  C   UNL     1      -2.568   5.805  -2.003  0.00  0.00    +0.381 C 
ATOM     35  O   UNL     1      -3.679   6.633  -2.193  0.00  0.00    -0.244 OA
ATOM     36  O   UNL     1      -2.688   4.641  -2.491  0.00  0.00    -0.244 OA
ENDBRANCH  33  34
ENDBRANCH  28  33
ENDBRANCH  27  28
ENDBRANCH  26  27
ENDBRANCH  21  26
ENDBRANCH  20  21
ENDBRANCH   1  20
TORSDOF 20
ENDMDL
