MODEL 1
REMARK VINA RESULT:      -7.9      0.000      0.000
REMARK  Name = 
REMARK  8 active torsions:
REMARK  status: ('A' for Active; 'I' for Inactive)
REMARK    1  A    between atoms: O_2  and  C_3
REMARK    2  A    between atoms: C_13  and  C_14
REMARK    3  A    between atoms: C_14  and  C_15
REMARK    4  A    between atoms: C_14  and  C_21
REMARK    5  A    between atoms: C_21  and  C_23
REMARK    6  A    between atoms: C_21  and  C_28
REMARK    7  A    between atoms: C_23  and  C_24
REMARK    8  A    between atoms: C_24  and  N_25
REMARK                            x       y       z     vdW  Elec       q    Type
REMARK                         _______ _______ _______ _____ _____    ______ ____
ROOT
ATOM      1  C   UNL     1       0.358   5.273  -3.554  0.00  0.00    +0.081 C 
ENDROOT
BRANCH   1   3
ATOM      2  C   UNL     1      -1.275   5.861  -1.737  0.00  0.00    +0.221 A 
ATOM      3  C   UNL     1      -0.023   6.190  -2.246  0.00  0.00    +0.037 A 
ATOM      4  C   UNL     1       0.990   6.209  -1.289  0.00  0.00    +0.002 A 
ATOM      5  C   UNL     1       0.646   6.815  -0.085  0.00  0.00    +0.018 A 
ATOM      6  C   UNL     1      -0.673   7.213   0.105  0.00  0.00    +0.084 A 
ATOM      7  C   UNL     1      -1.097   7.731   1.316  0.00  0.00    +0.020 A 
ATOM      8  C   UNL     1      -0.141   8.157   2.201  0.00  0.00    +0.008 A 
ATOM      9  C   UNL     1       1.204   8.136   1.854  0.00  0.00    +0.035 A 
ATOM     10 BR   UNL     1       2.464   8.588   3.218  0.00  0.00    -0.049 Br
ATOM     11  C   UNL     1       1.573   7.504   0.686  0.00  0.00    +0.008 A 
ATOM     12  N   UNL     1      -1.605   6.526  -0.600  0.00  0.00    -0.212 NA
BRANCH   2  14
ATOM     13  C   UNL     1      -3.396   5.123  -2.762  0.00  0.00    +0.254 C 
ATOM     14  O   UNL     1      -2.085   4.869  -2.270  0.00  0.00    -0.456 OA
ENDBRANCH   2  14
ENDBRANCH   1   3
BRANCH   1  15
ATOM     15  C   UNL     1      -0.820   5.953  -4.457  0.00  0.00    -0.016 A 
ATOM     16  C   UNL     1      -1.162   5.245  -5.583  0.00  0.00    -0.004 A 
ATOM     17  C   UNL     1      -2.230   5.783  -6.298  0.00  0.00    -0.000 A 
ATOM     18  C   UNL     1      -2.747   7.037  -6.000  0.00  0.00    -0.000 A 
ATOM     19  C   UNL     1      -2.107   7.802  -5.037  0.00  0.00    -0.000 A 
ATOM     20  C   UNL     1      -1.145   7.229  -4.214  0.00  0.00    -0.004 A 
ENDBRANCH   1  15
BRANCH   1  21
ATOM     21  C   UNL     1       1.550   6.282  -4.140  0.00  0.00    +0.154 C 
ATOM     22  O   UNL     1       0.855   7.355  -4.683  0.00  0.00    -0.220 OA
BRANCH  21  23
ATOM     23  C   UNL     1       2.085   5.522  -5.304  0.00  0.00    +0.006 A 
ATOM     24  C   UNL     1       2.077   6.075  -6.581  0.00  0.00    -0.002 A 
ATOM     25  C   UNL     1       1.801   5.232  -7.649  0.00  0.00    -0.000 A 
ATOM     26  C   UNL     1       1.588   5.759  -8.908  0.00  0.00    -0.000 A 
ATOM     27  C   UNL     1       1.685   7.135  -9.042  0.00  0.00    -0.000 A 
ATOM     28  C   UNL     1       2.168   7.941  -8.017  0.00  0.00    -0.000 A 
ATOM     29  C   UNL     1       1.970   3.862  -7.486  0.00  0.00    -0.000 A 
ATOM     30  C   UNL     1       2.584   3.433  -6.314  0.00  0.00    -0.000 A 
ATOM     31  C   UNL     1       2.106   7.456  -6.715  0.00  0.00    -0.000 A 
ATOM     32  C   UNL     1       2.666   4.275  -5.231  0.00  0.00    -0.002 A 
ENDBRANCH  21  23
BRANCH  21  33
ATOM     33  C   UNL     1       2.494   6.609  -3.098  0.00  0.00    +0.053 C 
BRANCH  33  34
ATOM     34  C   UNL     1       3.625   7.500  -3.461  0.00  0.00    +0.075 C 
BRANCH  34  35
ATOM     35  N   UNL     1       4.450   7.911  -2.351  0.00  0.00    -0.270 NA
ATOM     36  C   UNL     1       3.756   8.930  -1.567  0.00  0.00    +0.090 C 
ATOM     37  C   UNL     1       4.548   6.748  -1.471  0.00  0.00    +0.090 C 
ENDBRANCH  34  35
ENDBRANCH  33  34
ENDBRANCH  21  33
ENDBRANCH   1  21
TORSDOF 8
ENDMDL
MODEL 2
REMARK VINA RESULT:      -7.1      3.202      8.664
REMARK  Name = 
REMARK  8 active torsions:
REMARK  status: ('A' for Active; 'I' for Inactive)
REMARK    1  A    between atoms: O_2  and  C_3
REMARK    2  A    between atoms: C_13  and  C_14
REMARK    3  A    between atoms: C_14  and  C_15
REMARK    4  A    between atoms: C_14  and  C_21
REMARK    5  A    between atoms: C_21  and  C_23
REMARK    6  A    between atoms: C_21  and  C_28
REMARK    7  A    between atoms: C_23  and  C_24
REMARK    8  A    between atoms: C_24  and  N_25
REMARK                            x       y       z     vdW  Elec       q    Type
REMARK                         _______ _______ _______ _____ _____    ______ ____
ROOT
ATOM      1  C   UNL     1       1.350   7.820   1.671  0.00  0.00    +0.081 C 
ENDROOT
BRANCH   1   3
ATOM      2  C   UNL     1       3.478   7.090   0.550  0.00  0.00    +0.221 A 
ATOM      3  C   UNL     1       2.177   7.507   0.287  0.00  0.00    +0.037 A 
ATOM      4  C   UNL     1       1.479   6.670  -0.581  0.00  0.00    +0.002 A 
ATOM      5  C   UNL     1       2.208   6.225  -1.678  0.00  0.00    +0.018 A 
ATOM      6  C   UNL     1       3.563   6.531  -1.744  0.00  0.00    +0.084 A 
ATOM      7  C   UNL     1       4.361   6.035  -2.760  0.00  0.00    +0.020 A 
ATOM      8  C   UNL     1       3.741   5.526  -3.871  0.00  0.00    +0.008 A 
ATOM      9  C   UNL     1       2.359   5.580  -3.998  0.00  0.00    +0.035 A 
ATOM     10 BR   UNL     1       1.585   4.691  -5.502  0.00  0.00    -0.049 Br
ATOM     11  C   UNL     1       1.613   5.978  -2.908  0.00  0.00    +0.008 A 
ATOM     12  N   UNL     1       4.182   6.732  -0.554  0.00  0.00    -0.212 NA
BRANCH   2  14
ATOM     13  C   UNL     1       5.253   7.484   2.221  0.00  0.00    +0.254 C 
ATOM     14  O   UNL     1       3.994   6.946   1.830  0.00  0.00    -0.456 OA
ENDBRANCH   2  14
ENDBRANCH   1   3
BRANCH   1  15
ATOM     15  C   UNL     1       2.102   9.254   1.876  0.00  0.00    -0.016 A 
ATOM     16  C   UNL     1       2.674   9.770   0.739  0.00  0.00    -0.004 A 
ATOM     17  C   UNL     1       3.234  11.036   0.900  0.00  0.00    -0.000 A 
ATOM     18  C   UNL     1       3.378  11.613   2.155  0.00  0.00    -0.000 A 
ATOM     19  C   UNL     1       3.052  10.856   3.269  0.00  0.00    -0.000 A 
ATOM     20  C   UNL     1       2.356   9.662   3.126  0.00  0.00    -0.004 A 
ENDBRANCH   1  15
BRANCH   1  21
ATOM     21  C   UNL     1       0.014   8.494   0.933  0.00  0.00    +0.154 C 
ATOM     22  O   UNL     1       0.497   9.653   0.340  0.00  0.00    -0.220 OA
BRANCH  21  23
ATOM     23  C   UNL     1      -0.808   8.948   2.089  0.00  0.00    +0.006 A 
ATOM     24  C   UNL     1      -1.644   8.061   2.761  0.00  0.00    -0.002 A 
ATOM     25  C   UNL     1      -2.871   8.537   3.203  0.00  0.00    -0.000 A 
ATOM     26  C   UNL     1      -3.815   7.658   3.699  0.00  0.00    -0.000 A 
ATOM     27  C   UNL     1      -3.466   6.318   3.749  0.00  0.00    -0.000 A 
ATOM     28  C   UNL     1      -2.166   5.887   3.505  0.00  0.00    -0.000 A 
ATOM     29  C   UNL     1      -3.047   9.907   3.354  0.00  0.00    -0.000 A 
ATOM     30  C   UNL     1      -1.918  10.710   3.229  0.00  0.00    -0.000 A 
ATOM     31  C   UNL     1      -1.331   6.709   2.756  0.00  0.00    -0.000 A 
ATOM     32  C   UNL     1      -0.788  10.219   2.620  0.00  0.00    -0.002 A 
ENDBRANCH  21  23
BRANCH  21  33
ATOM     33  C   UNL     1      -0.605   7.542   0.040  0.00  0.00    +0.053 C 
BRANCH  33  34
ATOM     34  C   UNL     1      -1.812   7.991  -0.698  0.00  0.00    +0.075 C 
BRANCH  34  35
ATOM     35  N   UNL     1      -2.399   6.992  -1.559  0.00  0.00    -0.270 NA
ATOM     36  C   UNL     1      -1.929   7.179  -2.929  0.00  0.00    +0.090 C 
ATOM     37  C   UNL     1      -1.838   5.713  -1.130  0.00  0.00    +0.090 C 
ENDBRANCH  34  35
ENDBRANCH  33  34
ENDBRANCH  21  33
ENDBRANCH   1  21
TORSDOF 8
ENDMDL
MODEL 3
REMARK VINA RESULT:      -6.9      1.543      2.432
REMARK  Name = 
REMARK  8 active torsions:
REMARK  status: ('A' for Active; 'I' for Inactive)
REMARK    1  A    between atoms: O_2  and  C_3
REMARK    2  A    between atoms: C_13  and  C_14
REMARK    3  A    between atoms: C_14  and  C_15
REMARK    4  A    between atoms: C_14  and  C_21
REMARK    5  A    between atoms: C_21  and  C_23
REMARK    6  A    between atoms: C_21  and  C_28
REMARK    7  A    between atoms: C_23  and  C_24
REMARK    8  A    between atoms: C_24  and  N_25
REMARK                            x       y       z     vdW  Elec       q    Type
REMARK                         _______ _______ _______ _____ _____    ______ ____
ROOT
ATOM      1  C   UNL     1       0.306   5.206  -4.741  0.00  0.00    +0.081 C 
ENDROOT
BRANCH   1   3
ATOM      2  C   UNL     1      -0.418   5.740  -2.394  0.00  0.00    +0.221 A 
ATOM      3  C   UNL     1       0.587   5.989  -3.324  0.00  0.00    +0.037 A 
ATOM      4  C   UNL     1       1.874   5.777  -2.837  0.00  0.00    +0.002 A 
ATOM      5  C   UNL     1       2.102   6.262  -1.554  0.00  0.00    +0.018 A 
ATOM      6  C   UNL     1       1.027   6.777  -0.838  0.00  0.00    +0.084 A 
ATOM      7  C   UNL     1       1.171   7.183   0.477  0.00  0.00    +0.020 A 
ATOM      8  C   UNL     1       2.442   7.386   0.950  0.00  0.00    +0.008 A 
ATOM      9  C   UNL     1       3.539   7.260   0.107  0.00  0.00    +0.035 A 
ATOM     10 BR   UNL     1       5.271   7.396   0.903  0.00  0.00    -0.049 Br
ATOM     11  C   UNL     1       3.343   6.742  -1.156  0.00  0.00    +0.008 A 
ATOM     12  N   UNL     1      -0.194   6.290  -1.174  0.00  0.00    -0.212 NA
BRANCH   2  14
ATOM     13  C   UNL     1      -2.834   5.253  -2.247  0.00  0.00    +0.254 C 
ATOM     14  O   UNL     1      -1.507   4.918  -2.641  0.00  0.00    -0.456 OA
ENDBRANCH   2  14
ENDBRANCH   1   3
BRANCH   1  15
ATOM     15  C   UNL     1      -0.962   6.170  -5.099  0.00  0.00    -0.016 A 
ATOM     16  C   UNL     1      -0.955   7.389  -4.466  0.00  0.00    -0.004 A 
ATOM     17  C   UNL     1      -1.989   8.241  -4.846  0.00  0.00    -0.000 A 
ATOM     18  C   UNL     1      -3.043   7.799  -5.636  0.00  0.00    -0.000 A 
ATOM     19  C   UNL     1      -3.107   6.451  -5.954  0.00  0.00    -0.000 A 
ATOM     20  C   UNL     1      -2.016   5.623  -5.717  0.00  0.00    -0.004 A 
ENDBRANCH   1  15
BRANCH   1  21
ATOM     21  C   UNL     1       1.387   6.093  -5.652  0.00  0.00    +0.154 C 
ATOM     22  O   UNL     1       0.884   7.387  -5.619  0.00  0.00    -0.220 OA
BRANCH  21  23
ATOM     23  C   UNL     1       1.135   5.601  -7.035  0.00  0.00    +0.006 A 
ATOM     24  C   UNL     1       2.191   5.349  -7.905  0.00  0.00    -0.002 A 
ATOM     25  C   UNL     1       2.018   5.673  -9.244  0.00  0.00    -0.000 A 
ATOM     26  C   UNL     1       3.093   5.627 -10.110  0.00  0.00    -0.000 A 
ATOM     27  C   UNL     1       4.312   5.228  -9.585  0.00  0.00    -0.000 A 
ATOM     28  C   UNL     1       4.423   4.705  -8.301  0.00  0.00    -0.000 A 
ATOM     29  C   UNL     1       0.728   5.817  -9.741  0.00  0.00    -0.000 A 
ATOM     30  C   UNL     1      -0.319   5.442  -8.905  0.00  0.00    -0.000 A 
ATOM     31  C   UNL     1       3.430   5.014  -7.377  0.00  0.00    -0.000 A 
ATOM     32  C   UNL     1      -0.108   5.308  -7.554  0.00  0.00    -0.002 A 
ENDBRANCH  21  23
BRANCH  21  33
ATOM     33  C   UNL     1       2.730   5.928  -5.147  0.00  0.00    +0.053 C 
BRANCH  33  34
ATOM     34  C   UNL     1       3.590   7.137  -5.098  0.00  0.00    +0.075 C 
BRANCH  34  35
ATOM     35  N   UNL     1       4.990   6.872  -4.870  0.00  0.00    -0.270 NA
ATOM     36  C   UNL     1       5.517   7.806  -3.877  0.00  0.00    +0.090 C 
ATOM     37  C   UNL     1       5.053   5.558  -4.235  0.00  0.00    +0.090 C 
ENDBRANCH  34  35
ENDBRANCH  33  34
ENDBRANCH  21  33
ENDBRANCH   1  21
TORSDOF 8
ENDMDL
MODEL 4
REMARK VINA RESULT:      -6.7      6.343     11.173
REMARK  Name = 
REMARK  8 active torsions:
REMARK  status: ('A' for Active; 'I' for Inactive)
REMARK    1  A    between atoms: O_2  and  C_3
REMARK    2  A    between atoms: C_13  and  C_14
REMARK    3  A    between atoms: C_14  and  C_15
REMARK    4  A    between atoms: C_14  and  C_21
REMARK    5  A    between atoms: C_21  and  C_23
REMARK    6  A    between atoms: C_21  and  C_28
REMARK    7  A    between atoms: C_23  and  C_24
REMARK    8  A    between atoms: C_24  and  N_25
REMARK                            x       y       z     vdW  Elec       q    Type
REMARK                         _______ _______ _______ _____ _____    ______ ____
ROOT
ATOM      1  C   UNL     1       4.452   5.208 -11.353  0.00  0.00    +0.081 C 
ENDROOT
BRANCH   1   3
ATOM      2  C   UNL     1       5.034   5.856 -13.711  0.00  0.00    +0.221 A 
ATOM      3  C   UNL     1       4.080   6.046 -12.716  0.00  0.00    +0.037 A 
ATOM      4  C   UNL     1       2.770   5.831 -13.140  0.00  0.00    +0.002 A 
ATOM      5  C   UNL     1       2.463   6.367 -14.386  0.00  0.00    +0.018 A 
ATOM      6  C   UNL     1       3.488   6.932 -15.137  0.00  0.00    +0.084 A 
ATOM      7  C   UNL     1       3.264   7.392 -16.422  0.00  0.00    +0.020 A 
ATOM      8  C   UNL     1       1.966   7.592 -16.815  0.00  0.00    +0.008 A 
ATOM      9  C   UNL     1       0.920   7.409 -15.919  0.00  0.00    +0.035 A 
ATOM     10 BR   UNL     1      -0.856   7.548 -16.612  0.00  0.00    -0.049 Br
ATOM     11  C   UNL     1       1.195   6.841 -14.693  0.00  0.00    +0.008 A 
ATOM     12  N   UNL     1       4.733   6.454 -14.891  0.00  0.00    -0.212 NA
BRANCH   2  14
ATOM     13  C   UNL     1       7.453   5.437 -13.976  0.00  0.00    +0.254 C 
ATOM     14  O   UNL     1       6.149   5.044 -13.560  0.00  0.00    -0.456 OA
ENDBRANCH   2  14
ENDBRANCH   1   3
BRANCH   1  15
ATOM     15  C   UNL     1       5.664   6.233 -10.974  0.00  0.00    -0.016 A 
ATOM     16  C   UNL     1       5.569   7.475 -11.552  0.00  0.00    -0.004 A 
ATOM     17  C   UNL     1       6.556   8.372 -11.152  0.00  0.00    -0.000 A 
ATOM     18  C   UNL     1       7.651   7.963 -10.401  0.00  0.00    -0.000 A 
ATOM     19  C   UNL     1       7.804   6.610 -10.144  0.00  0.00    -0.000 A 
ATOM     20  C   UNL     1       6.763   5.726 -10.399  0.00  0.00    -0.004 A 
ENDBRANCH   1  15
BRANCH   1  21
ATOM     21  C   UNL     1       3.343   5.969 -10.366  0.00  0.00    +0.154 C 
ATOM     22  O   UNL     1       3.728   7.304 -10.382  0.00  0.00    -0.220 OA
BRANCH  21  23
ATOM     23  C   UNL     1       3.703   5.465  -9.012  0.00  0.00    +0.006 A 
ATOM     24  C   UNL     1       3.089   5.978  -7.874  0.00  0.00    -0.002 A 
ATOM     25  C   UNL     1       3.869   6.144  -6.737  0.00  0.00    -0.000 A 
ATOM     26  C   UNL     1       3.365   6.827  -5.647  0.00  0.00    -0.000 A 
ATOM     27  C   UNL     1       2.066   7.301  -5.744  0.00  0.00    -0.000 A 
ATOM     28  C   UNL     1       1.230   6.945  -6.796  0.00  0.00    -0.000 A 
ATOM     29  C   UNL     1       5.055   5.428  -6.624  0.00  0.00    -0.000 A 
ATOM     30  C   UNL     1       5.296   4.445  -7.578  0.00  0.00    -0.000 A 
ATOM     31  C   UNL     1       1.814   6.515  -7.983  0.00  0.00    -0.000 A 
ATOM     32  C   UNL     1       4.599   4.448  -8.762  0.00  0.00    -0.002 A 
ENDBRANCH  21  23
BRANCH  21  33
ATOM     33  C   UNL     1       1.997   5.700 -10.814  0.00  0.00    +0.053 C 
BRANCH  33  34
ATOM     34  C   UNL     1       1.027   6.823 -10.766  0.00  0.00    +0.075 C 
BRANCH  34  35
ATOM     35  N   UNL     1      -0.360   6.426 -10.816  0.00  0.00    -0.270 NA
ATOM     36  C   UNL     1      -1.104   7.334 -11.686  0.00  0.00    +0.090 C 
ATOM     37  C   UNL     1      -0.383   5.134 -11.497  0.00  0.00    +0.090 C 
ENDBRANCH  34  35
ENDBRANCH  33  34
ENDBRANCH  21  33
ENDBRANCH   1  21
TORSDOF 8
ENDMDL
MODEL 5
REMARK VINA RESULT:      -6.6      6.836     11.726
REMARK  Name = 
REMARK  8 active torsions:
REMARK  status: ('A' for Active; 'I' for Inactive)
REMARK    1  A    between atoms: O_2  and  C_3
REMARK    2  A    between atoms: C_13  and  C_14
REMARK    3  A    between atoms: C_14  and  C_15
REMARK    4  A    between atoms: C_14  and  C_21
REMARK    5  A    between atoms: C_21  and  C_23
REMARK    6  A    between atoms: C_21  and  C_28
REMARK    7  A    between atoms: C_23  and  C_24
REMARK    8  A    between atoms: C_24  and  N_25
REMARK                            x       y       z     vdW  Elec       q    Type
REMARK                         _______ _______ _______ _____ _____    ______ ____
ROOT
ATOM      1  C   UNL     1       4.511   5.192 -11.842  0.00  0.00    +0.081 C 
ENDROOT
BRANCH   1   3
ATOM      2  C   UNL     1       6.019   5.743 -13.775  0.00  0.00    +0.221 A 
ATOM      3  C   UNL     1       4.806   6.087 -13.187  0.00  0.00    +0.037 A 
ATOM      4  C   UNL     1       3.731   6.099 -14.073  0.00  0.00    +0.002 A 
ATOM      5  C   UNL     1       3.995   6.685 -15.307  0.00  0.00    +0.018 A 
ATOM      6  C   UNL     1       5.300   7.072 -15.592  0.00  0.00    +0.084 A 
ATOM      7  C   UNL     1       5.643   7.569 -16.837  0.00  0.00    +0.020 A 
ATOM      8  C   UNL     1       4.631   7.988 -17.661  0.00  0.00    +0.008 A 
ATOM      9  C   UNL     1       3.313   7.981 -17.223  0.00  0.00    +0.035 A 
ATOM     10 BR   UNL     1       1.965   8.421 -18.505  0.00  0.00    -0.049 Br
ATOM     11  C   UNL     1       3.021   7.368 -16.023  0.00  0.00    +0.008 A 
ATOM     12  N   UNL     1       6.274   6.389 -14.941  0.00  0.00    -0.212 NA
BRANCH   2  14
ATOM     13  C   UNL     1       8.202   5.006 -12.887  0.00  0.00    +0.254 C 
ATOM     14  O   UNL     1       6.858   4.754 -13.283  0.00  0.00    -0.456 OA
ENDBRANCH   2  14
ENDBRANCH   1   3
BRANCH   1  15
ATOM     15  C   UNL     1       5.735   5.897 -11.023  0.00  0.00    -0.016 A 
ATOM     16  C   UNL     1       6.116   5.238  -9.880  0.00  0.00    -0.004 A 
ATOM     17  C   UNL     1       7.220   5.793  -9.237  0.00  0.00    -0.000 A 
ATOM     18  C   UNL     1       7.740   7.025  -9.616  0.00  0.00    -0.000 A 
ATOM     19  C   UNL     1       7.068   7.752 -10.586  0.00  0.00    -0.000 A 
ATOM     20  C   UNL     1       6.065   7.155 -11.340  0.00  0.00    -0.004 A 
ENDBRANCH   1  15
BRANCH   1  21
ATOM     21  C   UNL     1       3.348   6.205 -11.205  0.00  0.00    +0.154 C 
ATOM     22  O   UNL     1       4.063   7.300 -10.739  0.00  0.00    -0.220 OA
BRANCH  21  23
ATOM     23  C   UNL     1       2.901   5.472  -9.988  0.00  0.00    +0.006 A 
ATOM     24  C   UNL     1       2.714   6.141  -8.782  0.00  0.00    -0.002 A 
ATOM     25  C   UNL     1       3.082   5.485  -7.615  0.00  0.00    -0.000 A 
ATOM     26  C   UNL     1       3.102   6.169  -6.415  0.00  0.00    -0.000 A 
ATOM     27  C   UNL     1       2.721   7.501  -6.440  0.00  0.00    -0.000 A 
ATOM     28  C   UNL     1       2.154   8.082  -7.569  0.00  0.00    -0.000 A 
ATOM     29  C   UNL     1       3.204   4.100  -7.630  0.00  0.00    -0.000 A 
ATOM     30  C   UNL     1       2.767   3.437  -8.772  0.00  0.00    -0.000 A 
ATOM     31  C   UNL     1       2.398   7.491  -8.805  0.00  0.00    -0.000 A 
ATOM     32  C   UNL     1       2.589   4.130  -9.945  0.00  0.00    -0.002 A 
ENDBRANCH  21  23
BRANCH  21  33
ATOM     33  C   UNL     1       2.332   6.493 -12.190  0.00  0.00    +0.053 C 
BRANCH  33  34
ATOM     34  C   UNL     1       0.946   6.056 -11.883  0.00  0.00    +0.075 C 
BRANCH  34  35
ATOM     35  N   UNL     1      -0.088   6.845 -12.510  0.00  0.00    -0.270 NA
ATOM     36  C   UNL     1      -0.791   7.634 -11.501  0.00  0.00    +0.090 C 
ATOM     37  C   UNL     1       0.605   7.821 -13.348  0.00  0.00    +0.090 C 
ENDBRANCH  34  35
ENDBRANCH  33  34
ENDBRANCH  21  33
ENDBRANCH   1  21
TORSDOF 8
ENDMDL
MODEL 6
REMARK VINA RESULT:      -6.5      3.978      7.937
REMARK  Name = 
REMARK  8 active torsions:
REMARK  status: ('A' for Active; 'I' for Inactive)
REMARK    1  A    between atoms: O_2  and  C_3
REMARK    2  A    between atoms: C_13  and  C_14
REMARK    3  A    between atoms: C_14  and  C_15
REMARK    4  A    between atoms: C_14  and  C_21
REMARK    5  A    between atoms: C_21  and  C_23
REMARK    6  A    between atoms: C_21  and  C_28
REMARK    7  A    between atoms: C_23  and  C_24
REMARK    8  A    between atoms: C_24  and  N_25
REMARK                            x       y       z     vdW  Elec       q    Type
REMARK                         _______ _______ _______ _____ _____    ______ ____
ROOT
ATOM      1  C   UNL     1       1.432   5.068  -6.151  0.00  0.00    +0.081 C 
ENDROOT
BRANCH   1   3
ATOM      2  C   UNL     1       3.941   4.957  -6.255  0.00  0.00    +0.221 A 
ATOM      3  C   UNL     1       2.826   5.426  -6.943  0.00  0.00    +0.037 A 
ATOM      4  C   UNL     1       2.793   5.056  -8.285  0.00  0.00    +0.002 A 
ATOM      5  C   UNL     1       4.008   5.165  -8.952  0.00  0.00    +0.018 A 
ATOM      6  C   UNL     1       5.143   5.492  -8.217  0.00  0.00    +0.084 A 
ATOM      7  C   UNL     1       6.394   5.519  -8.807  0.00  0.00    +0.020 A 
ATOM      8  C   UNL     1       6.458   5.554 -10.175  0.00  0.00    +0.008 A 
ATOM      9  C   UNL     1       5.298   5.635 -10.936  0.00  0.00    +0.035 A 
ATOM     10 BR   UNL     1       5.488   5.505 -12.833  0.00  0.00    -0.049 Br
ATOM     11  C   UNL     1       4.083   5.487 -10.301  0.00  0.00    +0.008 A 
ATOM     12  N   UNL     1       5.116   5.147  -6.906  0.00  0.00    -0.212 NA
BRANCH   2  14
ATOM     13  C   UNL     1       4.896   4.306  -4.073  0.00  0.00    +0.254 C 
ATOM     14  O   UNL     1       3.867   4.262  -5.056  0.00  0.00    -0.456 OA
ENDBRANCH   2  14
ENDBRANCH   1   3
BRANCH   1  15
ATOM     15  C   UNL     1       1.937   5.811  -4.788  0.00  0.00    -0.016 A 
ATOM     16  C   UNL     1       1.290   5.415  -3.643  0.00  0.00    -0.004 A 
ATOM     17  C   UNL     1       1.787   5.985  -2.474  0.00  0.00    -0.000 A 
ATOM     18  C   UNL     1       2.713   7.020  -2.506  0.00  0.00    -0.000 A 
ATOM     19  C   UNL     1       3.057   7.557  -3.736  0.00  0.00    -0.000 A 
ATOM     20  C   UNL     1       2.694   6.909  -4.911  0.00  0.00    -0.004 A 
ENDBRANCH   1  15
BRANCH   1  21
ATOM     21  C   UNL     1       0.573   6.391  -6.693  0.00  0.00    +0.154 C 
ATOM     22  O   UNL     1       0.953   7.420  -5.842  0.00  0.00    -0.220 OA
BRANCH  21  23
ATOM     23  C   UNL     1      -0.828   6.055  -6.314  0.00  0.00    +0.006 A 
ATOM     24  C   UNL     1      -1.457   6.709  -5.258  0.00  0.00    -0.002 A 
ATOM     25  C   UNL     1      -2.296   5.961  -4.443  0.00  0.00    -0.000 A 
ATOM     26  C   UNL     1      -2.789   6.507  -3.273  0.00  0.00    -0.000 A 
ATOM     27  C   UNL     1      -2.426   7.813  -2.983  0.00  0.00    -0.000 A 
ATOM     28  C   UNL     1      -1.764   8.615  -3.907  0.00  0.00    -0.000 A 
ATOM     29  C   UNL     1      -2.811   4.763  -4.924  0.00  0.00    -0.000 A 
ATOM     30  C   UNL     1      -2.601   4.477  -6.269  0.00  0.00    -0.000 A 
ATOM     31  C   UNL     1      -1.047   7.991  -4.924  0.00  0.00    -0.000 A 
ATOM     32  C   UNL     1      -1.626   5.143  -6.971  0.00  0.00    -0.002 A 
ENDBRANCH  21  23
BRANCH  21  33
ATOM     33  C   UNL     1       0.821   6.615  -8.098  0.00  0.00    +0.053 C 
BRANCH  33  34
ATOM     34  C   UNL     1      -0.136   6.012  -9.060  0.00  0.00    +0.075 C 
BRANCH  34  35
ATOM     35  N   UNL     1       0.333   5.960 -10.424  0.00  0.00    -0.270 NA
ATOM     36  C   UNL     1       0.028   4.653 -11.004  0.00  0.00    +0.090 C 
ATOM     37  C   UNL     1      -0.488   6.912 -11.169  0.00  0.00    +0.090 C 
ENDBRANCH  34  35
ENDBRANCH  33  34
ENDBRANCH  21  33
ENDBRANCH   1  21
TORSDOF 8
ENDMDL
MODEL 7
REMARK VINA RESULT:      -6.4      2.215      4.029
REMARK  Name = 
REMARK  8 active torsions:
REMARK  status: ('A' for Active; 'I' for Inactive)
REMARK    1  A    between atoms: O_2  and  C_3
REMARK    2  A    between atoms: C_13  and  C_14
REMARK    3  A    between atoms: C_14  and  C_15
REMARK    4  A    between atoms: C_14  and  C_21
REMARK    5  A    between atoms: C_21  and  C_23
REMARK    6  A    between atoms: C_21  and  C_28
REMARK    7  A    between atoms: C_23  and  C_24
REMARK    8  A    between atoms: C_24  and  N_25
REMARK                            x       y       z     vdW  Elec       q    Type
REMARK                         _______ _______ _______ _____ _____    ______ ____
ROOT
ATOM      1  C   UNL     1       1.680   5.361  -2.624  0.00  0.00    +0.081 C 
ENDROOT
BRANCH   1   3
ATOM      2  C   UNL     1       3.491   5.319  -0.881  0.00  0.00    +0.221 A 
ATOM      3  C   UNL     1       2.414   6.072  -1.337  0.00  0.00    +0.037 A 
ATOM      4  C   UNL     1       2.716   7.413  -1.562  0.00  0.00    +0.002 A 
ATOM      5  C   UNL     1       3.501   8.009  -0.581  0.00  0.00    +0.018 A 
ATOM      6  C   UNL     1       4.014   7.210   0.435  0.00  0.00    +0.084 A 
ATOM      7  C   UNL     1       4.880   7.726   1.383  0.00  0.00    +0.020 A 
ATOM      8  C   UNL     1       4.957   9.089   1.507  0.00  0.00    +0.008 A 
ATOM      9  C   UNL     1       4.132   9.916   0.755  0.00  0.00    +0.035 A 
ATOM     10 BR   UNL     1       4.437  11.798   0.879  0.00  0.00    -0.049 Br
ATOM     11  C   UNL     1       3.376   9.352  -0.251  0.00  0.00    +0.008 A 
ATOM     12  N   UNL     1       4.190   5.902   0.126  0.00  0.00    -0.212 NA
BRANCH   2  14
ATOM     13  C   UNL     1       3.779   2.868  -0.803  0.00  0.00    +0.254 C 
ATOM     14  O   UNL     1       3.894   4.125  -1.462  0.00  0.00    -0.456 OA
ENDBRANCH   2  14
ENDBRANCH   1   3
BRANCH   1  15
ATOM     15  C   UNL     1       0.193   5.614  -2.001  0.00  0.00    -0.016 A 
ATOM     16  C   UNL     1       0.183   6.131  -0.728  0.00  0.00    -0.004 A 
ATOM     17  C   UNL     1      -1.086   6.429  -0.238  0.00  0.00    -0.000 A 
ATOM     18  C   UNL     1      -2.237   6.033  -0.909  0.00  0.00    -0.000 A 
ATOM     19  C   UNL     1      -2.102   5.232  -2.031  0.00  0.00    -0.000 A 
ATOM     20  C   UNL     1      -0.854   5.053  -2.618  0.00  0.00    -0.004 A 
ENDBRANCH   1  15
BRANCH   1  21
ATOM     21  C   UNL     1       1.638   6.727  -3.582  0.00  0.00    +0.154 C 
ATOM     22  O   UNL     1       0.687   7.540  -2.980  0.00  0.00    -0.220 OA
BRANCH  21  23
ATOM     23  C   UNL     1       1.005   6.231  -4.836  0.00  0.00    +0.006 A 
ATOM     24  C   UNL     1      -0.300   6.588  -5.165  0.00  0.00    -0.002 A 
ATOM     25  C   UNL     1      -1.102   5.626  -5.764  0.00  0.00    -0.000 A 
ATOM     26  C   UNL     1      -2.453   5.859  -5.932  0.00  0.00    -0.000 A 
ATOM     27  C   UNL     1      -2.941   7.083  -5.501  0.00  0.00    -0.000 A 
ATOM     28  C   UNL     1      -2.096   8.112  -5.101  0.00  0.00    -0.000 A 
ATOM     29  C   UNL     1      -0.498   4.542  -6.392  0.00  0.00    -0.000 A 
ATOM     30  C   UNL     1       0.884   4.585  -6.542  0.00  0.00    -0.000 A 
ATOM     31  C   UNL     1      -0.813   7.781  -4.677  0.00  0.00    -0.000 A 
ATOM     32  C   UNL     1       1.633   5.450  -5.781  0.00  0.00    -0.002 A 
ENDBRANCH  21  23
BRANCH  21  33
ATOM     33  C   UNL     1       2.959   7.296  -3.712  0.00  0.00    +0.053 C 
BRANCH  33  34
ATOM     34  C   UNL     1       3.642   7.134  -5.020  0.00  0.00    +0.075 C 
BRANCH  34  35
ATOM     35  N   UNL     1       5.007   6.671  -4.935  0.00  0.00    -0.270 NA
ATOM     36  C   UNL     1       5.705   7.380  -3.865  0.00  0.00    +0.090 C 
ATOM     37  C   UNL     1       4.932   5.281  -4.491  0.00  0.00    +0.090 C 
ENDBRANCH  34  35
ENDBRANCH  33  34
ENDBRANCH  21  33
ENDBRANCH   1  21
TORSDOF 8
ENDMDL
MODEL 8
REMARK VINA RESULT:      -5.9      1.843      5.042
REMARK  Name = 
REMARK  8 active torsions:
REMARK  status: ('A' for Active; 'I' for Inactive)
REMARK    1  A    between atoms: O_2  and  C_3
REMARK    2  A    between atoms: C_13  and  C_14
REMARK    3  A    between atoms: C_14  and  C_15
REMARK    4  A    between atoms: C_14  and  C_21
REMARK    5  A    between atoms: C_21  and  C_23
REMARK    6  A    between atoms: C_21  and  C_28
REMARK    7  A    between atoms: C_23  and  C_24
REMARK    8  A    between atoms: C_24  and  N_25
REMARK                            x       y       z     vdW  Elec       q    Type
REMARK                         _______ _______ _______ _____ _____    ______ ____
ROOT
ATOM      1  C   UNL     1       2.235   7.151  -4.020  0.00  0.00    +0.081 C 
ENDROOT
BRANCH   1   3
ATOM      2  C   UNL     1       4.307   7.492  -2.638  0.00  0.00    +0.221 A 
ATOM      3  C   UNL     1       2.993   7.042  -2.566  0.00  0.00    +0.037 A 
ATOM      4  C   UNL     1       2.255   7.612  -1.530  0.00  0.00    +0.002 A 
ATOM      5  C   UNL     1       2.930   7.712  -0.319  0.00  0.00    +0.018 A 
ATOM      6  C   UNL     1       4.278   7.375  -0.278  0.00  0.00    +0.084 A 
ATOM      7  C   UNL     1       5.026   7.547   0.873  0.00  0.00    +0.020 A 
ATOM      8  C   UNL     1       4.353   7.732   2.052  0.00  0.00    +0.008 A 
ATOM      9  C   UNL     1       2.966   7.670   2.093  0.00  0.00    +0.035 A 
ATOM     10 BR   UNL     1       2.121   8.111   3.750  0.00  0.00    -0.049 Br
ATOM     11  C   UNL     1       2.274   7.612   0.901  0.00  0.00    +0.008 A 
ATOM     12  N   UNL     1       4.955   7.508  -1.446  0.00  0.00    -0.212 NA
BRANCH   2  14
ATOM     13  C   UNL     1       6.239   7.716  -4.159  0.00  0.00    +0.254 C 
ATOM     14  O   UNL     1       4.888   7.983  -3.798  0.00  0.00    -0.456 OA
ENDBRANCH   2  14
ENDBRANCH   1   3
BRANCH   1  15
ATOM     15  C   UNL     1       3.323   6.165  -4.735  0.00  0.00    -0.016 A 
ATOM     16  C   UNL     1       3.466   6.353  -6.088  0.00  0.00    -0.004 A 
ATOM     17  C   UNL     1       4.460   5.573  -6.675  0.00  0.00    -0.000 A 
ATOM     18  C   UNL     1       5.090   4.551  -5.977  0.00  0.00    -0.000 A 
ATOM     19  C   UNL     1       4.634   4.244  -4.705  0.00  0.00    -0.000 A 
ATOM     20  C   UNL     1       3.756   5.100  -4.050  0.00  0.00    -0.004 A 
ENDBRANCH   1  15
BRANCH   1  21
ATOM     21  C   UNL     1       1.136   5.927  -3.741  0.00  0.00    +0.154 C 
ATOM     22  O   UNL     1       1.901   4.768  -3.750  0.00  0.00    -0.220 OA
BRANCH  21  23
ATOM     23  C   UNL     1       0.348   5.895  -5.005  0.00  0.00    +0.006 A 
ATOM     24  C   UNL     1      -0.794   6.677  -5.152  0.00  0.00    -0.002 A 
ATOM     25  C   UNL     1      -1.867   6.130  -5.843  0.00  0.00    -0.000 A 
ATOM     26  C   UNL     1      -3.087   6.779  -5.850  0.00  0.00    -0.000 A 
ATOM     27  C   UNL     1      -3.167   7.983  -5.167  0.00  0.00    -0.000 A 
ATOM     28  C   UNL     1      -2.037   8.619  -4.663  0.00  0.00    -0.000 A 
ATOM     29  C   UNL     1      -1.640   5.062  -6.703  0.00  0.00    -0.000 A 
ATOM     30  C   UNL     1      -0.316   4.725  -6.960  0.00  0.00    -0.000 A 
ATOM     31  C   UNL     1      -0.905   7.849  -4.417  0.00  0.00    -0.000 A 
ATOM     32  C   UNL     1       0.682   5.165  -6.125  0.00  0.00    -0.002 A 
ENDBRANCH  21  23
BRANCH  21  33
ATOM     33  C   UNL     1       0.394   6.179  -2.528  0.00  0.00    +0.053 C 
BRANCH  33  34
ATOM     34  C   UNL     1      -0.286   5.021  -1.895  0.00  0.00    +0.075 C 
BRANCH  34  35
ATOM     35  N   UNL     1      -1.523   5.341  -1.223  0.00  0.00    -0.270 NA
ATOM     36  C   UNL     1      -1.461   6.700  -0.690  0.00  0.00    +0.090 C 
ATOM     37  C   UNL     1      -2.547   5.382  -2.265  0.00  0.00    +0.090 C 
ENDBRANCH  34  35
ENDBRANCH  33  34
ENDBRANCH  21  33
ENDBRANCH   1  21
TORSDOF 8
ENDMDL
MODEL 9
REMARK VINA RESULT:      -5.4      3.980      6.543
REMARK  Name = 
REMARK  8 active torsions:
REMARK  status: ('A' for Active; 'I' for Inactive)
REMARK    1  A    between atoms: O_2  and  C_3
REMARK    2  A    between atoms: C_13  and  C_14
REMARK    3  A    between atoms: C_14  and  C_15
REMARK    4  A    between atoms: C_14  and  C_21
REMARK    5  A    between atoms: C_21  and  C_23
REMARK    6  A    between atoms: C_21  and  C_28
REMARK    7  A    between atoms: C_23  and  C_24
REMARK    8  A    between atoms: C_24  and  N_25
REMARK                            x       y       z     vdW  Elec       q    Type
REMARK                         _______ _______ _______ _____ _____    ______ ____
ROOT
ATOM      1  C   UNL     1       2.906   5.072  -9.375  0.00  0.00    +0.081 C 
ENDROOT
BRANCH   1   3
ATOM      2  C   UNL     1       0.414   4.787  -9.217  0.00  0.00    +0.221 A 
ATOM      3  C   UNL     1       1.498   5.396  -8.593  0.00  0.00    +0.037 A 
ATOM      4  C   UNL     1       1.575   5.150  -7.223  0.00  0.00    +0.002 A 
ATOM      5  C   UNL     1       0.363   5.228  -6.546  0.00  0.00    +0.018 A 
ATOM      6  C   UNL     1      -0.802   5.404  -7.286  0.00  0.00    +0.084 A 
ATOM      7  C   UNL     1      -2.044   5.391  -6.679  0.00  0.00    +0.020 A 
ATOM      8  C   UNL     1      -2.095   5.542  -5.318  0.00  0.00    +0.008 A 
ATOM      9  C   UNL     1      -0.936   5.776  -4.589  0.00  0.00    +0.035 A 
ATOM     10 BR   UNL     1      -1.093   5.800  -2.684  0.00  0.00    -0.049 Br
ATOM     11  C   UNL     1       0.280   5.662  -5.230  0.00  0.00    +0.008 A 
ATOM     12  N   UNL     1      -0.765   4.947  -8.563  0.00  0.00    -0.212 NA
BRANCH   2  14
ATOM     13  C   UNL     1      -0.456   3.982 -11.382  0.00  0.00    +0.254 C 
ATOM     14  O   UNL     1       0.525   3.996 -10.350  0.00  0.00    -0.456 OA
ENDBRANCH   2  14
ENDBRANCH   1   3
BRANCH   1  15
ATOM     15  C   UNL     1       2.363   5.736 -10.765  0.00  0.00    -0.016 A 
ATOM     16  C   UNL     1       3.106   5.427 -11.878  0.00  0.00    -0.004 A 
ATOM     17  C   UNL     1       2.586   5.921 -13.072  0.00  0.00    -0.000 A 
ATOM     18  C   UNL     1       1.527   6.820 -13.088  0.00  0.00    -0.000 A 
ATOM     19  C   UNL     1       1.062   7.310 -11.878  0.00  0.00    -0.000 A 
ATOM     20  C   UNL     1       1.460   6.721 -10.684  0.00  0.00    -0.004 A 
ENDBRANCH   1  15
BRANCH   1  21
ATOM     21  C   UNL     1       3.703   6.456  -8.890  0.00  0.00    +0.154 C 
ATOM     22  O   UNL     1       3.416   7.384  -9.882  0.00  0.00    -0.220 OA
BRANCH  21  23
ATOM     23  C   UNL     1       5.135   6.097  -9.081  0.00  0.00    +0.006 A 
ATOM     24  C   UNL     1       5.859   6.599 -10.158  0.00  0.00    -0.002 A 
ATOM     25  C   UNL     1       6.778   5.757 -10.769  0.00  0.00    -0.000 A 
ATOM     26  C   UNL     1       7.378   6.133 -11.956  0.00  0.00    -0.000 A 
ATOM     27  C   UNL     1       7.035   7.373 -12.471  0.00  0.00    -0.000 A 
ATOM     28  C   UNL     1       6.282   8.289 -11.745  0.00  0.00    -0.000 A 
ATOM     29  C   UNL     1       7.253   4.655 -10.067  0.00  0.00    -0.000 A 
ATOM     30  C   UNL     1       6.916   4.568  -8.720  0.00  0.00    -0.000 A 
ATOM     31  C   UNL     1       5.475   7.809 -10.719  0.00  0.00    -0.000 A 
ATOM     32  C   UNL     1       5.873   5.310  -8.222  0.00  0.00    -0.002 A 
ENDBRANCH  21  23
BRANCH  21  33
ATOM     33  C   UNL     1       3.306   6.825  -7.551  0.00  0.00    +0.053 C 
BRANCH  33  34
ATOM     34  C   UNL     1       4.365   6.844  -6.511  0.00  0.00    +0.075 C 
BRANCH  34  35
ATOM     35  N   UNL     1       3.882   6.721  -5.156  0.00  0.00    -0.270 NA
ATOM     36  C   UNL     1       4.192   5.390  -4.638  0.00  0.00    +0.090 C 
ATOM     37  C   UNL     1       4.688   7.642  -4.358  0.00  0.00    +0.090 C 
ENDBRANCH  34  35
ENDBRANCH  33  34
ENDBRANCH  21  33
ENDBRANCH   1  21
TORSDOF 8
ENDMDL
