MODEL 1
REMARK VINA RESULT:      -8.7      0.000      0.000
REMARK  Name = 
REMARK  10 active torsions:
REMARK  status: ('A' for Active; 'I' for Inactive)
REMARK    1  A    between atoms: C_2  and  C_3
REMARK    2  A    between atoms: C_3  and  C_4
REMARK    3  A    between atoms: C_4  and  N_5
REMARK    4  A    between atoms: N_5  and  C_6
REMARK    5  A    between atoms: N_5  and  C_10
REMARK    6  A    between atoms: C_6  and  C_7
REMARK    7  A    between atoms: C_7  and  C_8
REMARK    8  A    between atoms: C_10  and  C_11
REMARK    9  A    between atoms: C_11  and  C_13
REMARK   10  A    between atoms: C_28  and  C_29
REMARK                            x       y       z     vdW  Elec       q    Type
REMARK                         _______ _______ _______ _____ _____    ______ ____
ROOT
ATOM      1  C   UNL     1       3.011   6.820  -2.935  0.00  0.00    +0.010 A 
ATOM      2  C   UNL     1       2.368   6.663  -4.169  0.00  0.00    -0.002 A 
ATOM      3  C   UNL     1       0.982   6.432  -4.562  0.00  0.00    -0.000 A 
ATOM      4  C   UNL     1       0.907   6.081  -5.903  0.00  0.00    +0.001 A 
ATOM      5  C   UNL     1       2.257   6.024  -6.423  0.00  0.00    +0.000 C 
ATOM      6  C   UNL     1       2.769   5.238  -7.374  0.00  0.00    +0.000 C 
ATOM      7  C   UNL     1      -0.269   5.537  -6.375  0.00  0.00    +0.011 A 
ATOM      8  C   UNL     1      -1.439   5.979  -5.798  0.00  0.00    +0.058 A 
ATOM      9 CL   UNL     1      -2.923   5.927  -6.706  0.00  0.00    -0.082 Cl
ATOM     10  C   UNL     1      -1.376   6.386  -4.471  0.00  0.00    +0.011 A 
ATOM     11  C   UNL     1      -0.167   6.388  -3.786  0.00  0.00    +0.001 A 
ATOM     12  C   UNL     1       3.093   6.584  -5.353  0.00  0.00    +0.001 A 
ATOM     13  C   UNL     1       4.468   6.792  -5.317  0.00  0.00    +0.011 A 
ATOM     14  C   UNL     1       5.046   7.017  -4.074  0.00  0.00    +0.057 A 
ATOM     15 CL   UNL     1       6.709   7.569  -3.908  0.00  0.00    -0.082 Cl
ATOM     16  C   UNL     1       4.351   6.502  -2.987  0.00  0.00    +0.010 A 
ENDROOT
BRANCH   6  17
ATOM     17  C   UNL     1       3.908   5.821  -8.097  0.00  0.00    +0.000 A 
ATOM     18  C   UNL     1       3.539   6.727  -9.086  0.00  0.00    +0.001 A 
ATOM     19  C   UNL     1       4.267   6.856 -10.264  0.00  0.00    +0.011 A 
ATOM     20  C   UNL     1       5.623   6.597 -10.140  0.00  0.00    +0.058 A 
ATOM     21 CL   UNL     1       6.707   7.318 -11.307  0.00  0.00    -0.082 Cl
ATOM     22  C   UNL     1       5.988   5.568  -9.297  0.00  0.00    +0.011 A 
ATOM     23  C   UNL     1       5.050   5.087  -8.390  0.00  0.00    +0.001 A 
ENDBRANCH   6  17
BRANCH   1  24
ATOM     24  C   UNL     1       2.170   5.997  -1.772  0.00  0.00    +0.190 C 
ATOM     25  O   UNL     1       3.120   4.766  -1.802  0.00  0.00    -0.217 OA
BRANCH  24  26
ATOM     26  C   UNL     1       3.081   6.721  -0.551  0.00  0.00    +0.110 C 
BRANCH  26  27
ATOM     27  N   UNL     1       2.109   7.237   0.363  0.00  0.00    -0.270 NA
BRANCH  27  28
ATOM     28  C   UNL     1       2.180   8.655   0.575  0.00  0.00    +0.072 C 
BRANCH  28  29
ATOM     29  C   UNL     1       3.342   9.216  -0.201  0.00  0.00    +0.017 C 
BRANCH  29  31
ATOM     30  C   UNL     1       3.366  11.228  -0.490  0.00  0.00    +0.000 C 
ATOM     31  C   UNL     1       3.308  10.739  -0.165  0.00  0.00    +0.001 C 
ENDBRANCH  29  31
ENDBRANCH  28  29
ENDBRANCH  27  28
BRANCH  27  32
ATOM     32  C   UNL     1       0.750   6.802   0.043  0.00  0.00    +0.072 C 
BRANCH  32  33
ATOM     33  C   UNL     1      -0.269   7.868   0.303  0.00  0.00    +0.017 C 
BRANCH  33  34
ATOM     34  C   UNL     1      -1.553   7.686  -0.458  0.00  0.00    +0.001 C 
ATOM     35  C   UNL     1      -1.927   6.230  -0.604  0.00  0.00    +0.000 C 
ENDBRANCH  33  34
ENDBRANCH  32  33
ENDBRANCH  27  32
ENDBRANCH  26  27
ENDBRANCH  24  26
ENDBRANCH   1  24
TORSDOF 10
ENDMDL
MODEL 2
REMARK VINA RESULT:      -8.6      2.578      3.688
REMARK  Name = 
REMARK  10 active torsions:
REMARK  status: ('A' for Active; 'I' for Inactive)
REMARK    1  A    between atoms: C_2  and  C_3
REMARK    2  A    between atoms: C_3  and  C_4
REMARK    3  A    between atoms: C_4  and  N_5
REMARK    4  A    between atoms: N_5  and  C_6
REMARK    5  A    between atoms: N_5  and  C_10
REMARK    6  A    between atoms: C_6  and  C_7
REMARK    7  A    between atoms: C_7  and  C_8
REMARK    8  A    between atoms: C_10  and  C_11
REMARK    9  A    between atoms: C_11  and  C_13
REMARK   10  A    between atoms: C_28  and  C_29
REMARK                            x       y       z     vdW  Elec       q    Type
REMARK                         _______ _______ _______ _____ _____    ______ ____
ROOT
ATOM      1  C   UNL     1       3.779   5.889  -6.103  0.00  0.00    +0.010 A 
ATOM      2  C   UNL     1       2.460   6.121  -6.510  0.00  0.00    -0.002 A 
ATOM      3  C   UNL     1       1.199   6.290  -5.795  0.00  0.00    -0.000 A 
ATOM      4  C   UNL     1       0.127   6.230  -6.675  0.00  0.00    +0.001 A 
ATOM      5  C   UNL     1       0.653   5.969  -7.998  0.00  0.00    +0.000 C 
ATOM      6  C   UNL     1       0.111   5.285  -9.009  0.00  0.00    +0.000 C 
ATOM      7  C   UNL     1      -1.141   6.067  -6.157  0.00  0.00    +0.011 A 
ATOM      8  C   UNL     1      -1.394   6.643  -4.932  0.00  0.00    +0.058 A 
ATOM      9 CL   UNL     1      -3.020   7.104  -4.514  0.00  0.00    -0.082 Cl
ATOM     10  C   UNL     1      -0.323   6.763  -4.055  0.00  0.00    +0.011 A 
ATOM     11  C   UNL     1       0.952   6.359  -4.432  0.00  0.00    +0.001 A 
ATOM     12  C   UNL     1       2.109   6.109  -7.855  0.00  0.00    +0.001 A 
ATOM     13  C   UNL     1       3.111   5.989  -8.812  0.00  0.00    +0.011 A 
ATOM     14  C   UNL     1       4.413   5.835  -8.355  0.00  0.00    +0.057 A 
ATOM     15 CL   UNL     1       5.798   5.953  -9.436  0.00  0.00    -0.082 Cl
ATOM     16  C   UNL     1       4.543   5.292  -7.084  0.00  0.00    +0.010 A 
ENDROOT
BRANCH   6  17
ATOM     17  C   UNL     1       0.547   5.723 -10.343  0.00  0.00    +0.000 A 
ATOM     18  C   UNL     1       0.134   7.009 -10.674  0.00  0.00    +0.001 A 
ATOM     19  C   UNL     1      -0.187   7.358 -11.981  0.00  0.00    +0.011 A 
ATOM     20  C   UNL     1       0.515   6.666 -12.956  0.00  0.00    +0.058 A 
ATOM     21 CL   UNL     1       0.693   7.415 -14.526  0.00  0.00    -0.082 Cl
ATOM     22  C   UNL     1       0.768   5.332 -12.716  0.00  0.00    +0.011 A 
ATOM     23  C   UNL     1       0.617   4.849 -11.421  0.00  0.00    +0.001 A 
ENDBRANCH   6  17
BRANCH   1  24
ATOM     24  C   UNL     1       3.771   5.070  -4.665  0.00  0.00    +0.190 C 
ATOM     25  O   UNL     1       5.187   4.461  -4.879  0.00  0.00    -0.217 OA
BRANCH  24  26
ATOM     26  C   UNL     1       4.421   6.403  -3.863  0.00  0.00    +0.110 C 
BRANCH  26  27
ATOM     27  N   UNL     1       4.505   5.992  -2.495  0.00  0.00    -0.270 NA
BRANCH  27  28
ATOM     28  C   UNL     1       4.518   7.069  -1.547  0.00  0.00    +0.072 C 
BRANCH  28  29
ATOM     29  C   UNL     1       3.956   8.308  -2.193  0.00  0.00    +0.017 C 
BRANCH  29  31
ATOM     30  C   UNL     1       3.545   9.424  -0.545  0.00  0.00    +0.000 C 
ATOM     31  C   UNL     1       3.552   9.317  -1.125  0.00  0.00    +0.001 C 
ENDBRANCH  29  31
ENDBRANCH  28  29
ENDBRANCH  27  28
BRANCH  27  32
ATOM     32  C   UNL     1       3.512   4.975  -2.152  0.00  0.00    +0.072 C 
BRANCH  32  33
ATOM     33  C   UNL     1       2.830   5.258  -0.849  0.00  0.00    +0.017 C 
BRANCH  33  34
ATOM     34  C   UNL     1       1.329   5.290  -0.938  0.00  0.00    +0.001 C 
ATOM     35  C   UNL     1       0.756   6.588  -0.422  0.00  0.00    +0.000 C 
ENDBRANCH  33  34
ENDBRANCH  32  33
ENDBRANCH  27  32
ENDBRANCH  26  27
ENDBRANCH  24  26
ENDBRANCH   1  24
TORSDOF 10
ENDMDL
MODEL 3
REMARK VINA RESULT:      -8.5      0.324      2.513
REMARK  Name = 
REMARK  10 active torsions:
REMARK  status: ('A' for Active; 'I' for Inactive)
REMARK    1  A    between atoms: C_2  and  C_3
REMARK    2  A    between atoms: C_3  and  C_4
REMARK    3  A    between atoms: C_4  and  N_5
REMARK    4  A    between atoms: N_5  and  C_6
REMARK    5  A    between atoms: N_5  and  C_10
REMARK    6  A    between atoms: C_6  and  C_7
REMARK    7  A    between atoms: C_7  and  C_8
REMARK    8  A    between atoms: C_10  and  C_11
REMARK    9  A    between atoms: C_11  and  C_13
REMARK   10  A    between atoms: C_28  and  C_29
REMARK                            x       y       z     vdW  Elec       q    Type
REMARK                         _______ _______ _______ _____ _____    ______ ____
ROOT
ATOM      1  C   UNL     1       2.898   6.746  -2.952  0.00  0.00    +0.010 A 
ATOM      2  C   UNL     1       2.268   6.601  -4.195  0.00  0.00    -0.002 A 
ATOM      3  C   UNL     1       0.887   6.366  -4.604  0.00  0.00    -0.000 A 
ATOM      4  C   UNL     1       0.828   6.034  -5.950  0.00  0.00    +0.001 A 
ATOM      5  C   UNL     1       2.182   5.994  -6.458  0.00  0.00    +0.000 C 
ATOM      6  C   UNL     1       2.709   5.225  -7.415  0.00  0.00    +0.000 C 
ATOM      7  C   UNL     1      -0.340   5.488  -6.442  0.00  0.00    +0.011 A 
ATOM      8  C   UNL     1      -1.518   5.914  -5.869  0.00  0.00    +0.058 A 
ATOM      9 CL   UNL     1      -2.994   5.864  -6.792  0.00  0.00    -0.082 Cl
ATOM     10  C   UNL     1      -1.471   6.302  -4.536  0.00  0.00    +0.011 A 
ATOM     11  C   UNL     1      -0.269   6.303  -3.839  0.00  0.00    +0.001 A 
ATOM     12  C   UNL     1       3.004   6.545  -5.373  0.00  0.00    +0.001 A 
ATOM     13  C   UNL     1       4.377   6.762  -5.320  0.00  0.00    +0.011 A 
ATOM     14  C   UNL     1       4.942   6.974  -4.069  0.00  0.00    +0.057 A 
ATOM     15 CL   UNL     1       6.600   7.535  -3.880  0.00  0.00    -0.082 Cl
ATOM     16  C   UNL     1       4.241   6.439  -2.996  0.00  0.00    +0.010 A 
ENDROOT
BRANCH   6  17
ATOM     17  C   UNL     1       3.850   5.827  -8.120  0.00  0.00    +0.000 A 
ATOM     18  C   UNL     1       3.484   6.743  -9.100  0.00  0.00    +0.001 A 
ATOM     19  C   UNL     1       4.223   6.893 -10.269  0.00  0.00    +0.011 A 
ATOM     20  C   UNL     1       5.580   6.642 -10.135  0.00  0.00    +0.058 A 
ATOM     21 CL   UNL     1       6.669   7.388 -11.281  0.00  0.00    -0.082 Cl
ATOM     22  C   UNL     1       5.944   5.606  -9.301  0.00  0.00    +0.011 A 
ATOM     23  C   UNL     1       5.002   5.106  -8.410  0.00  0.00    +0.001 A 
ENDBRANCH   6  17
BRANCH   1  24
ATOM     24  C   UNL     1       2.052   5.900  -1.809  0.00  0.00    +0.190 C 
ATOM     25  O   UNL     1       3.100   4.754  -1.724  0.00  0.00    -0.217 OA
BRANCH  24  26
ATOM     26  C   UNL     1       2.816   6.747  -0.567  0.00  0.00    +0.110 C 
BRANCH  26  27
ATOM     27  N   UNL     1       1.834   7.684  -0.116  0.00  0.00    -0.270 NA
BRANCH  27  28
ATOM     28  C   UNL     1       0.642   7.090   0.419  0.00  0.00    +0.072 C 
BRANCH  28  29
ATOM     29  C   UNL     1      -0.460   8.117   0.439  0.00  0.00    +0.017 C 
BRANCH  29  31
ATOM     30  C   UNL     1      -1.979   7.343  -0.667  0.00  0.00    +0.000 C 
ATOM     31  C   UNL     1      -1.551   7.732  -0.553  0.00  0.00    +0.001 C 
ENDBRANCH  29  31
ENDBRANCH  28  29
ENDBRANCH  27  28
BRANCH  27  32
ATOM     32  C   UNL     1       2.391   8.692   0.785  0.00  0.00    +0.072 C 
BRANCH  32  33
ATOM     33  C   UNL     1       3.350   9.611   0.095  0.00  0.00    +0.017 C 
BRANCH  33  34
ATOM     34  C   UNL     1       2.917  11.051   0.081  0.00  0.00    +0.001 C 
ATOM     35  C   UNL     1       4.010  11.969  -0.412  0.00  0.00    +0.000 C 
ENDBRANCH  33  34
ENDBRANCH  32  33
ENDBRANCH  27  32
ENDBRANCH  26  27
ENDBRANCH  24  26
ENDBRANCH   1  24
TORSDOF 10
ENDMDL
MODEL 4
REMARK VINA RESULT:      -8.4      3.958      9.481
REMARK  Name = 
REMARK  10 active torsions:
REMARK  status: ('A' for Active; 'I' for Inactive)
REMARK    1  A    between atoms: C_2  and  C_3
REMARK    2  A    between atoms: C_3  and  C_4
REMARK    3  A    between atoms: C_4  and  N_5
REMARK    4  A    between atoms: N_5  and  C_6
REMARK    5  A    between atoms: N_5  and  C_10
REMARK    6  A    between atoms: C_6  and  C_7
REMARK    7  A    between atoms: C_7  and  C_8
REMARK    8  A    between atoms: C_10  and  C_11
REMARK    9  A    between atoms: C_11  and  C_13
REMARK   10  A    between atoms: C_28  and  C_29
REMARK                            x       y       z     vdW  Elec       q    Type
REMARK                         _______ _______ _______ _____ _____    ______ ____
ROOT
ATOM      1  C   UNL     1       1.109   6.130  -8.785  0.00  0.00    +0.010 A 
ATOM      2  C   UNL     1       2.450   6.165  -8.386  0.00  0.00    -0.002 A 
ATOM      3  C   UNL     1       3.718   6.066  -9.103  0.00  0.00    -0.000 A 
ATOM      4  C   UNL     1       4.768   5.891  -8.212  0.00  0.00    +0.001 A 
ATOM      5  C   UNL     1       4.212   5.821  -6.877  0.00  0.00    +0.000 C 
ATOM      6  C   UNL     1       4.636   5.131  -5.815  0.00  0.00    +0.000 C 
ATOM      7  C   UNL     1       5.988   5.480  -8.707  0.00  0.00    +0.011 A 
ATOM      8  C   UNL     1       6.329   5.913  -9.969  0.00  0.00    +0.058 A 
ATOM      9 CL   UNL     1       8.008   6.062 -10.406  0.00  0.00    -0.082 Cl
ATOM     10  C   UNL     1       5.290   6.147 -10.861  0.00  0.00    +0.011 A 
ATOM     11  C   UNL     1       3.967   5.993 -10.465  0.00  0.00    +0.001 A 
ATOM     12  C   UNL     1       2.801   6.193  -7.041  0.00  0.00    +0.001 A 
ATOM     13  C   UNL     1       1.797   6.314  -6.086  0.00  0.00    +0.011 A 
ATOM     14  C   UNL     1       0.485   6.349  -6.541  0.00  0.00    +0.057 A 
ATOM     15 CL   UNL     1      -0.855   6.778  -5.482  0.00  0.00    -0.082 Cl
ATOM     16  C   UNL     1       0.260   5.743  -7.770  0.00  0.00    +0.010 A 
ENDROOT
BRANCH   6  17
ATOM     17  C   UNL     1       4.286   5.733  -4.520  0.00  0.00    +0.000 A 
ATOM     18  C   UNL     1       4.908   6.954  -4.283  0.00  0.00    +0.001 A 
ATOM     19  C   UNL     1       5.291   7.341  -3.003  0.00  0.00    +0.011 A 
ATOM     20  C   UNL     1       4.489   6.849  -1.984  0.00  0.00    +0.058 A 
ATOM     21 CL   UNL     1       4.447   7.731  -0.475  0.00  0.00    -0.082 Cl
ATOM     22  C   UNL     1       4.018   5.561  -2.126  0.00  0.00    +0.011 A 
ATOM     23  C   UNL     1       4.079   4.965  -3.381  0.00  0.00    +0.001 A 
ENDBRANCH   6  17
BRANCH   1  24
ATOM     24  C   UNL     1       0.971   5.217 -10.160  0.00  0.00    +0.190 C 
ATOM     25  O   UNL     1      -0.458   4.711  -9.812  0.00  0.00    -0.217 OA
BRANCH  24  26
ATOM     26  C   UNL     1       0.343   6.531 -11.010  0.00  0.00    +0.110 C 
BRANCH  26  27
ATOM     27  N   UNL     1       0.805   6.343 -12.351  0.00  0.00    -0.270 NA
BRANCH  27  28
ATOM     28  C   UNL     1       0.998   4.973 -12.730  0.00  0.00    +0.072 C 
BRANCH  28  29
ATOM     29  C   UNL     1       1.704   4.919 -14.060  0.00  0.00    +0.017 C 
BRANCH  29  31
ATOM     30  C   UNL     1       3.640   5.527 -14.183  0.00  0.00    +0.000 C 
ATOM     31  C   UNL     1       3.160   5.341 -13.896  0.00  0.00    +0.001 C 
ENDBRANCH  29  31
ENDBRANCH  28  29
ENDBRANCH  27  28
BRANCH  27  32
ATOM     32  C   UNL     1      -0.001   7.071 -13.330  0.00  0.00    +0.072 C 
BRANCH  32  33
ATOM     33  C   UNL     1       0.689   8.297 -13.843  0.00  0.00    +0.017 C 
BRANCH  33  34
ATOM     34  C   UNL     1       0.914   8.297 -15.329  0.00  0.00    +0.001 C 
ATOM     35  C   UNL     1      -0.132   7.493 -16.064  0.00  0.00    +0.000 C 
ENDBRANCH  33  34
ENDBRANCH  32  33
ENDBRANCH  27  32
ENDBRANCH  26  27
ENDBRANCH  24  26
ENDBRANCH   1  24
TORSDOF 10
ENDMDL
MODEL 5
REMARK VINA RESULT:      -8.2      3.977      9.564
REMARK  Name = 
REMARK  10 active torsions:
REMARK  status: ('A' for Active; 'I' for Inactive)
REMARK    1  A    between atoms: C_2  and  C_3
REMARK    2  A    between atoms: C_3  and  C_4
REMARK    3  A    between atoms: C_4  and  N_5
REMARK    4  A    between atoms: N_5  and  C_6
REMARK    5  A    between atoms: N_5  and  C_10
REMARK    6  A    between atoms: C_6  and  C_7
REMARK    7  A    between atoms: C_7  and  C_8
REMARK    8  A    between atoms: C_10  and  C_11
REMARK    9  A    between atoms: C_11  and  C_13
REMARK   10  A    between atoms: C_28  and  C_29
REMARK                            x       y       z     vdW  Elec       q    Type
REMARK                         _______ _______ _______ _____ _____    ______ ____
ROOT
ATOM      1  C   UNL     1       1.057   5.989  -8.989  0.00  0.00    +0.010 A 
ATOM      2  C   UNL     1       2.397   6.104  -8.600  0.00  0.00    -0.002 A 
ATOM      3  C   UNL     1       3.664   6.084  -9.326  0.00  0.00    -0.000 A 
ATOM      4  C   UNL     1       4.729   5.969  -8.443  0.00  0.00    +0.001 A 
ATOM      5  C   UNL     1       4.188   5.860  -7.105  0.00  0.00    +0.000 C 
ATOM      6  C   UNL     1       4.661   5.193  -6.049  0.00  0.00    +0.000 C 
ATOM      7  C   UNL     1       5.968   5.633  -8.949  0.00  0.00    +0.011 A 
ATOM      8  C   UNL     1       6.272   6.091 -10.212  0.00  0.00    +0.058 A 
ATOM      9 CL   UNL     1       7.935   6.341 -10.662  0.00  0.00    -0.082 Cl
ATOM     10  C   UNL     1       5.214   6.265 -11.096  0.00  0.00    +0.011 A 
ATOM     11  C   UNL     1       3.906   6.030 -10.690  0.00  0.00    +0.001 A 
ATOM     12  C   UNL     1       2.756   6.148  -7.257  0.00  0.00    +0.001 A 
ATOM     13  C   UNL     1       1.754   6.205  -6.294  0.00  0.00    +0.011 A 
ATOM     14  C   UNL     1       0.439   6.162  -6.739  0.00  0.00    +0.057 A 
ATOM     15 CL   UNL     1      -0.916   6.506  -5.669  0.00  0.00    -0.082 Cl
ATOM     16  C   UNL     1       0.241   5.549  -7.969  0.00  0.00    +0.010 A 
ENDROOT
BRANCH   6  17
ATOM     17  C   UNL     1       4.286   5.768  -4.749  0.00  0.00    +0.000 A 
ATOM     18  C   UNL     1       4.877   7.000  -4.489  0.00  0.00    +0.001 A 
ATOM     19  C   UNL     1       5.239   7.377  -3.200  0.00  0.00    +0.011 A 
ATOM     20  C   UNL     1       4.440   6.852  -2.196  0.00  0.00    +0.058 A 
ATOM     21 CL   UNL     1       4.364   7.712  -0.675  0.00  0.00    -0.082 Cl
ATOM     22  C   UNL     1       4.000   5.556  -2.361  0.00  0.00    +0.011 A 
ATOM     23  C   UNL     1       4.086   4.980  -3.623  0.00  0.00    +0.001 A 
ENDBRANCH   6  17
BRANCH   1  24
ATOM     24  C   UNL     1       0.964   5.076 -10.366  0.00  0.00    +0.190 C 
ATOM     25  O   UNL     1      -0.354   4.369  -9.939  0.00  0.00    -0.217 OA
BRANCH  24  26
ATOM     26  C   UNL     1       0.104   6.292 -11.156  0.00  0.00    +0.110 C 
BRANCH  26  27
ATOM     27  N   UNL     1       0.463   6.147 -12.533  0.00  0.00    -0.270 NA
BRANCH  27  28
ATOM     28  C   UNL     1       1.189   7.256 -13.083  0.00  0.00    +0.072 C 
BRANCH  28  29
ATOM     29  C   UNL     1       0.248   8.124 -13.876  0.00  0.00    +0.017 C 
BRANCH  29  31
ATOM     30  C   UNL     1      -0.072   7.561 -15.803  0.00  0.00    +0.000 C 
ATOM     31  C   UNL     1       0.266   7.710 -15.342  0.00  0.00    +0.001 C 
ENDBRANCH  29  31
ENDBRANCH  28  29
ENDBRANCH  27  28
BRANCH  27  32
ATOM     32  C   UNL     1       1.123   4.873 -12.811  0.00  0.00    +0.072 C 
BRANCH  32  33
ATOM     33  C   UNL     1       1.844   4.875 -14.124  0.00  0.00    +0.017 C 
BRANCH  33  34
ATOM     34  C   UNL     1       3.332   4.700 -14.006  0.00  0.00    +0.001 C 
ATOM     35  C   UNL     1       4.089   5.905 -14.511  0.00  0.00    +0.000 C 
ENDBRANCH  33  34
ENDBRANCH  32  33
ENDBRANCH  27  32
ENDBRANCH  26  27
ENDBRANCH  24  26
ENDBRANCH   1  24
TORSDOF 10
ENDMDL
MODEL 6
REMARK VINA RESULT:      -7.9      1.208      2.126
REMARK  Name = 
REMARK  10 active torsions:
REMARK  status: ('A' for Active; 'I' for Inactive)
REMARK    1  A    between atoms: C_2  and  C_3
REMARK    2  A    between atoms: C_3  and  C_4
REMARK    3  A    between atoms: C_4  and  N_5
REMARK    4  A    between atoms: N_5  and  C_6
REMARK    5  A    between atoms: N_5  and  C_10
REMARK    6  A    between atoms: C_6  and  C_7
REMARK    7  A    between atoms: C_7  and  C_8
REMARK    8  A    between atoms: C_10  and  C_11
REMARK    9  A    between atoms: C_11  and  C_13
REMARK   10  A    between atoms: C_28  and  C_29
REMARK                            x       y       z     vdW  Elec       q    Type
REMARK                         _______ _______ _______ _____ _____    ______ ____
ROOT
ATOM      1  C   UNL     1       3.143   7.095  -2.832  0.00  0.00    +0.010 A 
ATOM      2  C   UNL     1       2.480   6.871  -4.045  0.00  0.00    -0.002 A 
ATOM      3  C   UNL     1       1.085   6.636  -4.404  0.00  0.00    -0.000 A 
ATOM      4  C   UNL     1       0.986   6.206  -5.720  0.00  0.00    +0.001 A 
ATOM      5  C   UNL     1       2.327   6.099  -6.254  0.00  0.00    +0.000 C 
ATOM      6  C   UNL     1       2.815   5.250  -7.163  0.00  0.00    +0.000 C 
ATOM      7  C   UNL     1      -0.204   5.649  -6.142  0.00  0.00    +0.011 A 
ATOM      8  C   UNL     1      -1.359   6.141  -5.576  0.00  0.00    +0.058 A 
ATOM      9 CL   UNL     1      -2.857   6.054  -6.458  0.00  0.00    -0.082 Cl
ATOM     10  C   UNL     1      -1.272   6.627  -4.277  0.00  0.00    +0.011 A 
ATOM     11  C   UNL     1      -0.053   6.654  -3.611  0.00  0.00    +0.001 A 
ATOM     12  C   UNL     1       3.186   6.712  -5.232  0.00  0.00    +0.001 A 
ATOM     13  C   UNL     1       4.563   6.903  -5.228  0.00  0.00    +0.011 A 
ATOM     14  C   UNL     1       5.162   7.196  -4.010  0.00  0.00    +0.057 A 
ATOM     15 CL   UNL     1       6.835   7.735  -3.901  0.00  0.00    -0.082 Cl
ATOM     16  C   UNL     1       4.478   6.757  -2.883  0.00  0.00    +0.010 A 
ENDROOT
BRANCH   6  17
ATOM     17  C   UNL     1       3.950   5.773  -7.936  0.00  0.00    +0.000 A 
ATOM     18  C   UNL     1       3.580   6.643  -8.956  0.00  0.00    +0.001 A 
ATOM     19  C   UNL     1       4.284   6.702 -10.154  0.00  0.00    +0.011 A 
ATOM     20  C   UNL     1       5.637   6.416 -10.048  0.00  0.00    +0.058 A 
ATOM     21 CL   UNL     1       6.710   7.059 -11.270  0.00  0.00    -0.082 Cl
ATOM     22  C   UNL     1       5.996   5.417  -9.168  0.00  0.00    +0.011 A 
ATOM     23  C   UNL     1       5.069   5.000  -8.220  0.00  0.00    +0.001 A 
ENDBRANCH   6  17
BRANCH   1  24
ATOM     24  C   UNL     1       2.308   6.355  -1.609  0.00  0.00    +0.190 C 
ATOM     25  O   UNL     1       2.889   4.946  -1.919  0.00  0.00    -0.217 OA
BRANCH  24  26
ATOM     26  C   UNL     1       3.555   6.675  -0.519  0.00  0.00    +0.110 C 
BRANCH  26  27
ATOM     27  N   UNL     1       2.889   7.118   0.666  0.00  0.00    -0.270 NA
BRANCH  27  28
ATOM     28  C   UNL     1       3.764   7.482   1.744  0.00  0.00    +0.072 C 
BRANCH  28  29
ATOM     29  C   UNL     1       5.194   7.299   1.307  0.00  0.00    +0.017 C 
BRANCH  29  31
ATOM     30  C   UNL     1       6.604   8.279   2.394  0.00  0.00    +0.000 C 
ATOM     31  C   UNL     1       6.103   8.242   2.084  0.00  0.00    +0.001 C 
ENDBRANCH  29  31
ENDBRANCH  28  29
ENDBRANCH  27  28
BRANCH  27  32
ATOM     32  C   UNL     1       1.894   8.155   0.398  0.00  0.00    +0.072 C 
BRANCH  32  33
ATOM     33  C   UNL     1       2.144   9.405   1.185  0.00  0.00    +0.017 C 
BRANCH  33  34
ATOM     34  C   UNL     1       2.443  10.612   0.339  0.00  0.00    +0.001 C 
ATOM     35  C   UNL     1       3.921  10.919   0.288  0.00  0.00    +0.000 C 
ENDBRANCH  33  34
ENDBRANCH  32  33
ENDBRANCH  27  32
ENDBRANCH  26  27
ENDBRANCH  24  26
ENDBRANCH   1  24
TORSDOF 10
ENDMDL
MODEL 7
REMARK VINA RESULT:      -7.7      1.877      3.474
REMARK  Name = 
REMARK  10 active torsions:
REMARK  status: ('A' for Active; 'I' for Inactive)
REMARK    1  A    between atoms: C_2  and  C_3
REMARK    2  A    between atoms: C_3  and  C_4
REMARK    3  A    between atoms: C_4  and  N_5
REMARK    4  A    between atoms: N_5  and  C_6
REMARK    5  A    between atoms: N_5  and  C_10
REMARK    6  A    between atoms: C_6  and  C_7
REMARK    7  A    between atoms: C_7  and  C_8
REMARK    8  A    between atoms: C_10  and  C_11
REMARK    9  A    between atoms: C_11  and  C_13
REMARK   10  A    between atoms: C_28  and  C_29
REMARK                            x       y       z     vdW  Elec       q    Type
REMARK                         _______ _______ _______ _____ _____    ______ ____
ROOT
ATOM      1  C   UNL     1       2.857   7.000  -1.848  0.00  0.00    +0.010 A 
ATOM      2  C   UNL     1       1.775   6.680  -2.678  0.00  0.00    -0.002 A 
ATOM      3  C   UNL     1       0.345   6.503  -2.447  0.00  0.00    -0.000 A 
ATOM      4  C   UNL     1      -0.259   5.927  -3.557  0.00  0.00    +0.001 A 
ATOM      5  C   UNL     1       0.772   5.664  -4.537  0.00  0.00    +0.000 C 
ATOM      6  C   UNL     1       0.857   4.680  -5.437  0.00  0.00    +0.000 C 
ATOM      7  C   UNL     1      -1.531   5.411  -3.418  0.00  0.00    +0.011 A 
ATOM      8  C   UNL     1      -2.371   6.046  -2.531  0.00  0.00    +0.058 A 
ATOM      9 CL   UNL     1      -4.094   5.961  -2.761  0.00  0.00    -0.082 Cl
ATOM     10  C   UNL     1      -1.783   6.676  -1.441  0.00  0.00    +0.011 A 
ATOM     11  C   UNL     1      -0.401   6.696  -1.294  0.00  0.00    +0.001 A 
ATOM     12  C   UNL     1       1.969   6.331  -4.010  0.00  0.00    +0.001 A 
ATOM     13  C   UNL     1       3.246   6.424  -4.552  0.00  0.00    +0.011 A 
ATOM     14  C   UNL     1       4.272   6.817  -3.702  0.00  0.00    +0.057 A 
ATOM     15 CL   UNL     1       5.869   7.245  -4.308  0.00  0.00    -0.082 Cl
ATOM     16  C   UNL     1       4.063   6.564  -2.352  0.00  0.00    +0.010 A 
ENDROOT
BRANCH   6  17
ATOM     17  C   UNL     1       1.619   5.026  -6.646  0.00  0.00    +0.000 A 
ATOM     18  C   UNL     1       0.978   5.946  -7.469  0.00  0.00    +0.001 A 
ATOM     19  C   UNL     1       1.109   5.900  -8.853  0.00  0.00    +0.011 A 
ATOM     20  C   UNL     1       2.324   5.410  -9.306  0.00  0.00    +0.058 A 
ATOM     21 CL   UNL     1       2.858   5.886 -10.901  0.00  0.00    -0.082 Cl
ATOM     22  C   UNL     1       2.879   4.365  -8.597  0.00  0.00    +0.011 A 
ATOM     23  C   UNL     1       2.392   4.092  -7.324  0.00  0.00    +0.001 A 
ENDBRANCH   6  17
BRANCH   1  24
ATOM     24  C   UNL     1       2.541   6.471  -0.311  0.00  0.00    +0.190 C 
ATOM     25  O   UNL     1       3.916   5.761  -0.156  0.00  0.00    -0.217 OA
BRANCH  24  26
ATOM     26  C   UNL     1       3.157   7.898   0.343  0.00  0.00    +0.110 C 
BRANCH  26  27
ATOM     27  N   UNL     1       2.022   8.761   0.451  0.00  0.00    -0.270 NA
BRANCH  27  28
ATOM     28  C   UNL     1       1.116   8.428   1.514  0.00  0.00    +0.072 C 
BRANCH  28  29
ATOM     29  C   UNL     1       0.162   9.573   1.731  0.00  0.00    +0.017 C 
BRANCH  29  31
ATOM     30  C   UNL     1      -1.823   9.162   1.582  0.00  0.00    +0.000 C 
ATOM     31  C   UNL     1      -1.261   9.137   1.405  0.00  0.00    +0.001 C 
ENDBRANCH  29  31
ENDBRANCH  28  29
ENDBRANCH  27  28
BRANCH  27  32
ATOM     32  C   UNL     1       2.392  10.176   0.475  0.00  0.00    +0.072 C 
BRANCH  32  33
ATOM     33  C   UNL     1       3.361  10.533  -0.610  0.00  0.00    +0.017 C 
BRANCH  33  34
ATOM     34  C   UNL     1       3.991  11.888  -0.446  0.00  0.00    +0.001 C 
ATOM     35  C   UNL     1       4.292  12.205   0.999  0.00  0.00    +0.000 C 
ENDBRANCH  33  34
ENDBRANCH  32  33
ENDBRANCH  27  32
ENDBRANCH  26  27
ENDBRANCH  24  26
ENDBRANCH   1  24
TORSDOF 10
ENDMDL
MODEL 8
REMARK VINA RESULT:      -7.6      2.878      4.770
REMARK  Name = 
REMARK  10 active torsions:
REMARK  status: ('A' for Active; 'I' for Inactive)
REMARK    1  A    between atoms: C_2  and  C_3
REMARK    2  A    between atoms: C_3  and  C_4
REMARK    3  A    between atoms: C_4  and  N_5
REMARK    4  A    between atoms: N_5  and  C_6
REMARK    5  A    between atoms: N_5  and  C_10
REMARK    6  A    between atoms: C_6  and  C_7
REMARK    7  A    between atoms: C_7  and  C_8
REMARK    8  A    between atoms: C_10  and  C_11
REMARK    9  A    between atoms: C_11  and  C_13
REMARK   10  A    between atoms: C_28  and  C_29
REMARK                            x       y       z     vdW  Elec       q    Type
REMARK                         _______ _______ _______ _____ _____    ______ ____
ROOT
ATOM      1  C   UNL     1       3.509   6.185  -7.129  0.00  0.00    +0.010 A 
ATOM      2  C   UNL     1       2.215   6.120  -7.662  0.00  0.00    -0.002 A 
ATOM      3  C   UNL     1       0.888   5.971  -7.073  0.00  0.00    -0.000 A 
ATOM      4  C   UNL     1      -0.052   5.694  -8.055  0.00  0.00    +0.001 A 
ATOM      5  C   UNL     1       0.642   5.604  -9.322  0.00  0.00    +0.000 C 
ATOM      6  C   UNL     1       0.370   4.846 -10.388  0.00  0.00    +0.000 C 
ATOM      7  C   UNL     1      -1.291   5.228  -7.666  0.00  0.00    +0.011 A 
ATOM      8  C   UNL     1      -1.785   5.690  -6.466  0.00  0.00    +0.058 A 
ATOM      9 CL   UNL     1      -3.505   5.751  -6.207  0.00  0.00    -0.082 Cl
ATOM     10  C   UNL     1      -0.859   6.025  -5.487  0.00  0.00    +0.011 A 
ATOM     11  C   UNL     1       0.505   5.938  -5.740  0.00  0.00    +0.001 A 
ATOM     12  C   UNL     1       2.004   6.071  -9.035  0.00  0.00    +0.001 A 
ATOM     13  C   UNL     1       3.092   6.216  -9.889  0.00  0.00    +0.011 A 
ATOM     14  C   UNL     1       4.346   6.351  -9.307  0.00  0.00    +0.057 A 
ATOM     15 CL   UNL     1       5.761   6.820 -10.245  0.00  0.00    -0.082 Cl
ATOM     16  C   UNL     1       4.478   5.812  -8.034  0.00  0.00    +0.010 A 
ENDROOT
BRANCH   6  17
ATOM     17  C   UNL     1       0.816   5.416 -11.668  0.00  0.00    +0.000 A 
ATOM     18  C   UNL     1       0.412   6.731 -11.867  0.00  0.00    +0.001 A 
ATOM     19  C   UNL     1       0.100   7.214 -13.134  0.00  0.00    +0.011 A 
ATOM     20  C   UNL     1       0.803   6.620 -14.171  0.00  0.00    +0.058 A 
ATOM     21 CL   UNL     1       0.994   7.524 -15.656  0.00  0.00    -0.082 Cl
ATOM     22  C   UNL     1       1.046   5.267 -14.067  0.00  0.00    +0.011 A 
ATOM     23  C   UNL     1       0.886   4.656 -12.829  0.00  0.00    +0.001 A 
ENDBRANCH   6  17
BRANCH   1  24
ATOM     24  C   UNL     1       3.556   5.341  -5.706  0.00  0.00    +0.190 C 
ATOM     25  O   UNL     1       5.026   4.873  -5.907  0.00  0.00    -0.217 OA
BRANCH  24  26
ATOM     26  C   UNL     1       4.065   6.713  -4.869  0.00  0.00    +0.110 C 
BRANCH  26  27
ATOM     27  N   UNL     1       3.171   6.806  -3.756  0.00  0.00    -0.270 NA
BRANCH  27  28
ATOM     28  C   UNL     1       2.817   5.545  -3.167  0.00  0.00    +0.072 C 
BRANCH  28  29
ATOM     29  C   UNL     1       1.936   5.786  -1.969  0.00  0.00    +0.017 C 
BRANCH  29  31
ATOM     30  C   UNL     1       0.037   5.062  -1.952  0.00  0.00    +0.000 C 
ATOM     31  C   UNL     1       0.561   5.171  -2.200  0.00  0.00    +0.001 C 
ENDBRANCH  29  31
ENDBRANCH  28  29
ENDBRANCH  27  28
BRANCH  27  32
ATOM     32  C   UNL     1       3.620   7.769  -2.752  0.00  0.00    +0.072 C 
BRANCH  32  33
ATOM     33  C   UNL     1       4.937   7.392  -2.145  0.00  0.00    +0.017 C 
BRANCH  33  34
ATOM     34  C   UNL     1       4.920   7.316  -0.644  0.00  0.00    +0.001 C 
ATOM     35  C   UNL     1       3.908   8.259  -0.037  0.00  0.00    +0.000 C 
ENDBRANCH  33  34
ENDBRANCH  32  33
ENDBRANCH  27  32
ENDBRANCH  26  27
ENDBRANCH  24  26
ENDBRANCH   1  24
TORSDOF 10
ENDMDL
MODEL 9
REMARK VINA RESULT:      -7.2      3.289      5.721
REMARK  Name = 
REMARK  10 active torsions:
REMARK  status: ('A' for Active; 'I' for Inactive)
REMARK    1  A    between atoms: C_2  and  C_3
REMARK    2  A    between atoms: C_3  and  C_4
REMARK    3  A    between atoms: C_4  and  N_5
REMARK    4  A    between atoms: N_5  and  C_6
REMARK    5  A    between atoms: N_5  and  C_10
REMARK    6  A    between atoms: C_6  and  C_7
REMARK    7  A    between atoms: C_7  and  C_8
REMARK    8  A    between atoms: C_10  and  C_11
REMARK    9  A    between atoms: C_11  and  C_13
REMARK   10  A    between atoms: C_28  and  C_29
REMARK                            x       y       z     vdW  Elec       q    Type
REMARK                         _______ _______ _______ _____ _____    ______ ____
ROOT
ATOM      1  C   UNL     1       4.352   5.966  -8.554  0.00  0.00    +0.010 A 
ATOM      2  C   UNL     1       3.659   6.231  -9.741  0.00  0.00    -0.002 A 
ATOM      3  C   UNL     1       2.243   6.350 -10.077  0.00  0.00    -0.000 A 
ATOM      4  C   UNL     1       2.069   6.359 -11.454  0.00  0.00    +0.001 A 
ATOM      5  C   UNL     1       3.369   6.195 -12.068  0.00  0.00    +0.000 C 
ATOM      6  C   UNL     1       3.699   5.589 -13.212  0.00  0.00    +0.000 C 
ATOM      7  C   UNL     1       0.799   6.162 -11.957  0.00  0.00    +0.011 A 
ATOM      8  C   UNL     1      -0.251   6.646 -11.209  0.00  0.00    +0.058 A 
ATOM      9 CL   UNL     1      -1.743   7.080 -11.995  0.00  0.00    -0.082 Cl
ATOM     10  C   UNL     1      -0.078   6.698  -9.831  0.00  0.00    +0.011 A 
ATOM     11  C   UNL     1       1.128   6.319  -9.253  0.00  0.00    +0.001 A 
ATOM     12  C   UNL     1       4.324   6.320 -10.959  0.00  0.00    +0.001 A 
ATOM     13  C   UNL     1       5.713   6.269 -10.972  0.00  0.00    +0.011 A 
ATOM     14  C   UNL     1       6.356   6.077  -9.756  0.00  0.00    +0.057 A 
ATOM     15 CL   UNL     1       8.098   6.271  -9.584  0.00  0.00    -0.082 Cl
ATOM     16  C   UNL     1       5.607   5.441  -8.775  0.00  0.00    +0.010 A 
ENDROOT
BRANCH   6  17
ATOM     17  C   UNL     1       4.908   6.124 -13.856  0.00  0.00    +0.000 A 
ATOM     18  C   UNL     1       4.647   6.899 -14.981  0.00  0.00    +0.001 A 
ATOM     19  C   UNL     1       5.512   6.916 -16.070  0.00  0.00    +0.011 A 
ATOM     20  C   UNL     1       6.847   6.717 -15.754  0.00  0.00    +0.058 A 
ATOM     21 CL   UNL     1       8.053   7.337 -16.859  0.00  0.00    -0.082 Cl
ATOM     22  C   UNL     1       7.124   5.804 -14.759  0.00  0.00    +0.011 A 
ATOM     23  C   UNL     1       6.091   5.399 -13.921  0.00  0.00    +0.001 A 
ENDBRANCH   6  17
BRANCH   1  24
ATOM     24  C   UNL     1       3.402   5.042  -7.561  0.00  0.00    +0.190 C 
ATOM     25  O   UNL     1       4.554   4.740  -6.560  0.00  0.00    -0.217 OA
BRANCH  24  26
ATOM     26  C   UNL     1       2.939   6.404  -6.680  0.00  0.00    +0.110 C 
BRANCH  26  27
ATOM     27  N   UNL     1       2.536   5.888  -5.409  0.00  0.00    -0.270 NA
BRANCH  27  28
ATOM     28  C   UNL     1       2.501   6.859  -4.353  0.00  0.00    +0.072 C 
BRANCH  28  29
ATOM     29  C   UNL     1       3.738   6.716  -3.505  0.00  0.00    +0.017 C 
BRANCH  29  31
ATOM     30  C   UNL     1       5.350   7.746  -4.191  0.00  0.00    +0.000 C 
ATOM     31  C   UNL     1       4.806   7.699  -3.969  0.00  0.00    +0.001 C 
ENDBRANCH  29  31
ENDBRANCH  28  29
ENDBRANCH  27  28
BRANCH  27  32
ATOM     32  C   UNL     1       1.294   5.119  -5.483  0.00  0.00    +0.072 C 
BRANCH  32  33
ATOM     33  C   UNL     1       0.096   5.987  -5.713  0.00  0.00    +0.017 C 
BRANCH  33  34
ATOM     34  C   UNL     1      -1.024   5.302  -6.447  0.00  0.00    +0.001 C 
ATOM     35  C   UNL     1      -2.351   5.988  -6.227  0.00  0.00    +0.000 C 
ENDBRANCH  33  34
ENDBRANCH  32  33
ENDBRANCH  27  32
ENDBRANCH  26  27
ENDBRANCH  24  26
ENDBRANCH   1  24
TORSDOF 10
ENDMDL
