MODEL 1
REMARK VINA RESULT:      -5.5      0.000      0.000
REMARK  Name = 
REMARK  4 active torsions:
REMARK  status: ('A' for Active; 'I' for Inactive)
REMARK    1  A    between atoms: C_2  and  O_3
REMARK    2  A    between atoms: C_2  and  C_7
REMARK    3  A    between atoms: O_3  and  C_4
REMARK    4  A    between atoms: C_4  and  C_5
REMARK                            x       y       z     vdW  Elec       q    Type
REMARK                         _______ _______ _______ _____ _____    ______ ____
ROOT
ATOM      1  C   UNL     1      -0.170   5.590  -6.105  0.00  0.00    +0.114 A 
ATOM      2  C   UNL     1      -0.009   6.685  -5.277  0.00  0.00    +0.202 A 
ATOM      3  O   UNL     1       1.149   6.728  -4.498  0.00  0.00    -0.286 OA
ATOM      4  C   UNL     1      -1.153   7.375  -4.892  0.00  0.00    +0.042 A 
ATOM      5  C   UNL     1      -2.386   7.071  -5.449  0.00  0.00    +0.003 A 
ATOM      6  C   UNL     1      -2.514   5.787  -5.966  0.00  0.00    +0.000 A 
ATOM      7  C   UNL     1      -1.411   5.319  -6.667  0.00  0.00    +0.010 A 
ENDROOT
BRANCH   1   9
ATOM      8  O   UNL     1       1.241   3.734  -5.966  0.00  0.00    -0.245 OA
ATOM      9  C   UNL     1       0.956   4.791  -6.596  0.00  0.00    +0.344 C 
BRANCH   9  10
ATOM     10  O   UNL     1       2.013   5.359  -7.315  0.00  0.00    -0.442 OA
BRANCH  10  11
ATOM     11  C   UNL     1       1.775   6.098  -8.511  0.00  0.00    +0.244 C 
BRANCH  11  12
ATOM     12  C   UNL     1       2.646   7.341  -8.508  0.00  0.00    +0.229 C 
ATOM     13  O   UNL     1       2.085   8.390  -7.806  0.00  0.00    -0.216 OA
ENDBRANCH  11  12
ENDBRANCH  10  11
ENDBRANCH   9  10
ENDBRANCH   1   9
TORSDOF 4
ENDMDL
MODEL 2
REMARK VINA RESULT:      -5.5      3.418      6.727
REMARK  Name = 
REMARK  4 active torsions:
REMARK  status: ('A' for Active; 'I' for Inactive)
REMARK    1  A    between atoms: C_2  and  O_3
REMARK    2  A    between atoms: C_2  and  C_7
REMARK    3  A    between atoms: O_3  and  C_4
REMARK    4  A    between atoms: C_4  and  C_5
REMARK                            x       y       z     vdW  Elec       q    Type
REMARK                         _______ _______ _______ _____ _____    ______ ____
ROOT
ATOM      1  C   UNL     1       5.362   5.875  -9.539  0.00  0.00    +0.114 A 
ATOM      2  C   UNL     1       4.949   6.831 -10.447  0.00  0.00    +0.202 A 
ATOM      3  O   UNL     1       3.636   6.740 -10.913  0.00  0.00    -0.286 OA
ATOM      4  C   UNL     1       5.928   7.474 -11.196  0.00  0.00    +0.042 A 
ATOM      5  C   UNL     1       7.274   7.275 -10.924  0.00  0.00    +0.003 A 
ATOM      6  C   UNL     1       7.589   6.084 -10.280  0.00  0.00    +0.000 A 
ATOM      7  C   UNL     1       6.714   5.709  -9.269  0.00  0.00    +0.010 A 
ENDROOT
BRANCH   1   9
ATOM      8  O   UNL     1       3.942   4.067  -9.127  0.00  0.00    -0.245 OA
ATOM      9  C   UNL     1       4.431   5.141  -8.678  0.00  0.00    +0.344 C 
BRANCH   9  10
ATOM     10  O   UNL     1       3.665   5.779  -7.697  0.00  0.00    -0.442 OA
BRANCH  10  11
ATOM     11  C   UNL     1       2.243   5.831  -7.794  0.00  0.00    +0.244 C 
BRANCH  11  12
ATOM     12  C   UNL     1       1.757   7.160  -7.246  0.00  0.00    +0.229 C 
ATOM     13  O   UNL     1       2.234   8.243  -7.959  0.00  0.00    -0.216 OA
ENDBRANCH  11  12
ENDBRANCH  10  11
ENDBRANCH   9  10
ENDBRANCH   1   9
TORSDOF 4
ENDMDL
MODEL 3
REMARK VINA RESULT:      -5.4      3.567      6.910
REMARK  Name = 
REMARK  4 active torsions:
REMARK  status: ('A' for Active; 'I' for Inactive)
REMARK    1  A    between atoms: C_2  and  O_3
REMARK    2  A    between atoms: C_2  and  C_7
REMARK    3  A    between atoms: O_3  and  C_4
REMARK    4  A    between atoms: C_4  and  C_5
REMARK                            x       y       z     vdW  Elec       q    Type
REMARK                         _______ _______ _______ _____ _____    ______ ____
ROOT
ATOM      1  C   UNL     1       5.057   6.353 -10.360  0.00  0.00    +0.114 A 
ATOM      2  C   UNL     1       5.907   5.638  -9.538  0.00  0.00    +0.202 A 
ATOM      3  O   UNL     1       5.340   5.020  -8.422  0.00  0.00    -0.286 OA
ATOM      4  C   UNL     1       7.256   5.971  -9.560  0.00  0.00    +0.042 A 
ATOM      5  C   UNL     1       7.749   6.877 -10.488  0.00  0.00    +0.003 A 
ATOM      6  C   UNL     1       6.822   7.776 -11.003  0.00  0.00    +0.000 A 
ATOM      7  C   UNL     1       5.577   7.238 -11.297  0.00  0.00    +0.010 A 
ENDROOT
BRANCH   1   9
ATOM      8  O   UNL     1       3.178   5.589 -11.518  0.00  0.00    -0.245 OA
ATOM      9  C   UNL     1       3.619   6.087 -10.444  0.00  0.00    +0.344 C 
BRANCH   9  10
ATOM     10  O   UNL     1       2.684   6.810  -9.696  0.00  0.00    -0.442 OA
BRANCH  10  11
ATOM     11  C   UNL     1       1.955   6.193  -8.636  0.00  0.00    +0.244 C 
BRANCH  11  12
ATOM     12  C   UNL     1       1.921   7.131  -7.444  0.00  0.00    +0.229 C 
ATOM     13  O   UNL     1       2.103   8.455  -7.797  0.00  0.00    -0.216 OA
ENDBRANCH  11  12
ENDBRANCH  10  11
ENDBRANCH   9  10
ENDBRANCH   1   9
TORSDOF 4
ENDMDL
MODEL 4
REMARK VINA RESULT:      -5.2      4.220      7.060
REMARK  Name = 
REMARK  4 active torsions:
REMARK  status: ('A' for Active; 'I' for Inactive)
REMARK    1  A    between atoms: C_2  and  O_3
REMARK    2  A    between atoms: C_2  and  C_7
REMARK    3  A    between atoms: O_3  and  C_4
REMARK    4  A    between atoms: C_4  and  C_5
REMARK                            x       y       z     vdW  Elec       q    Type
REMARK                         _______ _______ _______ _____ _____    ______ ____
ROOT
ATOM      1  C   UNL     1       5.045   6.522 -10.082  0.00  0.00    +0.114 A 
ATOM      2  C   UNL     1       5.910   5.651  -9.446  0.00  0.00    +0.202 A 
ATOM      3  O   UNL     1       5.450   5.040  -8.277  0.00  0.00    -0.286 OA
ATOM      4  C   UNL     1       7.271   5.808  -9.680  0.00  0.00    +0.042 A 
ATOM      5  C   UNL     1       7.727   6.701 -10.639  0.00  0.00    +0.003 A 
ATOM      6  C   UNL     1       6.863   7.744 -10.951  0.00  0.00    +0.000 A 
ATOM      7  C   UNL     1       5.525   7.391 -11.054  0.00  0.00    +0.010 A 
ENDROOT
BRANCH   1   9
ATOM      8  O   UNL     1       3.062   7.129  -9.009  0.00  0.00    -0.245 OA
ATOM      9  C   UNL     1       3.590   6.450  -9.933  0.00  0.00    +0.344 C 
BRANCH   9  10
ATOM     10  O   UNL     1       2.855   5.332 -10.343  0.00  0.00    -0.442 OA
BRANCH  10  11
ATOM     11  C   UNL     1       1.865   4.752  -9.497  0.00  0.00    +0.244 C 
BRANCH  11  12
ATOM     12  C   UNL     1       0.504   4.902 -10.150  0.00  0.00    +0.229 C 
ATOM     13  O   UNL     1       0.528   4.649 -11.508  0.00  0.00    -0.216 OA
ENDBRANCH  11  12
ENDBRANCH  10  11
ENDBRANCH   9  10
ENDBRANCH   1   9
TORSDOF 4
ENDMDL
MODEL 5
REMARK VINA RESULT:      -5.1      1.365      1.659
REMARK  Name = 
REMARK  4 active torsions:
REMARK  status: ('A' for Active; 'I' for Inactive)
REMARK    1  A    between atoms: C_2  and  O_3
REMARK    2  A    between atoms: C_2  and  C_7
REMARK    3  A    between atoms: O_3  and  C_4
REMARK    4  A    between atoms: C_4  and  C_5
REMARK                            x       y       z     vdW  Elec       q    Type
REMARK                         _______ _______ _______ _____ _____    ______ ____
ROOT
ATOM      1  C   UNL     1      -0.195   5.652  -6.093  0.00  0.00    +0.114 A 
ATOM      2  C   UNL     1      -0.037   6.719  -5.230  0.00  0.00    +0.202 A 
ATOM      3  O   UNL     1       1.130   6.750  -4.464  0.00  0.00    -0.286 OA
ATOM      4  C   UNL     1      -1.184   7.381  -4.808  0.00  0.00    +0.042 A 
ATOM      5  C   UNL     1      -2.421   7.080  -5.360  0.00  0.00    +0.003 A 
ATOM      6  C   UNL     1      -2.539   5.813  -5.919  0.00  0.00    +0.000 A 
ATOM      7  C   UNL     1      -1.440   5.384  -6.649  0.00  0.00    +0.010 A 
ENDROOT
BRANCH   1   9
ATOM      8  O   UNL     1       1.264   3.829  -6.014  0.00  0.00    -0.245 OA
ATOM      9  C   UNL     1       0.934   4.884  -6.625  0.00  0.00    +0.344 C 
BRANCH   9  10
ATOM     10  O   UNL     1       1.955   5.484  -7.369  0.00  0.00    -0.442 OA
BRANCH  10  11
ATOM     11  C   UNL     1       3.299   5.013  -7.286  0.00  0.00    +0.244 C 
BRANCH  11  12
ATOM     12  C   UNL     1       4.084   5.914  -6.352  0.00  0.00    +0.229 C 
ATOM     13  O   UNL     1       4.401   5.302  -5.154  0.00  0.00    -0.216 OA
ENDBRANCH  11  12
ENDBRANCH  10  11
ENDBRANCH   9  10
ENDBRANCH   1   9
TORSDOF 4
ENDMDL
MODEL 6
REMARK VINA RESULT:      -5.1      3.909      7.022
REMARK  Name = 
REMARK  4 active torsions:
REMARK  status: ('A' for Active; 'I' for Inactive)
REMARK    1  A    between atoms: C_2  and  O_3
REMARK    2  A    between atoms: C_2  and  C_7
REMARK    3  A    between atoms: O_3  and  C_4
REMARK    4  A    between atoms: C_4  and  C_5
REMARK                            x       y       z     vdW  Elec       q    Type
REMARK                         _______ _______ _______ _____ _____    ______ ____
ROOT
ATOM      1  C   UNL     1       5.702   5.950  -9.692  0.00  0.00    +0.114 A 
ATOM      2  C   UNL     1       7.030   5.748 -10.015  0.00  0.00    +0.202 A 
ATOM      3  O   UNL     1       7.831   5.129  -9.053  0.00  0.00    -0.286 OA
ATOM      4  C   UNL     1       7.589   6.571 -10.986  0.00  0.00    +0.042 A 
ATOM      5  C   UNL     1       6.799   7.450 -11.712  0.00  0.00    +0.003 A 
ATOM      6  C   UNL     1       5.610   7.835 -11.104  0.00  0.00    +0.000 A 
ATOM      7  C   UNL     1       4.926   6.820 -10.448  0.00  0.00    +0.010 A 
ENDROOT
BRANCH   1   9
ATOM      8  O   UNL     1       4.156   4.293  -9.127  0.00  0.00    -0.245 OA
ATOM      9  C   UNL     1       4.991   5.139  -8.700  0.00  0.00    +0.344 C 
BRANCH   9  10
ATOM     10  O   UNL     1       4.770   5.587  -7.394  0.00  0.00    -0.442 OA
BRANCH  10  11
ATOM     11  C   UNL     1       3.521   5.363  -6.742  0.00  0.00    +0.244 C 
BRANCH  11  12
ATOM     12  C   UNL     1       3.007   6.678  -6.187  0.00  0.00    +0.229 C 
ATOM     13  O   UNL     1       2.851   7.648  -7.160  0.00  0.00    -0.216 OA
ENDBRANCH  11  12
ENDBRANCH  10  11
ENDBRANCH   9  10
ENDBRANCH   1   9
TORSDOF 4
ENDMDL
MODEL 7
REMARK VINA RESULT:      -4.9      1.947      3.206
REMARK  Name = 
REMARK  4 active torsions:
REMARK  status: ('A' for Active; 'I' for Inactive)
REMARK    1  A    between atoms: C_2  and  O_3
REMARK    2  A    between atoms: C_2  and  C_7
REMARK    3  A    between atoms: O_3  and  C_4
REMARK    4  A    between atoms: C_4  and  C_5
REMARK                            x       y       z     vdW  Elec       q    Type
REMARK                         _______ _______ _______ _____ _____    ______ ____
ROOT
ATOM      1  C   UNL     1       0.369   6.465  -6.214  0.00  0.00    +0.114 A 
ATOM      2  C   UNL     1      -0.420   5.629  -6.981  0.00  0.00    +0.202 A 
ATOM      3  O   UNL     1       0.004   5.377  -8.288  0.00  0.00    -0.286 OA
ATOM      4  C   UNL     1      -1.760   5.507  -6.630  0.00  0.00    +0.042 A 
ATOM      5  C   UNL     1      -2.242   6.076  -5.461  0.00  0.00    +0.003 A 
ATOM      6  C   UNL     1      -1.510   7.150  -4.968  0.00  0.00    +0.000 A 
ATOM      7  C   UNL     1      -0.131   7.006  -5.036  0.00  0.00    +0.010 A 
ENDROOT
BRANCH   1   9
ATOM      8  O   UNL     1       2.140   7.705  -7.098  0.00  0.00    -0.245 OA
ATOM      9  C   UNL     1       1.798   6.665  -6.468  0.00  0.00    +0.344 C 
BRANCH   9  10
ATOM     10  O   UNL     1       2.694   5.595  -6.556  0.00  0.00    -0.442 OA
BRANCH  10  11
ATOM     11  C   UNL     1       2.854   4.679  -5.474  0.00  0.00    +0.244 C 
BRANCH  11  12
ATOM     12  C   UNL     1       3.718   5.320  -4.404  0.00  0.00    +0.229 C 
ATOM     13  O   UNL     1       4.948   4.706  -4.266  0.00  0.00    -0.216 OA
ENDBRANCH  11  12
ENDBRANCH  10  11
ENDBRANCH   9  10
ENDBRANCH   1   9
TORSDOF 4
ENDMDL
MODEL 8
REMARK VINA RESULT:      -4.9      1.101      1.490
REMARK  Name = 
REMARK  4 active torsions:
REMARK  status: ('A' for Active; 'I' for Inactive)
REMARK    1  A    between atoms: C_2  and  O_3
REMARK    2  A    between atoms: C_2  and  C_7
REMARK    3  A    between atoms: O_3  and  C_4
REMARK    4  A    between atoms: C_4  and  C_5
REMARK                            x       y       z     vdW  Elec       q    Type
REMARK                         _______ _______ _______ _____ _____    ______ ____
ROOT
ATOM      1  C   UNL     1      -0.181   5.887  -6.155  0.00  0.00    +0.114 A 
ATOM      2  C   UNL     1      -0.033   6.892  -5.218  0.00  0.00    +0.202 A 
ATOM      3  O   UNL     1       1.164   6.918  -4.498  0.00  0.00    -0.286 OA
ATOM      4  C   UNL     1      -1.188   7.466  -4.700  0.00  0.00    +0.042 A 
ATOM      5  C   UNL     1      -2.433   7.151  -5.225  0.00  0.00    +0.003 A 
ATOM      6  C   UNL     1      -2.520   5.926  -5.876  0.00  0.00    +0.000 A 
ATOM      7  C   UNL     1      -1.436   5.605  -6.680  0.00  0.00    +0.010 A 
ENDROOT
BRANCH   1   9
ATOM      8  O   UNL     1       1.349   4.127  -6.283  0.00  0.00    -0.245 OA
ATOM      9  C   UNL     1       0.956   5.216  -6.789  0.00  0.00    +0.344 C 
BRANCH   9  10
ATOM     10  O   UNL     1       1.925   5.918  -7.513  0.00  0.00    -0.442 OA
BRANCH  10  11
ATOM     11  C   UNL     1       1.613   6.517  -8.770  0.00  0.00    +0.244 C 
BRANCH  11  12
ATOM     12  C   UNL     1       0.871   5.510  -9.628  0.00  0.00    +0.229 C 
ATOM     13  O   UNL     1       1.605   5.089 -10.720  0.00  0.00    -0.216 OA
ENDBRANCH  11  12
ENDBRANCH  10  11
ENDBRANCH   9  10
ENDBRANCH   1   9
TORSDOF 4
ENDMDL
MODEL 9
REMARK VINA RESULT:      -4.9      2.247      3.185
REMARK  Name = 
REMARK  4 active torsions:
REMARK  status: ('A' for Active; 'I' for Inactive)
REMARK    1  A    between atoms: C_2  and  O_3
REMARK    2  A    between atoms: C_2  and  C_7
REMARK    3  A    between atoms: O_3  and  C_4
REMARK    4  A    between atoms: C_4  and  C_5
REMARK                            x       y       z     vdW  Elec       q    Type
REMARK                         _______ _______ _______ _____ _____    ______ ____
ROOT
ATOM      1  C   UNL     1      -0.056   5.635  -5.080  0.00  0.00    +0.114 A 
ATOM      2  C   UNL     1      -1.195   5.703  -4.300  0.00  0.00    +0.202 A 
ATOM      3  O   UNL     1      -1.073   5.318  -2.963  0.00  0.00    -0.286 OA
ATOM      4  C   UNL     1      -2.424   5.651  -4.947  0.00  0.00    +0.042 A 
ATOM      5  C   UNL     1      -2.498   5.692  -6.332  0.00  0.00    +0.003 A 
ATOM      6  C   UNL     1      -1.359   5.273  -7.009  0.00  0.00    +0.000 A 
ATOM      7  C   UNL     1      -0.156   5.700  -6.464  0.00  0.00    +0.010 A 
ENDROOT
BRANCH   1   9
ATOM      8  O   UNL     1       1.690   6.809  -4.065  0.00  0.00    -0.245 OA
ATOM      9  C   UNL     1       1.297   5.699  -4.521  0.00  0.00    +0.344 C 
BRANCH   9  10
ATOM     10  O   UNL     1       2.314   4.833  -4.936  0.00  0.00    -0.442 OA
BRANCH  10  11
ATOM     11  C   UNL     1       3.615   5.325  -5.252  0.00  0.00    +0.244 C 
BRANCH  11  12
ATOM     12  C   UNL     1       4.618   4.739  -4.275  0.00  0.00    +0.229 C 
ATOM     13  O   UNL     1       4.486   5.250  -2.998  0.00  0.00    -0.216 OA
ENDBRANCH  11  12
ENDBRANCH  10  11
ENDBRANCH   9  10
ENDBRANCH   1   9
TORSDOF 4
ENDMDL
