MODEL 1
REMARK VINA RESULT:      -4.5      0.000      0.000
REMARK  Name = 
REMARK  1 active torsions:
REMARK  status: ('A' for Active; 'I' for Inactive)
REMARK    1  A    between atoms: C_2  and  C_4
REMARK                            x       y       z     vdW  Elec       q    Type
REMARK                         _______ _______ _______ _____ _____    ______ ____
ROOT
ATOM      1  C   UNL     1       7.345   6.260 -11.262  0.00  0.00    +0.160 A 
ATOM      2  N   UNL     1       6.871   5.643 -10.152  0.00  0.00    -0.236 NA
ATOM      3  C   UNL     1       5.586   5.839  -9.771  0.00  0.00    +0.120 A 
ATOM      4  C   UNL     1       4.814   6.840 -10.350  0.00  0.00    +0.120 A 
ATOM      5  N   UNL     1       5.510   7.790 -11.025  0.00  0.00    -0.239 NA
ATOM      6  C   UNL     1       6.704   7.452 -11.556  0.00  0.00    +0.123 A 
ENDROOT
BRANCH   1   8
ATOM      7  N   UNL     1       7.722   4.727 -13.041  0.00  0.00    -0.101 NA
ATOM      8  C   UNL     1       8.206   5.571 -12.205  0.00  0.00    +0.316 C 
ATOM      9  O   UNL     1       9.554   5.939 -12.210  0.00  0.00    -0.262 OA
ENDBRANCH   1   8
TORSDOF 1
ENDMDL
MODEL 2
REMARK VINA RESULT:      -4.3      9.858     11.237
REMARK  Name = 
REMARK  1 active torsions:
REMARK  status: ('A' for Active; 'I' for Inactive)
REMARK    1  A    between atoms: C_2  and  C_4
REMARK                            x       y       z     vdW  Elec       q    Type
REMARK                         _______ _______ _______ _____ _____    ______ ____
ROOT
ATOM      1  C   UNL     1      -1.348   5.707  -4.157  0.00  0.00    +0.160 A 
ATOM      2  N   UNL     1      -2.351   6.126  -4.968  0.00  0.00    -0.236 NA
ATOM      3  C   UNL     1      -2.345   5.779  -6.278  0.00  0.00    +0.120 A 
ATOM      4  C   UNL     1      -1.219   5.208  -6.860  0.00  0.00    +0.120 A 
ATOM      5  N   UNL     1      -0.068   5.351  -6.156  0.00  0.00    -0.239 NA
ATOM      6  C   UNL     1      -0.150   5.488  -4.816  0.00  0.00    +0.123 A 
ENDROOT
BRANCH   1   8
ATOM      7  N   UNL     1      -2.807   4.997  -2.418  0.00  0.00    -0.101 NA
ATOM      8  C   UNL     1      -1.609   5.235  -2.810  0.00  0.00    +0.316 C 
ATOM      9  O   UNL     1      -0.494   4.974  -2.009  0.00  0.00    -0.262 OA
ENDBRANCH   1   8
TORSDOF 1
ENDMDL
MODEL 3
REMARK VINA RESULT:      -4.1      2.587      2.926
REMARK  Name = 
REMARK  1 active torsions:
REMARK  status: ('A' for Active; 'I' for Inactive)
REMARK    1  A    between atoms: C_2  and  C_4
REMARK                            x       y       z     vdW  Elec       q    Type
REMARK                         _______ _______ _______ _____ _____    ______ ____
ROOT
ATOM      1  C   UNL     1       5.492   5.242 -12.353  0.00  0.00    +0.160 A 
ATOM      2  N   UNL     1       4.877   4.719 -13.442  0.00  0.00    -0.236 NA
ATOM      3  C   UNL     1       3.639   5.148 -13.785  0.00  0.00    +0.120 A 
ATOM      4  C   UNL     1       2.889   5.933 -12.918  0.00  0.00    +0.120 A 
ATOM      5  N   UNL     1       3.311   5.936 -11.628  0.00  0.00    -0.239 NA
ATOM      6  C   UNL     1       4.616   5.699 -11.382  0.00  0.00    +0.123 A 
ENDROOT
BRANCH   1   8
ATOM      7  N   UNL     1       7.779   4.712 -12.729  0.00  0.00    -0.101 NA
ATOM      8  C   UNL     1       6.904   5.576 -12.366  0.00  0.00    +0.316 C 
ATOM      9  O   UNL     1       7.242   6.895 -12.050  0.00  0.00    -0.262 OA
ENDBRANCH   1   8
TORSDOF 1
ENDMDL
MODEL 4
REMARK VINA RESULT:      -4.0      2.011      3.611
REMARK  Name = 
REMARK  1 active torsions:
REMARK  status: ('A' for Active; 'I' for Inactive)
REMARK    1  A    between atoms: C_2  and  C_4
REMARK                            x       y       z     vdW  Elec       q    Type
REMARK                         _______ _______ _______ _____ _____    ______ ____
ROOT
ATOM      1  C   UNL     1       6.726   6.198 -11.395  0.00  0.00    +0.160 A 
ATOM      2  N   UNL     1       6.525   7.169 -12.320  0.00  0.00    -0.236 NA
ATOM      3  C   UNL     1       6.519   6.852 -13.637  0.00  0.00    +0.120 A 
ATOM      4  C   UNL     1       6.949   5.605 -14.073  0.00  0.00    +0.120 A 
ATOM      5  N   UNL     1       7.678   4.897 -13.173  0.00  0.00    -0.239 NA
ATOM      6  C   UNL     1       7.475   5.130 -11.860  0.00  0.00    +0.123 A 
ENDROOT
BRANCH   1   8
ATOM      7  N   UNL     1       4.751   6.580 -10.126  0.00  0.00    -0.101 NA
ATOM      8  C   UNL     1       5.958   6.150 -10.164  0.00  0.00    +0.316 C 
ATOM      9  O   UNL     1       6.569   5.539  -9.066  0.00  0.00    -0.262 OA
ENDBRANCH   1   8
TORSDOF 1
ENDMDL
MODEL 5
REMARK VINA RESULT:      -3.9     10.427     11.691
REMARK  Name = 
REMARK  1 active torsions:
REMARK  status: ('A' for Active; 'I' for Inactive)
REMARK    1  A    between atoms: C_2  and  C_4
REMARK                            x       y       z     vdW  Elec       q    Type
REMARK                         _______ _______ _______ _____ _____    ______ ____
ROOT
ATOM      1  C   UNL     1      -0.476   5.354  -2.860  0.00  0.00    +0.160 A 
ATOM      2  N   UNL     1      -0.058   4.766  -1.712  0.00  0.00    -0.236 NA
ATOM      3  C   UNL     1       1.023   5.257  -1.061  0.00  0.00    +0.120 A 
ATOM      4  C   UNL     1       1.854   6.195  -1.662  0.00  0.00    +0.120 A 
ATOM      5  N   UNL     1       1.722   6.306  -3.008  0.00  0.00    -0.239 NA
ATOM      6  C   UNL     1       0.534   5.988  -3.563  0.00  0.00    +0.123 A 
ENDROOT
BRANCH   1   8
ATOM      7  N   UNL     1      -2.776   4.801  -2.618  0.00  0.00    -0.101 NA
ATOM      8  C   UNL     1      -1.885   5.564  -3.137  0.00  0.00    +0.316 C 
ATOM      9  O   UNL     1      -2.214   6.677  -3.914  0.00  0.00    -0.262 OA
ENDBRANCH   1   8
TORSDOF 1
ENDMDL
MODEL 6
REMARK VINA RESULT:      -3.8      5.679      6.787
REMARK  Name = 
REMARK  1 active torsions:
REMARK  status: ('A' for Active; 'I' for Inactive)
REMARK    1  A    between atoms: C_2  and  C_4
REMARK                            x       y       z     vdW  Elec       q    Type
REMARK                         _______ _______ _______ _____ _____    ______ ____
ROOT
ATOM      1  C   UNL     1       3.020   6.694  -6.386  0.00  0.00    +0.160 A 
ATOM      2  N   UNL     1       3.736   7.385  -5.465  0.00  0.00    -0.236 NA
ATOM      3  C   UNL     1       4.594   6.727  -4.649  0.00  0.00    +0.120 A 
ATOM      4  C   UNL     1       4.583   5.340  -4.570  0.00  0.00    +0.120 A 
ATOM      5  N   UNL     1       3.469   4.741  -5.064  0.00  0.00    -0.239 NA
ATOM      6  C   UNL     1       2.777   5.377  -6.031  0.00  0.00    +0.123 A 
ENDROOT
BRANCH   1   8
ATOM      7  N   UNL     1       3.235   6.540  -8.750  0.00  0.00    -0.101 NA
ATOM      8  C   UNL     1       2.822   7.201  -7.731  0.00  0.00    +0.316 C 
ATOM      9  O   UNL     1       2.090   8.385  -7.855  0.00  0.00    -0.262 OA
ENDBRANCH   1   8
TORSDOF 1
ENDMDL
MODEL 7
REMARK VINA RESULT:      -3.8      4.333      5.682
REMARK  Name = 
REMARK  1 active torsions:
REMARK  status: ('A' for Active; 'I' for Inactive)
REMARK    1  A    between atoms: C_2  and  C_4
REMARK                            x       y       z     vdW  Elec       q    Type
REMARK                         _______ _______ _______ _____ _____    ______ ____
ROOT
ATOM      1  C   UNL     1       3.209   6.187  -8.121  0.00  0.00    +0.160 A 
ATOM      2  N   UNL     1       4.379   5.529  -7.925  0.00  0.00    -0.236 NA
ATOM      3  C   UNL     1       5.151   5.200  -8.989  0.00  0.00    +0.120 A 
ATOM      4  C   UNL     1       4.663   5.307 -10.286  0.00  0.00    +0.120 A 
ATOM      5  N   UNL     1       3.313   5.409 -10.389  0.00  0.00    -0.239 NA
ATOM      6  C   UNL     1       2.631   5.943  -9.355  0.00  0.00    +0.123 A 
ENDROOT
BRANCH   1   8
ATOM      7  N   UNL     1       3.148   7.299  -6.020  0.00  0.00    -0.101 NA
ATOM      8  C   UNL     1       2.794   7.272  -7.252  0.00  0.00    +0.316 C 
ATOM      9  O   UNL     1       2.075   8.313  -7.847  0.00  0.00    -0.262 OA
ENDBRANCH   1   8
TORSDOF 1
ENDMDL
MODEL 8
REMARK VINA RESULT:      -3.7      9.748     11.135
REMARK  Name = 
REMARK  1 active torsions:
REMARK  status: ('A' for Active; 'I' for Inactive)
REMARK    1  A    between atoms: C_2  and  C_4
REMARK                            x       y       z     vdW  Elec       q    Type
REMARK                         _______ _______ _______ _____ _____    ______ ____
ROOT
ATOM      1  C   UNL     1      -1.103   5.653  -4.044  0.00  0.00    +0.160 A 
ATOM      2  N   UNL     1       0.185   5.786  -3.641  0.00  0.00    -0.236 NA
ATOM      3  C   UNL     1       1.071   6.439  -4.431  0.00  0.00    +0.120 A 
ATOM      4  C   UNL     1       0.753   6.765  -5.744  0.00  0.00    +0.120 A 
ATOM      5  N   UNL     1      -0.309   6.099  -6.264  0.00  0.00    -0.239 NA
ATOM      6  C   UNL     1      -1.262   5.655  -5.419  0.00  0.00    +0.123 A 
ENDROOT
BRANCH   1   8
ATOM      7  N   UNL     1      -2.655   6.987  -2.832  0.00  0.00    -0.101 NA
ATOM      8  C   UNL     1      -2.209   5.820  -3.119  0.00  0.00    +0.316 C 
ATOM      9  O   UNL     1      -2.806   4.652  -2.637  0.00  0.00    -0.262 OA
ENDBRANCH   1   8
TORSDOF 1
ENDMDL
MODEL 9
REMARK VINA RESULT:      -3.6      8.495      9.795
REMARK  Name = 
REMARK  1 active torsions:
REMARK  status: ('A' for Active; 'I' for Inactive)
REMARK    1  A    between atoms: C_2  and  C_4
REMARK                            x       y       z     vdW  Elec       q    Type
REMARK                         _______ _______ _______ _____ _____    ______ ____
ROOT
ATOM      1  C   UNL     1       3.326   5.561  -2.514  0.00  0.00    +0.160 A 
ATOM      2  N   UNL     1       3.955   4.778  -3.425  0.00  0.00    -0.236 NA
ATOM      3  C   UNL     1       4.722   5.348  -4.385  0.00  0.00    +0.120 A 
ATOM      4  C   UNL     1       4.689   6.720  -4.605  0.00  0.00    +0.120 A 
ATOM      5  N   UNL     1       3.623   7.366  -4.068  0.00  0.00    -0.239 NA
ATOM      6  C   UNL     1       3.036   6.834  -2.977  0.00  0.00    +0.123 A 
ENDROOT
BRANCH   1   8
ATOM      7  N   UNL     1       4.127   5.652  -0.276  0.00  0.00    -0.101 NA
ATOM      8  C   UNL     1       3.267   5.196  -1.110  0.00  0.00    +0.316 C 
ATOM      9  O   UNL     1       2.186   4.405  -0.713  0.00  0.00    -0.262 OA
ENDBRANCH   1   8
TORSDOF 1
ENDMDL
