MODEL 1
REMARK VINA RESULT:      -6.0      0.000      0.000
REMARK  Name = 
REMARK  3 active torsions:
REMARK  status: ('A' for Active; 'I' for Inactive)
REMARK    1  A    between atoms: CA_2  and  C_3
REMARK    2  A    between atoms: CA_2  and  C_6
REMARK    3  A    between atoms: C_6  and  C_8
REMARK                            x       y       z     vdW  Elec       q    Type
REMARK                         _______ _______ _______ _____ _____    ______ ____
ROOT
ATOM      1  C   UNL     1       0.799   6.227  -4.847  0.00  0.00    +0.013 A 
ATOM      2  C   UNL     1      -0.460   6.250  -5.352  0.00  0.00    +0.044 A 
ATOM      3  C   UNL     1      -1.511   6.371  -4.451  0.00  0.00    +0.234 A 
ATOM      4  O   UNL     1      -2.733   6.915  -4.776  0.00  0.00    -0.283 OA
ATOM      5  C   UNL     1      -1.457   5.550  -3.337  0.00  0.00    +0.234 A 
ATOM      6  O   UNL     1      -2.554   4.798  -2.902  0.00  0.00    -0.283 OA
ATOM      7  C   UNL     1      -0.190   5.312  -2.817  0.00  0.00    +0.045 A 
ATOM      8  C   UNL     1       0.920   5.642  -3.587  0.00  0.00    +0.002 A 
ENDROOT
BRANCH   1   9
ATOM      9  C   UNL     1       1.915   5.450  -5.769  0.00  0.00    +0.203 C 
ATOM     10  O   UNL     1       2.695   5.040  -4.507  0.00  0.00    -0.216 OA
BRANCH   9  12
ATOM     11  N   UNL     1       4.200   6.030  -6.334  0.00  0.00    -0.118 NA
ATOM     12  CA  UNL     1       2.910   6.887  -5.989  0.00  0.00    +0.229 C 
BRANCH  12  13
ATOM     13  C   UNL     1       2.515   7.043  -7.557  0.00  0.00    +0.385 C 
ATOM     14  OXT UNL     1       2.028   8.346  -7.728  0.00  0.00    -0.244 OA
ATOM     15  O   UNL     1       3.352   6.652  -8.375  0.00  0.00    -0.244 OA
ENDBRANCH  12  13
ENDBRANCH   9  12
ENDBRANCH   1   9
TORSDOF 3
ENDMDL
MODEL 2
REMARK VINA RESULT:      -5.9      6.231      8.838
REMARK  Name = 
REMARK  3 active torsions:
REMARK  status: ('A' for Active; 'I' for Inactive)
REMARK    1  A    between atoms: CA_2  and  C_3
REMARK    2  A    between atoms: CA_2  and  C_6
REMARK    3  A    between atoms: C_6  and  C_8
REMARK                            x       y       z     vdW  Elec       q    Type
REMARK                         _______ _______ _______ _____ _____    ______ ____
ROOT
ATOM      1  C   UNL     1       5.154   5.625 -10.846  0.00  0.00    +0.013 A 
ATOM      2  C   UNL     1       5.666   5.724 -12.100  0.00  0.00    +0.044 A 
ATOM      3  C   UNL     1       6.943   5.220 -12.313  0.00  0.00    +0.234 A 
ATOM      4  O   UNL     1       7.389   4.771 -13.535  0.00  0.00    -0.283 OA
ATOM      5  C   UNL     1       7.901   5.568 -11.376  0.00  0.00    +0.234 A 
ATOM      6  O   UNL     1       9.168   6.043 -11.735  0.00  0.00    -0.283 OA
ATOM      7  C   UNL     1       7.461   5.663 -10.061  0.00  0.00    +0.045 A 
ATOM      8  C   UNL     1       6.092   5.704  -9.818  0.00  0.00    +0.002 A 
ENDROOT
BRANCH   1   9
ATOM      9  C   UNL     1       4.022   6.750 -10.456  0.00  0.00    +0.203 C 
ATOM     10  O   UNL     1       4.187   6.421  -8.962  0.00  0.00    -0.216 OA
BRANCH   9  12
ATOM     11  N   UNL     1       1.716   6.532  -9.739  0.00  0.00    -0.118 NA
ATOM     12  CA  UNL     1       2.676   5.622 -10.615  0.00  0.00    +0.229 C 
BRANCH  12  13
ATOM     13  C   UNL     1       2.151   6.289 -12.000  0.00  0.00    +0.385 C 
ATOM     14  OXT UNL     1       2.315   5.327 -13.005  0.00  0.00    -0.244 OA
ATOM     15  O   UNL     1       1.057   6.860 -11.952  0.00  0.00    -0.244 OA
ENDBRANCH  12  13
ENDBRANCH   9  12
ENDBRANCH   1   9
TORSDOF 3
ENDMDL
MODEL 3
REMARK VINA RESULT:      -5.8      1.779      2.902
REMARK  Name = 
REMARK  3 active torsions:
REMARK  status: ('A' for Active; 'I' for Inactive)
REMARK    1  A    between atoms: CA_2  and  C_3
REMARK    2  A    between atoms: CA_2  and  C_6
REMARK    3  A    between atoms: C_6  and  C_8
REMARK                            x       y       z     vdW  Elec       q    Type
REMARK                         _______ _______ _______ _____ _____    ______ ____
ROOT
ATOM      1  C   UNL     1      -0.039   5.166  -6.072  0.00  0.00    +0.013 A 
ATOM      2  C   UNL     1       0.061   5.511  -4.763  0.00  0.00    +0.044 A 
ATOM      3  C   UNL     1      -1.079   5.394  -3.978  0.00  0.00    +0.234 A 
ATOM      4  O   UNL     1      -1.049   5.193  -2.617  0.00  0.00    -0.283 OA
ATOM      5  C   UNL     1      -2.247   5.904  -4.520  0.00  0.00    +0.234 A 
ATOM      6  O   UNL     1      -3.111   6.736  -3.798  0.00  0.00    -0.283 OA
ATOM      7  C   UNL     1      -2.396   5.759  -5.894  0.00  0.00    +0.045 A 
ATOM      8  C   UNL     1      -1.285   5.405  -6.651  0.00  0.00    +0.002 A 
ENDROOT
BRANCH   1   9
ATOM      9  C   UNL     1       1.031   5.901  -7.079  0.00  0.00    +0.203 C 
ATOM     10  O   UNL     1       0.205   5.461  -8.301  0.00  0.00    -0.216 OA
BRANCH   9  12
ATOM     11  N   UNL     1       2.734   4.996  -8.548  0.00  0.00    -0.118 NA
ATOM     12  CA  UNL     1       2.072   4.484  -7.201  0.00  0.00    +0.229 C 
BRANCH  12  13
ATOM     13  C   UNL     1       3.247   5.146  -6.296  0.00  0.00    +0.385 C 
ATOM     14  OXT UNL     1       3.331   4.391  -5.118  0.00  0.00    -0.244 OA
ATOM     15  O   UNL     1       4.309   5.394  -6.873  0.00  0.00    -0.244 OA
ENDBRANCH  12  13
ENDBRANCH   9  12
ENDBRANCH   1   9
TORSDOF 3
ENDMDL
MODEL 4
REMARK VINA RESULT:      -5.8      4.325      7.680
REMARK  Name = 
REMARK  3 active torsions:
REMARK  status: ('A' for Active; 'I' for Inactive)
REMARK    1  A    between atoms: CA_2  and  C_3
REMARK    2  A    between atoms: CA_2  and  C_6
REMARK    3  A    between atoms: C_6  and  C_8
REMARK                            x       y       z     vdW  Elec       q    Type
REMARK                         _______ _______ _______ _____ _____    ______ ____
ROOT
ATOM      1  C   UNL     1       4.681   5.220  -9.455  0.00  0.00    +0.013 A 
ATOM      2  C   UNL     1       4.561   5.503 -10.777  0.00  0.00    +0.044 A 
ATOM      3  C   UNL     1       5.687   5.336 -11.574  0.00  0.00    +0.234 A 
ATOM      4  O   UNL     1       5.631   5.071 -12.923  0.00  0.00    -0.283 OA
ATOM      5  C   UNL     1       6.870   5.858 -11.077  0.00  0.00    +0.234 A 
ATOM      6  O   UNL     1       7.730   6.644 -11.853  0.00  0.00    -0.283 OA
ATOM      7  C   UNL     1       7.040   5.776  -9.700  0.00  0.00    +0.045 A 
ATOM      8  C   UNL     1       5.939   5.471  -8.908  0.00  0.00    +0.002 A 
ENDROOT
BRANCH   1   9
ATOM      9  C   UNL     1       3.637   6.014  -8.466  0.00  0.00    +0.203 C 
ATOM     10  O   UNL     1       4.524   5.695  -7.249  0.00  0.00    -0.216 OA
BRANCH   9  12
ATOM     11  N   UNL     1       2.091   5.160  -6.806  0.00  0.00    -0.118 NA
ATOM     12  CA  UNL     1       2.636   4.591  -8.182  0.00  0.00    +0.229 C 
BRANCH  12  13
ATOM     13  C   UNL     1       1.372   5.194  -9.006  0.00  0.00    +0.385 C 
ATOM     14  OXT UNL     1       1.181   4.370 -10.123  0.00  0.00    -0.244 OA
ATOM     15  O   UNL     1       0.368   5.471  -8.344  0.00  0.00    -0.244 OA
ENDBRANCH  12  13
ENDBRANCH   9  12
ENDBRANCH   1   9
TORSDOF 3
ENDMDL
MODEL 5
REMARK VINA RESULT:      -5.6      4.161      8.040
REMARK  Name = 
REMARK  3 active torsions:
REMARK  status: ('A' for Active; 'I' for Inactive)
REMARK    1  A    between atoms: CA_2  and  C_3
REMARK    2  A    between atoms: CA_2  and  C_6
REMARK    3  A    between atoms: C_6  and  C_8
REMARK                            x       y       z     vdW  Elec       q    Type
REMARK                         _______ _______ _______ _____ _____    ______ ____
ROOT
ATOM      1  C   UNL     1       3.967   6.115 -10.610  0.00  0.00    +0.013 A 
ATOM      2  C   UNL     1       5.149   5.942  -9.966  0.00  0.00    +0.044 A 
ATOM      3  C   UNL     1       6.314   6.104 -10.707  0.00  0.00    +0.234 A 
ATOM      4  O   UNL     1       7.519   6.476 -10.157  0.00  0.00    -0.283 OA
ATOM      5  C   UNL     1       6.344   5.477 -11.941  0.00  0.00    +0.234 A 
ATOM      6  O   UNL     1       7.431   4.705 -12.366  0.00  0.00    -0.283 OA
ATOM      7  C   UNL     1       5.141   5.442 -12.636  0.00  0.00    +0.045 A 
ATOM      8  C   UNL     1       3.968   5.748 -11.956  0.00  0.00    +0.002 A 
ENDROOT
BRANCH   1   9
ATOM      9  C   UNL     1       2.688   5.309  -9.966  0.00  0.00    +0.203 C 
ATOM     10  O   UNL     1       2.001   5.269 -11.343  0.00  0.00    -0.216 OA
BRANCH   9  12
ATOM     11  N   UNL     1       0.439   6.031  -9.421  0.00  0.00    -0.118 NA
ATOM     12  CA  UNL     1       1.832   6.783  -9.518  0.00  0.00    +0.229 C 
BRANCH  12  13
ATOM     13  C   UNL     1       2.122   6.588  -7.932  0.00  0.00    +0.385 C 
ATOM     14  OXT UNL     1       2.710   7.775  -7.474  0.00  0.00    -0.244 OA
ATOM     15  O   UNL     1       1.194   6.134  -7.257  0.00  0.00    -0.244 OA
ENDBRANCH  12  13
ENDBRANCH   9  12
ENDBRANCH   1   9
TORSDOF 3
ENDMDL
MODEL 6
REMARK VINA RESULT:      -5.6      2.626      5.553
REMARK  Name = 
REMARK  3 active torsions:
REMARK  status: ('A' for Active; 'I' for Inactive)
REMARK    1  A    between atoms: CA_2  and  C_3
REMARK    2  A    between atoms: CA_2  and  C_6
REMARK    3  A    between atoms: C_6  and  C_8
REMARK                            x       y       z     vdW  Elec       q    Type
REMARK                         _______ _______ _______ _____ _____    ______ ____
ROOT
ATOM      1  C   UNL     1       0.740   6.663  -4.703  0.00  0.00    +0.013 A 
ATOM      2  C   UNL     1       1.687   6.503  -3.744  0.00  0.00    +0.044 A 
ATOM      3  C   UNL     1       2.906   7.144  -3.932  0.00  0.00    +0.234 A 
ATOM      4  O   UNL     1       3.734   7.520  -2.900  0.00  0.00    -0.283 OA
ATOM      5  C   UNL     1       3.472   7.021  -5.190  0.00  0.00    +0.234 A 
ATOM      6  O   UNL     1       4.816   6.680  -5.380  0.00  0.00    -0.283 OA
ATOM      7  C   UNL     1       2.584   7.004  -6.259  0.00  0.00    +0.045 A 
ATOM      8  C   UNL     1       1.231   6.812  -6.000  0.00  0.00    +0.002 A 
ENDROOT
BRANCH   1   9
ATOM      9  C   UNL     1      -0.360   5.448  -4.818  0.00  0.00    +0.203 C 
ATOM     10  O   UNL     1      -0.764   5.926  -6.224  0.00  0.00    -0.216 OA
BRANCH   9  12
ATOM     11  N   UNL     1      -2.778   5.437  -4.656  0.00  0.00    -0.118 NA
ATOM     12  CA  UNL     1      -1.650   6.383  -4.066  0.00  0.00    +0.229 C 
BRANCH  12  13
ATOM     13  C   UNL     1      -1.583   5.545  -2.676  0.00  0.00    +0.385 C 
ATOM     14  OXT UNL     1      -1.210   6.448  -1.672  0.00  0.00    -0.244 OA
ATOM     15  O   UNL     1      -2.544   4.811  -2.432  0.00  0.00    -0.244 OA
ENDBRANCH  12  13
ENDBRANCH   9  12
ENDBRANCH   1   9
TORSDOF 3
ENDMDL
MODEL 7
REMARK VINA RESULT:      -5.6      2.507      5.003
REMARK  Name = 
REMARK  3 active torsions:
REMARK  status: ('A' for Active; 'I' for Inactive)
REMARK    1  A    between atoms: CA_2  and  C_3
REMARK    2  A    between atoms: CA_2  and  C_6
REMARK    3  A    between atoms: C_6  and  C_8
REMARK                            x       y       z     vdW  Elec       q    Type
REMARK                         _______ _______ _______ _____ _____    ______ ____
ROOT
ATOM      1  C   UNL     1       0.361   5.212  -4.129  0.00  0.00    +0.013 A 
ATOM      2  C   UNL     1      -0.649   5.761  -4.851  0.00  0.00    +0.044 A 
ATOM      3  C   UNL     1      -0.775   5.371  -6.179  0.00  0.00    +0.234 A 
ATOM      4  O   UNL     1      -1.965   5.398  -6.870  0.00  0.00    -0.283 OA
ATOM      5  C   UNL     1       0.393   5.356  -6.923  0.00  0.00    +0.234 A 
ATOM      6  O   UNL     1       0.481   5.931  -8.197  0.00  0.00    -0.283 OA
ATOM      7  C   UNL     1       1.542   4.966  -6.246  0.00  0.00    +0.045 A 
ATOM      8  C   UNL     1       1.512   4.914  -4.857  0.00  0.00    +0.002 A 
ENDROOT
BRANCH   1   9
ATOM      9  C   UNL     1       0.897   6.116  -2.866  0.00  0.00    +0.203 C 
ATOM     10  O   UNL     1       2.287   5.463  -2.969  0.00  0.00    -0.216 OA
BRANCH   9  12
ATOM     11  N   UNL     1       1.223   5.646  -0.511  0.00  0.00    -0.118 NA
ATOM     12  CA  UNL     1       0.374   4.948  -1.654  0.00  0.00    +0.229 C 
BRANCH  12  13
ATOM     13  C   UNL     1      -0.959   5.794  -1.270  0.00  0.00    +0.385 C 
ATOM     14  OXT UNL     1      -2.060   5.021  -1.660  0.00  0.00    -0.244 OA
ATOM     15  O   UNL     1      -0.994   6.275  -0.134  0.00  0.00    -0.244 OA
ENDBRANCH  12  13
ENDBRANCH   9  12
ENDBRANCH   1   9
TORSDOF 3
ENDMDL
MODEL 8
REMARK VINA RESULT:      -5.5      2.933      5.585
REMARK  Name = 
REMARK  3 active torsions:
REMARK  status: ('A' for Active; 'I' for Inactive)
REMARK    1  A    between atoms: CA_2  and  C_3
REMARK    2  A    between atoms: CA_2  and  C_6
REMARK    3  A    between atoms: C_6  and  C_8
REMARK                            x       y       z     vdW  Elec       q    Type
REMARK                         _______ _______ _______ _____ _____    ______ ____
ROOT
ATOM      1  C   UNL     1       0.706   6.234  -3.304  0.00  0.00    +0.013 A 
ATOM      2  C   UNL     1       1.111   5.254  -2.456  0.00  0.00    +0.044 A 
ATOM      3  C   UNL     1       2.403   5.334  -1.952  0.00  0.00    +0.234 A 
ATOM      4  O   UNL     1       2.788   4.782  -0.752  0.00  0.00    -0.283 OA
ATOM      5  C   UNL     1       3.400   5.613  -2.872  0.00  0.00    +0.234 A 
ATOM      6  O   UNL     1       4.594   4.885  -2.931  0.00  0.00    -0.283 OA
ATOM      7  C   UNL     1       3.056   6.485  -3.898  0.00  0.00    +0.045 A 
ATOM      8  C   UNL     1       1.712   6.771  -4.107  0.00  0.00    +0.002 A 
ENDROOT
BRANCH   1   9
ATOM      9  C   UNL     1      -0.478   5.807  -4.360  0.00  0.00    +0.203 C 
ATOM     10  O   UNL     1      -0.202   7.066  -5.201  0.00  0.00    -0.216 OA
BRANCH   9  12
ATOM     11  N   UNL     1      -2.675   6.763  -4.729  0.00  0.00    -0.118 NA
ATOM     12  CA  UNL     1      -1.748   6.623  -3.450  0.00  0.00    +0.229 C 
BRANCH  12  13
ATOM     13  C   UNL     1      -2.461   5.233  -3.005  0.00  0.00    +0.385 C 
ATOM     14  OXT UNL     1      -2.355   5.146  -1.611  0.00  0.00    -0.244 OA
ATOM     15  O   UNL     1      -3.572   5.007  -3.491  0.00  0.00    -0.244 OA
ENDBRANCH  12  13
ENDBRANCH   9  12
ENDBRANCH   1   9
TORSDOF 3
ENDMDL
MODEL 9
REMARK VINA RESULT:      -5.5      5.193      6.858
REMARK  Name = 
REMARK  3 active torsions:
REMARK  status: ('A' for Active; 'I' for Inactive)
REMARK    1  A    between atoms: CA_2  and  C_3
REMARK    2  A    between atoms: CA_2  and  C_6
REMARK    3  A    between atoms: C_6  and  C_8
REMARK                            x       y       z     vdW  Elec       q    Type
REMARK                         _______ _______ _______ _____ _____    ______ ____
ROOT
ATOM      1  C   UNL     1       3.946   6.345 -10.788  0.00  0.00    +0.013 A 
ATOM      2  C   UNL     1       2.961   5.896 -11.607  0.00  0.00    +0.044 A 
ATOM      3  C   UNL     1       1.687   6.419 -11.425  0.00  0.00    +0.234 A 
ATOM      4  O   UNL     1       0.744   6.492 -12.426  0.00  0.00    -0.283 OA
ATOM      5  C   UNL     1       1.233   6.480 -10.119  0.00  0.00    +0.234 A 
ATOM      6  O   UNL     1      -0.039   6.032  -9.742  0.00  0.00    -0.283 OA
ATOM      7  C   UNL     1       2.190   6.771  -9.154  0.00  0.00    +0.045 A 
ATOM      8  C   UNL     1       3.533   6.686  -9.500  0.00  0.00    +0.002 A 
ENDROOT
BRANCH   1   9
ATOM      9  C   UNL     1       5.198   5.307 -10.556  0.00  0.00    +0.203 C 
ATOM     10  O   UNL     1       5.526   5.978  -9.210  0.00  0.00    -0.216 OA
BRANCH   9  12
ATOM     11  N   UNL     1       7.597   5.606 -10.733  0.00  0.00    -0.118 NA
ATOM     12  CA  UNL     1       6.356   6.324 -11.411  0.00  0.00    +0.229 C 
BRANCH  12  13
ATOM     13  C   UNL     1       6.413   5.344 -12.705  0.00  0.00    +0.385 C 
ATOM     14  OXT UNL     1       5.918   6.074 -13.794  0.00  0.00    -0.244 OA
ATOM     15  O   UNL     1       7.471   4.733 -12.883  0.00  0.00    -0.244 OA
ENDBRANCH  12  13
ENDBRANCH   9  12
ENDBRANCH   1   9
TORSDOF 3
ENDMDL
