MODEL 1
REMARK VINA RESULT:      -5.1      0.000      0.000
REMARK  Name = 
REMARK  2 active torsions:
REMARK  status: ('A' for Active; 'I' for Inactive)
REMARK    1  A    between atoms: C_2  and  C_3
REMARK    2  A    between atoms: C_5  and  C_6
REMARK                            x       y       z     vdW  Elec       q    Type
REMARK                         _______ _______ _______ _____ _____    ______ ____
ROOT
ATOM      1  C   UNL     1       5.013   6.498 -10.195  0.00  0.00    +0.059 A 
ATOM      2  N   UNL     1       5.967   5.798  -9.536  0.00  0.00    -0.248 NA
ATOM      3  C   UNL     1       5.587   5.034  -8.483  0.00  0.00    +0.099 A 
ATOM      4  C   UNL     1       4.453   5.294  -7.754  0.00  0.00    +0.023 A 
ATOM      5  C   UNL     1       3.565   6.224  -8.259  0.00  0.00    +0.026 A 
ATOM      6  C   UNL     1       3.857   6.768  -9.479  0.00  0.00    +0.017 A 
ENDROOT
BRANCH   5   7
ATOM      7  C   UNL     1       2.690   6.995  -7.365  0.00  0.00    +0.125 C 
ATOM      8  S   UNL     1       3.061   6.934  -5.767  0.00  0.00    -0.031 S 
ATOM      9  N   UNL     1       2.153   8.209  -7.860  0.00  0.00    -0.120 NA
ENDBRANCH   5   7
BRANCH   1  11
ATOM     10  C   UNL     1       7.014   7.645 -11.022  0.00  0.00    +0.007 C 
ATOM     11  C   UNL     1       5.529   7.430 -11.246  0.00  0.00    +0.046 C 
ENDBRANCH   1  11
TORSDOF 2
ENDMDL
MODEL 2
REMARK VINA RESULT:      -5.0      5.511      7.101
REMARK  Name = 
REMARK  2 active torsions:
REMARK  status: ('A' for Active; 'I' for Inactive)
REMARK    1  A    between atoms: C_2  and  C_3
REMARK    2  A    between atoms: C_5  and  C_6
REMARK                            x       y       z     vdW  Elec       q    Type
REMARK                         _______ _______ _______ _____ _____    ______ ____
ROOT
ATOM      1  C   UNL     1       0.205   5.125  -5.873  0.00  0.00    +0.059 A 
ATOM      2  N   UNL     1      -0.803   4.995  -6.768  0.00  0.00    -0.248 NA
ATOM      3  C   UNL     1      -1.947   5.687  -6.546  0.00  0.00    +0.099 A 
ATOM      4  C   UNL     1      -2.335   6.091  -5.293  0.00  0.00    +0.023 A 
ATOM      5  C   UNL     1      -1.413   5.981  -4.270  0.00  0.00    +0.026 A 
ATOM      6  C   UNL     1      -0.163   5.536  -4.600  0.00  0.00    +0.017 A 
ENDROOT
BRANCH   5   7
ATOM      7  C   UNL     1      -1.848   5.807  -2.877  0.00  0.00    +0.125 C 
ATOM      8  S   UNL     1      -1.996   7.182  -1.992  0.00  0.00    -0.031 S 
ATOM      9  N   UNL     1      -2.758   4.757  -2.600  0.00  0.00    -0.120 NA
ENDBRANCH   5   7
BRANCH   1  11
ATOM     10  C   UNL     1       2.555   4.729  -5.301  0.00  0.00    +0.007 C 
ATOM     11  C   UNL     1       1.373   4.218  -6.104  0.00  0.00    +0.046 C 
ENDBRANCH   1  11
TORSDOF 2
ENDMDL
MODEL 3
REMARK VINA RESULT:      -5.0      3.981      6.469
REMARK  Name = 
REMARK  2 active torsions:
REMARK  status: ('A' for Active; 'I' for Inactive)
REMARK    1  A    between atoms: C_2  and  C_3
REMARK    2  A    between atoms: C_5  and  C_6
REMARK                            x       y       z     vdW  Elec       q    Type
REMARK                         _______ _______ _______ _____ _____    ______ ____
ROOT
ATOM      1  C   UNL     1      -1.317   6.244  -5.506  0.00  0.00    +0.059 A 
ATOM      2  N   UNL     1      -1.759   5.734  -6.680  0.00  0.00    -0.248 NA
ATOM      3  C   UNL     1      -0.845   5.222  -7.539  0.00  0.00    +0.099 A 
ATOM      4  C   UNL     1       0.470   5.615  -7.538  0.00  0.00    +0.023 A 
ATOM      5  C   UNL     1       0.908   6.386  -6.479  0.00  0.00    +0.026 A 
ATOM      6  C   UNL     1       0.011   6.645  -5.481  0.00  0.00    +0.017 A 
ENDROOT
BRANCH   5   7
ATOM      7  C   UNL     1       2.031   7.321  -6.639  0.00  0.00    +0.125 C 
ATOM      8  S   UNL     1       3.447   6.870  -5.942  0.00  0.00    -0.031 S 
ATOM      9  N   UNL     1       2.108   8.052  -7.850  0.00  0.00    -0.120 NA
ENDBRANCH   5   7
BRANCH   1  11
ATOM     10  C   UNL     1      -1.941   8.361  -4.442  0.00  0.00    +0.007 C 
ATOM     11  C   UNL     1      -2.364   6.924  -4.680  0.00  0.00    +0.046 C 
ENDBRANCH   1  11
TORSDOF 2
ENDMDL
MODEL 4
REMARK VINA RESULT:      -4.8      2.505      4.599
REMARK  Name = 
REMARK  2 active torsions:
REMARK  status: ('A' for Active; 'I' for Inactive)
REMARK    1  A    between atoms: C_2  and  C_3
REMARK    2  A    between atoms: C_5  and  C_6
REMARK                            x       y       z     vdW  Elec       q    Type
REMARK                         _______ _______ _______ _____ _____    ______ ____
ROOT
ATOM      1  C   UNL     1       4.001   6.225  -5.878  0.00  0.00    +0.059 A 
ATOM      2  N   UNL     1       3.238   7.307  -6.165  0.00  0.00    -0.248 NA
ATOM      3  C   UNL     1       2.610   7.345  -7.365  0.00  0.00    +0.099 A 
ATOM      4  C   UNL     1       3.065   6.653  -8.459  0.00  0.00    +0.023 A 
ATOM      5  C   UNL     1       4.060   5.716  -8.256  0.00  0.00    +0.026 A 
ATOM      6  C   UNL     1       4.469   5.508  -6.969  0.00  0.00    +0.017 A 
ENDROOT
BRANCH   5   7
ATOM      7  C   UNL     1       5.000   5.369  -9.331  0.00  0.00    +0.125 C 
ATOM      8  S   UNL     1       4.459   5.600 -10.863  0.00  0.00    -0.031 S 
ATOM      9  N   UNL     1       6.379   5.586  -9.091  0.00  0.00    -0.120 NA
ENDBRANCH   5   7
BRANCH   1  11
ATOM     10  C   UNL     1       4.998   7.789  -4.276  0.00  0.00    +0.007 C 
ATOM     11  C   UNL     1       4.779   6.323  -4.603  0.00  0.00    +0.046 C 
ENDBRANCH   1  11
TORSDOF 2
ENDMDL
MODEL 5
REMARK VINA RESULT:      -4.8      2.289      2.977
REMARK  Name = 
REMARK  2 active torsions:
REMARK  status: ('A' for Active; 'I' for Inactive)
REMARK    1  A    between atoms: C_2  and  C_3
REMARK    2  A    between atoms: C_5  and  C_6
REMARK                            x       y       z     vdW  Elec       q    Type
REMARK                         _______ _______ _______ _____ _____    ______ ____
ROOT
ATOM      1  C   UNL     1       6.718   5.822 -10.973  0.00  0.00    +0.059 A 
ATOM      2  N   UNL     1       6.049   5.513 -12.110  0.00  0.00    -0.248 NA
ATOM      3  C   UNL     1       4.695   5.567 -12.089  0.00  0.00    +0.099 A 
ATOM      4  C   UNL     1       3.967   5.426 -10.934  0.00  0.00    +0.023 A 
ATOM      5  C   UNL     1       4.655   5.456  -9.736  0.00  0.00    +0.026 A 
ATOM      6  C   UNL     1       6.000   5.690  -9.793  0.00  0.00    +0.017 A 
ENDROOT
BRANCH   5   7
ATOM      7  C   UNL     1       4.138   4.758  -8.551  0.00  0.00    +0.125 C 
ATOM      8  S   UNL     1       4.202   5.593  -7.139  0.00  0.00    -0.031 S 
ATOM      9  N   UNL     1       3.045   3.876  -8.734  0.00  0.00    -0.120 NA
ENDBRANCH   5   7
BRANCH   1  11
ATOM     10  C   UNL     1       8.668   5.806 -12.456  0.00  0.00    +0.007 C 
ATOM     11  C   UNL     1       8.196   5.595 -11.030  0.00  0.00    +0.046 C 
ENDBRANCH   1  11
TORSDOF 2
ENDMDL
MODEL 6
REMARK VINA RESULT:      -4.8      5.657      8.236
REMARK  Name = 
REMARK  2 active torsions:
REMARK  status: ('A' for Active; 'I' for Inactive)
REMARK    1  A    between atoms: C_2  and  C_3
REMARK    2  A    between atoms: C_5  and  C_6
REMARK                            x       y       z     vdW  Elec       q    Type
REMARK                         _______ _______ _______ _____ _____    ______ ____
ROOT
ATOM      1  C   UNL     1      -1.368   5.528  -3.010  0.00  0.00    +0.059 A 
ATOM      2  N   UNL     1      -0.884   5.059  -1.835  0.00  0.00    -0.248 NA
ATOM      3  C   UNL     1       0.444   5.184  -1.596  0.00  0.00    +0.099 A 
ATOM      4  C   UNL     1       1.370   5.283  -2.604  0.00  0.00    +0.023 A 
ATOM      5  C   UNL     1       0.901   5.489  -3.887  0.00  0.00    +0.026 A 
ATOM      6  C   UNL     1      -0.449   5.640  -4.042  0.00  0.00    +0.017 A 
ENDROOT
BRANCH   5   7
ATOM      7  C   UNL     1       1.670   5.035  -5.053  0.00  0.00    +0.125 C 
ATOM      8  S   UNL     1       3.299   4.969  -4.860  0.00  0.00    -0.031 S 
ATOM      9  N   UNL     1       1.077   4.059  -5.891  0.00  0.00    -0.120 NA
ENDBRANCH   5   7
BRANCH   1  11
ATOM     10  C   UNL     1      -3.657   6.352  -2.713  0.00  0.00    +0.007 C 
ATOM     11  C   UNL     1      -2.811   5.220  -3.265  0.00  0.00    +0.046 C 
ENDBRANCH   1  11
TORSDOF 2
ENDMDL
MODEL 7
REMARK VINA RESULT:      -4.7      6.510      8.102
REMARK  Name = 
REMARK  2 active torsions:
REMARK  status: ('A' for Active; 'I' for Inactive)
REMARK    1  A    between atoms: C_2  and  C_3
REMARK    2  A    between atoms: C_5  and  C_6
REMARK                            x       y       z     vdW  Elec       q    Type
REMARK                         _______ _______ _______ _____ _____    ______ ____
ROOT
ATOM      1  C   UNL     1      -2.229   5.914  -4.829  0.00  0.00    +0.059 A 
ATOM      2  N   UNL     1      -3.075   5.276  -3.985  0.00  0.00    -0.248 NA
ATOM      3  C   UNL     1      -2.844   5.374  -2.653  0.00  0.00    +0.099 A 
ATOM      4  C   UNL     1      -1.599   5.633  -2.137  0.00  0.00    +0.023 A 
ATOM      5  C   UNL     1      -0.609   6.026  -3.017  0.00  0.00    +0.026 A 
ATOM      6  C   UNL     1      -0.966   6.188  -4.326  0.00  0.00    +0.017 A 
ENDROOT
BRANCH   5   7
ATOM      7  C   UNL     1       0.807   5.760  -2.728  0.00  0.00    +0.125 C 
ATOM      8  S   UNL     1       1.126   5.057  -1.279  0.00  0.00    -0.031 S 
ATOM      9  N   UNL     1       1.644   5.412  -3.817  0.00  0.00    -0.120 NA
ENDBRANCH   5   7
BRANCH   1  11
ATOM     10  C   UNL     1      -1.137   5.261  -6.923  0.00  0.00    +0.007 C 
ATOM     11  C   UNL     1      -2.460   5.636  -6.281  0.00  0.00    +0.046 C 
ENDBRANCH   1  11
TORSDOF 2
ENDMDL
MODEL 8
REMARK VINA RESULT:      -4.7      4.087      6.067
REMARK  Name = 
REMARK  2 active torsions:
REMARK  status: ('A' for Active; 'I' for Inactive)
REMARK    1  A    between atoms: C_2  and  C_3
REMARK    2  A    between atoms: C_5  and  C_6
REMARK                            x       y       z     vdW  Elec       q    Type
REMARK                         _______ _______ _______ _____ _____    ______ ____
ROOT
ATOM      1  C   UNL     1      -0.451   5.416  -6.829  0.00  0.00    +0.059 A 
ATOM      2  N   UNL     1       0.219   4.582  -5.998  0.00  0.00    -0.248 NA
ATOM      3  C   UNL     1       1.538   4.374  -6.230  0.00  0.00    +0.099 A 
ATOM      4  C   UNL     1       2.105   4.533  -7.470  0.00  0.00    +0.023 A 
ATOM      5  C   UNL     1       1.343   5.141  -8.449  0.00  0.00    +0.026 A 
ATOM      6  C   UNL     1       0.106   5.595  -8.087  0.00  0.00    +0.017 A 
ENDROOT
BRANCH   5   7
ATOM      7  C   UNL     1       1.567   4.847  -9.871  0.00  0.00    +0.125 C 
ATOM      8  S   UNL     1       0.218   4.625 -10.781  0.00  0.00    -0.031 S 
ATOM      9  N   UNL     1       2.680   5.457 -10.500  0.00  0.00    -0.120 NA
ENDBRANCH   5   7
BRANCH   1  11
ATOM     10  C   UNL     1      -2.210   6.452  -5.473  0.00  0.00    +0.007 C 
ATOM     11  C   UNL     1      -1.929   5.478  -6.602  0.00  0.00    +0.046 C 
ENDBRANCH   1  11
TORSDOF 2
ENDMDL
MODEL 9
REMARK VINA RESULT:      -4.7      3.606      6.148
REMARK  Name = 
REMARK  2 active torsions:
REMARK  status: ('A' for Active; 'I' for Inactive)
REMARK    1  A    between atoms: C_2  and  C_3
REMARK    2  A    between atoms: C_5  and  C_6
REMARK                            x       y       z     vdW  Elec       q    Type
REMARK                         _______ _______ _______ _____ _____    ______ ____
ROOT
ATOM      1  C   UNL     1      -0.505   6.515  -5.008  0.00  0.00    +0.059 A 
ATOM      2  N   UNL     1      -0.105   5.404  -4.344  0.00  0.00    -0.248 NA
ATOM      3  C   UNL     1       1.216   5.255  -4.086  0.00  0.00    +0.099 A 
ATOM      4  C   UNL     1       2.190   5.857  -4.844  0.00  0.00    +0.023 A 
ATOM      5  C   UNL     1       1.791   6.819  -5.752  0.00  0.00    +0.026 A 
ATOM      6  C   UNL     1       0.463   7.142  -5.778  0.00  0.00    +0.017 A 
ENDROOT
BRANCH   5   7
ATOM      7  C   UNL     1       2.577   7.084  -6.965  0.00  0.00    +0.125 C 
ATOM      8  S   UNL     1       3.258   5.773  -7.681  0.00  0.00    -0.031 S 
ATOM      9  N   UNL     1       2.142   8.132  -7.812  0.00  0.00    -0.120 NA
ENDBRANCH   5   7
BRANCH   1  11
ATOM     10  C   UNL     1      -2.196   5.476  -6.445  0.00  0.00    +0.007 C 
ATOM     11  C   UNL     1      -1.953   6.536  -5.387  0.00  0.00    +0.046 C 
ENDBRANCH   1  11
TORSDOF 2
ENDMDL
