MODEL 1
REMARK VINA RESULT:      -3.6      0.000      0.000
REMARK  Name = 
REMARK  2 active torsions:
REMARK  status: ('A' for Active; 'I' for Inactive)
REMARK    1  A    between atoms: CA_2  and  CB_3
REMARK    2  A    between atoms: CA_2  and  C_5
REMARK                            x       y       z     vdW  Elec       q    Type
REMARK                         _______ _______ _______ _____ _____    ______ ____
ROOT
ATOM      1  N   SER A   1       7.564   5.482  -9.628  0.00  0.00    -0.118 NA
ATOM      2  CA  SER A   1       6.742   5.890 -10.930  0.00  0.00    +0.227 C 
ENDROOT
BRANCH   2   3
ATOM      3  C   SER A   1       7.927   5.397 -11.930  0.00  0.00    +0.385 C 
ATOM      4  OXT SER A   1       7.497   4.607 -12.976  0.00  0.00    -0.244 OA
ATOM      5  O   SER A   1       9.031   5.907 -11.784  0.00  0.00    -0.244 OA
ENDBRANCH   2   3
BRANCH   2   6
ATOM      6  CB  SER A   1       7.253   7.467 -10.950  0.00  0.00    +0.213 C 
ATOM      7  OG  SER A   1       6.343   8.217 -11.604  0.00  0.00    -0.218 OA
ENDBRANCH   2   6
TORSDOF 2
ENDMDL
MODEL 2
REMARK VINA RESULT:      -3.5      1.976      2.116
REMARK  Name = 
REMARK  2 active torsions:
REMARK  status: ('A' for Active; 'I' for Inactive)
REMARK    1  A    between atoms: CA_2  and  CB_3
REMARK    2  A    between atoms: CA_2  and  C_5
REMARK                            x       y       z     vdW  Elec       q    Type
REMARK                         _______ _______ _______ _____ _____    ______ ____
ROOT
ATOM      1  N   SER A   1       6.355   6.677 -12.661  0.00  0.00    -0.118 NA
ATOM      2  CA  SER A   1       7.454   6.840 -11.519  0.00  0.00    +0.227 C 
ENDROOT
BRANCH   2   3
ATOM      3  C   SER A   1       8.389   5.663 -12.141  0.00  0.00    +0.385 C 
ATOM      4  OXT SER A   1       7.688   4.616 -12.702  0.00  0.00    -0.244 OA
ATOM      5  O   SER A   1       9.590   5.888 -12.228  0.00  0.00    -0.244 OA
ENDBRANCH   2   3
BRANCH   2   6
ATOM      6  CB  SER A   1       6.717   5.815 -10.444  0.00  0.00    +0.213 C 
ATOM      7  OG  SER A   1       7.563   5.564  -9.425  0.00  0.00    -0.218 OA
ENDBRANCH   2   6
TORSDOF 2
ENDMDL
MODEL 3
REMARK VINA RESULT:      -3.4      1.756      1.918
REMARK  Name = 
REMARK  2 active torsions:
REMARK  status: ('A' for Active; 'I' for Inactive)
REMARK    1  A    between atoms: CA_2  and  CB_3
REMARK    2  A    between atoms: CA_2  and  C_5
REMARK                            x       y       z     vdW  Elec       q    Type
REMARK                         _______ _______ _______ _____ _____    ______ ____
ROOT
ATOM      1  N   SER A   1       7.192   7.331 -11.304  0.00  0.00    -0.118 NA
ATOM      2  CA  SER A   1       7.080   5.772 -10.989  0.00  0.00    +0.227 C 
ENDROOT
BRANCH   2   3
ATOM      3  C   SER A   1       8.136   5.379 -12.163  0.00  0.00    +0.385 C 
ATOM      4  OXT SER A   1       7.578   4.700 -13.227  0.00  0.00    -0.244 OA
ATOM      5  O   SER A   1       9.257   5.869 -12.096  0.00  0.00    -0.244 OA
ENDBRANCH   2   3
BRANCH   2   6
ATOM      6  CB  SER A   1       5.761   5.511 -11.959  0.00  0.00    +0.213 C 
ATOM      7  OG  SER A   1       4.696   5.224 -11.184  0.00  0.00    -0.218 OA
ENDBRANCH   2   6
TORSDOF 2
ENDMDL
MODEL 4
REMARK VINA RESULT:      -3.4      1.962      2.940
REMARK  Name = 
REMARK  2 active torsions:
REMARK  status: ('A' for Active; 'I' for Inactive)
REMARK    1  A    between atoms: CA_2  and  CB_3
REMARK    2  A    between atoms: CA_2  and  C_5
REMARK                            x       y       z     vdW  Elec       q    Type
REMARK                         _______ _______ _______ _____ _____    ______ ____
ROOT
ATOM      1  N   SER A   1       7.757   4.659 -12.629  0.00  0.00    -0.118 NA
ATOM      2  CA  SER A   1       7.679   6.114 -13.274  0.00  0.00    +0.227 C 
ENDROOT
BRANCH   2   3
ATOM      3  C   SER A   1       7.339   6.816 -11.847  0.00  0.00    +0.385 C 
ATOM      4  OXT SER A   1       6.448   7.867 -11.927  0.00  0.00    -0.244 OA
ATOM      5  O   SER A   1       7.739   6.251 -10.835  0.00  0.00    -0.244 OA
ENDBRANCH   2   3
BRANCH   2   6
ATOM      6  CB  SER A   1       6.083   6.008 -13.709  0.00  0.00    +0.213 C 
ATOM      7  OG  SER A   1       5.614   4.791 -13.365  0.00  0.00    -0.218 OA
ENDBRANCH   2   6
TORSDOF 2
ENDMDL
MODEL 5
REMARK VINA RESULT:      -3.4     13.274     13.739
REMARK  Name = 
REMARK  2 active torsions:
REMARK  status: ('A' for Active; 'I' for Inactive)
REMARK    1  A    between atoms: CA_2  and  CB_3
REMARK    2  A    between atoms: CA_2  and  C_5
REMARK                            x       y       z     vdW  Elec       q    Type
REMARK                         _______ _______ _______ _____ _____    ______ ____
ROOT
ATOM      1  N   SER A   1      -3.657   6.758  -2.402  0.00  0.00    -0.118 NA
ATOM      2  CA  SER A   1      -2.080   6.973  -2.314  0.00  0.00    +0.227 C 
ENDROOT
BRANCH   2   3
ATOM      3  C   SER A   1      -1.786   5.375  -2.242  0.00  0.00    +0.385 C 
ATOM      4  OXT SER A   1      -0.634   5.038  -1.561  0.00  0.00    -0.244 OA
ATOM      5  O   SER A   1      -2.678   4.623  -2.618  0.00  0.00    -0.244 OA
ENDBRANCH   2   3
BRANCH   2   6
ATOM      6  CB  SER A   1      -2.037   7.151  -0.667  0.00  0.00    +0.213 C 
ATOM      7  OG  SER A   1      -1.556   8.375  -0.369  0.00  0.00    -0.218 OA
ENDBRANCH   2   6
TORSDOF 2
ENDMDL
MODEL 6
REMARK VINA RESULT:      -3.3      2.172      3.061
REMARK  Name = 
REMARK  2 active torsions:
REMARK  status: ('A' for Active; 'I' for Inactive)
REMARK    1  A    between atoms: CA_2  and  CB_3
REMARK    2  A    between atoms: CA_2  and  C_5
REMARK                            x       y       z     vdW  Elec       q    Type
REMARK                         _______ _______ _______ _____ _____    ______ ____
ROOT
ATOM      1  N   SER A   1       6.666   7.525 -11.309  0.00  0.00    -0.118 NA
ATOM      2  CA  SER A   1       6.260   5.985 -11.370  0.00  0.00    +0.227 C 
ENDROOT
BRANCH   2   3
ATOM      3  C   SER A   1       6.440   5.791  -9.765  0.00  0.00    +0.385 C 
ATOM      4  OXT SER A   1       5.278   5.465  -9.097  0.00  0.00    -0.244 OA
ATOM      5  O   SER A   1       7.585   5.765  -9.329  0.00  0.00    -0.244 OA
ENDBRANCH   2   3
BRANCH   2   6
ATOM      6  CB  SER A   1       7.787   5.433 -11.703  0.00  0.00    +0.213 C 
ATOM      7  OG  SER A   1       7.728   4.574 -12.741  0.00  0.00    -0.218 OA
ENDBRANCH   2   6
TORSDOF 2
ENDMDL
MODEL 7
REMARK VINA RESULT:      -3.3     11.594     12.269
REMARK  Name = 
REMARK  2 active torsions:
REMARK  status: ('A' for Active; 'I' for Inactive)
REMARK    1  A    between atoms: CA_2  and  CB_3
REMARK    2  A    between atoms: CA_2  and  C_5
REMARK                            x       y       z     vdW  Elec       q    Type
REMARK                         _______ _______ _______ _____ _____    ______ ____
ROOT
ATOM      1  N   SER A   1      -2.688   4.920  -2.301  0.00  0.00    -0.118 NA
ATOM      2  CA  SER A   1      -1.975   5.642  -3.531  0.00  0.00    +0.227 C 
ENDROOT
BRANCH   2   3
ATOM      3  C   SER A   1      -0.488   5.379  -2.926  0.00  0.00    +0.385 C 
ATOM      4  OXT SER A   1      -0.477   4.861  -1.647  0.00  0.00    -0.244 OA
ATOM      5  O   SER A   1       0.457   5.480  -3.699  0.00  0.00    -0.244 OA
ENDBRANCH   2   3
BRANCH   2   6
ATOM      6  CB  SER A   1      -2.068   7.169  -2.890  0.00  0.00    +0.213 C 
ATOM      7  OG  SER A   1      -1.988   8.070  -3.890  0.00  0.00    -0.218 OA
ENDBRANCH   2   6
TORSDOF 2
ENDMDL
MODEL 8
REMARK VINA RESULT:      -3.2      1.671      2.066
REMARK  Name = 
REMARK  2 active torsions:
REMARK  status: ('A' for Active; 'I' for Inactive)
REMARK    1  A    between atoms: CA_2  and  CB_3
REMARK    2  A    between atoms: CA_2  and  C_5
REMARK                            x       y       z     vdW  Elec       q    Type
REMARK                         _______ _______ _______ _____ _____    ______ ____
ROOT
ATOM      1  N   SER A   1       5.434   5.718 -12.337  0.00  0.00    -0.118 NA
ATOM      2  CA  SER A   1       6.506   6.755 -12.899  0.00  0.00    +0.227 C 
ENDROOT
BRANCH   2   3
ATOM      3  C   SER A   1       7.751   5.753 -12.597  0.00  0.00    +0.385 C 
ATOM      4  OXT SER A   1       8.598   6.182 -11.596  0.00  0.00    -0.244 OA
ATOM      5  O   SER A   1       7.726   4.651 -13.132  0.00  0.00    -0.244 OA
ENDBRANCH   2   3
BRANCH   2   6
ATOM      6  CB  SER A   1       6.696   7.573 -11.469  0.00  0.00    +0.213 C 
ATOM      7  OG  SER A   1       5.482   7.803 -10.930  0.00  0.00    -0.218 OA
ENDBRANCH   2   6
TORSDOF 2
ENDMDL
MODEL 9
REMARK VINA RESULT:      -3.2     11.930     12.820
REMARK  Name = 
REMARK  2 active torsions:
REMARK  status: ('A' for Active; 'I' for Inactive)
REMARK    1  A    between atoms: CA_2  and  CB_3
REMARK    2  A    between atoms: CA_2  and  C_5
REMARK                            x       y       z     vdW  Elec       q    Type
REMARK                         _______ _______ _______ _____ _____    ______ ____
ROOT
ATOM      1  N   SER A   1      -2.085   7.741  -3.742  0.00  0.00    -0.118 NA
ATOM      2  CA  SER A   1      -2.423   6.308  -4.354  0.00  0.00    +0.227 C 
ENDROOT
BRANCH   2   3
ATOM      3  C   SER A   1      -3.184   5.822  -3.001  0.00  0.00    +0.385 C 
ATOM      4  OXT SER A   1      -2.694   4.651  -2.461  0.00  0.00    -0.244 OA
ATOM      5  O   SER A   1      -3.972   6.608  -2.489  0.00  0.00    -0.244 OA
ENDBRANCH   2   3
BRANCH   2   6
ATOM      6  CB  SER A   1      -0.988   5.607  -3.910  0.00  0.00    +0.213 C 
ATOM      7  OG  SER A   1      -0.271   5.332  -5.019  0.00  0.00    -0.218 OA
ENDBRANCH   2   6
TORSDOF 2
ENDMDL
