MODEL 1
REMARK VINA RESULT:      -6.8      0.000      0.000
REMARK  Name = 
REMARK  5 active torsions:
REMARK  status: ('A' for Active; 'I' for Inactive)
REMARK    1  A    between atoms: N_2  and  C_4
REMARK    2  A    between atoms: C_4  and  C_5
REMARK    3  A    between atoms: C_5  and  C_6
REMARK    4  A    between atoms: C_6  and  C_7
REMARK    5  A    between atoms: C_6  and  C_13
REMARK                            x       y       z     vdW  Elec       q    Type
REMARK                         _______ _______ _______ _____ _____    ______ ____
ROOT
ATOM      1  C   UNL     1       3.680   6.480  -9.362  0.00  0.00    +0.064 C 
ENDROOT
BRANCH   1   2
ATOM      2  C   UNL     1       3.966   5.367  -8.197  0.00  0.00    +0.063 A 
ATOM      3  N   UNL     1       3.007   4.414  -8.326  0.00  0.00    -0.248 NA
ATOM      4  C   UNL     1       2.368   3.885  -7.252  0.00  0.00    +0.098 A 
ATOM      5  C   UNL     1       2.465   4.473  -5.996  0.00  0.00    +0.021 A 
ATOM      6  C   UNL     1       3.595   5.260  -5.813  0.00  0.00    +0.003 A 
ATOM      7  C   UNL     1       4.058   5.908  -6.935  0.00  0.00    +0.015 A 
ENDBRANCH   1   2
BRANCH   1   8
ATOM      8  C   UNL     1       5.056   6.082 -10.158  0.00  0.00    -0.017 A 
ATOM      9  C   UNL     1       6.070   5.693  -9.281  0.00  0.00    -0.004 A 
ATOM     10  C   UNL     1       7.378   5.777  -9.745  0.00  0.00    -0.000 A 
ATOM     11  C   UNL     1       7.702   7.015 -10.293  0.00  0.00    -0.000 A 
ATOM     12  C   UNL     1       6.727   7.592 -11.074  0.00  0.00    -0.000 A 
ATOM     13  C   UNL     1       5.433   7.157 -10.963  0.00  0.00    -0.004 A 
ENDBRANCH   1   8
BRANCH   1  14
ATOM     14  C   UNL     1       2.782   5.383 -10.238  0.00  0.00    +0.028 C 
BRANCH  14  15
ATOM     15  C   UNL     1       1.954   6.286 -11.146  0.00  0.00    +0.073 C 
BRANCH  15  17
ATOM     16  C   UNL     1      -0.139   6.792 -10.955  0.00  0.00    +0.090 C 
ATOM     17  N   UNL     1       0.577   6.124 -10.735  0.00  0.00    -0.270 NA
ATOM     18  C   UNL     1       0.214   4.708 -10.708  0.00  0.00    +0.090 C 
ENDBRANCH  15  17
ENDBRANCH  14  15
ENDBRANCH   1  14
TORSDOF 5
ENDMDL
MODEL 2
REMARK VINA RESULT:      -6.7      1.383      4.397
REMARK  Name = 
REMARK  5 active torsions:
REMARK  status: ('A' for Active; 'I' for Inactive)
REMARK    1  A    between atoms: N_2  and  C_4
REMARK    2  A    between atoms: C_4  and  C_5
REMARK    3  A    between atoms: C_5  and  C_6
REMARK    4  A    between atoms: C_6  and  C_7
REMARK    5  A    between atoms: C_6  and  C_13
REMARK                            x       y       z     vdW  Elec       q    Type
REMARK                         _______ _______ _______ _____ _____    ______ ____
ROOT
ATOM      1  C   UNL     1       3.995   5.244 -10.160  0.00  0.00    +0.064 C 
ENDROOT
BRANCH   1   2
ATOM      2  C   UNL     1       5.170   6.340  -9.847  0.00  0.00    +0.063 A 
ATOM      3  N   UNL     1       5.150   7.234 -10.870  0.00  0.00    -0.248 NA
ATOM      4  C   UNL     1       6.290   7.691 -11.448  0.00  0.00    +0.098 A 
ATOM      5  C   UNL     1       7.514   7.075 -11.212  0.00  0.00    +0.021 A 
ATOM      6  C   UNL     1       7.578   6.357 -10.024  0.00  0.00    +0.003 A 
ATOM      7  C   UNL     1       6.401   5.770  -9.618  0.00  0.00    +0.015 A 
ENDBRANCH   1   2
BRANCH   1   8
ATOM      8  C   UNL     1       3.658   5.067  -8.567  0.00  0.00    -0.017 A 
ATOM      9  C   UNL     1       2.842   3.959  -8.329  0.00  0.00    -0.004 A 
ATOM     10  C   UNL     1       2.115   3.949  -7.144  0.00  0.00    -0.000 A 
ATOM     11  C   UNL     1       1.378   5.110  -6.927  0.00  0.00    -0.000 A 
ATOM     12  C   UNL     1       2.013   6.286  -7.256  0.00  0.00    -0.000 A 
ATOM     13  C   UNL     1       3.095   6.253  -8.095  0.00  0.00    -0.004 A 
ENDBRANCH   1   8
BRANCH   1  14
ATOM     14  C   UNL     1       2.862   6.455 -10.329  0.00  0.00    +0.028 C 
BRANCH  14  15
ATOM     15  C   UNL     1       1.913   5.874 -11.372  0.00  0.00    +0.073 C 
BRANCH  15  17
ATOM     16  C   UNL     1      -0.048   6.604 -10.828  0.00  0.00    +0.090 C 
ATOM     17  N   UNL     1       0.603   5.844 -10.758  0.00  0.00    -0.270 NA
ATOM     18  C   UNL     1       0.074   4.481 -10.748  0.00  0.00    +0.090 C 
ENDBRANCH  15  17
ENDBRANCH  14  15
ENDBRANCH   1  14
TORSDOF 5
ENDMDL
MODEL 3
REMARK VINA RESULT:      -6.7      3.105      5.219
REMARK  Name = 
REMARK  5 active torsions:
REMARK  status: ('A' for Active; 'I' for Inactive)
REMARK    1  A    between atoms: N_2  and  C_4
REMARK    2  A    between atoms: C_4  and  C_5
REMARK    3  A    between atoms: C_5  and  C_6
REMARK    4  A    between atoms: C_6  and  C_7
REMARK    5  A    between atoms: C_6  and  C_13
REMARK                            x       y       z     vdW  Elec       q    Type
REMARK                         _______ _______ _______ _____ _____    ______ ____
ROOT
ATOM      1  C   UNL     1       1.108   6.684  -6.614  0.00  0.00    +0.064 C 
ENDROOT
BRANCH   1   2
ATOM      2  C   UNL     1      -0.121   6.293  -5.606  0.00  0.00    +0.063 A 
ATOM      3  N   UNL     1      -1.051   5.650  -6.358  0.00  0.00    -0.248 NA
ATOM      4  C   UNL     1      -2.378   5.904  -6.233  0.00  0.00    +0.098 A 
ATOM      5  C   UNL     1      -2.836   7.013  -5.531  0.00  0.00    +0.021 A 
ATOM      6  C   UNL     1      -1.943   7.507  -4.588  0.00  0.00    +0.003 A 
ATOM      7  C   UNL     1      -0.611   7.368  -4.899  0.00  0.00    +0.015 A 
ENDBRANCH   1   2
BRANCH   1   8
ATOM      8  C   UNL     1       2.211   6.554  -5.410  0.00  0.00    -0.017 A 
ATOM      9  C   UNL     1       3.442   7.105  -5.772  0.00  0.00    -0.004 A 
ATOM     10  C   UNL     1       4.562   6.670  -5.072  0.00  0.00    -0.000 A 
ATOM     11  C   UNL     1       4.685   5.285  -5.012  0.00  0.00    -0.000 A 
ATOM     12  C   UNL     1       3.514   4.594  -4.800  0.00  0.00    -0.000 A 
ATOM     13  C   UNL     1       2.316   5.212  -5.044  0.00  0.00    -0.004 A 
ENDBRANCH   1   8
BRANCH   1  14
ATOM     14  C   UNL     1       1.303   5.088  -7.051  0.00  0.00    +0.028 C 
BRANCH  14  15
ATOM     15  C   UNL     1       1.606   5.190  -8.542  0.00  0.00    +0.073 C 
BRANCH  15  17
ATOM     16  C   UNL     1       3.488   4.154  -8.786  0.00  0.00    +0.090 C 
ATOM     17  N   UNL     1       3.039   5.045  -8.677  0.00  0.00    -0.270 NA
ATOM     18  C   UNL     1       3.606   6.194  -9.381  0.00  0.00    +0.090 C 
ENDBRANCH  15  17
ENDBRANCH  14  15
ENDBRANCH   1  14
TORSDOF 5
ENDMDL
MODEL 4
REMARK VINA RESULT:      -6.6      1.198      3.978
REMARK  Name = 
REMARK  5 active torsions:
REMARK  status: ('A' for Active; 'I' for Inactive)
REMARK    1  A    between atoms: N_2  and  C_4
REMARK    2  A    between atoms: C_4  and  C_5
REMARK    3  A    between atoms: C_5  and  C_6
REMARK    4  A    between atoms: C_6  and  C_7
REMARK    5  A    between atoms: C_6  and  C_13
REMARK                            x       y       z     vdW  Elec       q    Type
REMARK                         _______ _______ _______ _____ _____    ______ ____
ROOT
ATOM      1  C   UNL     1       3.837   5.203 -10.272  0.00  0.00    +0.064 C 
ENDROOT
BRANCH   1   2
ATOM      2  C   UNL     1       2.896   6.289 -11.054  0.00  0.00    +0.063 A 
ATOM      3  N   UNL     1       1.910   6.644 -10.189  0.00  0.00    -0.248 NA
ATOM      4  C   UNL     1       0.617   6.766 -10.584  0.00  0.00    +0.098 A 
ATOM      5  C   UNL     1       0.190   6.280 -11.814  0.00  0.00    +0.021 A 
ATOM      6  C   UNL     1       1.197   6.154 -12.765  0.00  0.00    +0.003 A 
ATOM      7  C   UNL     1       2.443   5.841 -12.274  0.00  0.00    +0.015 A 
ENDBRANCH   1   2
BRANCH   1   8
ATOM      8  C   UNL     1       4.978   6.334  -9.955  0.00  0.00    -0.017 A 
ATOM      9  C   UNL     1       5.370   7.014 -11.110  0.00  0.00    -0.004 A 
ATOM     10  C   UNL     1       6.610   7.644 -11.086  0.00  0.00    -0.000 A 
ATOM     11  C   UNL     1       7.651   6.820 -10.668  0.00  0.00    -0.000 A 
ATOM     12  C   UNL     1       7.360   5.982  -9.616  0.00  0.00    -0.000 A 
ATOM     13  C   UNL     1       6.051   5.718  -9.310  0.00  0.00    -0.004 A 
ENDBRANCH   1   8
BRANCH   1  14
ATOM     14  C   UNL     1       3.050   5.505  -8.834  0.00  0.00    +0.028 C 
BRANCH  14  15
ATOM     15  C   UNL     1       2.811   4.101  -8.288  0.00  0.00    +0.073 C 
BRANCH  15  17
ATOM     16  C   UNL     1       2.072   3.624  -6.313  0.00  0.00    +0.090 C 
ATOM     17  N   UNL     1       2.018   4.259  -7.088  0.00  0.00    -0.270 NA
ATOM     18  C   UNL     1       1.795   5.676  -6.806  0.00  0.00    +0.090 C 
ENDBRANCH  15  17
ENDBRANCH  14  15
ENDBRANCH   1  14
TORSDOF 5
ENDMDL
MODEL 5
REMARK VINA RESULT:      -6.6      2.681      6.062
REMARK  Name = 
REMARK  5 active torsions:
REMARK  status: ('A' for Active; 'I' for Inactive)
REMARK    1  A    between atoms: N_2  and  C_4
REMARK    2  A    between atoms: C_4  and  C_5
REMARK    3  A    between atoms: C_5  and  C_6
REMARK    4  A    between atoms: C_6  and  C_7
REMARK    5  A    between atoms: C_6  and  C_13
REMARK                            x       y       z     vdW  Elec       q    Type
REMARK                         _______ _______ _______ _____ _____    ______ ____
ROOT
ATOM      1  C   UNL     1       1.552   4.445  -5.866  0.00  0.00    +0.064 C 
ENDROOT
BRANCH   1   2
ATOM      2  C   UNL     1       2.457   5.260  -4.774  0.00  0.00    +0.063 A 
ATOM      3  N   UNL     1       2.609   6.520  -5.257  0.00  0.00    -0.248 NA
ATOM      4  C   UNL     1       3.799   7.170  -5.211  0.00  0.00    +0.098 A 
ATOM      5  C   UNL     1       4.978   6.495  -4.917  0.00  0.00    +0.021 A 
ATOM      6  C   UNL     1       4.803   5.315  -4.204  0.00  0.00    +0.003 A 
ATOM      7  C   UNL     1       3.640   4.628  -4.464  0.00  0.00    +0.015 A 
ENDBRANCH   1   2
BRANCH   1   8
ATOM      8  C   UNL     1       0.363   5.570  -5.806  0.00  0.00    -0.017 A 
ATOM      9  C   UNL     1      -0.366   5.492  -4.618  0.00  0.00    -0.004 A 
ATOM     10  C   UNL     1      -1.645   6.040  -4.622  0.00  0.00    -0.000 A 
ATOM     11  C   UNL     1      -2.442   5.599  -5.674  0.00  0.00    -0.000 A 
ATOM     12  C   UNL     1      -1.811   5.489  -6.892  0.00  0.00    -0.000 A 
ATOM     13  C   UNL     1      -0.443   5.430  -6.936  0.00  0.00    -0.004 A 
ENDBRANCH   1   8
BRANCH   1  14
ATOM     14  C   UNL     1       2.312   5.225  -7.129  0.00  0.00    +0.028 C 
BRANCH  14  15
ATOM     15  C   UNL     1       2.694   4.068  -8.047  0.00  0.00    +0.073 C 
BRANCH  15  17
ATOM     16  C   UNL     1       3.451   5.018  -9.836  0.00  0.00    +0.090 C 
ATOM     17  N   UNL     1       3.688   4.586  -8.962  0.00  0.00    -0.270 NA
ATOM     18  C   UNL     1       4.841   5.103  -8.226  0.00  0.00    +0.090 C 
ENDBRANCH  15  17
ENDBRANCH  14  15
ENDBRANCH   1  14
TORSDOF 5
ENDMDL
MODEL 6
REMARK VINA RESULT:      -6.5      3.238      5.499
REMARK  Name = 
REMARK  5 active torsions:
REMARK  status: ('A' for Active; 'I' for Inactive)
REMARK    1  A    between atoms: N_2  and  C_4
REMARK    2  A    between atoms: C_4  and  C_5
REMARK    3  A    between atoms: C_5  and  C_6
REMARK    4  A    between atoms: C_6  and  C_7
REMARK    5  A    between atoms: C_6  and  C_13
REMARK                            x       y       z     vdW  Elec       q    Type
REMARK                         _______ _______ _______ _____ _____    ______ ____
ROOT
ATOM      1  C   UNL     1       1.426   5.204  -6.153  0.00  0.00    +0.064 C 
ENDROOT
BRANCH   1   2
ATOM      2  C   UNL     1       0.123   6.146  -6.457  0.00  0.00    +0.063 A 
ATOM      3  N   UNL     1      -0.025   6.964  -5.383  0.00  0.00    -0.248 NA
ATOM      4  C   UNL     1      -1.240   7.220  -4.836  0.00  0.00    +0.098 A 
ATOM      5  C   UNL     1      -2.355   6.459  -5.170  0.00  0.00    +0.021 A 
ATOM      6  C   UNL     1      -2.269   5.819  -6.400  0.00  0.00    +0.003 A 
ATOM      7  C   UNL     1      -1.006   5.429  -6.782  0.00  0.00    +0.015 A 
ENDBRANCH   1   2
BRANCH   1   8
ATOM      8  C   UNL     1       1.863   5.199  -7.732  0.00  0.00    -0.017 A 
ATOM      9  C   UNL     1       2.873   4.271  -7.988  0.00  0.00    -0.004 A 
ATOM     10  C   UNL     1       3.644   4.471  -9.128  0.00  0.00    -0.000 A 
ATOM     11  C   UNL     1       4.171   5.755  -9.233  0.00  0.00    -0.000 A 
ATOM     12  C   UNL     1       3.321   6.776  -8.870  0.00  0.00    -0.000 A 
ATOM     13  C   UNL     1       2.225   6.495  -8.099  0.00  0.00    -0.004 A 
ENDBRANCH   1   8
BRANCH   1  14
ATOM     14  C   UNL     1       2.364   6.544  -5.833  0.00  0.00    +0.028 C 
BRANCH  14  15
ATOM     15  C   UNL     1       3.150   6.108  -4.601  0.00  0.00    +0.073 C 
BRANCH  15  17
ATOM     16  C   UNL     1       3.384   7.585  -3.039  0.00  0.00    +0.090 C 
ATOM     17  N   UNL     1       3.631   7.321  -3.975  0.00  0.00    -0.270 NA
ATOM     18  C   UNL     1       4.974   7.646  -4.452  0.00  0.00    +0.090 C 
ENDBRANCH  15  17
ENDBRANCH  14  15
ENDBRANCH   1  14
TORSDOF 5
ENDMDL
MODEL 7
REMARK VINA RESULT:      -6.4      3.898      7.913
REMARK  Name = 
REMARK  5 active torsions:
REMARK  status: ('A' for Active; 'I' for Inactive)
REMARK    1  A    between atoms: N_2  and  C_4
REMARK    2  A    between atoms: C_4  and  C_5
REMARK    3  A    between atoms: C_5  and  C_6
REMARK    4  A    between atoms: C_6  and  C_7
REMARK    5  A    between atoms: C_6  and  C_13
REMARK                            x       y       z     vdW  Elec       q    Type
REMARK                         _______ _______ _______ _____ _____    ______ ____
ROOT
ATOM      1  C   UNL     1       0.282   6.422  -4.675  0.00  0.00    +0.064 C 
ENDROOT
BRANCH   1   2
ATOM      2  C   UNL     1       0.308   5.402  -5.955  0.00  0.00    +0.063 A 
ATOM      3  N   UNL     1       1.093   4.353  -5.600  0.00  0.00    -0.248 NA
ATOM      4  C   UNL     1       2.005   3.816  -6.450  0.00  0.00    +0.098 A 
ATOM      5  C   UNL     1       2.372   4.472  -7.619  0.00  0.00    +0.021 A 
ATOM      6  C   UNL     1       1.430   5.377  -8.093  0.00  0.00    +0.003 A 
ATOM      7  C   UNL     1       0.678   6.012  -7.132  0.00  0.00    +0.015 A 
ENDBRANCH   1   2
BRANCH   1   8
ATOM      8  C   UNL     1      -0.850   5.521  -3.908  0.00  0.00    -0.017 A 
ATOM      9  C   UNL     1      -2.112   5.671  -4.485  0.00  0.00    -0.004 A 
ATOM     10  C   UNL     1      -3.213   5.358  -3.695  0.00  0.00    -0.000 A 
ATOM     11  C   UNL     1      -3.207   5.979  -2.449  0.00  0.00    -0.000 A 
ATOM     12  C   UNL     1      -1.984   6.033  -1.818  0.00  0.00    -0.000 A 
ATOM     13  C   UNL     1      -0.842   5.853  -2.553  0.00  0.00    -0.004 A 
ENDBRANCH   1   8
BRANCH   1  14
ATOM     14  C   UNL     1       1.529   5.591  -3.944  0.00  0.00    +0.028 C 
BRANCH  14  15
ATOM     15  C   UNL     1       2.485   6.712  -3.550  0.00  0.00    +0.073 C 
BRANCH  15  17
ATOM     16  C   UNL     1       4.214   5.502  -4.016  0.00  0.00    +0.090 C 
ATOM     17  N   UNL     1       3.762   6.387  -4.147  0.00  0.00    -0.270 NA
ATOM     18  C   UNL     1       3.905   7.051  -5.442  0.00  0.00    +0.090 C 
ENDBRANCH  15  17
ENDBRANCH  14  15
ENDBRANCH   1  14
TORSDOF 5
ENDMDL
MODEL 8
REMARK VINA RESULT:      -6.4      2.729      3.978
REMARK  Name = 
REMARK  5 active torsions:
REMARK  status: ('A' for Active; 'I' for Inactive)
REMARK    1  A    between atoms: N_2  and  C_4
REMARK    2  A    between atoms: C_4  and  C_5
REMARK    3  A    between atoms: C_5  and  C_6
REMARK    4  A    between atoms: C_6  and  C_7
REMARK    5  A    between atoms: C_6  and  C_13
REMARK                            x       y       z     vdW  Elec       q    Type
REMARK                         _______ _______ _______ _____ _____    ______ ____
ROOT
ATOM      1  C   UNL     1       0.813   6.652  -7.915  0.00  0.00    +0.064 C 
ENDROOT
BRANCH   1   2
ATOM      2  C   UNL     1       0.076   5.936  -6.642  0.00  0.00    +0.063 A 
ATOM      3  N   UNL     1      -1.154   5.552  -7.070  0.00  0.00    -0.248 NA
ATOM      4  C   UNL     1      -2.267   5.728  -6.312  0.00  0.00    +0.098 A 
ATOM      5  C   UNL     1      -2.250   6.544  -5.187  0.00  0.00    +0.021 A 
ATOM      6  C   UNL     1      -0.992   6.725  -4.625  0.00  0.00    +0.003 A 
ATOM      7  C   UNL     1       0.062   6.718  -5.509  0.00  0.00    +0.015 A 
ENDBRANCH   1   2
BRANCH   1   8
ATOM      8  C   UNL     1       2.221   5.871  -7.613  0.00  0.00    -0.017 A 
ATOM      9  C   UNL     1       3.299   6.474  -8.262  0.00  0.00    -0.004 A 
ATOM     10  C   UNL     1       4.429   5.692  -8.478  0.00  0.00    -0.000 A 
ATOM     11  C   UNL     1       4.158   4.470  -9.087  0.00  0.00    -0.000 A 
ATOM     12  C   UNL     1       3.029   3.821  -8.641  0.00  0.00    -0.000 A 
ATOM     13  C   UNL     1       2.071   4.529  -7.964  0.00  0.00    -0.004 A 
ENDBRANCH   1   8
BRANCH   1  14
ATOM     14  C   UNL     1       0.291   5.445  -8.940  0.00  0.00    +0.028 C 
BRANCH  14  15
ATOM     15  C   UNL     1       0.140   6.182 -10.267  0.00  0.00    +0.073 C 
BRANCH  15  17
ATOM     16  C   UNL     1       0.420   4.764 -11.874  0.00  0.00    +0.090 C 
ATOM     17  N   UNL     1       0.868   5.407 -11.248  0.00  0.00    -0.270 NA
ATOM     18  C   UNL     1       2.022   6.158 -11.739  0.00  0.00    +0.090 C 
ENDBRANCH  15  17
ENDBRANCH  14  15
ENDBRANCH   1  14
TORSDOF 5
ENDMDL
MODEL 9
REMARK VINA RESULT:      -6.4      2.337      5.191
REMARK  Name = 
REMARK  5 active torsions:
REMARK  status: ('A' for Active; 'I' for Inactive)
REMARK    1  A    between atoms: N_2  and  C_4
REMARK    2  A    between atoms: C_4  and  C_5
REMARK    3  A    between atoms: C_5  and  C_6
REMARK    4  A    between atoms: C_6  and  C_7
REMARK    5  A    between atoms: C_6  and  C_13
REMARK                            x       y       z     vdW  Elec       q    Type
REMARK                         _______ _______ _______ _____ _____    ______ ____
ROOT
ATOM      1  C   UNL     1       3.082   5.363  -6.885  0.00  0.00    +0.064 C 
ENDROOT
BRANCH   1   2
ATOM      2  C   UNL     1       3.967   6.154  -8.011  0.00  0.00    +0.063 A 
ATOM      3  N   UNL     1       3.128   6.429  -9.042  0.00  0.00    -0.248 NA
ATOM      4  C   UNL     1       3.501   6.265 -10.337  0.00  0.00    +0.098 A 
ATOM      5  C   UNL     1       4.651   5.559 -10.671  0.00  0.00    +0.021 A 
ATOM      6  C   UNL     1       5.604   5.500  -9.661  0.00  0.00    +0.003 A 
ATOM      7  C   UNL     1       5.111   5.482  -8.377  0.00  0.00    +0.015 A 
ENDBRANCH   1   2
BRANCH   1   8
ATOM      8  C   UNL     1       4.169   5.705  -5.708  0.00  0.00    -0.017 A 
ATOM      9  C   UNL     1       4.094   4.796  -4.651  0.00  0.00    -0.004 A 
ATOM     10  C   UNL     1       4.599   5.208  -3.422  0.00  0.00    -0.000 A 
ATOM     11  C   UNL     1       4.109   6.439  -2.997  0.00  0.00    -0.000 A 
ATOM     12  C   UNL     1       3.992   7.402  -3.974  0.00  0.00    -0.000 A 
ATOM     13  C   UNL     1       3.976   7.023  -5.291  0.00  0.00    -0.004 A 
ENDBRANCH   1   8
BRANCH   1  14
ATOM     14  C   UNL     1       2.202   6.741  -6.559  0.00  0.00    +0.028 C 
BRANCH  14  15
ATOM     15  C   UNL     1       0.784   6.198  -6.410  0.00  0.00    +0.073 C 
BRANCH  15  17
ATOM     16  C   UNL     1      -0.432   7.227  -4.948  0.00  0.00    +0.090 C 
ATOM     17  N   UNL     1       0.333   6.594  -5.094  0.00  0.00    -0.270 NA
ATOM     18  C   UNL     1       0.515   5.501  -4.140  0.00  0.00    +0.090 C 
ENDBRANCH  15  17
ENDBRANCH  14  15
ENDBRANCH   1  14
TORSDOF 5
ENDMDL
