MODEL 1
REMARK VINA RESULT:      -8.8      0.000      0.000
REMARK  Name = 
REMARK  13 active torsions:
REMARK  status: ('A' for Active; 'I' for Inactive)
REMARK    1  A    between atoms: C_3  and  C_4
REMARK    2  A    between atoms: C_4  and  C_5
REMARK    3  A    between atoms: C_5  and  C_7
REMARK    4  A    between atoms: C_7  and  C_9
REMARK    5  A    between atoms: C_10  and  C_11
REMARK    6  A    between atoms: C_15  and  C_16
REMARK    7  A    between atoms: C_16  and  C_17
REMARK    8  A    between atoms: C_17  and  C_18
REMARK    9  A    between atoms: C_18  and  C_19
REMARK   10  A    between atoms: C_19  and  O_21
REMARK   11  A    between atoms: O_21  and  C_22
REMARK   12  A    between atoms: C_22  and  C_23
REMARK   13  A    between atoms: C_23  and  C_25
REMARK                            x       y       z     vdW  Elec       q    Type
REMARK                         _______ _______ _______ _____ _____    ______ ____
ROOT
ATOM      1  C   UNL     1       3.717   4.640  -8.327  0.00  0.00    +0.052 C 
ATOM      2  C   UNL     1       4.648   5.728  -9.240  0.00  0.00    +0.156 C 
ATOM      3  O   UNL     1       4.252   5.079 -10.551  0.00  0.00    -0.223 OA
ATOM      4  C   UNL     1       3.596   6.995  -9.247  0.00  0.00    +0.034 C 
ATOM      5  C   UNL     1       2.482   6.058  -9.876  0.00  0.00    +0.007 C 
ATOM      6  C   UNL     1       1.109   6.893  -9.551  0.00  0.00    +0.022 C 
ATOM      7  C   UNL     1       0.422   5.531  -9.778  0.00  0.00    -0.048 C 
ATOM      8  C   UNL     1      -0.107   5.055 -10.934  0.00  0.00    -0.035 C 
ATOM      9  C   UNL     1       1.283   4.467  -9.084  0.00  0.00    +0.022 C 
ATOM     10  C   UNL     1       2.284   5.489  -8.302  0.00  0.00    +0.011 C 
ENDROOT
BRANCH   1  12
ATOM     11  C   UNL     1       3.801   5.157  -5.898  0.00  0.00    +0.002 C 
ATOM     12  C   UNL     1       4.372   5.330  -7.023  0.00  0.00    -0.026 C 
BRANCH  11  13
ATOM     13  C   UNL     1       3.555   6.293  -4.789  0.00  0.00    +0.175 C 
ATOM     14  O   UNL     1       4.445   5.630  -3.760  0.00  0.00    -0.218 OA
BRANCH  13  15
ATOM     15  C   UNL     1       2.078   5.560  -4.329  0.00  0.00    +0.048 C 
ATOM     16  C   UNL     1       1.919   6.175  -2.846  0.00  0.00    +0.004 C 
BRANCH  15  17
ATOM     17  C   UNL     1       1.271   6.782  -5.032  0.00  0.00    +0.079 C 
BRANCH  17  20
ATOM     18  C   UNL     1      -2.342   5.575  -6.440  0.00  0.00    +0.090 C 
ATOM     19  C   UNL     1      -0.902   5.743  -6.242  0.00  0.00    -0.090 C 
ATOM     20  C   UNL     1       0.101   6.145  -5.676  0.00  0.00    -0.091 C 
ENDBRANCH  17  20
ENDBRANCH  15  17
ENDBRANCH  13  15
ENDBRANCH  11  13
ENDBRANCH   1  12
BRANCH   8  21
ATOM     21  C   UNL     1       0.731   4.727 -12.139  0.00  0.00    +0.026 C 
BRANCH  21  22
ATOM     22  C   UNL     1       0.581   6.021 -12.941  0.00  0.00    +0.016 C 
BRANCH  22  23
ATOM     23  C   UNL     1       1.237   5.405 -14.203  0.00  0.00    +0.110 C 
BRANCH  23  24
ATOM     24  C   UNL     1       2.175   6.418 -14.777  0.00  0.00    +0.317 C 
ATOM     25  O   UNL     1       1.660   6.998 -15.795  0.00  0.00    -0.250 OA
BRANCH  24  26
ATOM     26  O   UNL     1       3.537   6.218 -15.039  0.00  0.00    -0.440 OA
BRANCH  26  27
ATOM     27  C   UNL     1       4.319   5.625 -13.984  0.00  0.00    +0.277 C 
BRANCH  27  28
ATOM     28  C   UNL     1       5.633   6.328 -14.097  0.00  0.00    +0.217 C 
ATOM     29  O   UNL     1       5.925   6.589 -15.316  0.00  0.00    -0.287 OA
BRANCH  28  30
ATOM     30  C   UNL     1       6.472   6.582 -12.958  0.00  0.00    +0.038 A 
ATOM     31  C   UNL     1       7.309   5.572 -12.535  0.00  0.00    +0.003 A 
ATOM     32  C   UNL     1       8.013   5.679 -11.325  0.00  0.00    +0.000 A 
ATOM     33  C   UNL     1       7.786   6.754 -10.477  0.00  0.00    +0.000 A 
ATOM     34  C   UNL     1       7.070   7.828 -10.947  0.00  0.00    +0.000 A 
ATOM     35  C   UNL     1       6.294   7.583 -12.042  0.00  0.00    +0.003 A 
ENDBRANCH  28  30
ENDBRANCH  27  28
ENDBRANCH  26  27
ENDBRANCH  24  26
ENDBRANCH  23  24
ENDBRANCH  22  23
ENDBRANCH  21  22
ENDBRANCH   8  21
TORSDOF 13
ENDMDL
MODEL 2
REMARK VINA RESULT:      -8.6      1.794      4.392
REMARK  Name = 
REMARK  13 active torsions:
REMARK  status: ('A' for Active; 'I' for Inactive)
REMARK    1  A    between atoms: C_3  and  C_4
REMARK    2  A    between atoms: C_4  and  C_5
REMARK    3  A    between atoms: C_5  and  C_7
REMARK    4  A    between atoms: C_7  and  C_9
REMARK    5  A    between atoms: C_10  and  C_11
REMARK    6  A    between atoms: C_15  and  C_16
REMARK    7  A    between atoms: C_16  and  C_17
REMARK    8  A    between atoms: C_17  and  C_18
REMARK    9  A    between atoms: C_18  and  C_19
REMARK   10  A    between atoms: C_19  and  O_21
REMARK   11  A    between atoms: O_21  and  C_22
REMARK   12  A    between atoms: C_22  and  C_23
REMARK   13  A    between atoms: C_23  and  C_25
REMARK                            x       y       z     vdW  Elec       q    Type
REMARK                         _______ _______ _______ _____ _____    ______ ____
ROOT
ATOM      1  C   UNL     1       3.826   4.779  -4.512  0.00  0.00    +0.052 C 
ATOM      2  C   UNL     1       4.726   6.203  -4.729  0.00  0.00    +0.156 C 
ATOM      3  O   UNL     1       5.276   5.736  -6.063  0.00  0.00    -0.223 OA
ATOM      4  C   UNL     1       3.510   7.172  -5.272  0.00  0.00    +0.034 C 
ATOM      5  C   UNL     1       3.217   6.139  -6.439  0.00  0.00    +0.007 C 
ATOM      6  C   UNL     1       1.699   6.560  -6.895  0.00  0.00    +0.022 C 
ATOM      7  C   UNL     1       1.665   5.144  -7.504  0.00  0.00    -0.048 C 
ATOM      8  C   UNL     1       1.978   4.784  -8.775  0.00  0.00    -0.035 C 
ATOM      9  C   UNL     1       2.311   4.196  -6.485  0.00  0.00    +0.022 C 
ATOM     10  C   UNL     1       2.411   5.256  -5.251  0.00  0.00    +0.011 C 
ENDROOT
BRANCH   1  12
ATOM     11  C   UNL     1       2.321   5.100  -2.560  0.00  0.00    +0.002 C 
ATOM     12  C   UNL     1       3.475   5.345  -3.041  0.00  0.00    -0.026 C 
BRANCH  11  13
ATOM     13  C   UNL     1       1.391   6.152  -1.780  0.00  0.00    +0.175 C 
ATOM     14  O   UNL     1       1.564   5.471  -0.439  0.00  0.00    -0.218 OA
BRANCH  13  15
ATOM     15  C   UNL     1      -0.017   5.319  -2.285  0.00  0.00    +0.048 C 
ATOM     16  C   UNL     1      -1.027   5.749  -1.103  0.00  0.00    +0.004 C 
BRANCH  15  17
ATOM     17  C   UNL     1      -0.411   6.587  -3.221  0.00  0.00    +0.079 C 
BRANCH  17  20
ATOM     18  C   UNL     1      -1.931   5.483  -6.821  0.00  0.00    +0.090 C 
ATOM     19  C   UNL     1      -1.567   5.509  -5.404  0.00  0.00    -0.090 C 
ATOM     20  C   UNL     1      -1.110   5.999  -4.385  0.00  0.00    -0.091 C 
ENDBRANCH  17  20
ENDBRANCH  15  17
ENDBRANCH  13  15
ENDBRANCH  11  13
ENDBRANCH   1  12
BRANCH   8  21
ATOM     21  C   UNL     1       3.371   4.888  -9.332  0.00  0.00    +0.026 C 
BRANCH  21  22
ATOM     22  C   UNL     1       3.230   6.140 -10.199  0.00  0.00    +0.016 C 
BRANCH  22  23
ATOM     23  C   UNL     1       4.695   6.057 -10.693  0.00  0.00    +0.110 C 
BRANCH  23  24
ATOM     24  C   UNL     1       4.691   5.417 -12.046  0.00  0.00    +0.317 C 
ATOM     25  O   UNL     1       5.839   4.930 -12.329  0.00  0.00    -0.250 OA
BRANCH  24  26
ATOM     26  O   UNL     1       4.161   5.978 -13.215  0.00  0.00    -0.440 OA
BRANCH  26  27
ATOM     27  C   UNL     1       3.305   5.133 -14.009  0.00  0.00    +0.277 C 
BRANCH  27  28
ATOM     28  C   UNL     1       2.072   5.960 -14.179  0.00  0.00    +0.217 C 
ATOM     29  O   UNL     1       2.104   6.637 -15.266  0.00  0.00    -0.287 OA
BRANCH  28  30
ATOM     30  C   UNL     1       1.042   6.023 -13.179  0.00  0.00    +0.038 A 
ATOM     31  C   UNL     1       0.596   7.267 -12.790  0.00  0.00    +0.003 A 
ATOM     32  C   UNL     1      -0.266   7.413 -11.691  0.00  0.00    +0.000 A 
ATOM     33  C   UNL     1      -0.590   6.314 -10.907  0.00  0.00    +0.000 A 
ATOM     34  C   UNL     1      -0.272   5.058 -11.363  0.00  0.00    +0.000 A 
ATOM     35  C   UNL     1       0.691   5.011 -12.327  0.00  0.00    +0.003 A 
ENDBRANCH  28  30
ENDBRANCH  27  28
ENDBRANCH  26  27
ENDBRANCH  24  26
ENDBRANCH  23  24
ENDBRANCH  22  23
ENDBRANCH  21  22
ENDBRANCH   8  21
TORSDOF 13
ENDMDL
MODEL 3
REMARK VINA RESULT:      -8.5      2.884     10.340
REMARK  Name = 
REMARK  13 active torsions:
REMARK  status: ('A' for Active; 'I' for Inactive)
REMARK    1  A    between atoms: C_3  and  C_4
REMARK    2  A    between atoms: C_4  and  C_5
REMARK    3  A    between atoms: C_5  and  C_7
REMARK    4  A    between atoms: C_7  and  C_9
REMARK    5  A    between atoms: C_10  and  C_11
REMARK    6  A    between atoms: C_15  and  C_16
REMARK    7  A    between atoms: C_16  and  C_17
REMARK    8  A    between atoms: C_17  and  C_18
REMARK    9  A    between atoms: C_18  and  C_19
REMARK   10  A    between atoms: C_19  and  O_21
REMARK   11  A    between atoms: O_21  and  C_22
REMARK   12  A    between atoms: C_22  and  C_23
REMARK   13  A    between atoms: C_23  and  C_25
REMARK                            x       y       z     vdW  Elec       q    Type
REMARK                         _______ _______ _______ _____ _____    ______ ____
ROOT
ATOM      1  C   UNL     1       2.362   4.267  -6.301  0.00  0.00    +0.052 C 
ATOM      2  C   UNL     1       0.945   5.177  -6.085  0.00  0.00    +0.156 C 
ATOM      3  O   UNL     1       0.750   4.670  -4.669  0.00  0.00    -0.223 OA
ATOM      4  C   UNL     1       1.643   6.630  -5.748  0.00  0.00    +0.034 C 
ATOM      5  C   UNL     1       2.442   5.961  -4.552  0.00  0.00    +0.007 C 
ATOM      6  C   UNL     1       3.646   7.044  -4.298  0.00  0.00    +0.022 C 
ATOM      7  C   UNL     1       4.343   5.860  -3.599  0.00  0.00    -0.048 C 
ATOM      8  C   UNL     1       4.310   5.543  -2.280  0.00  0.00    -0.035 C 
ATOM      9  C   UNL     1       4.112   4.619  -4.472  0.00  0.00    +0.022 C 
ATOM     10  C   UNL     1       3.470   5.388  -5.758  0.00  0.00    +0.011 C 
ENDROOT
BRANCH   1  12
ATOM     11  C   UNL     1       3.429   5.053  -8.404  0.00  0.00    +0.002 C 
ATOM     12  C   UNL     1       2.326   4.762  -7.837  0.00  0.00    -0.026 C 
BRANCH  11  13
ATOM     13  C   UNL     1       3.688   6.328  -9.346  0.00  0.00    +0.175 C 
ATOM     14  O   UNL     1       2.433   6.111 -10.164  0.00  0.00    -0.218 OA
BRANCH  13  15
ATOM     15  C   UNL     1       4.763   5.420 -10.321  0.00  0.00    +0.048 C 
ATOM     16  C   UNL     1       4.974   6.461 -11.536  0.00  0.00    +0.004 C 
BRANCH  15  17
ATOM     17  C   UNL     1       6.011   6.010  -9.464  0.00  0.00    +0.079 C 
BRANCH  17  20
ATOM     18  C   UNL     1       8.906   5.781 -12.304  0.00  0.00    +0.090 C 
ATOM     19  C   UNL     1       8.180   5.703 -11.035  0.00  0.00    -0.090 C 
ATOM     20  C   UNL     1       7.200   5.770 -10.312  0.00  0.00    -0.091 C 
ENDBRANCH  17  20
ENDBRANCH  15  17
ENDBRANCH  13  15
ENDBRANCH  11  13
ENDBRANCH   1  12
BRANCH   8  21
ATOM     21  C   UNL     1       3.055   5.097  -1.580  0.00  0.00    +0.026 C 
BRANCH  21  22
ATOM     22  C   UNL     1       2.785   6.312  -0.692  0.00  0.00    +0.016 C 
BRANCH  22  23
ATOM     23  C   UNL     1       1.324   6.446  -1.188  0.00  0.00    +0.110 C 
BRANCH  23  24
ATOM     24  C   UNL     1       0.507   7.016  -0.071  0.00  0.00    +0.317 C 
ATOM     25  O   UNL     1       1.189   7.085   1.009  0.00  0.00    -0.250 OA
BRANCH  24  26
ATOM     26  O   UNL     1      -0.797   6.635   0.267  0.00  0.00    -0.440 OA
BRANCH  26  27
ATOM     27  C   UNL     1      -1.867   7.259  -0.470  0.00  0.00    +0.277 C 
BRANCH  27  28
ATOM     28  C   UNL     1      -2.239   6.221  -1.477  0.00  0.00    +0.217 C 
ATOM     29  O   UNL     1      -2.327   5.058  -0.947  0.00  0.00    -0.287 OA
BRANCH  28  30
ATOM     30  C   UNL     1      -2.386   6.520  -2.875  0.00  0.00    +0.038 A 
ATOM     31  C   UNL     1      -2.689   5.482  -3.729  0.00  0.00    +0.003 A 
ATOM     32  C   UNL     1      -2.660   5.663  -5.122  0.00  0.00    +0.000 A 
ATOM     33  C   UNL     1      -2.212   6.860  -5.662  0.00  0.00    +0.000 A 
ATOM     34  C   UNL     1      -2.046   7.941  -4.831  0.00  0.00    +0.000 A 
ATOM     35  C   UNL     1      -1.930   7.648  -3.504  0.00  0.00    +0.003 A 
ENDBRANCH  28  30
ENDBRANCH  27  28
ENDBRANCH  26  27
ENDBRANCH  24  26
ENDBRANCH  23  24
ENDBRANCH  22  23
ENDBRANCH  21  22
ENDBRANCH   8  21
TORSDOF 13
ENDMDL
MODEL 4
REMARK VINA RESULT:      -8.5      2.780     10.095
REMARK  Name = 
REMARK  13 active torsions:
REMARK  status: ('A' for Active; 'I' for Inactive)
REMARK    1  A    between atoms: C_3  and  C_4
REMARK    2  A    between atoms: C_4  and  C_5
REMARK    3  A    between atoms: C_5  and  C_7
REMARK    4  A    between atoms: C_7  and  C_9
REMARK    5  A    between atoms: C_10  and  C_11
REMARK    6  A    between atoms: C_15  and  C_16
REMARK    7  A    between atoms: C_16  and  C_17
REMARK    8  A    between atoms: C_17  and  C_18
REMARK    9  A    between atoms: C_18  and  C_19
REMARK   10  A    between atoms: C_19  and  O_21
REMARK   11  A    between atoms: O_21  and  C_22
REMARK   12  A    between atoms: C_22  and  C_23
REMARK   13  A    between atoms: C_23  and  C_25
REMARK                            x       y       z     vdW  Elec       q    Type
REMARK                         _______ _______ _______ _____ _____    ______ ____
ROOT
ATOM      1  C   UNL     1       1.581   4.656  -7.065  0.00  0.00    +0.052 C 
ATOM      2  C   UNL     1       0.354   5.395  -6.154  0.00  0.00    +0.156 C 
ATOM      3  O   UNL     1       0.791   4.709  -4.875  0.00  0.00    -0.223 OA
ATOM      4  C   UNL     1       1.075   6.858  -5.926  0.00  0.00    +0.034 C 
ATOM      5  C   UNL     1       2.327   6.132  -5.277  0.00  0.00    +0.007 C 
ATOM      6  C   UNL     1       3.485   7.286  -5.384  0.00  0.00    +0.022 C 
ATOM      7  C   UNL     1       4.454   6.099  -5.216  0.00  0.00    -0.048 C 
ATOM      8  C   UNL     1       4.990   5.628  -4.061  0.00  0.00    -0.035 C 
ATOM      9  C   UNL     1       3.923   4.953  -6.087  0.00  0.00    +0.022 C 
ATOM     10  C   UNL     1       2.772   5.804  -6.868  0.00  0.00    +0.011 C 
ENDROOT
BRANCH   1  12
ATOM     11  C   UNL     1       1.372   5.064  -9.507  0.00  0.00    +0.002 C 
ATOM     12  C   UNL     1       0.884   5.322  -8.359  0.00  0.00    -0.026 C 
BRANCH  11  13
ATOM     13  C   UNL     1       1.609   6.133 -10.683  0.00  0.00    +0.175 C 
ATOM     14  O   UNL     1       0.770   5.371 -11.687  0.00  0.00    -0.218 OA
BRANCH  13  15
ATOM     15  C   UNL     1       3.122   5.423 -11.056  0.00  0.00    +0.048 C 
ATOM     16  C   UNL     1       3.355   6.037 -12.530  0.00  0.00    +0.004 C 
BRANCH  15  17
ATOM     17  C   UNL     1       3.867   6.660 -10.312  0.00  0.00    +0.079 C 
BRANCH  17  20
ATOM     18  C   UNL     1       7.656   5.495  -9.433  0.00  0.00    +0.090 C 
ATOM     19  C   UNL     1       6.215   5.738  -9.363  0.00  0.00    -0.090 C 
ATOM     20  C   UNL     1       5.127   6.087  -9.790  0.00  0.00    -0.091 C 
ENDBRANCH  17  20
ENDBRANCH  15  17
ENDBRANCH  13  15
ENDBRANCH  11  13
ENDBRANCH   1  12
BRANCH   8  21
ATOM     21  C   UNL     1       4.163   4.986  -2.981  0.00  0.00    +0.026 C 
BRANCH  21  22
ATOM     22  C   UNL     1       4.175   6.094  -1.928  0.00  0.00    +0.016 C 
BRANCH  22  23
ATOM     23  C   UNL     1       3.051   5.423  -1.099  0.00  0.00    +0.110 C 
BRANCH  23  24
ATOM     24  C   UNL     1       1.986   6.444  -0.852  0.00  0.00    +0.317 C 
ATOM     25  O   UNL     1       1.941   6.773   0.384  0.00  0.00    -0.250 OA
BRANCH  24  26
ATOM     26  O   UNL     1       0.672   6.389  -1.331  0.00  0.00    -0.440 OA
BRANCH  26  27
ATOM     27  C   UNL     1      -0.381   6.492  -0.353  0.00  0.00    +0.277 C 
BRANCH  27  28
ATOM     28  C   UNL     1      -1.392   7.359  -1.029  0.00  0.00    +0.217 C 
ATOM     29  O   UNL     1      -1.654   8.405  -0.339  0.00  0.00    -0.287 OA
BRANCH  28  30
ATOM     30  C   UNL     1      -2.030   6.982  -2.261  0.00  0.00    +0.038 A 
ATOM     31  C   UNL     1      -2.583   5.723  -2.342  0.00  0.00    +0.003 A 
ATOM     32  C   UNL     1      -3.051   5.219  -3.567  0.00  0.00    +0.000 A 
ATOM     33  C   UNL     1      -2.858   5.938  -4.738  0.00  0.00    +0.000 A 
ATOM     34  C   UNL     1      -2.442   7.244  -4.652  0.00  0.00    +0.000 A 
ATOM     35  C   UNL     1      -1.858   7.598  -3.471  0.00  0.00    +0.003 A 
ENDBRANCH  28  30
ENDBRANCH  27  28
ENDBRANCH  26  27
ENDBRANCH  24  26
ENDBRANCH  23  24
ENDBRANCH  22  23
ENDBRANCH  21  22
ENDBRANCH   8  21
TORSDOF 13
ENDMDL
MODEL 5
REMARK VINA RESULT:      -8.4      1.835      3.508
REMARK  Name = 
REMARK  13 active torsions:
REMARK  status: ('A' for Active; 'I' for Inactive)
REMARK    1  A    between atoms: C_3  and  C_4
REMARK    2  A    between atoms: C_4  and  C_5
REMARK    3  A    between atoms: C_5  and  C_7
REMARK    4  A    between atoms: C_7  and  C_9
REMARK    5  A    between atoms: C_10  and  C_11
REMARK    6  A    between atoms: C_15  and  C_16
REMARK    7  A    between atoms: C_16  and  C_17
REMARK    8  A    between atoms: C_17  and  C_18
REMARK    9  A    between atoms: C_18  and  C_19
REMARK   10  A    between atoms: C_19  and  O_21
REMARK   11  A    between atoms: O_21  and  C_22
REMARK   12  A    between atoms: C_22  and  C_23
REMARK   13  A    between atoms: C_23  and  C_25
REMARK                            x       y       z     vdW  Elec       q    Type
REMARK                         _______ _______ _______ _____ _____    ______ ____
ROOT
ATOM      1  C   UNL     1       0.291   6.872  -5.674  0.00  0.00    +0.052 C 
ATOM      2  C   UNL     1      -0.682   5.481  -5.626  0.00  0.00    +0.156 C 
ATOM      3  O   UNL     1      -1.447   5.886  -6.871  0.00  0.00    -0.223 OA
ATOM      4  C   UNL     1       0.381   4.422  -6.305  0.00  0.00    +0.034 C 
ATOM      5  C   UNL     1       0.496   5.364  -7.576  0.00  0.00    +0.007 C 
ATOM      6  C   UNL     1       1.891   4.843  -8.262  0.00  0.00    +0.022 C 
ATOM      7  C   UNL     1       1.864   6.213  -8.968  0.00  0.00    -0.048 C 
ATOM      8  C   UNL     1       1.341   6.505 -10.186  0.00  0.00    -0.035 C 
ATOM      9  C   UNL     1       1.445   7.255  -7.922  0.00  0.00    +0.022 C 
ATOM     10  C   UNL     1       1.532   6.282  -6.616  0.00  0.00    +0.011 C 
ENDROOT
BRANCH   1  12
ATOM     11  C   UNL     1       1.857   7.034  -3.751  0.00  0.00    +0.002 C 
ATOM     12  C   UNL     1       0.882   6.386  -4.253  0.00  0.00    -0.026 C 
BRANCH  11  13
ATOM     13  C   UNL     1       3.151   6.384  -3.055  0.00  0.00    +0.175 C 
ATOM     14  O   UNL     1       3.307   7.509  -2.054  0.00  0.00    -0.218 OA
BRANCH  13  15
ATOM     15  C   UNL     1       4.161   7.021  -4.282  0.00  0.00    +0.048 C 
ATOM     16  C   UNL     1       5.519   7.228  -3.436  0.00  0.00    +0.004 C 
BRANCH  15  17
ATOM     17  C   UNL     1       4.548   5.507  -4.726  0.00  0.00    +0.079 C 
BRANCH  17  20
ATOM     18  C   UNL     1       5.650   5.082  -8.612  0.00  0.00    +0.090 C 
ATOM     19  C   UNL     1       4.999   5.540  -7.383  0.00  0.00    -0.090 C 
ATOM     20  C   UNL     1       4.817   5.595  -6.179  0.00  0.00    -0.091 C 
ENDBRANCH  17  20
ENDBRANCH  15  17
ENDBRANCH  13  15
ENDBRANCH  11  13
ENDBRANCH   1  12
BRANCH   8  21
ATOM     21  C   UNL     1      -0.133   6.430 -10.479  0.00  0.00    +0.026 C 
BRANCH  21  22
ATOM     22  C   UNL     1      -0.116   6.492 -12.006  0.00  0.00    +0.016 C 
BRANCH  22  23
ATOM     23  C   UNL     1       0.615   5.132 -12.129  0.00  0.00    +0.110 C 
BRANCH  23  24
ATOM     24  C   UNL     1       1.168   5.028 -13.515  0.00  0.00    +0.317 C 
ATOM     25  O   UNL     1       0.708   3.997 -14.118  0.00  0.00    -0.250 OA
BRANCH  24  26
ATOM     26  O   UNL     1       2.514   5.171 -13.873  0.00  0.00    -0.440 OA
BRANCH  26  27
ATOM     27  C   UNL     1       3.299   6.091 -13.089  0.00  0.00    +0.277 C 
BRANCH  27  28
ATOM     28  C   UNL     1       4.643   5.439 -13.042  0.00  0.00    +0.217 C 
ATOM     29  O   UNL     1       4.618   4.269 -13.562  0.00  0.00    -0.287 OA
BRANCH  28  30
ATOM     30  C   UNL     1       5.775   6.053 -12.405  0.00  0.00    +0.038 A 
ATOM     31  C   UNL     1       6.909   5.289 -12.229  0.00  0.00    +0.003 A 
ATOM     32  C   UNL     1       7.979   5.758 -11.450  0.00  0.00    +0.000 A 
ATOM     33  C   UNL     1       7.865   6.950 -10.749  0.00  0.00    +0.000 A 
ATOM     34  C   UNL     1       6.808   7.783 -11.027  0.00  0.00    +0.000 A 
ATOM     35  C   UNL     1       5.747   7.196 -11.652  0.00  0.00    +0.003 A 
ENDBRANCH  28  30
ENDBRANCH  27  28
ENDBRANCH  26  27
ENDBRANCH  24  26
ENDBRANCH  23  24
ENDBRANCH  22  23
ENDBRANCH  21  22
ENDBRANCH   8  21
TORSDOF 13
ENDMDL
MODEL 6
REMARK VINA RESULT:      -8.3      1.737      2.565
REMARK  Name = 
REMARK  13 active torsions:
REMARK  status: ('A' for Active; 'I' for Inactive)
REMARK    1  A    between atoms: C_3  and  C_4
REMARK    2  A    between atoms: C_4  and  C_5
REMARK    3  A    between atoms: C_5  and  C_7
REMARK    4  A    between atoms: C_7  and  C_9
REMARK    5  A    between atoms: C_10  and  C_11
REMARK    6  A    between atoms: C_15  and  C_16
REMARK    7  A    between atoms: C_16  and  C_17
REMARK    8  A    between atoms: C_17  and  C_18
REMARK    9  A    between atoms: C_18  and  C_19
REMARK   10  A    between atoms: C_19  and  O_21
REMARK   11  A    between atoms: O_21  and  C_22
REMARK   12  A    between atoms: C_22  and  C_23
REMARK   13  A    between atoms: C_23  and  C_25
REMARK                            x       y       z     vdW  Elec       q    Type
REMARK                         _______ _______ _______ _____ _____    ______ ____
ROOT
ATOM      1  C   UNL     1       3.211   4.788  -5.171  0.00  0.00    +0.052 C 
ATOM      2  C   UNL     1       4.457   5.881  -5.540  0.00  0.00    +0.156 C 
ATOM      3  O   UNL     1       4.702   5.254  -6.899  0.00  0.00    -0.223 OA
ATOM      4  C   UNL     1       3.525   7.157  -6.006  0.00  0.00    +0.034 C 
ATOM      5  C   UNL     1       2.820   6.238  -7.089  0.00  0.00    +0.007 C 
ATOM      6  C   UNL     1       1.451   7.080  -7.413  0.00  0.00    +0.022 C 
ATOM      7  C   UNL     1       0.942   5.727  -7.951  0.00  0.00    -0.048 C 
ATOM      8  C   UNL     1       0.998   5.273  -9.228  0.00  0.00    -0.035 C 
ATOM      9  C   UNL     1       1.390   4.646  -6.958  0.00  0.00    +0.022 C 
ATOM     10  C   UNL     1       1.925   5.649  -5.789  0.00  0.00    +0.011 C 
ENDROOT
BRANCH   1  12
ATOM     11  C   UNL     1       2.280   5.108  -2.889  0.00  0.00    +0.002 C 
ATOM     12  C   UNL     1       3.199   5.453  -3.701  0.00  0.00    -0.026 C 
BRANCH  11  13
ATOM     13  C   UNL     1       1.450   6.102  -1.939  0.00  0.00    +0.175 C 
ATOM     14  O   UNL     1       1.756   5.322  -0.678  0.00  0.00    -0.218 OA
BRANCH  13  15
ATOM     15  C   UNL     1      -0.013   5.314  -2.352  0.00  0.00    +0.048 C 
ATOM     16  C   UNL     1      -0.921   5.746  -1.090  0.00  0.00    +0.004 C 
BRANCH  15  17
ATOM     17  C   UNL     1      -0.442   6.610  -3.234  0.00  0.00    +0.079 C 
BRANCH  17  20
ATOM     18  C   UNL     1      -2.530   5.650  -6.582  0.00  0.00    +0.090 C 
ATOM     19  C   UNL     1      -1.953   5.626  -5.238  0.00  0.00    -0.090 C 
ATOM     20  C   UNL     1      -1.330   6.074  -4.290  0.00  0.00    -0.091 C 
ENDBRANCH  17  20
ENDBRANCH  15  17
ENDBRANCH  13  15
ENDBRANCH  11  13
ENDBRANCH   1  12
BRANCH   8  21
ATOM     21  C   UNL     1       2.294   4.955  -9.924  0.00  0.00    +0.026 C 
BRANCH  21  22
ATOM     22  C   UNL     1       2.362   6.111 -10.923  0.00  0.00    +0.016 C 
BRANCH  22  23
ATOM     23  C   UNL     1       3.794   5.733 -11.379  0.00  0.00    +0.110 C 
BRANCH  23  24
ATOM     24  C   UNL     1       3.758   5.484 -12.854  0.00  0.00    +0.317 C 
ATOM     25  O   UNL     1       4.402   4.421 -13.157  0.00  0.00    -0.250 OA
BRANCH  24  26
ATOM     26  O   UNL     1       4.004   6.436 -13.851  0.00  0.00    -0.440 OA
BRANCH  26  27
ATOM     27  C   UNL     1       5.104   6.171 -14.744  0.00  0.00    +0.277 C 
BRANCH  27  28
ATOM     28  C   UNL     1       6.140   7.157 -14.311  0.00  0.00    +0.217 C 
ATOM     29  O   UNL     1       6.333   8.059 -15.200  0.00  0.00    -0.287 OA
BRANCH  28  30
ATOM     30  C   UNL     1       6.866   7.021 -13.079  0.00  0.00    +0.038 A 
ATOM     31  C   UNL     1       7.714   5.944 -12.944  0.00  0.00    +0.003 A 
ATOM     32  C   UNL     1       8.307   5.643 -11.708  0.00  0.00    +0.000 A 
ATOM     33  C   UNL     1       7.958   6.359 -10.572  0.00  0.00    +0.000 A 
ATOM     34  C   UNL     1       7.230   7.516 -10.716  0.00  0.00    +0.000 A 
ATOM     35  C   UNL     1       6.563   7.646 -11.899  0.00  0.00    +0.003 A 
ENDBRANCH  28  30
ENDBRANCH  27  28
ENDBRANCH  26  27
ENDBRANCH  24  26
ENDBRANCH  23  24
ENDBRANCH  22  23
ENDBRANCH  21  22
ENDBRANCH   8  21
TORSDOF 13
ENDMDL
MODEL 7
REMARK VINA RESULT:      -8.3      1.948      3.076
REMARK  Name = 
REMARK  13 active torsions:
REMARK  status: ('A' for Active; 'I' for Inactive)
REMARK    1  A    between atoms: C_3  and  C_4
REMARK    2  A    between atoms: C_4  and  C_5
REMARK    3  A    between atoms: C_5  and  C_7
REMARK    4  A    between atoms: C_7  and  C_9
REMARK    5  A    between atoms: C_10  and  C_11
REMARK    6  A    between atoms: C_15  and  C_16
REMARK    7  A    between atoms: C_16  and  C_17
REMARK    8  A    between atoms: C_17  and  C_18
REMARK    9  A    between atoms: C_18  and  C_19
REMARK   10  A    between atoms: C_19  and  O_21
REMARK   11  A    between atoms: O_21  and  C_22
REMARK   12  A    between atoms: C_22  and  C_23
REMARK   13  A    between atoms: C_23  and  C_25
REMARK                            x       y       z     vdW  Elec       q    Type
REMARK                         _______ _______ _______ _____ _____    ______ ____
ROOT
ATOM      1  C   UNL     1       3.488   4.631  -5.095  0.00  0.00    +0.052 C 
ATOM      2  C   UNL     1       4.416   5.908  -5.720  0.00  0.00    +0.156 C 
ATOM      3  O   UNL     1       4.188   5.467  -7.153  0.00  0.00    -0.223 OA
ATOM      4  C   UNL     1       3.278   7.096  -5.629  0.00  0.00    +0.034 C 
ATOM      5  C   UNL     1       2.297   6.215  -6.511  0.00  0.00    +0.007 C 
ATOM      6  C   UNL     1       0.843   6.903  -6.197  0.00  0.00    +0.022 C 
ATOM      7  C   UNL     1       0.282   5.562  -6.709  0.00  0.00    -0.048 C 
ATOM      8  C   UNL     1      -0.104   5.257  -7.974  0.00  0.00    -0.035 C 
ATOM      9  C   UNL     1       1.152   4.447  -6.113  0.00  0.00    +0.022 C 
ATOM     10  C   UNL     1       2.000   5.380  -5.079  0.00  0.00    +0.011 C 
ENDROOT
BRANCH   1  12
ATOM     11  C   UNL     1       3.156   5.017  -2.662  0.00  0.00    +0.002 C 
ATOM     12  C   UNL     1       3.969   5.128  -3.636  0.00  0.00    -0.026 C 
BRANCH  11  13
ATOM     13  C   UNL     1       2.890   6.132  -1.536  0.00  0.00    +0.175 C 
ATOM     14  O   UNL     1       3.676   5.395  -0.472  0.00  0.00    -0.218 OA
BRANCH  13  15
ATOM     15  C   UNL     1       1.353   5.459  -1.199  0.00  0.00    +0.048 C 
ATOM     16  C   UNL     1       0.893   6.424   0.010  0.00  0.00    +0.004 C 
BRANCH  15  17
ATOM     17  C   UNL     1       0.703   6.413  -2.342  0.00  0.00    +0.079 C 
BRANCH  17  20
ATOM     18  C   UNL     1      -3.104   5.462  -3.390  0.00  0.00    +0.090 C 
ATOM     19  C   UNL     1      -1.697   5.375  -2.995  0.00  0.00    -0.090 C 
ATOM     20  C   UNL     1      -0.617   5.811  -2.634  0.00  0.00    -0.091 C 
ENDBRANCH  17  20
ENDBRANCH  15  17
ENDBRANCH  13  15
ENDBRANCH  11  13
ENDBRANCH   1  12
BRANCH   8  21
ATOM     21  C   UNL     1       0.862   5.185  -9.126  0.00  0.00    +0.026 C 
BRANCH  21  22
ATOM     22  C   UNL     1       0.180   6.128 -10.118  0.00  0.00    +0.016 C 
BRANCH  22  23
ATOM     23  C   UNL     1       0.215   5.078 -11.257  0.00  0.00    +0.110 C 
BRANCH  23  24
ATOM     24  C   UNL     1       0.932   5.684 -12.422  0.00  0.00    +0.317 C 
ATOM     25  O   UNL     1       0.944   4.886 -13.422  0.00  0.00    -0.250 OA
BRANCH  24  26
ATOM     26  O   UNL     1       2.172   6.333 -12.374  0.00  0.00    -0.440 OA
BRANCH  26  27
ATOM     27  C   UNL     1       3.341   5.513 -12.562  0.00  0.00    +0.277 C 
BRANCH  27  28
ATOM     28  C   UNL     1       4.280   6.010 -11.511  0.00  0.00    +0.217 C 
ATOM     29  O   UNL     1       3.679   6.742 -10.649  0.00  0.00    -0.287 OA
BRANCH  28  30
ATOM     30  C   UNL     1       5.692   5.746 -11.551  0.00  0.00    +0.038 A 
ATOM     31  C   UNL     1       6.426   5.986 -10.410  0.00  0.00    +0.003 A 
ATOM     32  C   UNL     1       7.829   5.933 -10.431  0.00  0.00    +0.000 A 
ATOM     33  C   UNL     1       8.504   5.752 -11.631  0.00  0.00    +0.000 A 
ATOM     34  C   UNL     1       7.790   5.372 -12.741  0.00  0.00    +0.000 A 
ATOM     35  C   UNL     1       6.447   5.606 -12.684  0.00  0.00    +0.003 A 
ENDBRANCH  28  30
ENDBRANCH  27  28
ENDBRANCH  26  27
ENDBRANCH  24  26
ENDBRANCH  23  24
ENDBRANCH  22  23
ENDBRANCH  21  22
ENDBRANCH   8  21
TORSDOF 13
ENDMDL
MODEL 8
REMARK VINA RESULT:      -8.3      1.791      4.879
REMARK  Name = 
REMARK  13 active torsions:
REMARK  status: ('A' for Active; 'I' for Inactive)
REMARK    1  A    between atoms: C_3  and  C_4
REMARK    2  A    between atoms: C_4  and  C_5
REMARK    3  A    between atoms: C_5  and  C_7
REMARK    4  A    between atoms: C_7  and  C_9
REMARK    5  A    between atoms: C_10  and  C_11
REMARK    6  A    between atoms: C_15  and  C_16
REMARK    7  A    between atoms: C_16  and  C_17
REMARK    8  A    between atoms: C_17  and  C_18
REMARK    9  A    between atoms: C_18  and  C_19
REMARK   10  A    between atoms: C_19  and  O_21
REMARK   11  A    between atoms: O_21  and  C_22
REMARK   12  A    between atoms: C_22  and  C_23
REMARK   13  A    between atoms: C_23  and  C_25
REMARK                            x       y       z     vdW  Elec       q    Type
REMARK                         _______ _______ _______ _____ _____    ______ ____
ROOT
ATOM      1  C   UNL     1       2.450   6.866  -6.718  0.00  0.00    +0.052 C 
ATOM      2  C   UNL     1       1.381   6.969  -8.033  0.00  0.00    +0.156 C 
ATOM      3  O   UNL     1       2.399   7.687  -8.897  0.00  0.00    -0.223 OA
ATOM      4  C   UNL     1       1.573   5.441  -8.618  0.00  0.00    +0.034 C 
ATOM      5  C   UNL     1       3.135   5.693  -8.740  0.00  0.00    +0.007 C 
ATOM      6  C   UNL     1       3.720   4.164  -8.830  0.00  0.00    +0.022 C 
ATOM      7  C   UNL     1       5.047   4.822  -8.401  0.00  0.00    -0.048 C 
ATOM      8  C   UNL     1       6.040   5.280  -9.206  0.00  0.00    -0.035 C 
ATOM      9  C   UNL     1       4.716   5.837  -7.299  0.00  0.00    +0.022 C 
ATOM     10  C   UNL     1       3.159   5.403  -7.081  0.00  0.00    +0.011 C 
ENDROOT
BRANCH   1  12
ATOM     11  C   UNL     1       1.119   6.556  -4.642  0.00  0.00    +0.002 C 
ATOM     12  C   UNL     1       1.204   6.273  -5.881  0.00  0.00    -0.026 C 
BRANCH  11  13
ATOM     13  C   UNL     1       0.737   5.525  -3.471  0.00  0.00    +0.175 C 
ATOM     14  O   UNL     1      -0.525   6.268  -3.086  0.00  0.00    -0.218 OA
BRANCH  13  15
ATOM     15  C   UNL     1       1.810   6.311  -2.394  0.00  0.00    +0.048 C 
ATOM     16  C   UNL     1       1.273   5.717  -0.993  0.00  0.00    +0.004 C 
BRANCH  15  17
ATOM     17  C   UNL     1       2.881   5.109  -2.610  0.00  0.00    +0.079 C 
BRANCH  17  20
ATOM     18  C   UNL     1       5.754   7.538  -4.142  0.00  0.00    +0.090 C 
ATOM     19  C   UNL     1       5.030   6.368  -3.643  0.00  0.00    -0.090 C 
ATOM     20  C   UNL     1       4.056   5.756  -3.236  0.00  0.00    -0.091 C 
ENDBRANCH  17  20
ENDBRANCH  15  17
ENDBRANCH  13  15
ENDBRANCH  11  13
ENDBRANCH   1  12
BRANCH   8  21
ATOM     21  C   UNL     1       5.864   6.455 -10.129  0.00  0.00    +0.026 C 
BRANCH  21  22
ATOM     22  C   UNL     1       7.302   6.649 -10.608  0.00  0.00    +0.016 C 
BRANCH  22  23
ATOM     23  C   UNL     1       6.870   6.806 -12.088  0.00  0.00    +0.110 C 
BRANCH  23  24
ATOM     24  C   UNL     1       6.664   5.438 -12.657  0.00  0.00    +0.317 C 
ATOM     25  O   UNL     1       7.782   4.888 -12.947  0.00  0.00    -0.250 OA
BRANCH  24  26
ATOM     26  O   UNL     1       5.744   5.096 -13.656  0.00  0.00    -0.440 OA
BRANCH  26  27
ATOM     27  C   UNL     1       4.408   4.774 -13.224  0.00  0.00    +0.277 C 
BRANCH  27  28
ATOM     28  C   UNL     1       3.556   5.696 -14.033  0.00  0.00    +0.217 C 
ATOM     29  O   UNL     1       4.143   6.057 -15.112  0.00  0.00    -0.287 OA
BRANCH  28  30
ATOM     30  C   UNL     1       2.275   6.163 -13.576  0.00  0.00    +0.038 A 
ATOM     31  C   UNL     1       1.517   6.919 -14.442  0.00  0.00    +0.003 A 
ATOM     32  C   UNL     1       0.350   7.565 -14.003  0.00  0.00    +0.000 A 
ATOM     33  C   UNL     1       0.003   7.546 -12.659  0.00  0.00    +0.000 A 
ATOM     34  C   UNL     1       0.665   6.685 -11.817  0.00  0.00    +0.000 A 
ATOM     35  C   UNL     1       1.868   6.230 -12.270  0.00  0.00    +0.003 A 
ENDBRANCH  28  30
ENDBRANCH  27  28
ENDBRANCH  26  27
ENDBRANCH  24  26
ENDBRANCH  23  24
ENDBRANCH  22  23
ENDBRANCH  21  22
ENDBRANCH   8  21
TORSDOF 13
ENDMDL
MODEL 9
REMARK VINA RESULT:      -8.3      2.484      9.337
REMARK  Name = 
REMARK  13 active torsions:
REMARK  status: ('A' for Active; 'I' for Inactive)
REMARK    1  A    between atoms: C_3  and  C_4
REMARK    2  A    between atoms: C_4  and  C_5
REMARK    3  A    between atoms: C_5  and  C_7
REMARK    4  A    between atoms: C_7  and  C_9
REMARK    5  A    between atoms: C_10  and  C_11
REMARK    6  A    between atoms: C_15  and  C_16
REMARK    7  A    between atoms: C_16  and  C_17
REMARK    8  A    between atoms: C_17  and  C_18
REMARK    9  A    between atoms: C_18  and  C_19
REMARK   10  A    between atoms: C_19  and  O_21
REMARK   11  A    between atoms: O_21  and  C_22
REMARK   12  A    between atoms: C_22  and  C_23
REMARK   13  A    between atoms: C_23  and  C_25
REMARK                            x       y       z     vdW  Elec       q    Type
REMARK                         _______ _______ _______ _____ _____    ______ ____
ROOT
ATOM      1  C   UNL     1       4.179   6.468  -9.479  0.00  0.00    +0.052 C 
ATOM      2  C   UNL     1       5.042   5.006  -9.439  0.00  0.00    +0.156 C 
ATOM      3  O   UNL     1       5.861   5.439  -8.239  0.00  0.00    -0.223 OA
ATOM      4  C   UNL     1       3.914   4.086  -8.667  0.00  0.00    +0.034 C 
ATOM      5  C   UNL     1       3.899   5.123  -7.468  0.00  0.00    +0.007 C 
ATOM      6  C   UNL     1       2.483   4.764  -6.724  0.00  0.00    +0.022 C 
ATOM      7  C   UNL     1       2.630   6.176  -6.122  0.00  0.00    -0.048 C 
ATOM      8  C   UNL     1       3.200   6.514  -4.937  0.00  0.00    -0.035 C 
ATOM      9  C   UNL     1       3.106   7.103  -7.249  0.00  0.00    +0.022 C 
ATOM     10  C   UNL     1       2.917   6.047  -8.477  0.00  0.00    +0.011 C 
ENDROOT
BRANCH   1  12
ATOM     11  C   UNL     1       2.675   6.668 -11.447  0.00  0.00    +0.002 C 
ATOM     12  C   UNL     1       3.524   5.928 -10.852  0.00  0.00    -0.026 C 
BRANCH  11  13
ATOM     13  C   UNL     1       1.294   6.169 -12.098  0.00  0.00    +0.175 C 
ATOM     14  O   UNL     1       1.189   7.351 -13.039  0.00  0.00    -0.218 OA
BRANCH  13  15
ATOM     15  C   UNL     1       0.410   6.831 -10.791  0.00  0.00    +0.048 C 
ATOM     16  C   UNL     1      -0.976   7.171 -11.544  0.00  0.00    +0.004 C 
BRANCH  15  17
ATOM     17  C   UNL     1      -0.065   5.335 -10.375  0.00  0.00    +0.079 C 
BRANCH  17  20
ATOM     18  C   UNL     1      -1.689   5.281  -6.653  0.00  0.00    +0.090 C 
ATOM     19  C   UNL     1      -0.746   5.385  -7.768  0.00  0.00    -0.090 C 
ATOM     20  C   UNL     1      -0.416   5.432  -8.940  0.00  0.00    -0.091 C 
ENDBRANCH  17  20
ENDBRANCH  15  17
ENDBRANCH  13  15
ENDBRANCH  11  13
ENDBRANCH   1  12
BRANCH   8  21
ATOM     21  C   UNL     1       4.669   6.345  -4.662  0.00  0.00    +0.026 C 
BRANCH  21  22
ATOM     22  C   UNL     1       4.731   6.795  -3.202  0.00  0.00    +0.016 C 
BRANCH  22  23
ATOM     23  C   UNL     1       4.084   5.483  -2.691  0.00  0.00    +0.110 C 
BRANCH  23  24
ATOM     24  C   UNL     1       3.678   5.693  -1.266  0.00  0.00    +0.317 C 
ATOM     25  O   UNL     1       4.591   5.292  -0.464  0.00  0.00    -0.250 OA
BRANCH  24  26
ATOM     26  O   UNL     1       2.438   5.358  -0.710  0.00  0.00    -0.440 OA
BRANCH  26  27
ATOM     27  C   UNL     1       1.329   6.221  -1.030  0.00  0.00    +0.277 C 
BRANCH  27  28
ATOM     28  C   UNL     1       0.314   5.279  -1.590  0.00  0.00    +0.217 C 
ATOM     29  O   UNL     1       0.618   4.058  -1.348  0.00  0.00    -0.287 OA
BRANCH  28  30
ATOM     30  C   UNL     1      -0.806   5.728  -2.371  0.00  0.00    +0.038 A 
ATOM     31  C   UNL     1      -0.586   6.716  -3.305  0.00  0.00    +0.003 A 
ATOM     32  C   UNL     1      -1.660   7.334  -3.967  0.00  0.00    +0.000 A 
ATOM     33  C   UNL     1      -2.967   7.039  -3.606  0.00  0.00    +0.000 A 
ATOM     34  C   UNL     1      -3.200   5.962  -2.785  0.00  0.00    +0.000 A 
ATOM     35  C   UNL     1      -2.126   5.530  -2.065  0.00  0.00    +0.003 A 
ENDBRANCH  28  30
ENDBRANCH  27  28
ENDBRANCH  26  27
ENDBRANCH  24  26
ENDBRANCH  23  24
ENDBRANCH  22  23
ENDBRANCH  21  22
ENDBRANCH   8  21
TORSDOF 13
ENDMDL
