MODEL 1
REMARK VINA RESULT:      -7.5      0.000      0.000
REMARK  Name = 
REMARK  7 active torsions:
REMARK  status: ('A' for Active; 'I' for Inactive)
REMARK    1  A    between atoms: O_2  and  C_3
REMARK    2  A    between atoms: C_3  and  C_4
REMARK    3  A    between atoms: CA_5  and  C_6
REMARK    4  A    between atoms: CA_12  and  N_13
REMARK    5  A    between atoms: C_14  and  C_16
REMARK    6  A    between atoms: C_16  and  C_20
REMARK    7  A    between atoms: N_17  and  O_18
REMARK                            x       y       z     vdW  Elec       q    Type
REMARK                         _______ _______ _______ _____ _____    ______ ____
ROOT
ATOM      1  C   UNL     1       3.919   5.152  -6.514  0.00  0.00    +0.016 C 
ATOM      2  C   UNL     1       5.073   5.402  -7.436  0.00  0.00    +0.085 C 
ATOM      3  S   UNL     1       4.537   5.553  -9.163  0.00  0.00    -0.114 S 
ATOM      4  C   UNL     1       2.928   4.529  -9.166  0.00  0.00    +0.157 C 
ATOM      5  N   UNL     1       2.249   5.542  -8.258  0.00  0.00    -0.242 N 
ATOM      6  C   UNL     1       2.079   6.533  -9.303  0.00  0.00    +0.253 C 
ATOM      7  O   UNL     1       1.166   7.416  -9.327  0.00  0.00    -0.273 OA
ATOM      8  CA  UNL     1       1.971   5.287 -10.323  0.00  0.00    +0.201 C 
ATOM      9  CA  UNL     1       2.682   5.439  -6.903  0.00  0.00    +0.130 C 
ENDROOT
BRANCH   9  10
ATOM     10  C   UNL     1       1.598   5.637  -5.931  0.00  0.00    +0.401 C 
ATOM     11  OXT UNL     1       0.811   4.495  -5.732  0.00  0.00    -0.239 OA
ATOM     12  O   UNL     1       0.995   6.730  -5.807  0.00  0.00    -0.239 OA
ENDBRANCH   9  10
BRANCH   8  13
ATOM     13  N   UNL     1       3.159   5.734 -11.273  0.00  0.00    -0.190 NA
ATOM     14  C   UNL     1       2.608   6.103 -12.518  0.00  0.00    +0.288 C 
ATOM     15  O   UNL     1       1.495   6.707 -12.589  0.00  0.00    -0.267 OA
BRANCH  14  16
ATOM     16  C   UNL     1       3.213   5.827 -13.828  0.00  0.00    +0.192 C 
ATOM     17  N   UNL     1       2.588   4.889 -14.486  0.00  0.00    -0.077 NA
BRANCH  16  18
ATOM     18  C   UNL     1       4.681   5.872 -13.980  0.00  0.00    +0.115 A 
ATOM     19  N   UNL     1       5.485   4.900 -13.557  0.00  0.00    -0.220 NA
ATOM     20  C   UNL     1       6.729   5.336 -13.276  0.00  0.00    +0.201 A 
ATOM     21  N   UNL     1       7.724   4.725 -12.442  0.00  0.00    -0.100 NA
ATOM     22  S   UNL     1       6.947   6.486 -14.533  0.00  0.00    -0.048 S 
ATOM     23  C   UNL     1       5.294   6.651 -14.959  0.00  0.00    +0.059 A 
ENDBRANCH  16  18
BRANCH  17  24
ATOM     24  O   UNL     1       1.654   4.066 -13.875  0.00  0.00    -0.373 OA
ATOM     25  C   UNL     1       0.353   3.881 -14.392  0.00  0.00    +0.288 C 
ENDBRANCH  17  24
ENDBRANCH  14  16
ENDBRANCH   8  13
BRANCH   1  26
ATOM     26  C   UNL     1       4.280   5.375  -5.073  0.00  0.00    +0.167 C 
BRANCH  26  28
ATOM     27  C   UNL     1       4.436   7.583  -4.390  0.00  0.00    +0.175 C 
ATOM     28  O   UNL     1       5.060   6.545  -5.070  0.00  0.00    -0.347 OA
ENDBRANCH  26  28
ENDBRANCH   1  26
TORSDOF 7
ENDMDL
MODEL 2
REMARK VINA RESULT:      -7.5      4.508      9.694
REMARK  Name = 
REMARK  7 active torsions:
REMARK  status: ('A' for Active; 'I' for Inactive)
REMARK    1  A    between atoms: O_2  and  C_3
REMARK    2  A    between atoms: C_3  and  C_4
REMARK    3  A    between atoms: CA_5  and  C_6
REMARK    4  A    between atoms: CA_12  and  N_13
REMARK    5  A    between atoms: C_14  and  C_16
REMARK    6  A    between atoms: C_16  and  C_20
REMARK    7  A    between atoms: N_17  and  O_18
REMARK                            x       y       z     vdW  Elec       q    Type
REMARK                         _______ _______ _______ _____ _____    ______ ____
ROOT
ATOM      1  C   UNL     1       0.853   5.094  -8.670  0.00  0.00    +0.016 C 
ATOM      2  C   UNL     1      -0.302   5.373  -7.759  0.00  0.00    +0.085 C 
ATOM      3  S   UNL     1       0.236   5.621  -6.043  0.00  0.00    -0.114 S 
ATOM      4  C   UNL     1       1.859   4.622  -5.993  0.00  0.00    +0.157 C 
ATOM      5  N   UNL     1       2.521   5.597  -6.954  0.00  0.00    -0.242 N 
ATOM      6  C   UNL     1       2.679   6.642  -5.962  0.00  0.00    +0.253 C 
ATOM      7  O   UNL     1       3.580   7.539  -5.986  0.00  0.00    -0.273 OA
ATOM      8  CA  UNL     1       2.808   5.453  -4.879  0.00  0.00    +0.201 C 
ATOM      9  CA  UNL     1       2.086   5.418  -8.301  0.00  0.00    +0.130 C 
ENDROOT
BRANCH   9  10
ATOM     10  C   UNL     1       3.165   5.581  -9.285  0.00  0.00    +0.401 C 
ATOM     11  OXT UNL     1       3.981   4.449  -9.411  0.00  0.00    -0.239 OA
ATOM     12  O   UNL     1       3.740   6.679  -9.480  0.00  0.00    -0.239 OA
ENDBRANCH   9  10
BRANCH   8  13
ATOM     13  N   UNL     1       1.616   5.931  -3.950  0.00  0.00    -0.190 NA
ATOM     14  C   UNL     1       2.164   6.374  -2.728  0.00  0.00    +0.288 C 
ATOM     15  O   UNL     1       3.269   6.999  -2.693  0.00  0.00    -0.267 OA
BRANCH  14  16
ATOM     16  C   UNL     1       1.568   6.159  -1.403  0.00  0.00    +0.192 C 
ATOM     17  N   UNL     1       2.192   5.245  -0.711  0.00  0.00    -0.077 NA
BRANCH  16  18
ATOM     18  C   UNL     1       0.102   6.220  -1.243  0.00  0.00    +0.115 A 
ATOM     19  N   UNL     1      -0.705   5.205  -1.540  0.00  0.00    -0.220 NA
ATOM     20  C   UNL     1      -1.953   5.604  -1.857  0.00  0.00    +0.201 A 
ATOM     21  N   UNL     1      -2.955   4.898  -2.603  0.00  0.00    -0.100 NA
ATOM     22  S   UNL     1      -2.159   6.893  -0.742  0.00  0.00    -0.048 S 
ATOM     23  C   UNL     1      -0.502   7.109  -0.356  0.00  0.00    +0.059 A 
ENDBRANCH  16  18
BRANCH  17  24
ATOM     24  O   UNL     1       3.116   4.391  -1.292  0.00  0.00    -0.373 OA
ATOM     25  C   UNL     1       4.472   4.360  -0.902  0.00  0.00    +0.288 C 
ENDBRANCH  17  24
ENDBRANCH  14  16
ENDBRANCH   8  13
BRANCH   1  26
ATOM     26  C   UNL     1       0.485   5.236 -10.119  0.00  0.00    +0.167 C 
BRANCH  26  28
ATOM     27  C   UNL     1      -0.006   7.027 -11.503  0.00  0.00    +0.175 C 
ATOM     28  O   UNL     1      -0.111   6.506 -10.220  0.00  0.00    -0.347 OA
ENDBRANCH  26  28
ENDBRANCH   1  26
TORSDOF 7
ENDMDL
MODEL 3
REMARK VINA RESULT:      -7.0      3.017      4.721
REMARK  Name = 
REMARK  7 active torsions:
REMARK  status: ('A' for Active; 'I' for Inactive)
REMARK    1  A    between atoms: O_2  and  C_3
REMARK    2  A    between atoms: C_3  and  C_4
REMARK    3  A    between atoms: CA_5  and  C_6
REMARK    4  A    between atoms: CA_12  and  N_13
REMARK    5  A    between atoms: C_14  and  C_16
REMARK    6  A    between atoms: C_16  and  C_20
REMARK    7  A    between atoms: N_17  and  O_18
REMARK                            x       y       z     vdW  Elec       q    Type
REMARK                         _______ _______ _______ _____ _____    ______ ____
ROOT
ATOM      1  C   UNL     1       0.946   5.782  -3.035  0.00  0.00    +0.016 C 
ATOM      2  C   UNL     1       0.203   5.460  -4.295  0.00  0.00    +0.085 C 
ATOM      3  S   UNL     1       1.259   5.620  -5.762  0.00  0.00    -0.114 S 
ATOM      4  C   UNL     1       2.553   6.892  -5.177  0.00  0.00    +0.157 C 
ATOM      5  N   UNL     1       3.111   5.902  -4.168  0.00  0.00    -0.242 N 
ATOM      6  C   UNL     1       3.785   5.094  -5.164  0.00  0.00    +0.253 C 
ATOM      7  O   UNL     1       4.820   4.387  -4.950  0.00  0.00    -0.273 OA
ATOM      8  CA  UNL     1       3.949   6.458  -6.010  0.00  0.00    +0.201 C 
ATOM      9  CA  UNL     1       2.273   5.759  -3.021  0.00  0.00    +0.130 C 
ENDROOT
BRANCH   9  10
ATOM     10  C   UNL     1       3.026   5.626  -1.766  0.00  0.00    +0.401 C 
ATOM     11  OXT UNL     1       3.493   6.848  -1.263  0.00  0.00    -0.239 OA
ATOM     12  O   UNL     1       3.752   4.633  -1.517  0.00  0.00    -0.239 OA
ENDBRANCH   9  10
BRANCH   8  13
ATOM     13  N   UNL     1       3.222   5.941  -7.320  0.00  0.00    -0.190 NA
ATOM     14  C   UNL     1       4.181   5.862  -8.351  0.00  0.00    +0.288 C 
ATOM     15  O   UNL     1       5.371   5.490  -8.112  0.00  0.00    -0.267 OA
BRANCH  14  16
ATOM     16  C   UNL     1       3.944   6.206  -9.759  0.00  0.00    +0.192 C 
ATOM     17  N   UNL     1       2.911   5.587 -10.263  0.00  0.00    -0.077 NA
BRANCH  16  18
ATOM     18  C   UNL     1       5.091   6.417 -10.664  0.00  0.00    +0.115 A 
ATOM     19  N   UNL     1       5.433   5.554 -11.618  0.00  0.00    -0.220 NA
ATOM     20  C   UNL     1       6.741   5.619 -11.936  0.00  0.00    +0.201 A 
ATOM     21  N   UNL     1       7.554   4.627 -12.580  0.00  0.00    -0.100 NA
ATOM     22  S   UNL     1       7.004   7.312 -11.828  0.00  0.00    -0.048 S 
ATOM     23  C   UNL     1       5.598   7.689 -10.921  0.00  0.00    +0.059 A 
ENDBRANCH  16  18
BRANCH  17  24
ATOM     24  O   UNL     1       2.310   4.519  -9.615  0.00  0.00    -0.373 OA
ATOM     25  C   UNL     1       0.919   4.286  -9.664  0.00  0.00    +0.288 C 
ENDBRANCH  17  24
ENDBRANCH  14  16
ENDBRANCH   8  13
BRANCH   1  26
ATOM     26  C   UNL     1       0.215   5.322  -1.807  0.00  0.00    +0.167 C 
BRANCH  26  28
ATOM     27  C   UNL     1      -2.067   5.604  -1.532  0.00  0.00    +0.175 C 
ATOM     28  O   UNL     1      -1.068   4.968  -2.258  0.00  0.00    -0.347 OA
ENDBRANCH  26  28
ENDBRANCH   1  26
TORSDOF 7
ENDMDL
MODEL 4
REMARK VINA RESULT:      -6.9      2.793      7.477
REMARK  Name = 
REMARK  7 active torsions:
REMARK  status: ('A' for Active; 'I' for Inactive)
REMARK    1  A    between atoms: O_2  and  C_3
REMARK    2  A    between atoms: C_3  and  C_4
REMARK    3  A    between atoms: CA_5  and  C_6
REMARK    4  A    between atoms: CA_12  and  N_13
REMARK    5  A    between atoms: C_14  and  C_16
REMARK    6  A    between atoms: C_16  and  C_20
REMARK    7  A    between atoms: N_17  and  O_18
REMARK                            x       y       z     vdW  Elec       q    Type
REMARK                         _______ _______ _______ _____ _____    ______ ____
ROOT
ATOM      1  C   UNL     1       3.916   5.867 -11.992  0.00  0.00    +0.016 C 
ATOM      2  C   UNL     1       4.629   5.352 -10.780  0.00  0.00    +0.085 C 
ATOM      3  S   UNL     1       3.543   5.304  -9.327  0.00  0.00    -0.114 S 
ATOM      4  C   UNL     1       2.273   6.665  -9.741  0.00  0.00    +0.157 C 
ATOM      5  N   UNL     1       1.729   5.843 -10.899  0.00  0.00    -0.242 N 
ATOM      6  C   UNL     1       1.025   4.904 -10.048  0.00  0.00    +0.253 C 
ATOM      7  O   UNL     1      -0.011   4.249 -10.386  0.00  0.00    -0.273 OA
ATOM      8  CA  UNL     1       0.855   6.128  -9.011  0.00  0.00    +0.201 C 
ATOM      9  CA  UNL     1       2.589   5.863 -12.036  0.00  0.00    +0.130 C 
ENDROOT
BRANCH   9  10
ATOM     10  C   UNL     1       1.863   5.928 -13.312  0.00  0.00    +0.401 C 
ATOM     11  OXT UNL     1       1.197   7.144 -13.515  0.00  0.00    -0.239 OA
ATOM     12  O   UNL     1       1.312   4.925 -13.826  0.00  0.00    -0.239 OA
ENDBRANCH   9  10
BRANCH   8  13
ATOM     13  N   UNL     1       1.549   5.412  -7.779  0.00  0.00    -0.190 NA
ATOM     14  C   UNL     1       0.654   5.452  -6.689  0.00  0.00    +0.288 C 
ATOM     15  O   UNL     1      -0.596   5.318  -6.863  0.00  0.00    -0.267 OA
BRANCH  14  16
ATOM     16  C   UNL     1       1.034   5.666  -5.286  0.00  0.00    +0.192 C 
ATOM     17  N   UNL     1       0.271   6.537  -4.684  0.00  0.00    -0.077 NA
BRANCH  16  18
ATOM     18  C   UNL     1       2.460   5.667  -4.907  0.00  0.00    +0.115 A 
ATOM     19  N   UNL     1       3.033   6.661  -4.233  0.00  0.00    -0.220 NA
ATOM     20  C   UNL     1       4.358   6.754  -4.464  0.00  0.00    +0.201 A 
ATOM     21  N   UNL     1       5.222   7.883  -4.272  0.00  0.00    -0.100 NA
ATOM     22  S   UNL     1       4.775   5.091  -4.552  0.00  0.00    -0.048 S 
ATOM     23  C   UNL     1       3.188   4.485  -4.789  0.00  0.00    +0.059 A 
ENDBRANCH  16  18
BRANCH  17  24
ATOM     24  O   UNL     1      -0.595   7.361  -5.386  0.00  0.00    -0.373 OA
ATOM     25  C   UNL     1      -1.748   7.926  -4.800  0.00  0.00    +0.288 C 
ENDBRANCH  17  24
ENDBRANCH  14  16
ENDBRANCH   8  13
BRANCH   1  26
ATOM     26  C   UNL     1       4.670   5.587 -13.260  0.00  0.00    +0.167 C 
BRANCH  26  28
ATOM     27  C   UNL     1       6.948   5.378 -13.623  0.00  0.00    +0.175 C 
ATOM     28  O   UNL     1       5.868   4.980 -12.845  0.00  0.00    -0.347 OA
ENDBRANCH  26  28
ENDBRANCH   1  26
TORSDOF 7
ENDMDL
MODEL 5
REMARK VINA RESULT:      -6.6      2.807      4.415
REMARK  Name = 
REMARK  7 active torsions:
REMARK  status: ('A' for Active; 'I' for Inactive)
REMARK    1  A    between atoms: O_2  and  C_3
REMARK    2  A    between atoms: C_3  and  C_4
REMARK    3  A    between atoms: CA_5  and  C_6
REMARK    4  A    between atoms: CA_12  and  N_13
REMARK    5  A    between atoms: C_14  and  C_16
REMARK    6  A    between atoms: C_16  and  C_20
REMARK    7  A    between atoms: N_17  and  O_18
REMARK                            x       y       z     vdW  Elec       q    Type
REMARK                         _______ _______ _______ _____ _____    ______ ____
ROOT
ATOM      1  C   UNL     1       4.493   6.768  -2.721  0.00  0.00    +0.016 C 
ATOM      2  C   UNL     1       4.411   7.852  -3.752  0.00  0.00    +0.085 C 
ATOM      3  S   UNL     1       3.867   7.214  -5.362  0.00  0.00    -0.114 S 
ATOM      4  C   UNL     1       4.432   5.394  -5.273  0.00  0.00    +0.157 C 
ATOM      5  N   UNL     1       3.429   5.108  -4.168  0.00  0.00    -0.242 N 
ATOM      6  C   UNL     1       2.281   5.114  -5.053  0.00  0.00    +0.253 C 
ATOM      7  O   UNL     1       1.200   4.478  -4.849  0.00  0.00    -0.273 OA
ATOM      8  CA  UNL     1       3.287   4.573  -6.193  0.00  0.00    +0.201 C 
ATOM      9  CA  UNL     1       3.844   5.625  -2.904  0.00  0.00    +0.130 C 
ENDROOT
BRANCH   9  10
ATOM     10  C   UNL     1       3.525   4.734  -1.780  0.00  0.00    +0.401 C 
ATOM     11  OXT UNL     1       2.223   4.899  -1.288  0.00  0.00    -0.239 OA
ATOM     12  O   UNL     1       4.379   4.394  -0.926  0.00  0.00    -0.239 OA
ENDBRANCH   9  10
BRANCH   8  13
ATOM     13  N   UNL     1       3.020   5.740  -7.231  0.00  0.00    -0.190 NA
ATOM     14  C   UNL     1       3.428   5.294  -8.506  0.00  0.00    +0.288 C 
ATOM     15  O   UNL     1       3.252   4.090  -8.865  0.00  0.00    -0.267 OA
BRANCH  14  16
ATOM     16  C   UNL     1       4.097   6.120  -9.520  0.00  0.00    +0.192 C 
ATOM     17  N   UNL     1       3.291   6.498 -10.475  0.00  0.00    -0.077 NA
BRANCH  16  18
ATOM     18  C   UNL     1       5.485   5.812  -9.914  0.00  0.00    +0.115 A 
ATOM     19  N   UNL     1       5.966   6.052 -11.131  0.00  0.00    -0.220 NA
ATOM     20  C   UNL     1       6.991   5.240 -11.458  0.00  0.00    +0.201 A 
ATOM     21  N   UNL     1       7.488   4.908 -12.762  0.00  0.00    -0.100 NA
ATOM     22  S   UNL     1       7.801   5.139  -9.948  0.00  0.00    -0.048 S 
ATOM     23  C   UNL     1       6.508   5.706  -8.974  0.00  0.00    +0.059 A 
ENDBRANCH  16  18
BRANCH  17  24
ATOM     24  O   UNL     1       2.037   5.930 -10.641  0.00  0.00    -0.373 OA
ATOM     25  C   UNL     1       0.843   6.664 -10.476  0.00  0.00    +0.288 C 
ENDBRANCH  17  24
ENDBRANCH  14  16
ENDBRANCH   8  13
BRANCH   1  26
ATOM     26  C   UNL     1       4.592   7.313  -1.325  0.00  0.00    +0.167 C 
BRANCH  26  28
ATOM     27  C   UNL     1       3.014   8.198   0.120  0.00  0.00    +0.175 C 
ATOM     28  O   UNL     1       3.482   8.164  -1.188  0.00  0.00    -0.347 OA
ENDBRANCH  26  28
ENDBRANCH   1  26
TORSDOF 7
ENDMDL
MODEL 6
REMARK VINA RESULT:      -6.4      2.762      3.838
REMARK  Name = 
REMARK  7 active torsions:
REMARK  status: ('A' for Active; 'I' for Inactive)
REMARK    1  A    between atoms: O_2  and  C_3
REMARK    2  A    between atoms: C_3  and  C_4
REMARK    3  A    between atoms: CA_5  and  C_6
REMARK    4  A    between atoms: CA_12  and  N_13
REMARK    5  A    between atoms: C_14  and  C_16
REMARK    6  A    between atoms: C_16  and  C_20
REMARK    7  A    between atoms: N_17  and  O_18
REMARK                            x       y       z     vdW  Elec       q    Type
REMARK                         _______ _______ _______ _____ _____    ______ ____
ROOT
ATOM      1  C   UNL     1       3.595   5.064  -2.899  0.00  0.00    +0.016 C 
ATOM      2  C   UNL     1       4.723   5.382  -3.832  0.00  0.00    +0.085 C 
ATOM      3  S   UNL     1       4.138   5.674  -5.525  0.00  0.00    -0.114 S 
ATOM      4  C   UNL     1       2.523   4.660  -5.562  0.00  0.00    +0.157 C 
ATOM      5  N   UNL     1       1.878   5.600  -4.556  0.00  0.00    -0.242 N 
ATOM      6  C   UNL     1       1.683   6.672  -5.512  0.00  0.00    +0.253 C 
ATOM      7  O   UNL     1       0.775   7.558  -5.439  0.00  0.00    -0.273 OA
ATOM      8  CA  UNL     1       1.537   5.513  -6.626  0.00  0.00    +0.201 C 
ATOM      9  CA  UNL     1       2.349   5.386  -3.227  0.00  0.00    +0.130 C 
ENDROOT
BRANCH   9  10
ATOM     10  C   UNL     1       1.295   5.509  -2.210  0.00  0.00    +0.401 C 
ATOM     11  OXT UNL     1       0.179   4.701  -2.462  0.00  0.00    -0.239 OA
ATOM     12  O   UNL     1       1.051   6.589  -1.620  0.00  0.00    -0.239 OA
ENDBRANCH   9  10
BRANCH   8  13
ATOM     13  N   UNL     1       2.699   6.030  -7.571  0.00  0.00    -0.190 NA
ATOM     14  C   UNL     1       2.115   6.498  -8.767  0.00  0.00    +0.288 C 
ATOM     15  O   UNL     1       1.003   7.109  -8.757  0.00  0.00    -0.267 OA
BRANCH  14  16
ATOM     16  C   UNL     1       2.680   6.325 -10.112  0.00  0.00    +0.192 C 
ATOM     17  N   UNL     1       2.055   5.417 -10.809  0.00  0.00    -0.077 NA
BRANCH  16  18
ATOM     18  C   UNL     1       4.140   6.416 -10.308  0.00  0.00    +0.115 A 
ATOM     19  N   UNL     1       4.781   7.571 -10.476  0.00  0.00    -0.220 NA
ATOM     20  C   UNL     1       5.931   7.436 -11.165  0.00  0.00    +0.201 A 
ATOM     21  N   UNL     1       6.666   8.437 -11.883  0.00  0.00    -0.100 NA
ATOM     22  S   UNL     1       6.493   5.938 -10.542  0.00  0.00    -0.048 S 
ATOM     23  C   UNL     1       5.004   5.413  -9.872  0.00  0.00    +0.059 A 
ENDBRANCH  16  18
BRANCH  17  24
ATOM     24  O   UNL     1       1.161   4.532 -10.225  0.00  0.00    -0.373 OA
ATOM     25  C   UNL     1      -0.101   4.245 -10.789  0.00  0.00    +0.288 C 
ENDBRANCH  17  24
ENDBRANCH  14  16
ENDBRANCH   8  13
BRANCH   1  26
ATOM     26  C   UNL     1       3.999   5.169  -1.457  0.00  0.00    +0.167 C 
BRANCH  26  28
ATOM     27  C   UNL     1       4.376   6.970  -0.050  0.00  0.00    +0.175 C 
ATOM     28  O   UNL     1       4.556   6.454  -1.327  0.00  0.00    -0.347 OA
ENDBRANCH  26  28
ENDBRANCH   1  26
TORSDOF 7
ENDMDL
MODEL 7
REMARK VINA RESULT:      -6.4      4.140      9.124
REMARK  Name = 
REMARK  7 active torsions:
REMARK  status: ('A' for Active; 'I' for Inactive)
REMARK    1  A    between atoms: O_2  and  C_3
REMARK    2  A    between atoms: C_3  and  C_4
REMARK    3  A    between atoms: CA_5  and  C_6
REMARK    4  A    between atoms: CA_12  and  N_13
REMARK    5  A    between atoms: C_14  and  C_16
REMARK    6  A    between atoms: C_16  and  C_20
REMARK    7  A    between atoms: N_17  and  O_18
REMARK                            x       y       z     vdW  Elec       q    Type
REMARK                         _______ _______ _______ _____ _____    ______ ____
ROOT
ATOM      1  C   UNL     1       1.611   5.268 -10.803  0.00  0.00    +0.016 C 
ATOM      2  C   UNL     1       0.187   5.255 -10.340  0.00  0.00    +0.085 C 
ATOM      3  S   UNL     1       0.059   5.469  -8.542  0.00  0.00    -0.114 S 
ATOM      4  C   UNL     1       1.740   4.793  -7.946  0.00  0.00    +0.157 C 
ATOM      5  N   UNL     1       2.471   5.944  -8.616  0.00  0.00    -0.242 N 
ATOM      6  C   UNL     1       2.074   6.923  -7.623  0.00  0.00    +0.253 C 
ATOM      7  O   UNL     1       2.729   7.972  -7.331  0.00  0.00    -0.273 OA
ATOM      8  CA  UNL     1       2.073   5.700  -6.569  0.00  0.00    +0.201 C 
ATOM      9  CA  UNL     1       2.557   5.790 -10.032  0.00  0.00    +0.130 C 
ENDROOT
BRANCH   9  10
ATOM     10  C   UNL     1       3.846   6.227 -10.586  0.00  0.00    +0.401 C 
ATOM     11  OXT UNL     1       4.797   5.201 -10.667  0.00  0.00    -0.239 OA
ATOM     12  O   UNL     1       4.313   7.374 -10.382  0.00  0.00    -0.239 OA
ENDBRANCH   9  10
BRANCH   8  13
ATOM     13  N   UNL     1       0.568   5.873  -6.101  0.00  0.00    -0.190 NA
ATOM     14  C   UNL     1       0.572   6.200  -4.729  0.00  0.00    +0.288 C 
ATOM     15  O   UNL     1       1.466   6.955  -4.238  0.00  0.00    -0.267 OA
BRANCH  14  16
ATOM     16  C   UNL     1      -0.398   5.715  -3.738  0.00  0.00    +0.192 C 
ATOM     17  N   UNL     1      -1.616   5.671  -4.203  0.00  0.00    -0.077 NA
BRANCH  16  18
ATOM     18  C   UNL     1      -0.248   6.097  -2.321  0.00  0.00    +0.115 A 
ATOM     19  N   UNL     1      -1.214   6.685  -1.620  0.00  0.00    -0.220 NA
ATOM     20  C   UNL     1      -0.743   7.428  -0.598  0.00  0.00    +0.201 A 
ATOM     21  N   UNL     1      -1.391   8.498   0.102  0.00  0.00    -0.100 NA
ATOM     22  S   UNL     1       0.562   6.442  -0.075  0.00  0.00    -0.048 S 
ATOM     23  C   UNL     1       0.680   5.476  -1.487  0.00  0.00    +0.059 A 
ENDBRANCH  16  18
BRANCH  17  24
ATOM     24  O   UNL     1      -1.968   6.292  -5.392  0.00  0.00    -0.373 OA
ATOM     25  C   UNL     1      -2.897   5.731  -6.296  0.00  0.00    +0.288 C 
ENDBRANCH  17  24
ENDBRANCH  14  16
ENDBRANCH   8  13
BRANCH   1  26
ATOM     26  C   UNL     1       1.727   5.448 -12.289  0.00  0.00    +0.167 C 
BRANCH  26  28
ATOM     27  C   UNL     1       0.829   4.492 -14.198  0.00  0.00    +0.175 C 
ATOM     28  O   UNL     1       0.676   4.688 -12.831  0.00  0.00    -0.347 OA
ENDBRANCH  26  28
ENDBRANCH   1  26
TORSDOF 7
ENDMDL
MODEL 8
REMARK VINA RESULT:      -6.3      3.328      5.295
REMARK  Name = 
REMARK  7 active torsions:
REMARK  status: ('A' for Active; 'I' for Inactive)
REMARK    1  A    between atoms: O_2  and  C_3
REMARK    2  A    between atoms: C_3  and  C_4
REMARK    3  A    between atoms: CA_5  and  C_6
REMARK    4  A    between atoms: CA_12  and  N_13
REMARK    5  A    between atoms: C_14  and  C_16
REMARK    6  A    between atoms: C_16  and  C_20
REMARK    7  A    between atoms: N_17  and  O_18
REMARK                            x       y       z     vdW  Elec       q    Type
REMARK                         _______ _______ _______ _____ _____    ______ ____
ROOT
ATOM      1  C   UNL     1       3.915   7.004  -2.527  0.00  0.00    +0.016 C 
ATOM      2  C   UNL     1       4.496   7.637  -3.755  0.00  0.00    +0.085 C 
ATOM      3  S   UNL     1       3.783   6.943  -5.273  0.00  0.00    -0.114 S 
ATOM      4  C   UNL     1       3.258   5.202  -4.700  0.00  0.00    +0.157 C 
ATOM      5  N   UNL     1       2.201   5.793  -3.782  0.00  0.00    -0.242 N 
ATOM      6  C   UNL     1       1.294   6.136  -4.860  0.00  0.00    +0.253 C 
ATOM      7  O   UNL     1       0.031   6.229  -4.748  0.00  0.00    -0.273 OA
ATOM      8  CA  UNL     1       1.904   4.861  -5.639  0.00  0.00    +0.201 C 
ATOM      9  CA  UNL     1       2.759   6.356  -2.596  0.00  0.00    +0.130 C 
ENDROOT
BRANCH   9  10
ATOM     10  C   UNL     1       1.943   6.113  -1.398  0.00  0.00    +0.401 C 
ATOM     11  OXT UNL     1       2.237   4.901  -0.759  0.00  0.00    -0.239 OA
ATOM     12  O   UNL     1       0.750   6.488  -1.307  0.00  0.00    -0.239 OA
ENDBRANCH   9  10
BRANCH   8  13
ATOM     13  N   UNL     1       2.377   5.653  -6.928  0.00  0.00    -0.190 NA
ATOM     14  C   UNL     1       1.669   5.146  -8.038  0.00  0.00    +0.288 C 
ATOM     15  O   UNL     1       0.454   4.794  -7.935  0.00  0.00    -0.267 OA
BRANCH  14  16
ATOM     16  C   UNL     1       2.227   4.947  -9.382  0.00  0.00    +0.192 C 
ATOM     17  N   UNL     1       3.511   4.715  -9.366  0.00  0.00    -0.077 NA
BRANCH  16  18
ATOM     18  C   UNL     1       1.717   5.749 -10.511  0.00  0.00    +0.115 A 
ATOM     19  N   UNL     1       0.869   6.763 -10.359  0.00  0.00    -0.220 NA
ATOM     20  C   UNL     1       0.120   6.988 -11.456  0.00  0.00    +0.201 A 
ATOM     21  N   UNL     1      -1.135   7.676 -11.557  0.00  0.00    -0.100 NA
ATOM     22  S   UNL     1       1.277   6.688 -12.689  0.00  0.00    -0.048 S 
ATOM     23  C   UNL     1       2.408   5.840 -11.718  0.00  0.00    +0.059 A 
ENDBRANCH  16  18
BRANCH  17  24
ATOM     24  O   UNL     1       4.280   4.929  -8.232  0.00  0.00    -0.373 OA
ATOM     25  C   UNL     1       5.676   5.127  -8.287  0.00  0.00    +0.288 C 
ENDBRANCH  17  24
ENDBRANCH  14  16
ENDBRANCH   8  13
BRANCH   1  26
ATOM     26  C   UNL     1       4.217   7.789  -1.283  0.00  0.00    +0.167 C 
BRANCH  26  28
ATOM     27  C   UNL     1       3.642   9.832  -0.356  0.00  0.00    +0.175 C 
ATOM     28  O   UNL     1       3.660   9.060  -1.511  0.00  0.00    -0.347 OA
ENDBRANCH  26  28
ENDBRANCH   1  26
TORSDOF 7
ENDMDL
MODEL 9
REMARK VINA RESULT:      -6.2      5.327     10.165
REMARK  Name = 
REMARK  7 active torsions:
REMARK  status: ('A' for Active; 'I' for Inactive)
REMARK    1  A    between atoms: O_2  and  C_3
REMARK    2  A    between atoms: C_3  and  C_4
REMARK    3  A    between atoms: CA_5  and  C_6
REMARK    4  A    between atoms: CA_12  and  N_13
REMARK    5  A    between atoms: C_14  and  C_16
REMARK    6  A    between atoms: C_16  and  C_20
REMARK    7  A    between atoms: N_17  and  O_18
REMARK                            x       y       z     vdW  Elec       q    Type
REMARK                         _______ _______ _______ _____ _____    ______ ____
ROOT
ATOM      1  C   UNL     1       0.860   5.267  -8.536  0.00  0.00    +0.016 C 
ATOM      2  C   UNL     1      -0.431   5.705  -7.916  0.00  0.00    +0.085 C 
ATOM      3  S   UNL     1      -0.337   5.729  -6.104  0.00  0.00    -0.114 S 
ATOM      4  C   UNL     1       1.019   4.431  -5.765  0.00  0.00    +0.157 C 
ATOM      5  N   UNL     1       2.070   5.320  -6.411  0.00  0.00    -0.242 N 
ATOM      6  C   UNL     1       2.133   6.247  -5.298  0.00  0.00    +0.253 C 
ATOM      7  O   UNL     1       3.147   6.951  -4.993  0.00  0.00    -0.273 OA
ATOM      8  CA  UNL     1       1.764   4.986  -4.361  0.00  0.00    +0.201 C 
ATOM      9  CA  UNL     1       1.986   5.319  -7.836  0.00  0.00    +0.130 C 
ENDROOT
BRANCH   9  10
ATOM     10  C   UNL     1       3.300   5.334  -8.494  0.00  0.00    +0.401 C 
ATOM     11  OXT UNL     1       3.757   4.060  -8.857  0.00  0.00    -0.239 OA
ATOM     12  O   UNL     1       4.197   6.157  -8.190  0.00  0.00    -0.239 OA
ENDBRANCH   9  10
BRANCH   8  13
ATOM     13  N   UNL     1       0.467   5.624  -3.711  0.00  0.00    -0.190 NA
ATOM     14  C   UNL     1       0.723   5.834  -2.340  0.00  0.00    +0.288 C 
ATOM     15  O   UNL     1       1.868   6.205  -1.937  0.00  0.00    -0.267 OA
BRANCH  14  16
ATOM     16  C   UNL     1      -0.248   5.637  -1.255  0.00  0.00    +0.192 C 
ATOM     17  N   UNL     1      -1.373   5.123  -1.672  0.00  0.00    -0.077 NA
BRANCH  16  18
ATOM     18  C   UNL     1      -0.340   6.630  -0.168  0.00  0.00    +0.115 A 
ATOM     19  N   UNL     1       0.620   6.811   0.736  0.00  0.00    -0.220 NA
ATOM     20  C   UNL     1       0.156   7.308   1.900  0.00  0.00    +0.201 A 
ATOM     21  N   UNL     1       0.763   7.258   3.199  0.00  0.00    -0.100 NA
ATOM     22  S   UNL     1      -1.037   8.398   1.318  0.00  0.00    -0.048 S 
ATOM     23  C   UNL     1      -1.167   7.748  -0.264  0.00  0.00    +0.059 A 
ENDBRANCH  16  18
BRANCH  17  24
ATOM     24  O   UNL     1      -1.693   5.058  -3.019  0.00  0.00    -0.373 OA
ATOM     25  C   UNL     1      -3.016   5.191  -3.493  0.00  0.00    +0.288 C 
ENDBRANCH  17  24
ENDBRANCH  14  16
ENDBRANCH   8  13
BRANCH   1  26
ATOM     26  C   UNL     1       0.922   5.574 -10.005  0.00  0.00    +0.167 C 
BRANCH  26  28
ATOM     27  C   UNL     1       0.302   4.601 -12.013  0.00  0.00    +0.175 C 
ATOM     28  O   UNL     1       0.408   4.429 -10.638  0.00  0.00    -0.347 OA
ENDBRANCH  26  28
ENDBRANCH   1  26
TORSDOF 7
ENDMDL
