MODEL 1
REMARK VINA RESULT:      -5.7      0.000      0.000
REMARK  Name = 
REMARK  3 active torsions:
REMARK  status: ('A' for Active; 'I' for Inactive)
REMARK    1  A    between atoms: CA_2  and  CB_3
REMARK    2  A    between atoms: CA_2  and  C_10
REMARK    3  A    between atoms: CB_3  and  CG_4
REMARK                            x       y       z     vdW  Elec       q    Type
REMARK                         _______ _______ _______ _____ _____    ______ ____
ROOT
ATOM      1  CB  PHE A   1       3.594   5.745  -9.762  0.00  0.00    +0.057 C 
ENDROOT
BRANCH   1   2
ATOM      2  CG  PHE A   1       5.010   6.069 -10.132  0.00  0.00    -0.020 A 
ATOM      3  CD2 PHE A   1       5.218   7.251 -10.820  0.00  0.00    -0.004 A 
ATOM      4  CE2 PHE A   1       6.489   7.672 -11.158  0.00  0.00    -0.000 A 
ATOM      5  CZ  PHE A   1       7.562   7.172 -10.438  0.00  0.00    -0.000 A 
ATOM      6  CE1 PHE A   1       7.345   6.057  -9.640  0.00  0.00    -0.000 A 
ATOM      7  CD1 PHE A   1       6.065   5.594  -9.363  0.00  0.00    -0.004 A 
ENDBRANCH   1   2
BRANCH   1   9
ATOM      8  N   PHE A   1       2.650   5.003  -7.727  0.00  0.00    -0.120 NA
ATOM      9  CA  PHE A   1       3.499   6.290  -8.179  0.00  0.00    +0.199 C 
BRANCH   9  10
ATOM     10  C   PHE A   1       2.146   7.169  -8.482  0.00  0.00    +0.382 C 
ATOM     11  OXT PHE A   1       2.148   8.407  -7.867  0.00  0.00    -0.244 OA
ATOM     12  O   PHE A   1       1.507   6.851  -9.482  0.00  0.00    -0.244 OA
ENDBRANCH   9  10
ENDBRANCH   1   9
TORSDOF 3
ENDMDL
MODEL 2
REMARK VINA RESULT:      -5.6      3.816      6.801
REMARK  Name = 
REMARK  3 active torsions:
REMARK  status: ('A' for Active; 'I' for Inactive)
REMARK    1  A    between atoms: CA_2  and  CB_3
REMARK    2  A    between atoms: CA_2  and  C_10
REMARK    3  A    between atoms: CB_3  and  CG_4
REMARK                            x       y       z     vdW  Elec       q    Type
REMARK                         _______ _______ _______ _____ _____    ______ ____
ROOT
ATOM      1  CB  PHE A   1       1.395   5.737  -5.835  0.00  0.00    +0.057 C 
ENDROOT
BRANCH   1   2
ATOM      2  CG  PHE A   1      -0.054   6.012  -5.569  0.00  0.00    -0.020 A 
ATOM      3  CD2 PHE A   1      -0.353   7.202  -4.930  0.00  0.00    -0.004 A 
ATOM      4  CE2 PHE A   1      -1.659   7.581  -4.689  0.00  0.00    -0.000 A 
ATOM      5  CZ  PHE A   1      -2.662   7.018  -5.462  0.00  0.00    -0.000 A 
ATOM      6  CE1 PHE A   1      -2.349   5.892  -6.211  0.00  0.00    -0.000 A 
ATOM      7  CD1 PHE A   1      -1.036   5.475  -6.390  0.00  0.00    -0.004 A 
ENDBRANCH   1   2
BRANCH   1   9
ATOM      8  N   PHE A   1       2.775   5.045  -7.624  0.00  0.00    -0.120 NA
ATOM      9  CA  PHE A   1       1.526   6.045  -7.478  0.00  0.00    +0.199 C 
BRANCH   9  10
ATOM     10  C   PHE A   1       2.500   7.344  -7.234  0.00  0.00    +0.382 C 
ATOM     11  OXT PHE A   1       2.114   8.460  -7.953  0.00  0.00    -0.244 OA
ATOM     12  O   PHE A   1       3.168   7.333  -6.203  0.00  0.00    -0.244 OA
ENDBRANCH   9  10
ENDBRANCH   1   9
TORSDOF 3
ENDMDL
MODEL 3
REMARK VINA RESULT:      -5.3      1.737      2.079
REMARK  Name = 
REMARK  3 active torsions:
REMARK  status: ('A' for Active; 'I' for Inactive)
REMARK    1  A    between atoms: CA_2  and  CB_3
REMARK    2  A    between atoms: CA_2  and  C_10
REMARK    3  A    between atoms: CB_3  and  CG_4
REMARK                            x       y       z     vdW  Elec       q    Type
REMARK                         _______ _______ _______ _____ _____    ______ ____
ROOT
ATOM      1  CB  PHE A   1       3.567   6.620  -9.659  0.00  0.00    +0.057 C 
ENDROOT
BRANCH   1   2
ATOM      2  CG  PHE A   1       4.990   6.495 -10.112  0.00  0.00    -0.020 A 
ATOM      3  CD2 PHE A   1       5.499   7.543 -10.859  0.00  0.00    -0.004 A 
ATOM      4  CE2 PHE A   1       6.815   7.556 -11.277  0.00  0.00    -0.000 A 
ATOM      5  CZ  PHE A   1       7.731   6.774 -10.592  0.00  0.00    -0.000 A 
ATOM      6  CE1 PHE A   1       7.240   5.795  -9.739  0.00  0.00    -0.000 A 
ATOM      7  CD1 PHE A   1       5.899   5.745  -9.379  0.00  0.00    -0.004 A 
ENDBRANCH   1   2
BRANCH   1   9
ATOM      8  N   PHE A   1       1.482   6.242 -10.706  0.00  0.00    -0.120 NA
ATOM      9  CA  PHE A   1       2.813   5.370 -10.485  0.00  0.00    +0.199 C 
BRANCH   9  10
ATOM     10  C   PHE A   1       2.235   4.702  -9.101  0.00  0.00    +0.382 C 
ATOM     11  OXT PHE A   1       0.957   5.123  -8.782  0.00  0.00    -0.244 OA
ATOM     12  O   PHE A   1       2.774   3.660  -8.737  0.00  0.00    -0.244 OA
ENDBRANCH   9  10
ENDBRANCH   1   9
TORSDOF 3
ENDMDL
MODEL 4
REMARK VINA RESULT:      -5.3      3.691      6.749
REMARK  Name = 
REMARK  3 active torsions:
REMARK  status: ('A' for Active; 'I' for Inactive)
REMARK    1  A    between atoms: CA_2  and  CB_3
REMARK    2  A    between atoms: CA_2  and  C_10
REMARK    3  A    between atoms: CB_3  and  CG_4
REMARK                            x       y       z     vdW  Elec       q    Type
REMARK                         _______ _______ _______ _____ _____    ______ ____
ROOT
ATOM      1  CB  PHE A   1       1.149   6.040  -7.458  0.00  0.00    +0.057 C 
ENDROOT
BRANCH   1   2
ATOM      2  CG  PHE A   1      -0.048   5.963  -6.559  0.00  0.00    -0.020 A 
ATOM      3  CD2 PHE A   1      -0.125   6.901  -5.546  0.00  0.00    -0.004 A 
ATOM      4  CE2 PHE A   1      -1.213   6.956  -4.697  0.00  0.00    -0.000 A 
ATOM      5  CZ  PHE A   1      -2.407   6.394  -5.119  0.00  0.00    -0.000 A 
ATOM      6  CE1 PHE A   1      -2.371   5.544  -6.216  0.00  0.00    -0.000 A 
ATOM      7  CD1 PHE A   1      -1.247   5.439  -7.024  0.00  0.00    -0.004 A 
ENDBRANCH   1   2
BRANCH   1   9
ATOM      8  N   PHE A   1       2.206   8.110  -7.879  0.00  0.00    -0.120 NA
ATOM      9  CA  PHE A   1       2.155   7.097  -6.633  0.00  0.00    +0.199 C 
BRANCH   9  10
ATOM     10  C   PHE A   1       3.510   6.310  -7.122  0.00  0.00    +0.382 C 
ATOM     11  OXT PHE A   1       3.720   6.376  -8.486  0.00  0.00    -0.244 OA
ATOM     12  O   PHE A   1       4.363   6.116  -6.259  0.00  0.00    -0.244 OA
ENDBRANCH   9  10
ENDBRANCH   1   9
TORSDOF 3
ENDMDL
MODEL 5
REMARK VINA RESULT:      -5.1      5.359      6.964
REMARK  Name = 
REMARK  3 active torsions:
REMARK  status: ('A' for Active; 'I' for Inactive)
REMARK    1  A    between atoms: CA_2  and  CB_3
REMARK    2  A    between atoms: CA_2  and  C_10
REMARK    3  A    between atoms: CB_3  and  CG_4
REMARK                            x       y       z     vdW  Elec       q    Type
REMARK                         _______ _______ _______ _____ _____    ______ ____
ROOT
ATOM      1  CB  PHE A   1      -0.193   6.434  -4.415  0.00  0.00    +0.057 C 
ENDROOT
BRANCH   1   2
ATOM      2  CG  PHE A   1       0.047   6.432  -5.895  0.00  0.00    -0.020 A 
ATOM      3  CD2 PHE A   1       1.283   6.881  -6.324  0.00  0.00    -0.004 A 
ATOM      4  CE2 PHE A   1       1.628   6.868  -7.661  0.00  0.00    -0.000 A 
ATOM      5  CZ  PHE A   1       0.946   6.010  -8.509  0.00  0.00    -0.000 A 
ATOM      6  CE1 PHE A   1      -0.237   5.448  -8.049  0.00  0.00    -0.000 A 
ATOM      7  CD1 PHE A   1      -0.614   5.528  -6.715  0.00  0.00    -0.004 A 
ENDBRANCH   1   2
BRANCH   1   9
ATOM      8  N   PHE A   1      -2.247   7.395  -3.752  0.00  0.00    -0.120 NA
ATOM      9  CA  PHE A   1      -1.797   5.956  -4.308  0.00  0.00    +0.199 C 
BRANCH   9  10
ATOM     10  C   PHE A   1      -1.596   5.353  -2.795  0.00  0.00    +0.382 C 
ATOM     11  OXT PHE A   1      -2.767   4.879  -2.233  0.00  0.00    -0.244 OA
ATOM     12  O   PHE A   1      -0.453   5.016  -2.495  0.00  0.00    -0.244 OA
ENDBRANCH   9  10
ENDBRANCH   1   9
TORSDOF 3
ENDMDL
MODEL 6
REMARK VINA RESULT:      -4.9      4.198      6.911
REMARK  Name = 
REMARK  3 active torsions:
REMARK  status: ('A' for Active; 'I' for Inactive)
REMARK    1  A    between atoms: CA_2  and  CB_3
REMARK    2  A    between atoms: CA_2  and  C_10
REMARK    3  A    between atoms: CB_3  and  CG_4
REMARK                            x       y       z     vdW  Elec       q    Type
REMARK                         _______ _______ _______ _____ _____    ______ ____
ROOT
ATOM      1  CB  PHE A   1      -0.175   5.434  -8.206  0.00  0.00    +0.057 C 
ENDROOT
BRANCH   1   2
ATOM      2  CG  PHE A   1      -0.711   5.340  -6.809  0.00  0.00    -0.020 A 
ATOM      3  CD2 PHE A   1       0.190   5.554  -5.782  0.00  0.00    -0.004 A 
ATOM      4  CE2 PHE A   1      -0.211   5.548  -4.460  0.00  0.00    -0.000 A 
ATOM      5  CZ  PHE A   1      -1.548   5.778  -4.177  0.00  0.00    -0.000 A 
ATOM      6  CE1 PHE A   1      -2.458   5.691  -5.222  0.00  0.00    -0.000 A 
ATOM      7  CD1 PHE A   1      -2.045   5.624  -6.547  0.00  0.00    -0.004 A 
ENDBRANCH   1   2
BRANCH   1   9
ATOM      8  N   PHE A   1       1.543   6.806  -9.070  0.00  0.00    -0.120 NA
ATOM      9  CA  PHE A   1       1.467   5.658  -7.949  0.00  0.00    +0.199 C 
BRANCH   9  10
ATOM     10  C   PHE A   1       1.873   4.482  -9.019  0.00  0.00    +0.382 C 
ATOM     11  OXT PHE A   1       1.142   4.531 -10.191  0.00  0.00    -0.244 OA
ATOM     12  O   PHE A   1       2.983   3.975  -8.870  0.00  0.00    -0.244 OA
ENDBRANCH   9  10
ENDBRANCH   1   9
TORSDOF 3
ENDMDL
MODEL 7
REMARK VINA RESULT:      -4.9      5.162      7.141
REMARK  Name = 
REMARK  3 active torsions:
REMARK  status: ('A' for Active; 'I' for Inactive)
REMARK    1  A    between atoms: CA_2  and  CB_3
REMARK    2  A    between atoms: CA_2  and  C_10
REMARK    3  A    between atoms: CB_3  and  CG_4
REMARK                            x       y       z     vdW  Elec       q    Type
REMARK                         _______ _______ _______ _____ _____    ______ ____
ROOT
ATOM      1  CB  PHE A   1       1.653   6.651  -5.599  0.00  0.00    +0.057 C 
ENDROOT
BRANCH   1   2
ATOM      2  CG  PHE A   1       0.189   6.330  -5.595  0.00  0.00    -0.020 A 
ATOM      3  CD2 PHE A   1      -0.651   7.265  -5.019  0.00  0.00    -0.004 A 
ATOM      4  CE2 PHE A   1      -2.022   7.095  -5.014  0.00  0.00    -0.000 A 
ATOM      5  CZ  PHE A   1      -2.584   6.247  -5.954  0.00  0.00    -0.000 A 
ATOM      6  CE1 PHE A   1      -1.738   5.383  -6.637  0.00  0.00    -0.000 A 
ATOM      7  CD1 PHE A   1      -0.356   5.516  -6.580  0.00  0.00    -0.004 A 
ENDBRANCH   1   2
BRANCH   1   9
ATOM      8  N   PHE A   1       3.034   7.014  -3.716  0.00  0.00    -0.120 NA
ATOM      9  CA  PHE A   1       2.224   5.756  -4.301  0.00  0.00    +0.199 C 
BRANCH   9  10
ATOM     10  C   PHE A   1       3.524   5.217  -5.146  0.00  0.00    +0.382 C 
ATOM     11  OXT PHE A   1       4.537   4.732  -4.341  0.00  0.00    -0.244 OA
ATOM     12  O   PHE A   1       3.320   4.925  -6.322  0.00  0.00    -0.244 OA
ENDBRANCH   9  10
ENDBRANCH   1   9
TORSDOF 3
ENDMDL
MODEL 8
REMARK VINA RESULT:      -4.9      9.026     10.356
REMARK  Name = 
REMARK  3 active torsions:
REMARK  status: ('A' for Active; 'I' for Inactive)
REMARK    1  A    between atoms: CA_2  and  CB_3
REMARK    2  A    between atoms: CA_2  and  C_10
REMARK    3  A    between atoms: CB_3  and  CG_4
REMARK                            x       y       z     vdW  Elec       q    Type
REMARK                         _______ _______ _______ _____ _____    ______ ____
ROOT
ATOM      1  CB  PHE A   1      -2.795   6.792  -1.242  0.00  0.00    +0.057 C 
ENDROOT
BRANCH   1   2
ATOM      2  CG  PHE A   1      -2.784   6.741  -2.740  0.00  0.00    -0.020 A 
ATOM      3  CD2 PHE A   1      -2.063   7.726  -3.391  0.00  0.00    -0.004 A 
ATOM      4  CE2 PHE A   1      -1.941   7.737  -4.766  0.00  0.00    -0.000 A 
ATOM      5  CZ  PHE A   1      -2.142   6.552  -5.456  0.00  0.00    -0.000 A 
ATOM      6  CE1 PHE A   1      -2.754   5.505  -4.781  0.00  0.00    -0.000 A 
ATOM      7  CD1 PHE A   1      -2.940   5.531  -3.404  0.00  0.00    -0.004 A 
ENDBRANCH   1   2
BRANCH   1   9
ATOM      8  N   PHE A   1      -0.688   6.206  -0.346  0.00  0.00    -0.120 NA
ATOM      9  CA  PHE A   1      -1.346   7.565  -0.897  0.00  0.00    +0.199 C 
BRANCH   9  10
ATOM     10  C   PHE A   1      -1.854   8.012   0.599  0.00  0.00    +0.382 C 
ATOM     11  OXT PHE A   1      -1.998   6.948   1.470  0.00  0.00    -0.244 OA
ATOM     12  O   PHE A   1      -1.665   9.187   0.905  0.00  0.00    -0.244 OA
ENDBRANCH   9  10
ENDBRANCH   1   9
TORSDOF 3
ENDMDL
MODEL 9
REMARK VINA RESULT:      -4.7      6.018      7.323
REMARK  Name = 
REMARK  3 active torsions:
REMARK  status: ('A' for Active; 'I' for Inactive)
REMARK    1  A    between atoms: CA_2  and  CB_3
REMARK    2  A    between atoms: CA_2  and  C_10
REMARK    3  A    between atoms: CB_3  and  CG_4
REMARK                            x       y       z     vdW  Elec       q    Type
REMARK                         _______ _______ _______ _____ _____    ______ ____
ROOT
ATOM      1  CB  PHE A   1       1.565   5.227  -4.610  0.00  0.00    +0.057 C 
ENDROOT
BRANCH   1   2
ATOM      2  CG  PHE A   1       0.187   5.193  -5.199  0.00  0.00    -0.020 A 
ATOM      3  CD2 PHE A   1      -0.822   5.776  -4.453  0.00  0.00    -0.004 A 
ATOM      4  CE2 PHE A   1      -2.117   5.850  -4.928  0.00  0.00    -0.000 A 
ATOM      5  CZ  PHE A   1      -2.323   5.760  -6.295  0.00  0.00    -0.000 A 
ATOM      6  CE1 PHE A   1      -1.277   5.294  -7.080  0.00  0.00    -0.000 A 
ATOM      7  CD1 PHE A   1       0.009   5.153  -6.575  0.00  0.00    -0.004 A 
ENDBRANCH   1   2
BRANCH   1   9
ATOM      8  N   PHE A   1       3.330   6.508  -5.519  0.00  0.00    -0.120 NA
ATOM      9  CA  PHE A   1       1.971   6.850  -4.734  0.00  0.00    +0.199 C 
BRANCH   9  10
ATOM     10  C   PHE A   1       2.726   6.851  -3.276  0.00  0.00    +0.382 C 
ATOM     11  OXT PHE A   1       3.598   7.911  -3.112  0.00  0.00    -0.244 OA
ATOM     12  O   PHE A   1       2.177   6.210  -2.383  0.00  0.00    -0.244 OA
ENDBRANCH   9  10
ENDBRANCH   1   9
TORSDOF 3
ENDMDL
