MODEL 1
REMARK VINA RESULT:      -8.8      0.000      0.000
REMARK  Name = 
REMARK  11 active torsions:
REMARK  status: ('A' for Active; 'I' for Inactive)
REMARK    1  A    between atoms: C_2  and  O_4
REMARK    2  A    between atoms: O_4  and  C_5
REMARK    3  A    between atoms: C_5  and  C_7
REMARK    4  A    between atoms: C_7  and  N_9
REMARK    5  A    between atoms: N_9  and  P_10
REMARK    6  A    between atoms: P_10  and  O_12
REMARK    7  A    between atoms: P_10  and  O_30
REMARK    8  A    between atoms: O_12  and  C_13
REMARK    9  A    between atoms: C_13  and  C_14
REMARK   10  A    between atoms: C_16  and  N_17
REMARK   11  A    between atoms: O_30  and  C_31
REMARK                            x       y       z     vdW  Elec       q    Type
REMARK                         _______ _______ _______ _____ _____    ______ ____
ROOT
ATOM      1  P   UNL     1       2.896   6.781  -6.499  0.00  0.00    +0.480 P 
ATOM      2  O   UNL     1       2.151   7.937  -7.155  0.00  0.00    -0.227 OA
ENDROOT
BRANCH   1   3
ATOM      3  N   UNL     1       3.841   5.908  -7.682  0.00  0.00    -0.101 NA
BRANCH   3   4
ATOM      4  C   UNL     1       3.137   6.340  -9.026  0.00  0.00    +0.183 C 
ATOM      5  C   UNL     1       4.455   5.946  -9.931  0.00  0.00    +0.031 C 
BRANCH   4   6
ATOM      6  C   UNL     1       2.446   4.899  -9.248  0.00  0.00    +0.333 C 
ATOM      7  O   UNL     1       3.060   3.901  -8.918  0.00  0.00    -0.249 OA
BRANCH   6   8
ATOM      8  O   UNL     1       1.732   4.977 -10.445  0.00  0.00    -0.451 OA
BRANCH   8  10
ATOM      9  C   UNL     1       0.063   4.612 -10.551  0.00  0.00    +0.047 C 
ATOM     10  C   UNL     1       0.311   5.066 -10.340  0.00  0.00    +0.169 C 
ATOM     11  C   UNL     1      -0.071   6.456 -10.841  0.00  0.00    +0.047 C 
ENDBRANCH   8  10
ENDBRANCH   6   8
ENDBRANCH   4   6
ENDBRANCH   3   4
ENDBRANCH   1   3
BRANCH   1  12
ATOM     12  O   UNL     1       3.872   7.514  -5.323  0.00  0.00    -0.270 OA
BRANCH  12  13
ATOM     13  C   UNL     1       3.960   6.685  -4.270  0.00  0.00    +0.186 C 
BRANCH  13  14
ATOM     14  C   UNL     1       3.170   7.343  -2.994  0.00  0.00    +0.180 C 
ATOM     15  C   UNL     1       4.434   6.771  -1.976  0.00  0.00    +0.215 C 
ATOM     16  O   UNL     1       4.491   8.124  -1.301  0.00  0.00    -0.217 OA
ATOM     17  C   UNL     1       3.441   6.080  -0.870  0.00  0.00    +0.209 C 
ATOM     18  F   UNL     1       3.977   6.520   0.210  0.00  0.00    -0.233 F 
ATOM     19  C   UNL     1       3.359   4.673  -1.183  0.00  0.00    +0.043 C 
ATOM     20  C   UNL     1       2.090   6.858  -1.359  0.00  0.00    +0.241 C 
ATOM     21  O   UNL     1       2.287   6.146  -2.718  0.00  0.00    -0.331 OA
BRANCH  20  22
ATOM     22  N   UNL     1       1.038   5.782  -0.811  0.00  0.00    -0.253 N 
ATOM     23  C   UNL     1       0.272   6.361   0.143  0.00  0.00    +0.355 A 
ATOM     24  O   UNL     1       0.727   6.945   1.124  0.00  0.00    -0.244 OA
ATOM     25  N   UNL     1      -1.083   6.377   0.138  0.00  0.00    -0.153 NA
ATOM     26  C   UNL     1      -1.739   6.282  -1.042  0.00  0.00    +0.285 A 
ATOM     27  O   UNL     1      -2.738   6.988  -1.323  0.00  0.00    -0.265 OA
ATOM     28  C   UNL     1      -1.090   5.445  -1.926  0.00  0.00    +0.081 A 
ATOM     29  C   UNL     1       0.291   5.350  -1.861  0.00  0.00    +0.087 A 
ENDBRANCH  20  22
ENDBRANCH  13  14
ENDBRANCH  12  13
ENDBRANCH   1  12
BRANCH   1  30
ATOM     30  O   UNL     1       1.795   5.678  -5.818  0.00  0.00    -0.411 OA
BRANCH  30  31
ATOM     31  C   UNL     1       0.427   5.940  -5.927  0.00  0.00    +0.148 A 
ATOM     32  C   UNL     1      -0.164   6.857  -5.087  0.00  0.00    +0.037 A 
ATOM     33  C   UNL     1      -1.529   7.042  -5.193  0.00  0.00    +0.003 A 
ATOM     34  C   UNL     1      -2.260   6.272  -6.073  0.00  0.00    +0.000 A 
ATOM     35  C   UNL     1      -1.624   5.362  -6.907  0.00  0.00    +0.003 A 
ATOM     36  C   UNL     1      -0.331   4.973  -6.577  0.00  0.00    +0.037 A 
ENDBRANCH  30  31
ENDBRANCH   1  30
TORSDOF 11
ENDMDL
MODEL 2
REMARK VINA RESULT:      -8.6      1.668      2.471
REMARK  Name = 
REMARK  11 active torsions:
REMARK  status: ('A' for Active; 'I' for Inactive)
REMARK    1  A    between atoms: C_2  and  O_4
REMARK    2  A    between atoms: O_4  and  C_5
REMARK    3  A    between atoms: C_5  and  C_7
REMARK    4  A    between atoms: C_7  and  N_9
REMARK    5  A    between atoms: N_9  and  P_10
REMARK    6  A    between atoms: P_10  and  O_12
REMARK    7  A    between atoms: P_10  and  O_30
REMARK    8  A    between atoms: O_12  and  C_13
REMARK    9  A    between atoms: C_13  and  C_14
REMARK   10  A    between atoms: C_16  and  N_17
REMARK   11  A    between atoms: O_30  and  C_31
REMARK                            x       y       z     vdW  Elec       q    Type
REMARK                         _______ _______ _______ _____ _____    ______ ____
ROOT
ATOM      1  P   UNL     1       2.285   6.757  -7.358  0.00  0.00    +0.480 P 
ATOM      2  O   UNL     1       1.684   8.156  -7.404  0.00  0.00    -0.227 OA
ENDROOT
BRANCH   1   3
ATOM      3  N   UNL     1       2.562   6.151  -8.974  0.00  0.00    -0.101 NA
BRANCH   3   4
ATOM      4  C   UNL     1       4.124   6.322  -9.109  0.00  0.00    +0.183 C 
ATOM      5  C   UNL     1       4.358   4.706  -9.315  0.00  0.00    +0.031 C 
BRANCH   4   6
ATOM      6  C   UNL     1       4.060   6.603 -10.696  0.00  0.00    +0.333 C 
ATOM      7  O   UNL     1       3.075   6.241 -11.313  0.00  0.00    -0.249 OA
BRANCH   6   8
ATOM      8  O   UNL     1       5.355   6.430 -11.186  0.00  0.00    -0.451 OA
BRANCH   8  10
ATOM      9  C   UNL     1       6.275   7.849 -11.453  0.00  0.00    +0.047 C 
ATOM     10  C   UNL     1       6.262   7.517 -11.003  0.00  0.00    +0.169 C 
ATOM     11  C   UNL     1       7.550   6.915 -10.450  0.00  0.00    +0.047 C 
ENDBRANCH   8  10
ENDBRANCH   6   8
ENDBRANCH   4   6
ENDBRANCH   3   4
ENDBRANCH   1   3
BRANCH   1  12
ATOM     12  O   UNL     1       3.732   6.941  -6.493  0.00  0.00    -0.270 OA
BRANCH  12  13
ATOM     13  C   UNL     1       3.688   6.137  -5.419  0.00  0.00    +0.186 C 
BRANCH  13  14
ATOM     14  C   UNL     1       3.188   6.997  -4.117  0.00  0.00    +0.180 C 
ATOM     15  C   UNL     1       4.675   6.602  -3.344  0.00  0.00    +0.215 C 
ATOM     16  O   UNL     1       4.834   8.049  -2.929  0.00  0.00    -0.217 OA
ATOM     17  C   UNL     1       3.991   6.105  -1.940  0.00  0.00    +0.209 C 
ATOM     18  F   UNL     1       4.744   6.718  -1.101  0.00  0.00    -0.233 F 
ATOM     19  C   UNL     1       3.894   4.665  -1.994  0.00  0.00    +0.043 C 
ATOM     20  C   UNL     1       2.535   6.791  -2.218  0.00  0.00    +0.241 C 
ATOM     21  O   UNL     1       2.440   5.863  -3.452  0.00  0.00    -0.331 OA
BRANCH  20  22
ATOM     22  N   UNL     1       1.680   5.821  -1.274  0.00  0.00    -0.253 N 
ATOM     23  C   UNL     1       1.267   6.516  -0.187  0.00  0.00    +0.355 A 
ATOM     24  O   UNL     1       2.021   7.152   0.545  0.00  0.00    -0.244 OA
ATOM     25  N   UNL     1      -0.020   6.604   0.226  0.00  0.00    -0.153 NA
ATOM     26  C   UNL     1      -1.016   6.449  -0.679  0.00  0.00    +0.285 A 
ATOM     27  O   UNL     1      -2.034   7.182  -0.701  0.00  0.00    -0.265 OA
ATOM     28  C   UNL     1      -0.698   5.510  -1.637  0.00  0.00    +0.081 A 
ATOM     29  C   UNL     1       0.631   5.346  -1.995  0.00  0.00    +0.087 A 
ENDBRANCH  20  22
ENDBRANCH  13  14
ENDBRANCH  12  13
ENDBRANCH   1  12
BRANCH   1  30
ATOM     30  O   UNL     1       1.216   5.679  -6.590  0.00  0.00    -0.411 OA
BRANCH  30  31
ATOM     31  C   UNL     1      -0.045   6.142  -6.209  0.00  0.00    +0.148 A 
ATOM     32  C   UNL     1      -0.160   7.054  -5.185  0.00  0.00    +0.037 A 
ATOM     33  C   UNL     1      -1.431   7.440  -4.804  0.00  0.00    +0.003 A 
ATOM     34  C   UNL     1      -2.532   6.864  -5.402  0.00  0.00    +0.000 A 
ATOM     35  C   UNL     1      -2.372   5.952  -6.437  0.00  0.00    +0.003 A 
ATOM     36  C   UNL     1      -1.127   5.355  -6.590  0.00  0.00    +0.037 A 
ENDBRANCH  30  31
ENDBRANCH   1  30
TORSDOF 11
ENDMDL
MODEL 3
REMARK VINA RESULT:      -8.6      1.945      4.528
REMARK  Name = 
REMARK  11 active torsions:
REMARK  status: ('A' for Active; 'I' for Inactive)
REMARK    1  A    between atoms: C_2  and  O_4
REMARK    2  A    between atoms: O_4  and  C_5
REMARK    3  A    between atoms: C_5  and  C_7
REMARK    4  A    between atoms: C_7  and  N_9
REMARK    5  A    between atoms: N_9  and  P_10
REMARK    6  A    between atoms: P_10  and  O_12
REMARK    7  A    between atoms: P_10  and  O_30
REMARK    8  A    between atoms: O_12  and  C_13
REMARK    9  A    between atoms: C_13  and  C_14
REMARK   10  A    between atoms: C_16  and  N_17
REMARK   11  A    between atoms: O_30  and  C_31
REMARK                            x       y       z     vdW  Elec       q    Type
REMARK                         _______ _______ _______ _____ _____    ______ ____
ROOT
ATOM      1  P   UNL     1       3.286   5.170  -8.964  0.00  0.00    +0.480 P 
ATOM      2  O   UNL     1       2.815   3.987  -8.129  0.00  0.00    -0.227 OA
ENDROOT
BRANCH   1   3
ATOM      3  N   UNL     1       2.169   5.485 -10.272  0.00  0.00    -0.101 NA
BRANCH   3   4
ATOM      4  C   UNL     1       1.158   6.483  -9.585  0.00  0.00    +0.183 C 
ATOM      5  C   UNL     1       0.382   6.790 -11.004  0.00  0.00    +0.031 C 
BRANCH   4   6
ATOM      6  C   UNL     1       0.125   5.315  -9.174  0.00  0.00    +0.333 C 
ATOM      7  O   UNL     1      -0.246   4.535 -10.031  0.00  0.00    -0.249 OA
BRANCH   6   8
ATOM      8  O   UNL     1      -0.748   5.865  -8.234  0.00  0.00    -0.451 OA
BRANCH   8  10
ATOM      9  C   UNL     1      -0.194   5.086  -6.814  0.00  0.00    +0.047 C 
ATOM     10  C   UNL     1      -0.496   5.554  -6.864  0.00  0.00    +0.169 C 
ATOM     11  C   UNL     1      -1.833   5.689  -6.140  0.00  0.00    +0.047 C 
ENDBRANCH   8  10
ENDBRANCH   6   8
ENDBRANCH   4   6
ENDBRANCH   3   4
ENDBRANCH   1   3
BRANCH   1  12
ATOM     12  O   UNL     1       3.363   6.463  -7.870  0.00  0.00    -0.270 OA
BRANCH  12  13
ATOM     13  C   UNL     1       3.892   6.014  -6.721  0.00  0.00    +0.186 C 
BRANCH  13  14
ATOM     14  C   UNL     1       3.328   6.916  -5.474  0.00  0.00    +0.180 C 
ATOM     15  C   UNL     1       4.852   6.715  -4.700  0.00  0.00    +0.215 C 
ATOM     16  O   UNL     1       4.881   8.196  -4.392  0.00  0.00    -0.217 OA
ATOM     17  C   UNL     1       4.231   6.259  -3.254  0.00  0.00    +0.209 C 
ATOM     18  F   UNL     1       4.933   6.997  -2.472  0.00  0.00    -0.233 F 
ATOM     19  C   UNL     1       4.266   4.817  -3.204  0.00  0.00    +0.043 C 
ATOM     20  C   UNL     1       2.715   6.788  -3.556  0.00  0.00    +0.241 C 
ATOM     21  O   UNL     1       2.694   5.769  -4.719  0.00  0.00    -0.331 OA
BRANCH  20  22
ATOM     22  N   UNL     1       1.963   5.815  -2.531  0.00  0.00    -0.253 N 
ATOM     23  C   UNL     1       1.607   6.522  -1.432  0.00  0.00    +0.355 A 
ATOM     24  O   UNL     1       2.390   7.198  -0.770  0.00  0.00    -0.244 OA
ATOM     25  N   UNL     1       0.350   6.580  -0.928  0.00  0.00    -0.153 NA
ATOM     26  C   UNL     1      -0.702   6.373  -1.755  0.00  0.00    +0.285 A 
ATOM     27  O   UNL     1      -1.743   7.074  -1.718  0.00  0.00    -0.265 OA
ATOM     28  C   UNL     1      -0.424   5.422  -2.714  0.00  0.00    +0.081 A 
ATOM     29  C   UNL     1       0.880   5.291  -3.164  0.00  0.00    +0.087 A 
ENDBRANCH  20  22
ENDBRANCH  13  14
ENDBRANCH  12  13
ENDBRANCH   1  12
BRANCH   1  30
ATOM     30  O   UNL     1       4.800   4.834  -9.663  0.00  0.00    -0.411 OA
BRANCH  30  31
ATOM     31  C   UNL     1       5.620   5.902 -10.035  0.00  0.00    +0.148 A 
ATOM     32  C   UNL     1       5.129   6.890 -10.858  0.00  0.00    +0.037 A 
ATOM     33  C   UNL     1       5.992   7.896 -11.246  0.00  0.00    +0.003 A 
ATOM     34  C   UNL     1       7.315   7.852 -10.860  0.00  0.00    +0.000 A 
ATOM     35  C   UNL     1       7.770   6.841 -10.022  0.00  0.00    +0.003 A 
ATOM     36  C   UNL     1       6.989   5.698  -9.902  0.00  0.00    +0.037 A 
ENDBRANCH  30  31
ENDBRANCH   1  30
TORSDOF 11
ENDMDL
MODEL 4
REMARK VINA RESULT:      -8.6      2.474      5.419
REMARK  Name = 
REMARK  11 active torsions:
REMARK  status: ('A' for Active; 'I' for Inactive)
REMARK    1  A    between atoms: C_2  and  O_4
REMARK    2  A    between atoms: O_4  and  C_5
REMARK    3  A    between atoms: C_5  and  C_7
REMARK    4  A    between atoms: C_7  and  N_9
REMARK    5  A    between atoms: N_9  and  P_10
REMARK    6  A    between atoms: P_10  and  O_12
REMARK    7  A    between atoms: P_10  and  O_30
REMARK    8  A    between atoms: O_12  and  C_13
REMARK    9  A    between atoms: C_13  and  C_14
REMARK   10  A    between atoms: C_16  and  N_17
REMARK   11  A    between atoms: O_30  and  C_31
REMARK                            x       y       z     vdW  Elec       q    Type
REMARK                         _______ _______ _______ _____ _____    ______ ____
ROOT
ATOM      1  P   UNL     1       3.434   5.078  -9.292  0.00  0.00    +0.480 P 
ATOM      2  O   UNL     1       3.009   3.692  -8.825  0.00  0.00    -0.227 OA
ENDROOT
BRANCH   1   3
ATOM      3  N   UNL     1       2.061   5.969  -9.907  0.00  0.00    -0.101 NA
BRANCH   3   4
ATOM      4  C   UNL     1       1.023   4.807 -10.161  0.00  0.00    +0.183 C 
ATOM      5  C   UNL     1      -0.119   5.521  -9.214  0.00  0.00    +0.031 C 
BRANCH   4   6
ATOM      6  C   UNL     1       0.448   5.477 -11.511  0.00  0.00    +0.333 C 
ATOM      7  O   UNL     1      -0.483   6.256 -11.424  0.00  0.00    -0.249 OA
BRANCH   6   8
ATOM      8  O   UNL     1       0.514   4.498 -12.503  0.00  0.00    -0.451 OA
BRANCH   8  10
ATOM      9  C   UNL     1       0.867   4.540 -14.178  0.00  0.00    +0.047 C 
ATOM     10  C   UNL     1       1.000   4.911 -13.781  0.00  0.00    +0.169 C 
ATOM     11  C   UNL     1       2.452   5.332 -13.573  0.00  0.00    +0.047 C 
ENDBRANCH   8  10
ENDBRANCH   6   8
ENDBRANCH   4   6
ENDBRANCH   3   4
ENDBRANCH   1   3
BRANCH   1  12
ATOM     12  O   UNL     1       4.098   5.809  -7.915  0.00  0.00    -0.270 OA
BRANCH  12  13
ATOM     13  C   UNL     1       3.095   6.301  -7.170  0.00  0.00    +0.186 C 
BRANCH  13  14
ATOM     14  C   UNL     1       2.928   5.391  -5.817  0.00  0.00    +0.180 C 
ATOM     15  C   UNL     1       1.245   5.277  -6.158  0.00  0.00    +0.215 C 
ATOM     16  O   UNL     1       1.301   3.789  -5.891  0.00  0.00    -0.217 OA
ATOM     17  C   UNL     1       0.754   5.694  -4.651  0.00  0.00    +0.209 C 
ATOM     18  F   UNL     1      -0.131   4.787  -4.450  0.00  0.00    -0.233 F 
ATOM     19  C   UNL     1       0.436   7.102  -4.675  0.00  0.00    +0.043 C 
ATOM     20  C   UNL     1       2.200   5.443  -3.935  0.00  0.00    +0.241 C 
ATOM     21  O   UNL     1       2.746   6.552  -4.865  0.00  0.00    -0.331 OA
BRANCH  20  22
ATOM     22  N   UNL     1       1.975   6.428  -2.693  0.00  0.00    -0.253 N 
ATOM     23  C   UNL     1       1.806   5.690  -1.570  0.00  0.00    +0.355 A 
ATOM     24  O   UNL     1       0.978   4.788  -1.463  0.00  0.00    -0.244 OA
ATOM     25  N   UNL     1       2.523   5.845  -0.431  0.00  0.00    -0.153 NA
ATOM     26  C   UNL     1       3.770   6.368  -0.503  0.00  0.00    +0.285 A 
ATOM     27  O   UNL     1       4.739   5.909   0.148  0.00  0.00    -0.265 OA
ATOM     28  C   UNL     1       3.863   7.344  -1.474  0.00  0.00    +0.081 A 
ATOM     29  C   UNL     1       3.059   7.243  -2.599  0.00  0.00    +0.087 A 
ENDBRANCH  20  22
ENDBRANCH  13  14
ENDBRANCH  12  13
ENDBRANCH   1  12
BRANCH   1  30
ATOM     30  O   UNL     1       4.564   4.956 -10.558  0.00  0.00    -0.411 OA
BRANCH  30  31
ATOM     31  C   UNL     1       5.594   5.896 -10.632  0.00  0.00    +0.148 A 
ATOM     32  C   UNL     1       6.785   5.660  -9.983  0.00  0.00    +0.037 A 
ATOM     33  C   UNL     1       7.755   6.643 -10.037  0.00  0.00    +0.003 A 
ATOM     34  C   UNL     1       7.486   7.838 -10.670  0.00  0.00    +0.000 A 
ATOM     35  C   UNL     1       6.274   8.033 -11.319  0.00  0.00    +0.003 A 
ATOM     36  C   UNL     1       5.221   7.185 -10.996  0.00  0.00    +0.037 A 
ENDBRANCH  30  31
ENDBRANCH   1  30
TORSDOF 11
ENDMDL
MODEL 5
REMARK VINA RESULT:      -8.5      3.025      5.798
REMARK  Name = 
REMARK  11 active torsions:
REMARK  status: ('A' for Active; 'I' for Inactive)
REMARK    1  A    between atoms: C_2  and  O_4
REMARK    2  A    between atoms: O_4  and  C_5
REMARK    3  A    between atoms: C_5  and  C_7
REMARK    4  A    between atoms: C_7  and  N_9
REMARK    5  A    between atoms: N_9  and  P_10
REMARK    6  A    between atoms: P_10  and  O_12
REMARK    7  A    between atoms: P_10  and  O_30
REMARK    8  A    between atoms: O_12  and  C_13
REMARK    9  A    between atoms: C_13  and  C_14
REMARK   10  A    between atoms: C_16  and  N_17
REMARK   11  A    between atoms: O_30  and  C_31
REMARK                            x       y       z     vdW  Elec       q    Type
REMARK                         _______ _______ _______ _____ _____    ______ ____
ROOT
ATOM      1  P   UNL     1       3.662   6.483 -10.658  0.00  0.00    +0.480 P 
ATOM      2  O   UNL     1       4.125   5.068 -10.337  0.00  0.00    -0.227 OA
ENDROOT
BRANCH   1   3
ATOM      3  N   UNL     1       2.293   6.451 -11.744  0.00  0.00    -0.101 NA
BRANCH   3   4
ATOM      4  C   UNL     1       1.103   6.194 -10.740  0.00  0.00    +0.183 C 
ATOM      5  C   UNL     1       0.124   7.272 -11.507  0.00  0.00    +0.031 C 
BRANCH   4   6
ATOM      6  C   UNL     1       0.529   4.942 -11.579  0.00  0.00    +0.333 C 
ATOM      7  O   UNL     1       0.146   3.959 -10.972  0.00  0.00    -0.249 OA
BRANCH   6   8
ATOM      8  O   UNL     1       1.298   4.852 -12.741  0.00  0.00    -0.451 OA
BRANCH   8  10
ATOM      9  C   UNL     1       0.810   4.009 -14.148  0.00  0.00    +0.047 C 
ATOM     10  C   UNL     1       0.611   4.488 -13.938  0.00  0.00    +0.169 C 
ATOM     11  C   UNL     1       0.556   5.745 -14.802  0.00  0.00    +0.047 C 
ENDBRANCH   8  10
ENDBRANCH   6   8
ENDBRANCH   4   6
ENDBRANCH   3   4
ENDBRANCH   1   3
BRANCH   1  12
ATOM     12  O   UNL     1       3.264   7.155  -9.154  0.00  0.00    -0.270 OA
BRANCH  12  13
ATOM     13  C   UNL     1       3.824   6.404  -8.193  0.00  0.00    +0.186 C 
BRANCH  13  14
ATOM     14  C   UNL     1       3.079   6.706  -6.764  0.00  0.00    +0.180 C 
ATOM     15  C   UNL     1       4.013   5.442  -6.064  0.00  0.00    +0.215 C 
ATOM     16  O   UNL     1       4.337   6.342  -4.891  0.00  0.00    -0.217 OA
ATOM     17  C   UNL     1       2.743   4.693  -5.347  0.00  0.00    +0.209 C 
ATOM     18  F   UNL     1       3.235   4.498  -4.178  0.00  0.00    -0.233 F 
ATOM     19  C   UNL     1       2.336   3.611  -6.212  0.00  0.00    +0.043 C 
ATOM     20  C   UNL     1       1.715   5.955  -5.481  0.00  0.00    +0.241 C 
ATOM     21  O   UNL     1       1.887   5.809  -7.012  0.00  0.00    -0.331 OA
BRANCH  20  22
ATOM     22  N   UNL     1       0.358   5.105  -5.433  0.00  0.00    -0.253 N 
ATOM     23  C   UNL     1      -0.321   5.425  -4.306  0.00  0.00    +0.355 A 
ATOM     24  O   UNL     1       0.165   5.383  -3.178  0.00  0.00    -0.244 OA
ATOM     25  N   UNL     1      -1.613   5.834  -4.276  0.00  0.00    -0.153 NA
ATOM     26  C   UNL     1      -2.138   6.439  -5.367  0.00  0.00    +0.285 A 
ATOM     27  O   UNL     1      -2.873   7.454  -5.294  0.00  0.00    -0.265 OA
ATOM     28  C   UNL     1      -1.648   5.902  -6.539  0.00  0.00    +0.081 A 
ATOM     29  C   UNL     1      -0.360   5.392  -6.550  0.00  0.00    +0.087 A 
ENDBRANCH  20  22
ENDBRANCH  13  14
ENDBRANCH  12  13
ENDBRANCH   1  12
BRANCH   1  30
ATOM     30  O   UNL     1       4.903   7.348 -11.436  0.00  0.00    -0.411 OA
BRANCH  30  31
ATOM     31  C   UNL     1       6.113   6.700 -11.697  0.00  0.00    +0.148 A 
ATOM     32  C   UNL     1       7.107   6.693 -10.745  0.00  0.00    +0.037 A 
ATOM     33  C   UNL     1       8.306   6.089 -11.069  0.00  0.00    +0.003 A 
ATOM     34  C   UNL     1       8.497   5.577 -12.335  0.00  0.00    +0.000 A 
ATOM     35  C   UNL     1       7.466   5.598 -13.265  0.00  0.00    +0.003 A 
ATOM     36  C   UNL     1       6.404   6.465 -13.036  0.00  0.00    +0.037 A 
ENDBRANCH  30  31
ENDBRANCH   1  30
TORSDOF 11
ENDMDL
MODEL 6
REMARK VINA RESULT:      -8.5      2.662      5.452
REMARK  Name = 
REMARK  11 active torsions:
REMARK  status: ('A' for Active; 'I' for Inactive)
REMARK    1  A    between atoms: C_2  and  O_4
REMARK    2  A    between atoms: O_4  and  C_5
REMARK    3  A    between atoms: C_5  and  C_7
REMARK    4  A    between atoms: C_7  and  N_9
REMARK    5  A    between atoms: N_9  and  P_10
REMARK    6  A    between atoms: P_10  and  O_12
REMARK    7  A    between atoms: P_10  and  O_30
REMARK    8  A    between atoms: O_12  and  C_13
REMARK    9  A    between atoms: C_13  and  C_14
REMARK   10  A    between atoms: C_16  and  N_17
REMARK   11  A    between atoms: O_30  and  C_31
REMARK                            x       y       z     vdW  Elec       q    Type
REMARK                         _______ _______ _______ _____ _____    ______ ____
ROOT
ATOM      1  P   UNL     1       1.398   6.233  -9.072  0.00  0.00    +0.480 P 
ATOM      2  O   UNL     1       1.764   7.571  -8.444  0.00  0.00    -0.227 OA
ENDROOT
BRANCH   1   3
ATOM      3  N   UNL     1       2.786   5.525  -9.866  0.00  0.00    -0.101 NA
BRANCH   3   4
ATOM      4  C   UNL     1       3.912   6.575  -9.523  0.00  0.00    +0.183 C 
ATOM      5  C   UNL     1       4.786   5.472  -8.670  0.00  0.00    +0.031 C 
BRANCH   4   6
ATOM      6  C   UNL     1       4.729   6.299 -10.886  0.00  0.00    +0.333 C 
ATOM      7  O   UNL     1       4.181   5.677 -11.778  0.00  0.00    -0.249 OA
BRANCH   6   8
ATOM      8  O   UNL     1       6.055   6.068 -10.518  0.00  0.00    -0.451 OA
BRANCH   8  10
ATOM      9  C   UNL     1       7.560   6.722 -11.005  0.00  0.00    +0.047 C 
ATOM     10  C   UNL     1       7.055   6.795 -11.232  0.00  0.00    +0.169 C 
ATOM     11  C   UNL     1       6.498   8.202 -11.438  0.00  0.00    +0.047 C 
ENDBRANCH   8  10
ENDBRANCH   6   8
ENDBRANCH   4   6
ENDBRANCH   3   4
ENDBRANCH   1   3
BRANCH   1  12
ATOM     12  O   UNL     1       0.857   5.284  -7.776  0.00  0.00    -0.270 OA
BRANCH  12  13
ATOM     13  C   UNL     1      -0.434   5.575  -7.548  0.00  0.00    +0.186 C 
BRANCH  13  14
ATOM     14  C   UNL     1      -0.868   5.004  -6.075  0.00  0.00    +0.180 C 
ATOM     15  C   UNL     1      -2.225   6.063  -6.116  0.00  0.00    +0.215 C 
ATOM     16  O   UNL     1      -3.114   4.927  -5.661  0.00  0.00    -0.217 OA
ATOM     17  C   UNL     1      -1.980   6.686  -4.620  0.00  0.00    +0.209 C 
ATOM     18  F   UNL     1      -3.174   6.615  -4.155  0.00  0.00    -0.233 F 
ATOM     19  C   UNL     1      -1.280   7.938  -4.784  0.00  0.00    +0.043 C 
ATOM     20  C   UNL     1      -0.955   5.515  -4.124  0.00  0.00    +0.241 C 
ATOM     21  O   UNL     1      -0.026   5.972  -5.273  0.00  0.00    -0.331 OA
BRANCH  20  22
ATOM     22  N   UNL     1      -0.199   6.379  -3.008  0.00  0.00    -0.253 N 
ATOM     23  C   UNL     1      -0.560   5.929  -1.783  0.00  0.00    +0.355 A 
ATOM     24  O   UNL     1      -1.726   5.813  -1.413  0.00  0.00    -0.244 OA
ATOM     25  N   UNL     1       0.309   5.547  -0.816  0.00  0.00    -0.153 NA
ATOM     26  C   UNL     1       1.537   5.101  -1.172  0.00  0.00    +0.285 A 
ATOM     27  O   UNL     1       2.077   4.101  -0.640  0.00  0.00    -0.265 OA
ATOM     28  C   UNL     1       2.031   5.776  -2.268  0.00  0.00    +0.081 A 
ATOM     29  C   UNL     1       1.139   6.256  -3.213  0.00  0.00    +0.087 A 
ENDBRANCH  20  22
ENDBRANCH  13  14
ENDBRANCH  12  13
ENDBRANCH   1  12
BRANCH   1  30
ATOM     30  O   UNL     1       0.194   6.444 -10.255  0.00  0.00    -0.411 OA
BRANCH  30  31
ATOM     31  C   UNL     1       0.500   6.152 -11.586  0.00  0.00    +0.148 A 
ATOM     32  C   UNL     1       0.657   7.175 -12.494  0.00  0.00    +0.037 A 
ATOM     33  C   UNL     1       0.903   6.837 -13.810  0.00  0.00    +0.003 A 
ATOM     34  C   UNL     1       0.919   5.510 -14.187  0.00  0.00    +0.000 A 
ATOM     35  C   UNL     1       0.763   4.508 -13.238  0.00  0.00    +0.003 A 
ATOM     36  C   UNL     1       0.218   4.858 -12.009  0.00  0.00    +0.037 A 
ENDBRANCH  30  31
ENDBRANCH   1  30
TORSDOF 11
ENDMDL
MODEL 7
REMARK VINA RESULT:      -8.3      1.818      4.247
REMARK  Name = 
REMARK  11 active torsions:
REMARK  status: ('A' for Active; 'I' for Inactive)
REMARK    1  A    between atoms: C_2  and  O_4
REMARK    2  A    between atoms: O_4  and  C_5
REMARK    3  A    between atoms: C_5  and  C_7
REMARK    4  A    between atoms: C_7  and  N_9
REMARK    5  A    between atoms: N_9  and  P_10
REMARK    6  A    between atoms: P_10  and  O_12
REMARK    7  A    between atoms: P_10  and  O_30
REMARK    8  A    between atoms: O_12  and  C_13
REMARK    9  A    between atoms: C_13  and  C_14
REMARK   10  A    between atoms: C_16  and  N_17
REMARK   11  A    between atoms: O_30  and  C_31
REMARK                            x       y       z     vdW  Elec       q    Type
REMARK                         _______ _______ _______ _____ _____    ______ ____
ROOT
ATOM      1  P   UNL     1       1.736   5.092  -6.855  0.00  0.00    +0.480 P 
ATOM      2  O   UNL     1       1.832   3.843  -5.987  0.00  0.00    -0.227 OA
ENDROOT
BRANCH   1   3
ATOM      3  N   UNL     1       0.114   5.741  -6.824  0.00  0.00    -0.101 NA
BRANCH   3   4
ATOM      4  C   UNL     1      -0.231   5.647  -5.287  0.00  0.00    +0.183 C 
ATOM      5  C   UNL     1      -0.298   7.284  -5.126  0.00  0.00    +0.031 C 
BRANCH   4   6
ATOM      6  C   UNL     1      -1.818   5.520  -5.545  0.00  0.00    +0.333 C 
ATOM      7  O   UNL     1      -2.221   5.487  -6.693  0.00  0.00    -0.249 OA
BRANCH   6   8
ATOM      8  O   UNL     1      -2.447   6.274  -4.553  0.00  0.00    -0.451 OA
BRANCH   8  10
ATOM      9  C   UNL     1      -3.207   5.100  -3.565  0.00  0.00    +0.047 C 
ATOM     10  C   UNL     1      -2.928   5.561  -3.414  0.00  0.00    +0.169 C 
ATOM     11  C   UNL     1      -3.584   6.596  -2.504  0.00  0.00    +0.047 C 
ENDBRANCH   8  10
ENDBRANCH   6   8
ENDBRANCH   4   6
ENDBRANCH   3   4
ENDBRANCH   1   3
BRANCH   1  12
ATOM     12  O   UNL     1       2.863   6.167  -6.185  0.00  0.00    -0.270 OA
BRANCH  12  13
ATOM     13  C   UNL     1       3.267   5.674  -5.003  0.00  0.00    +0.186 C 
BRANCH  13  14
ATOM     14  C   UNL     1       3.106   6.828  -3.850  0.00  0.00    +0.180 C 
ATOM     15  C   UNL     1       4.619   6.326  -3.203  0.00  0.00    +0.215 C 
ATOM     16  O   UNL     1       5.050   7.773  -3.111  0.00  0.00    -0.217 OA
ATOM     17  C   UNL     1       4.095   6.215  -1.654  0.00  0.00    +0.209 C 
ATOM     18  F   UNL     1       5.050   6.828  -1.055  0.00  0.00    -0.233 F 
ATOM     19  C   UNL     1       3.781   4.828  -1.403  0.00  0.00    +0.043 C 
ATOM     20  C   UNL     1       2.730   7.082  -1.884  0.00  0.00    +0.241 C 
ATOM     21  O   UNL     1       2.311   5.978  -2.883  0.00  0.00    -0.331 OA
BRANCH  20  22
ATOM     22  N   UNL     1       1.898   6.460  -0.665  0.00  0.00    -0.253 N 
ATOM     23  C   UNL     1       1.738   7.409   0.289  0.00  0.00    +0.355 A 
ATOM     24  O   UNL     1       2.666   8.048   0.780  0.00  0.00    -0.244 OA
ATOM     25  N   UNL     1       0.546   7.777   0.816  0.00  0.00    -0.153 NA
ATOM     26  C   UNL     1      -0.580   7.609   0.082  0.00  0.00    +0.285 A 
ATOM     27  O   UNL     1      -1.486   8.475   0.019  0.00  0.00    -0.265 OA
ATOM     28  C   UNL     1      -0.527   6.463  -0.684  0.00  0.00    +0.081 A 
ATOM     29  C   UNL     1       0.704   6.026  -1.146  0.00  0.00    +0.087 A 
ENDBRANCH  20  22
ENDBRANCH  13  14
ENDBRANCH  12  13
ENDBRANCH   1  12
BRANCH   1  30
ATOM     30  O   UNL     1       2.099   4.715  -8.474  0.00  0.00    -0.411 OA
BRANCH  30  31
ATOM     31  C   UNL     1       1.241   5.172  -9.478  0.00  0.00    +0.148 A 
ATOM     32  C   UNL     1       0.607   4.269 -10.301  0.00  0.00    +0.037 A 
ATOM     33  C   UNL     1      -0.186   4.767 -11.316  0.00  0.00    +0.003 A 
ATOM     34  C   UNL     1      -0.269   6.129 -11.516  0.00  0.00    +0.000 A 
ATOM     35  C   UNL     1       0.381   7.007 -10.659  0.00  0.00    +0.003 A 
ATOM     36  C   UNL     1       1.399   6.499  -9.860  0.00  0.00    +0.037 A 
ENDBRANCH  30  31
ENDBRANCH   1  30
TORSDOF 11
ENDMDL
MODEL 8
REMARK VINA RESULT:      -8.2      2.875      8.432
REMARK  Name = 
REMARK  11 active torsions:
REMARK  status: ('A' for Active; 'I' for Inactive)
REMARK    1  A    between atoms: C_2  and  O_4
REMARK    2  A    between atoms: O_4  and  C_5
REMARK    3  A    between atoms: C_5  and  C_7
REMARK    4  A    between atoms: C_7  and  N_9
REMARK    5  A    between atoms: N_9  and  P_10
REMARK    6  A    between atoms: P_10  and  O_12
REMARK    7  A    between atoms: P_10  and  O_30
REMARK    8  A    between atoms: O_12  and  C_13
REMARK    9  A    between atoms: C_13  and  C_14
REMARK   10  A    between atoms: C_16  and  N_17
REMARK   11  A    between atoms: O_30  and  C_31
REMARK                            x       y       z     vdW  Elec       q    Type
REMARK                         _______ _______ _______ _____ _____    ______ ____
ROOT
ATOM      1  P   UNL     1       2.069   5.824  -4.890  0.00  0.00    +0.480 P 
ATOM      2  O   UNL     1       2.919   4.560  -4.854  0.00  0.00    -0.227 OA
ENDROOT
BRANCH   1   3
ATOM      3  N   UNL     1       2.049   6.598  -3.323  0.00  0.00    -0.101 NA
BRANCH   3   4
ATOM      4  C   UNL     1       3.471   6.208  -2.763  0.00  0.00    +0.183 C 
ATOM      5  C   UNL     1       3.936   7.782  -2.637  0.00  0.00    +0.031 C 
BRANCH   4   6
ATOM      6  C   UNL     1       2.966   6.144  -1.233  0.00  0.00    +0.333 C 
ATOM      7  O   UNL     1       3.381   5.251  -0.518  0.00  0.00    -0.249 OA
BRANCH   6   8
ATOM      8  O   UNL     1       1.626   6.537  -1.237  0.00  0.00    -0.451 OA
BRANCH   8  10
ATOM      9  C   UNL     1       0.484   6.813   0.007  0.00  0.00    +0.047 C 
ATOM     10  C   UNL     1       1.042   6.837   0.030  0.00  0.00    +0.169 C 
ATOM     11  C   UNL     1       1.739   8.097   0.538  0.00  0.00    +0.047 C 
ENDBRANCH   8  10
ENDBRANCH   6   8
ENDBRANCH   4   6
ENDBRANCH   3   4
ENDBRANCH   1   3
BRANCH   1  12
ATOM     12  O   UNL     1       2.800   6.798  -6.070  0.00  0.00    -0.270 OA
BRANCH  12  13
ATOM     13  C   UNL     1       1.839   7.283  -6.873  0.00  0.00    +0.186 C 
BRANCH  13  14
ATOM     14  C   UNL     1       2.405   7.365  -8.408  0.00  0.00    +0.180 C 
ATOM     15  C   UNL     1       1.161   6.272  -8.876  0.00  0.00    +0.215 C 
ATOM     16  O   UNL     1       0.837   7.159 -10.058  0.00  0.00    -0.217 OA
ATOM     17  C   UNL     1       2.149   5.257  -9.700  0.00  0.00    +0.209 C 
ATOM     18  F   UNL     1       1.461   5.103 -10.772  0.00  0.00    -0.233 F 
ATOM     19  C   UNL     1       2.475   4.161  -8.818  0.00  0.00    +0.043 C 
ATOM     20  C   UNL     1       3.401   6.302  -9.805  0.00  0.00    +0.241 C 
ATOM     21  O   UNL     1       3.435   6.268  -8.259  0.00  0.00    -0.331 OA
BRANCH  20  22
ATOM     22  N   UNL     1       4.555   5.205  -9.974  0.00  0.00    -0.253 N 
ATOM     23  C   UNL     1       5.060   5.286 -11.228  0.00  0.00    +0.355 A 
ATOM     24  O   UNL     1       4.372   5.239 -12.246  0.00  0.00    -0.244 OA
ATOM     25  N   UNL     1       6.374   5.433 -11.521  0.00  0.00    -0.153 NA
ATOM     26  C   UNL     1       7.190   6.019 -10.614  0.00  0.00    +0.285 A 
ATOM     27  O   UNL     1       8.064   6.862 -10.931  0.00  0.00    -0.265 OA
ATOM     28  C   UNL     1       6.840   5.693  -9.320  0.00  0.00    +0.081 A 
ATOM     29  C   UNL     1       5.507   5.445  -9.034  0.00  0.00    +0.087 A 
ENDBRANCH  20  22
ENDBRANCH  13  14
ENDBRANCH  12  13
ENDBRANCH   1  12
BRANCH   1  30
ATOM     30  O   UNL     1       0.459   5.443  -5.286  0.00  0.00    -0.411 OA
BRANCH  30  31
ATOM     31  C   UNL     1      -0.569   5.976  -4.505  0.00  0.00    +0.148 A 
ATOM     32  C   UNL     1      -0.987   7.271  -4.714  0.00  0.00    +0.037 A 
ATOM     33  C   UNL     1      -1.967   7.775  -3.881  0.00  0.00    +0.003 A 
ATOM     34  C   UNL     1      -2.445   7.007  -2.840  0.00  0.00    +0.000 A 
ATOM     35  C   UNL     1      -2.002   5.702  -2.668  0.00  0.00    +0.003 A 
ATOM     36  C   UNL     1      -0.822   5.329  -3.301  0.00  0.00    +0.037 A 
ENDBRANCH  30  31
ENDBRANCH   1  30
TORSDOF 11
ENDMDL
MODEL 9
REMARK VINA RESULT:      -8.2      3.419      8.730
REMARK  Name = 
REMARK  11 active torsions:
REMARK  status: ('A' for Active; 'I' for Inactive)
REMARK    1  A    between atoms: C_2  and  O_4
REMARK    2  A    between atoms: O_4  and  C_5
REMARK    3  A    between atoms: C_5  and  C_7
REMARK    4  A    between atoms: C_7  and  N_9
REMARK    5  A    between atoms: N_9  and  P_10
REMARK    6  A    between atoms: P_10  and  O_12
REMARK    7  A    between atoms: P_10  and  O_30
REMARK    8  A    between atoms: O_12  and  C_13
REMARK    9  A    between atoms: C_13  and  C_14
REMARK   10  A    between atoms: C_16  and  N_17
REMARK   11  A    between atoms: O_30  and  C_31
REMARK                            x       y       z     vdW  Elec       q    Type
REMARK                         _______ _______ _______ _____ _____    ______ ____
ROOT
ATOM      1  P   UNL     1       2.752   6.993  -6.549  0.00  0.00    +0.480 P 
ATOM      2  O   UNL     1       2.462   8.066  -7.591  0.00  0.00    -0.227 OA
ENDROOT
BRANCH   1   3
ATOM      3  N   UNL     1       1.322   6.649  -5.605  0.00  0.00    -0.101 NA
BRANCH   3   4
ATOM      4  C   UNL     1       0.469   5.801  -6.627  0.00  0.00    +0.183 C 
ATOM      5  C   UNL     1       0.749   4.399  -5.811  0.00  0.00    +0.031 C 
BRANCH   4   6
ATOM      6  C   UNL     1      -0.919   6.075  -5.854  0.00  0.00    +0.333 C 
ATOM      7  O   UNL     1      -1.964   5.804  -6.417  0.00  0.00    -0.249 OA
BRANCH   6   8
ATOM      8  O   UNL     1      -0.747   7.253  -5.125  0.00  0.00    -0.451 OA
BRANCH   8  10
ATOM      9  C   UNL     1      -1.903   8.367  -4.532  0.00  0.00    +0.047 C 
ATOM     10  C   UNL     1      -1.913   7.808  -4.517  0.00  0.00    +0.169 C 
ATOM     11  C   UNL     1      -2.095   7.077  -3.190  0.00  0.00    +0.047 C 
ENDBRANCH   8  10
ENDBRANCH   6   8
ENDBRANCH   4   6
ENDBRANCH   3   4
ENDBRANCH   1   3
BRANCH   1  12
ATOM     12  O   UNL     1       3.258   5.649  -7.449  0.00  0.00    -0.270 OA
BRANCH  12  13
ATOM     13  C   UNL     1       4.549   5.819  -7.775  0.00  0.00    +0.186 C 
BRANCH  13  14
ATOM     14  C   UNL     1       4.863   5.031  -9.178  0.00  0.00    +0.180 C 
ATOM     15  C   UNL     1       6.293   5.976  -9.333  0.00  0.00    +0.215 C 
ATOM     16  O   UNL     1       7.073   4.724  -9.672  0.00  0.00    -0.217 OA
ATOM     17  C   UNL     1       6.017   6.420 -10.886  0.00  0.00    +0.209 C 
ATOM     18  F   UNL     1       7.176   6.196 -11.388  0.00  0.00    -0.233 F 
ATOM     19  C   UNL     1       5.419   7.734 -10.859  0.00  0.00    +0.043 C 
ATOM     20  C   UNL     1       4.885   5.279 -11.180  0.00  0.00    +0.241 C 
ATOM     21  O   UNL     1       4.053   5.952 -10.064  0.00  0.00    -0.331 OA
BRANCH  20  22
ATOM     22  N   UNL     1       4.137   6.050 -12.367  0.00  0.00    -0.253 N 
ATOM     23  C   UNL     1       4.381   5.407 -13.534  0.00  0.00    +0.355 A 
ATOM     24  O   UNL     1       5.507   5.134 -13.942  0.00  0.00    -0.244 OA
ATOM     25  N   UNL     1       3.424   4.980 -14.392  0.00  0.00    -0.153 NA
ATOM     26  C   UNL     1       2.187   4.702 -13.916  0.00  0.00    +0.285 A 
ATOM     27  O   UNL     1       1.531   3.693 -14.274  0.00  0.00    -0.265 OA
ATOM     28  C   UNL     1       1.821   5.562 -12.902  0.00  0.00    +0.081 A 
ATOM     29  C   UNL     1       2.809   6.081 -12.080  0.00  0.00    +0.087 A 
ENDBRANCH  20  22
ENDBRANCH  13  14
ENDBRANCH  12  13
ENDBRANCH   1  12
BRANCH   1  30
ATOM     30  O   UNL     1       3.953   7.527  -5.470  0.00  0.00    -0.411 OA
BRANCH  30  31
ATOM     31  C   UNL     1       3.969   7.010  -4.172  0.00  0.00    +0.148 A 
ATOM     32  C   UNL     1       3.949   7.865  -3.093  0.00  0.00    +0.037 A 
ATOM     33  C   UNL     1       4.023   7.311  -1.830  0.00  0.00    +0.003 A 
ATOM     34  C   UNL     1       4.179   5.948  -1.686  0.00  0.00    +0.000 A 
ATOM     35  C   UNL     1       4.188   5.120  -2.801  0.00  0.00    +0.003 A 
ATOM     36  C   UNL     1       4.423   5.703  -4.040  0.00  0.00    +0.037 A 
ENDBRANCH  30  31
ENDBRANCH   1  30
TORSDOF 11
ENDMDL
