MODEL 1
REMARK VINA RESULT:      -7.3      0.000      0.000
REMARK  Name = 
REMARK  10 active torsions:
REMARK  status: ('A' for Active; 'I' for Inactive)
REMARK    1  A    between atoms: C_2  and  C_3
REMARK    2  A    between atoms: C_3  and  C_4
REMARK    3  A    between atoms: C_4  and  O_5
REMARK    4  A    between atoms: O_5  and  C_6
REMARK    5  A    between atoms: C_8  and  C_9
REMARK    6  A    between atoms: N_11  and  C_12
REMARK    7  A    between atoms: C_12  and  C_13
REMARK    8  A    between atoms: C_13  and  N_14
REMARK    9  A    between atoms: N_14  and  C_15
REMARK   10  A    between atoms: N_14  and  C_17
REMARK                            x       y       z     vdW  Elec       q    Type
REMARK                         _______ _______ _______ _____ _____    ______ ____
ROOT
ATOM      1  C   UNL     1       4.633   6.818 -10.711  0.00  0.00    +0.225 A 
ATOM      2  N   UNL     1       3.736   6.471 -11.667  0.00  0.00    -0.212 NA
ATOM      3  C   UNL     1       2.478   6.102 -11.393  0.00  0.00    +0.085 A 
ATOM      4  C   UNL     1       2.115   5.982 -10.056  0.00  0.00    +0.022 A 
ATOM      5  C   UNL     1       0.830   6.226  -9.629  0.00  0.00    +0.002 A 
ATOM      6  C   UNL     1      -0.142   6.542 -10.571  0.00  0.00    +0.000 A 
ATOM      7  C   UNL     1       0.193   6.765 -11.901  0.00  0.00    +0.002 A 
ATOM      8  C   UNL     1       3.132   5.882  -9.117  0.00  0.00    +0.061 A 
ATOM      9  C   UNL     1       1.426   6.252 -12.283  0.00  0.00    +0.019 A 
ATOM     10  C   UNL     1       4.427   6.241  -9.463  0.00  0.00    +0.062 A 
ENDROOT
BRANCH   8  11
ATOM     11  C   UNL     1       2.832   5.149  -7.885  0.00  0.00    +0.265 C 
ATOM     12  N   UNL     1       2.866   5.765  -6.616  0.00  0.00    -0.200 NA
ATOM     13  O   UNL     1       2.551   3.916  -7.909  0.00  0.00    -0.268 OA
BRANCH  12  14
ATOM     14  C   UNL     1       1.938   5.418  -5.570  0.00  0.00    +0.133 C 
BRANCH  14  15
ATOM     15  C   UNL     1       1.264   6.617  -4.952  0.00  0.00    +0.096 C 
BRANCH  15  16
ATOM     16  N   UNL     1      -0.127   6.598  -5.352  0.00  0.00    -0.271 NA
BRANCH  16  17
ATOM     17  C   UNL     1      -0.975   6.993  -4.248  0.00  0.00    +0.072 C 
ATOM     18  C   UNL     1      -1.880   8.152  -4.614  0.00  0.00    +0.019 C 
ENDBRANCH  16  17
BRANCH  16  19
ATOM     19  C   UNL     1      -0.516   5.300  -5.831  0.00  0.00    +0.072 C 
ATOM     20  C   UNL     1      -1.563   5.356  -6.906  0.00  0.00    +0.019 C 
ENDBRANCH  16  19
ENDBRANCH  15  16
ENDBRANCH  14  15
ENDBRANCH  12  14
ENDBRANCH   8  11
BRANCH   1  21
ATOM     21  O   UNL     1       5.552   7.854 -10.905  0.00  0.00    -0.460 OA
BRANCH  21  22
ATOM     22  C   UNL     1       6.709   7.661 -11.711  0.00  0.00    +0.207 C 
BRANCH  22  23
ATOM     23  C   UNL     1       7.674   6.741 -11.017  0.00  0.00    +0.047 C 
BRANCH  23  25
ATOM     24  C   UNL     1       7.513   5.463 -13.175  0.00  0.00    +0.000 C 
ATOM     25  C   UNL     1       8.390   5.825 -12.001  0.00  0.00    +0.004 C 
ENDBRANCH  23  25
ENDBRANCH  22  23
ENDBRANCH  21  22
ENDBRANCH   1  21
TORSDOF 10
ENDMDL
MODEL 2
REMARK VINA RESULT:      -7.2      2.777      7.823
REMARK  Name = 
REMARK  10 active torsions:
REMARK  status: ('A' for Active; 'I' for Inactive)
REMARK    1  A    between atoms: C_2  and  C_3
REMARK    2  A    between atoms: C_3  and  C_4
REMARK    3  A    between atoms: C_4  and  O_5
REMARK    4  A    between atoms: O_5  and  C_6
REMARK    5  A    between atoms: C_8  and  C_9
REMARK    6  A    between atoms: N_11  and  C_12
REMARK    7  A    between atoms: C_12  and  C_13
REMARK    8  A    between atoms: C_13  and  N_14
REMARK    9  A    between atoms: N_14  and  C_15
REMARK   10  A    between atoms: N_14  and  C_17
REMARK                            x       y       z     vdW  Elec       q    Type
REMARK                         _______ _______ _______ _____ _____    ______ ____
ROOT
ATOM      1  C   UNL     1       1.616   6.405  -3.631  0.00  0.00    +0.225 A 
ATOM      2  N   UNL     1       0.285   6.614  -3.787  0.00  0.00    -0.212 NA
ATOM      3  C   UNL     1      -0.327   6.586  -4.980  0.00  0.00    +0.085 A 
ATOM      4  C   UNL     1       0.466   6.427  -6.110  0.00  0.00    +0.022 A 
ATOM      5  C   UNL     1       0.002   5.786  -7.237  0.00  0.00    +0.002 A 
ATOM      6  C   UNL     1      -1.314   5.341  -7.262  0.00  0.00    +0.000 A 
ATOM      7  C   UNL     1      -2.112   5.394  -6.125  0.00  0.00    +0.002 A 
ATOM      8  C   UNL     1       1.826   6.677  -5.987  0.00  0.00    +0.061 A 
ATOM      9  C   UNL     1      -1.667   6.271  -5.144  0.00  0.00    +0.019 A 
ATOM     10  C   UNL     1       2.405   6.735  -4.726  0.00  0.00    +0.062 A 
ENDROOT
BRANCH   8  11
ATOM     11  C   UNL     1       2.531   7.133  -7.187  0.00  0.00    +0.265 C 
ATOM     12  N   UNL     1       3.620   6.421  -7.735  0.00  0.00    -0.200 NA
ATOM     13  O   UNL     1       2.203   8.206  -7.771  0.00  0.00    -0.268 OA
BRANCH  12  14
ATOM     14  C   UNL     1       3.841   6.334  -9.156  0.00  0.00    +0.133 C 
BRANCH  14  15
ATOM     15  C   UNL     1       5.041   5.497  -9.520  0.00  0.00    +0.096 C 
BRANCH  15  16
ATOM     16  N   UNL     1       5.580   6.011 -10.762  0.00  0.00    -0.271 NA
BRANCH  16  17
ATOM     17  C   UNL     1       7.009   5.787 -10.821  0.00  0.00    +0.072 C 
ATOM     18  C   UNL     1       7.587   5.450  -9.462  0.00  0.00    +0.019 C 
ENDBRANCH  16  17
BRANCH  16  19
ATOM     19  C   UNL     1       5.295   7.411 -10.915  0.00  0.00    +0.072 C 
ATOM     20  C   UNL     1       6.443   8.189 -11.492  0.00  0.00    +0.019 C 
ENDBRANCH  16  19
ENDBRANCH  15  16
ENDBRANCH  14  15
ENDBRANCH  12  14
ENDBRANCH   8  11
BRANCH   1  21
ATOM     21  O   UNL     1       2.124   5.696  -2.539  0.00  0.00    -0.460 OA
BRANCH  21  22
ATOM     22  C   UNL     1       3.491   5.301  -2.496  0.00  0.00    +0.207 C 
BRANCH  22  23
ATOM     23  C   UNL     1       4.030   5.459  -1.102  0.00  0.00    +0.047 C 
BRANCH  23  25
ATOM     24  C   UNL     1       4.765   7.141   0.616  0.00  0.00    +0.000 C 
ATOM     25  C   UNL     1       4.553   6.869  -0.854  0.00  0.00    +0.004 C 
ENDBRANCH  23  25
ENDBRANCH  22  23
ENDBRANCH  21  22
ENDBRANCH   1  21
TORSDOF 10
ENDMDL
MODEL 3
REMARK VINA RESULT:      -7.1      2.214      6.956
REMARK  Name = 
REMARK  10 active torsions:
REMARK  status: ('A' for Active; 'I' for Inactive)
REMARK    1  A    between atoms: C_2  and  C_3
REMARK    2  A    between atoms: C_3  and  C_4
REMARK    3  A    between atoms: C_4  and  O_5
REMARK    4  A    between atoms: O_5  and  C_6
REMARK    5  A    between atoms: C_8  and  C_9
REMARK    6  A    between atoms: N_11  and  C_12
REMARK    7  A    between atoms: C_12  and  C_13
REMARK    8  A    between atoms: C_13  and  N_14
REMARK    9  A    between atoms: N_14  and  C_15
REMARK   10  A    between atoms: N_14  and  C_17
REMARK                            x       y       z     vdW  Elec       q    Type
REMARK                         _______ _______ _______ _____ _____    ______ ____
ROOT
ATOM      1  C   UNL     1       1.887   6.068  -4.353  0.00  0.00    +0.225 A 
ATOM      2  N   UNL     1       0.780   6.851  -4.337  0.00  0.00    -0.212 NA
ATOM      3  C   UNL     1      -0.174   6.793  -5.277  0.00  0.00    +0.085 A 
ATOM      4  C   UNL     1       0.040   5.954  -6.365  0.00  0.00    +0.022 A 
ATOM      5  C   UNL     1      -1.001   5.337  -7.020  0.00  0.00    +0.002 A 
ATOM      6  C   UNL     1      -2.303   5.610  -6.619  0.00  0.00    +0.000 A 
ATOM      7  C   UNL     1      -2.560   6.366  -5.481  0.00  0.00    +0.002 A 
ATOM      8  C   UNL     1       1.339   5.526  -6.606  0.00  0.00    +0.061 A 
ATOM      9  C   UNL     1      -1.495   7.146  -5.049  0.00  0.00    +0.019 A 
ATOM     10  C   UNL     1       2.299   5.644  -5.611  0.00  0.00    +0.062 A 
ENDROOT
BRANCH   8  11
ATOM     11  C   UNL     1       1.691   5.218  -7.994  0.00  0.00    +0.265 C 
ATOM     12  N   UNL     1       1.548   6.162  -9.033  0.00  0.00    -0.200 NA
ATOM     13  O   UNL     1       2.118   4.073  -8.323  0.00  0.00    -0.268 OA
BRANCH  12  14
ATOM     14  C   UNL     1       2.482   6.244 -10.127  0.00  0.00    +0.133 C 
BRANCH  14  15
ATOM     15  C   UNL     1       3.840   6.751  -9.712  0.00  0.00    +0.096 C 
BRANCH  15  16
ATOM     16  N   UNL     1       4.835   6.034 -10.483  0.00  0.00    -0.271 NA
BRANCH  16  17
ATOM     17  C   UNL     1       5.959   5.677  -9.645  0.00  0.00    +0.072 C 
ATOM     18  C   UNL     1       5.518   5.209  -8.273  0.00  0.00    +0.019 C 
ENDBRANCH  16  17
BRANCH  16  19
ATOM     19  C   UNL     1       5.285   6.811 -11.605  0.00  0.00    +0.072 C 
ATOM     20  C   UNL     1       6.328   7.828 -11.240  0.00  0.00    +0.019 C 
ENDBRANCH  16  19
ENDBRANCH  15  16
ENDBRANCH  14  15
ENDBRANCH  12  14
ENDBRANCH   8  11
BRANCH   1  21
ATOM     21  O   UNL     1       2.432   5.541  -3.179  0.00  0.00    -0.460 OA
BRANCH  21  22
ATOM     22  C   UNL     1       3.832   5.321  -3.057  0.00  0.00    +0.207 C 
BRANCH  22  23
ATOM     23  C   UNL     1       4.444   6.372  -2.174  0.00  0.00    +0.047 C 
BRANCH  23  25
ATOM     24  C   UNL     1       5.458   7.417  -4.222  0.00  0.00    +0.000 C 
ATOM     25  C   UNL     1       4.711   7.665  -2.935  0.00  0.00    +0.004 C 
ENDBRANCH  23  25
ENDBRANCH  22  23
ENDBRANCH  21  22
ENDBRANCH   1  21
TORSDOF 10
ENDMDL
MODEL 4
REMARK VINA RESULT:      -7.1      2.384      8.527
REMARK  Name = 
REMARK  10 active torsions:
REMARK  status: ('A' for Active; 'I' for Inactive)
REMARK    1  A    between atoms: C_2  and  C_3
REMARK    2  A    between atoms: C_3  and  C_4
REMARK    3  A    between atoms: C_4  and  O_5
REMARK    4  A    between atoms: O_5  and  C_6
REMARK    5  A    between atoms: C_8  and  C_9
REMARK    6  A    between atoms: N_11  and  C_12
REMARK    7  A    between atoms: C_12  and  C_13
REMARK    8  A    between atoms: C_13  and  N_14
REMARK    9  A    between atoms: N_14  and  C_15
REMARK   10  A    between atoms: N_14  and  C_17
REMARK                            x       y       z     vdW  Elec       q    Type
REMARK                         _______ _______ _______ _____ _____    ______ ____
ROOT
ATOM      1  C   UNL     1       0.421   5.482  -5.151  0.00  0.00    +0.225 A 
ATOM      2  N   UNL     1       1.440   4.883  -4.487  0.00  0.00    -0.212 NA
ATOM      3  C   UNL     1       2.709   5.310  -4.553  0.00  0.00    +0.085 A 
ATOM      4  C   UNL     1       2.996   6.357  -5.420  0.00  0.00    +0.022 A 
ATOM      5  C   UNL     1       4.002   7.259  -5.160  0.00  0.00    +0.002 A 
ATOM      6  C   UNL     1       4.790   7.079  -4.030  0.00  0.00    +0.000 A 
ATOM      7  C   UNL     1       4.482   6.104  -3.089  0.00  0.00    +0.002 A 
ATOM      8  C   UNL     1       2.070   6.646  -6.414  0.00  0.00    +0.061 A 
ATOM      9  C   UNL     1       3.639   5.099  -3.547  0.00  0.00    +0.019 A 
ATOM     10  C   UNL     1       0.778   6.147  -6.318  0.00  0.00    +0.062 A 
ENDROOT
BRANCH   8  11
ATOM     11  C   UNL     1       2.583   7.242  -7.650  0.00  0.00    +0.265 C 
ATOM     12  N   UNL     1       3.496   6.566  -8.487  0.00  0.00    -0.200 NA
ATOM     13  O   UNL     1       2.244   8.408  -8.004  0.00  0.00    -0.268 OA
BRANCH  12  14
ATOM     14  C   UNL     1       3.452   6.686  -9.923  0.00  0.00    +0.133 C 
BRANCH  14  15
ATOM     15  C   UNL     1       4.789   7.026 -10.531  0.00  0.00    +0.096 C 
BRANCH  15  16
ATOM     16  N   UNL     1       5.355   5.806 -11.068  0.00  0.00    -0.271 NA
BRANCH  16  17
ATOM     17  C   UNL     1       6.734   6.016 -11.450  0.00  0.00    +0.072 C 
ATOM     18  C   UNL     1       7.434   6.999 -10.533  0.00  0.00    +0.019 C 
ENDBRANCH  16  17
BRANCH  16  19
ATOM     19  C   UNL     1       4.599   5.330 -12.193  0.00  0.00    +0.072 C 
ATOM     20  C   UNL     1       5.352   5.416 -13.490  0.00  0.00    +0.019 C 
ENDBRANCH  16  19
ENDBRANCH  15  16
ENDBRANCH  14  15
ENDBRANCH  12  14
ENDBRANCH   8  11
BRANCH   1  21
ATOM     21  O   UNL     1      -0.850   5.614  -4.583  0.00  0.00    -0.460 OA
BRANCH  21  22
ATOM     22  C   UNL     1      -1.843   6.428  -5.196  0.00  0.00    +0.207 C 
BRANCH  22  23
ATOM     23  C   UNL     1      -2.102   7.647  -4.355  0.00  0.00    +0.047 C 
BRANCH  23  25
ATOM     24  C   UNL     1      -3.453   6.548  -2.543  0.00  0.00    +0.000 C 
ATOM     25  C   UNL     1      -2.189   7.304  -2.873  0.00  0.00    +0.004 C 
ENDBRANCH  23  25
ENDBRANCH  22  23
ENDBRANCH  21  22
ENDBRANCH   1  21
TORSDOF 10
ENDMDL
MODEL 5
REMARK VINA RESULT:      -7.0      2.543      8.267
REMARK  Name = 
REMARK  10 active torsions:
REMARK  status: ('A' for Active; 'I' for Inactive)
REMARK    1  A    between atoms: C_2  and  C_3
REMARK    2  A    between atoms: C_3  and  C_4
REMARK    3  A    between atoms: C_4  and  O_5
REMARK    4  A    between atoms: O_5  and  C_6
REMARK    5  A    between atoms: C_8  and  C_9
REMARK    6  A    between atoms: N_11  and  C_12
REMARK    7  A    between atoms: C_12  and  C_13
REMARK    8  A    between atoms: C_13  and  N_14
REMARK    9  A    between atoms: N_14  and  C_15
REMARK   10  A    between atoms: N_14  and  C_17
REMARK                            x       y       z     vdW  Elec       q    Type
REMARK                         _______ _______ _______ _____ _____    ______ ____
ROOT
ATOM      1  C   UNL     1       0.776   5.643  -2.807  0.00  0.00    +0.225 A 
ATOM      2  N   UNL     1       2.046   5.677  -2.333  0.00  0.00    -0.212 NA
ATOM      3  C   UNL     1       3.120   5.813  -3.123  0.00  0.00    +0.085 A 
ATOM      4  C   UNL     1       2.915   5.824  -4.498  0.00  0.00    +0.022 A 
ATOM      5  C   UNL     1       3.732   6.536  -5.347  0.00  0.00    +0.002 A 
ATOM      6  C   UNL     1       4.825   7.211  -4.818  0.00  0.00    +0.000 A 
ATOM      7  C   UNL     1       5.014   7.306  -3.444  0.00  0.00    +0.002 A 
ATOM      8  C   UNL     1       1.708   5.332  -4.976  0.00  0.00    +0.061 A 
ATOM      9  C   UNL     1       4.318   6.365  -2.696  0.00  0.00    +0.019 A 
ATOM     10  C   UNL     1       0.637   5.173  -4.108  0.00  0.00    +0.062 A 
ENDROOT
BRANCH   8  11
ATOM     11  C   UNL     1       1.711   4.754  -6.322  0.00  0.00    +0.265 C 
ATOM     12  N   UNL     1       1.138   5.420  -7.426  0.00  0.00    -0.200 NA
ATOM     13  O   UNL     1       2.210   3.613  -6.543  0.00  0.00    -0.268 OA
BRANCH  12  14
ATOM     14  C   UNL     1       1.710   5.344  -8.747  0.00  0.00    +0.133 C 
BRANCH  14  15
ATOM     15  C   UNL     1       2.479   6.583  -9.133  0.00  0.00    +0.096 C 
BRANCH  15  16
ATOM     16  N   UNL     1       3.674   6.162  -9.833  0.00  0.00    -0.271 NA
BRANCH  16  17
ATOM     17  C   UNL     1       3.406   6.020 -11.247  0.00  0.00    +0.072 C 
ATOM     18  C   UNL     1       4.586   5.427 -11.992  0.00  0.00    +0.019 C 
ENDBRANCH  16  17
BRANCH  16  19
ATOM     19  C   UNL     1       4.184   4.928  -9.301  0.00  0.00    +0.072 C 
ATOM     20  C   UNL     1       5.348   5.121  -8.371  0.00  0.00    +0.019 C 
ENDBRANCH  16  19
ENDBRANCH  15  16
ENDBRANCH  14  15
ENDBRANCH  12  14
ENDBRANCH   8  11
BRANCH   1  21
ATOM     21  O   UNL     1      -0.281   6.251  -2.123  0.00  0.00    -0.460 OA
BRANCH  21  22
ATOM     22  C   UNL     1      -1.619   6.133  -2.591  0.00  0.00    +0.207 C 
BRANCH  22  23
ATOM     23  C   UNL     1      -2.183   7.494  -2.889  0.00  0.00    +0.047 C 
BRANCH  23  25
ATOM     24  C   UNL     1      -2.433   6.973  -5.334  0.00  0.00    +0.000 C 
ATOM     25  C   UNL     1      -1.875   7.934  -4.314  0.00  0.00    +0.004 C 
ENDBRANCH  23  25
ENDBRANCH  22  23
ENDBRANCH  21  22
ENDBRANCH   1  21
TORSDOF 10
ENDMDL
MODEL 6
REMARK VINA RESULT:      -6.9      2.663      7.964
REMARK  Name = 
REMARK  10 active torsions:
REMARK  status: ('A' for Active; 'I' for Inactive)
REMARK    1  A    between atoms: C_2  and  C_3
REMARK    2  A    between atoms: C_3  and  C_4
REMARK    3  A    between atoms: C_4  and  O_5
REMARK    4  A    between atoms: O_5  and  C_6
REMARK    5  A    between atoms: C_8  and  C_9
REMARK    6  A    between atoms: N_11  and  C_12
REMARK    7  A    between atoms: C_12  and  C_13
REMARK    8  A    between atoms: C_13  and  N_14
REMARK    9  A    between atoms: N_14  and  C_15
REMARK   10  A    between atoms: N_14  and  C_17
REMARK                            x       y       z     vdW  Elec       q    Type
REMARK                         _______ _______ _______ _____ _____    ______ ____
ROOT
ATOM      1  C   UNL     1       0.505   5.474  -5.133  0.00  0.00    +0.225 A 
ATOM      2  N   UNL     1       1.545   4.884  -4.492  0.00  0.00    -0.212 NA
ATOM      3  C   UNL     1       2.806   5.329  -4.579  0.00  0.00    +0.085 A 
ATOM      4  C   UNL     1       3.062   6.387  -5.443  0.00  0.00    +0.022 A 
ATOM      5  C   UNL     1       4.061   7.300  -5.196  0.00  0.00    +0.002 A 
ATOM      6  C   UNL     1       4.872   7.123  -4.082  0.00  0.00    +0.000 A 
ATOM      7  C   UNL     1       4.595   6.137  -3.141  0.00  0.00    +0.002 A 
ATOM      8  C   UNL     1       2.115   6.669  -6.418  0.00  0.00    +0.061 A 
ATOM      9  C   UNL     1       3.758   5.124  -3.591  0.00  0.00    +0.019 A 
ATOM     10  C   UNL     1       0.832   6.152  -6.302  0.00  0.00    +0.062 A 
ENDROOT
BRANCH   8  11
ATOM     11  C   UNL     1       2.597   7.281  -7.658  0.00  0.00    +0.265 C 
ATOM     12  N   UNL     1       3.530   6.638  -8.500  0.00  0.00    -0.200 NA
ATOM     13  O   UNL     1       2.210   8.431  -8.015  0.00  0.00    -0.268 OA
BRANCH  12  14
ATOM     14  C   UNL     1       3.473   6.752  -9.935  0.00  0.00    +0.133 C 
BRANCH  14  15
ATOM     15  C   UNL     1       2.707   5.630 -10.589  0.00  0.00    +0.096 C 
BRANCH  15  16
ATOM     16  N   UNL     1       1.562   6.208 -11.262  0.00  0.00    -0.271 NA
BRANCH  16  17
ATOM     17  C   UNL     1       0.407   5.348 -11.120  0.00  0.00    +0.072 C 
ATOM     18  C   UNL     1      -0.026   5.212  -9.674  0.00  0.00    +0.019 C 
ENDBRANCH  16  17
BRANCH  16  19
ATOM     19  C   UNL     1       1.836   6.440 -12.653  0.00  0.00    +0.072 C 
ATOM     20  C   UNL     1       1.745   5.195 -13.489  0.00  0.00    +0.019 C 
ENDBRANCH  16  19
ENDBRANCH  15  16
ENDBRANCH  14  15
ENDBRANCH  12  14
ENDBRANCH   8  11
BRANCH   1  21
ATOM     21  O   UNL     1      -0.756   5.585  -4.540  0.00  0.00    -0.460 OA
BRANCH  21  22
ATOM     22  C   UNL     1      -1.870   6.076  -5.278  0.00  0.00    +0.207 C 
BRANCH  22  23
ATOM     23  C   UNL     1      -2.375   7.350  -4.660  0.00  0.00    +0.047 C 
BRANCH  23  25
ATOM     24  C   UNL     1      -3.485   6.441  -2.596  0.00  0.00    +0.000 C 
ATOM     25  C   UNL     1      -2.358   7.286  -3.138  0.00  0.00    +0.004 C 
ENDBRANCH  23  25
ENDBRANCH  22  23
ENDBRANCH  21  22
ENDBRANCH   1  21
TORSDOF 10
ENDMDL
MODEL 7
REMARK VINA RESULT:      -6.9      2.720      7.217
REMARK  Name = 
REMARK  10 active torsions:
REMARK  status: ('A' for Active; 'I' for Inactive)
REMARK    1  A    between atoms: C_2  and  C_3
REMARK    2  A    between atoms: C_3  and  C_4
REMARK    3  A    between atoms: C_4  and  O_5
REMARK    4  A    between atoms: O_5  and  C_6
REMARK    5  A    between atoms: C_8  and  C_9
REMARK    6  A    between atoms: N_11  and  C_12
REMARK    7  A    between atoms: C_12  and  C_13
REMARK    8  A    between atoms: C_13  and  N_14
REMARK    9  A    between atoms: N_14  and  C_15
REMARK   10  A    between atoms: N_14  and  C_17
REMARK                            x       y       z     vdW  Elec       q    Type
REMARK                         _______ _______ _______ _____ _____    ______ ____
ROOT
ATOM      1  C   UNL     1       1.711   6.383  -3.764  0.00  0.00    +0.225 A 
ATOM      2  N   UNL     1       0.372   6.586  -3.838  0.00  0.00    -0.212 NA
ATOM      3  C   UNL     1      -0.308   6.570  -4.993  0.00  0.00    +0.085 A 
ATOM      4  C   UNL     1       0.417   6.432  -6.170  0.00  0.00    +0.022 A 
ATOM      5  C   UNL     1      -0.109   5.805  -7.277  0.00  0.00    +0.002 A 
ATOM      6  C   UNL     1      -1.422   5.352  -7.230  0.00  0.00    +0.000 A 
ATOM      7  C   UNL     1      -2.151   5.383  -6.048  0.00  0.00    +0.002 A 
ATOM      8  C   UNL     1       1.780   6.691  -6.124  0.00  0.00    +0.061 A 
ATOM      9  C   UNL     1      -1.654   6.248  -5.082  0.00  0.00    +0.019 A 
ATOM     10  C   UNL     1       2.432   6.735  -4.900  0.00  0.00    +0.062 A 
ENDROOT
BRANCH   8  11
ATOM     11  C   UNL     1       2.410   7.168  -7.358  0.00  0.00    +0.265 C 
ATOM     12  N   UNL     1       3.358   6.399  -8.063  0.00  0.00    -0.200 NA
ATOM     13  O   UNL     1       2.143   8.311  -7.829  0.00  0.00    -0.268 OA
BRANCH  12  14
ATOM     14  C   UNL     1       3.431   6.403  -9.503  0.00  0.00    +0.133 C 
BRANCH  14  15
ATOM     15  C   UNL     1       2.376   5.544 -10.152  0.00  0.00    +0.096 C 
BRANCH  15  16
ATOM     16  N   UNL     1       1.697   6.350 -11.146  0.00  0.00    -0.271 NA
BRANCH  16  17
ATOM     17  C   UNL     1       0.389   6.742 -10.668  0.00  0.00    +0.072 C 
ATOM     18  C   UNL     1      -0.398   7.493 -11.723  0.00  0.00    +0.019 C 
ENDBRANCH  16  17
BRANCH  16  19
ATOM     19  C   UNL     1       1.575   5.647 -12.394  0.00  0.00    +0.072 C 
ATOM     20  C   UNL     1       2.766   5.827 -13.292  0.00  0.00    +0.019 C 
ENDBRANCH  16  19
ENDBRANCH  15  16
ENDBRANCH  14  15
ENDBRANCH  12  14
ENDBRANCH   8  11
BRANCH   1  21
ATOM     21  O   UNL     1       2.288   5.662  -2.715  0.00  0.00    -0.460 OA
BRANCH  21  22
ATOM     22  C   UNL     1       3.689   5.412  -2.683  0.00  0.00    +0.207 C 
BRANCH  22  23
ATOM     23  C   UNL     1       4.138   5.176  -1.268  0.00  0.00    +0.047 C 
BRANCH  23  25
ATOM     24  C   UNL     1       5.044   7.089   0.087  0.00  0.00    +0.000 C 
ATOM     25  C   UNL     1       3.805   6.356  -0.365  0.00  0.00    +0.004 C 
ENDBRANCH  23  25
ENDBRANCH  22  23
ENDBRANCH  21  22
ENDBRANCH   1  21
TORSDOF 10
ENDMDL
MODEL 8
REMARK VINA RESULT:      -6.9      1.636      2.118
REMARK  Name = 
REMARK  10 active torsions:
REMARK  status: ('A' for Active; 'I' for Inactive)
REMARK    1  A    between atoms: C_2  and  C_3
REMARK    2  A    between atoms: C_3  and  C_4
REMARK    3  A    between atoms: C_4  and  O_5
REMARK    4  A    between atoms: O_5  and  C_6
REMARK    5  A    between atoms: C_8  and  C_9
REMARK    6  A    between atoms: N_11  and  C_12
REMARK    7  A    between atoms: C_12  and  C_13
REMARK    8  A    between atoms: C_13  and  N_14
REMARK    9  A    between atoms: N_14  and  C_15
REMARK   10  A    between atoms: N_14  and  C_17
REMARK                            x       y       z     vdW  Elec       q    Type
REMARK                         _______ _______ _______ _____ _____    ______ ____
ROOT
ATOM      1  C   UNL     1       4.700   5.419  -8.919  0.00  0.00    +0.225 A 
ATOM      2  N   UNL     1       3.775   4.733  -9.636  0.00  0.00    -0.212 NA
ATOM      3  C   UNL     1       2.483   4.660  -9.286  0.00  0.00    +0.085 A 
ATOM      4  C   UNL     1       2.105   5.237  -8.080  0.00  0.00    +0.022 A 
ATOM      5  C   UNL     1       0.852   5.774  -7.894  0.00  0.00    +0.002 A 
ATOM      6  C   UNL     1      -0.078   5.679  -8.922  0.00  0.00    +0.000 A 
ATOM      7  C   UNL     1       0.283   5.196 -10.175  0.00  0.00    +0.002 A 
ATOM      8  C   UNL     1       3.103   5.515  -7.155  0.00  0.00    +0.061 A 
ATOM      9  C   UNL     1       1.456   4.453 -10.194  0.00  0.00    +0.019 A 
ATOM     10  C   UNL     1       4.430   5.542  -7.561  0.00  0.00    +0.062 A 
ENDROOT
BRANCH   8  11
ATOM     11  C   UNL     1       2.723   5.503  -5.741  0.00  0.00    +0.265 C 
ATOM     12  N   UNL     1       2.070   6.595  -5.129  0.00  0.00    -0.200 NA
ATOM     13  O   UNL     1       2.989   4.514  -4.999  0.00  0.00    -0.268 OA
BRANCH  12  14
ATOM     14  C   UNL     1       1.065   6.415  -4.113  0.00  0.00    +0.133 C 
BRANCH  14  15
ATOM     15  C   UNL     1      -0.180   5.734  -4.623  0.00  0.00    +0.096 C 
BRANCH  15  16
ATOM     16  N   UNL     1      -1.323   6.413  -4.051  0.00  0.00    -0.271 NA
BRANCH  16  17
ATOM     17  C   UNL     1      -1.970   5.571  -3.069  0.00  0.00    +0.072 C 
ATOM     18  C   UNL     1      -3.253   6.188  -2.548  0.00  0.00    +0.019 C 
ENDBRANCH  16  17
BRANCH  16  19
ATOM     19  C   UNL     1      -2.265   6.797  -5.067  0.00  0.00    +0.072 C 
ATOM     20  C   UNL     1      -2.414   5.769  -6.152  0.00  0.00    +0.019 C 
ENDBRANCH  16  19
ENDBRANCH  15  16
ENDBRANCH  14  15
ENDBRANCH  12  14
ENDBRANCH   8  11
BRANCH   1  21
ATOM     21  O   UNL     1       5.724   6.141  -9.539  0.00  0.00    -0.460 OA
BRANCH  21  22
ATOM     22  C   UNL     1       5.506   6.794 -10.785  0.00  0.00    +0.207 C 
BRANCH  22  23
ATOM     23  C   UNL     1       6.782   7.428 -11.264  0.00  0.00    +0.047 C 
BRANCH  23  25
ATOM     24  C   UNL     1       8.301   5.759 -12.370  0.00  0.00    +0.000 C 
ATOM     25  C   UNL     1       7.975   6.496 -11.094  0.00  0.00    +0.004 C 
ENDBRANCH  23  25
ENDBRANCH  22  23
ENDBRANCH  21  22
ENDBRANCH   1  21
TORSDOF 10
ENDMDL
MODEL 9
REMARK VINA RESULT:      -6.8      1.650      2.800
REMARK  Name = 
REMARK  10 active torsions:
REMARK  status: ('A' for Active; 'I' for Inactive)
REMARK    1  A    between atoms: C_2  and  C_3
REMARK    2  A    between atoms: C_3  and  C_4
REMARK    3  A    between atoms: C_4  and  O_5
REMARK    4  A    between atoms: O_5  and  C_6
REMARK    5  A    between atoms: C_8  and  C_9
REMARK    6  A    between atoms: N_11  and  C_12
REMARK    7  A    between atoms: C_12  and  C_13
REMARK    8  A    between atoms: C_13  and  N_14
REMARK    9  A    between atoms: N_14  and  C_15
REMARK   10  A    between atoms: N_14  and  C_17
REMARK                            x       y       z     vdW  Elec       q    Type
REMARK                         _______ _______ _______ _____ _____    ______ ____
ROOT
ATOM      1  C   UNL     1       4.576   6.730 -10.769  0.00  0.00    +0.225 A 
ATOM      2  N   UNL     1       3.664   6.438 -11.731  0.00  0.00    -0.212 NA
ATOM      3  C   UNL     1       2.395   6.103 -11.460  0.00  0.00    +0.085 A 
ATOM      4  C   UNL     1       2.033   5.960 -10.125  0.00  0.00    +0.022 A 
ATOM      5  C   UNL     1       0.759   6.236  -9.686  0.00  0.00    +0.002 A 
ATOM      6  C   UNL     1      -0.205   6.609 -10.615  0.00  0.00    +0.000 A 
ATOM      7  C   UNL     1       0.132   6.855 -11.940  0.00  0.00    +0.002 A 
ATOM      8  C   UNL     1       3.051   5.803  -9.193  0.00  0.00    +0.061 A 
ATOM      9  C   UNL     1       1.346   6.312 -12.342  0.00  0.00    +0.019 A 
ATOM     10  C   UNL     1       4.356   6.128  -9.536  0.00  0.00    +0.062 A 
ENDROOT
BRANCH   8  11
ATOM     11  C   UNL     1       2.730   5.048  -7.980  0.00  0.00    +0.265 C 
ATOM     12  N   UNL     1       2.687   5.656  -6.707  0.00  0.00    -0.200 NA
ATOM     13  O   UNL     1       2.502   3.805  -8.023  0.00  0.00    -0.268 OA
BRANCH  12  14
ATOM     14  C   UNL     1       1.732   5.262  -5.702  0.00  0.00    +0.133 C 
BRANCH  14  15
ATOM     15  C   UNL     1       2.249   5.426  -4.295  0.00  0.00    +0.096 C 
BRANCH  15  16
ATOM     16  N   UNL     1       3.609   5.914  -4.376  0.00  0.00    -0.271 NA
BRANCH  16  17
ATOM     17  C   UNL     1       4.495   5.069  -3.605  0.00  0.00    +0.072 C 
ATOM     18  C   UNL     1       3.982   4.847  -2.196  0.00  0.00    +0.019 C 
ENDBRANCH  16  17
BRANCH  16  19
ATOM     19  C   UNL     1       3.705   7.274  -3.919  0.00  0.00    +0.072 C 
ATOM     20  C   UNL     1       5.063   7.877  -4.138  0.00  0.00    +0.019 C 
ENDBRANCH  16  19
ENDBRANCH  15  16
ENDBRANCH  14  15
ENDBRANCH  12  14
ENDBRANCH   8  11
BRANCH   1  21
ATOM     21  O   UNL     1       5.528   7.739 -10.942  0.00  0.00    -0.460 OA
BRANCH  21  22
ATOM     22  C   UNL     1       6.856   7.428 -11.348  0.00  0.00    +0.207 C 
BRANCH  22  23
ATOM     23  C   UNL     1       6.871   7.025 -12.796  0.00  0.00    +0.047 C 
BRANCH  23  25
ATOM     24  C   UNL     1       8.912   5.797 -11.994  0.00  0.00    +0.000 C 
ATOM     25  C   UNL     1       7.839   5.877 -13.053  0.00  0.00    +0.004 C 
ENDBRANCH  23  25
ENDBRANCH  22  23
ENDBRANCH  21  22
ENDBRANCH   1  21
TORSDOF 10
ENDMDL
