MODEL 1
REMARK VINA RESULT:      -7.3      0.000      0.000
REMARK  Name = 
REMARK  3 active torsions:
REMARK  status: ('A' for Active; 'I' for Inactive)
REMARK    1  A    between atoms: C_6  and  N_7
REMARK    2  A    between atoms: N_7  and  C_8
REMARK    3  A    between atoms: C_13  and  C_14
REMARK                            x       y       z     vdW  Elec       q    Type
REMARK                         _______ _______ _______ _____ _____    ______ ____
ROOT
ATOM      1  N   UNL     1       1.809   4.735  -5.573  0.00  0.00    -0.213 NA
ENDROOT
BRANCH   1   6
ATOM      2  C   UNL     1      -2.824   6.373  -6.135  0.00  0.00    +0.031 C 
ATOM      3  C   UNL     1      -1.731   5.757  -5.329  0.00  0.00    -0.025 A 
ATOM      4  C   UNL     1      -0.490   5.487  -5.878  0.00  0.00    -0.011 A 
ATOM      5  C   UNL     1      -0.395   5.323  -7.353  0.00  0.00    +0.032 C 
ATOM      6  C   UNL     1       0.578   5.215  -5.071  0.00  0.00    +0.066 A 
ATOM      7  C   UNL     1       0.473   5.584  -3.742  0.00  0.00    +0.016 A 
ATOM      8  C   UNL     1      -0.759   5.441  -3.154  0.00  0.00    +0.001 A 
ATOM      9  C   UNL     1      -1.873   5.527  -3.972  0.00  0.00    -0.004 A 
ENDBRANCH   1   6
BRANCH   1  10
ATOM     10  C   UNL     1       3.057   5.266  -5.200  0.00  0.00    +0.077 A 
ATOM     11  C   UNL     1       3.424   6.504  -5.714  0.00  0.00    +0.095 A 
ATOM     12  C   UNL     1       4.458   7.207  -5.107  0.00  0.00    +0.008 A 
ATOM     13  C   UNL     1       5.141   6.710  -4.006  0.00  0.00    +0.000 A 
ATOM     14  C   UNL     1       4.676   5.504  -3.504  0.00  0.00    +0.001 A 
ATOM     15  C   UNL     1       3.958   4.666  -4.348  0.00  0.00    +0.017 A 
BRANCH  11  16
ATOM     16  C   UNL     1       2.997   6.883  -7.066  0.00  0.00    +0.389 C 
ATOM     17  O   UNL     1       3.583   6.257  -8.144  0.00  0.00    -0.241 OA
ATOM     18  O   UNL     1       2.352   7.938  -7.279  0.00  0.00    -0.241 OA
ENDBRANCH  11  16
ENDBRANCH   1  10
TORSDOF 3
ENDMDL
MODEL 2
REMARK VINA RESULT:      -7.2      2.973      5.950
REMARK  Name = 
REMARK  3 active torsions:
REMARK  status: ('A' for Active; 'I' for Inactive)
REMARK    1  A    between atoms: C_6  and  N_7
REMARK    2  A    between atoms: N_7  and  C_8
REMARK    3  A    between atoms: C_13  and  C_14
REMARK                            x       y       z     vdW  Elec       q    Type
REMARK                         _______ _______ _______ _____ _____    ______ ____
ROOT
ATOM      1  N   UNL     1       0.359   6.377  -3.440  0.00  0.00    -0.213 NA
ENDROOT
BRANCH   1   6
ATOM      2  C   UNL     1       4.276   4.610  -0.990  0.00  0.00    +0.031 C 
ATOM      3  C   UNL     1       3.615   5.128  -2.222  0.00  0.00    -0.025 A 
ATOM      4  C   UNL     1       2.268   5.447  -2.241  0.00  0.00    -0.011 A 
ATOM      5  C   UNL     1       1.380   4.806  -1.235  0.00  0.00    +0.032 C 
ATOM      6  C   UNL     1       1.750   6.195  -3.259  0.00  0.00    +0.066 A 
ATOM      7  C   UNL     1       2.644   6.918  -4.028  0.00  0.00    +0.016 A 
ATOM      8  C   UNL     1       3.855   6.328  -4.290  0.00  0.00    +0.001 A 
ATOM      9  C   UNL     1       4.337   5.415  -3.366  0.00  0.00    -0.004 A 
ENDBRANCH   1   6
BRANCH   1  10
ATOM     10  C   UNL     1      -0.364   5.801  -4.500  0.00  0.00    +0.077 A 
ATOM     11  C   UNL     1      -1.751   5.901  -4.480  0.00  0.00    +0.095 A 
ATOM     12  C   UNL     1      -2.461   5.668  -5.651  0.00  0.00    +0.008 A 
ATOM     13  C   UNL     1      -1.832   5.332  -6.841  0.00  0.00    +0.000 A 
ATOM     14  C   UNL     1      -0.445   5.319  -6.805  0.00  0.00    +0.001 A 
ATOM     15  C   UNL     1       0.186   5.146  -5.579  0.00  0.00    +0.017 A 
BRANCH  11  16
ATOM     16  C   UNL     1      -2.461   5.882  -3.196  0.00  0.00    +0.389 C 
ATOM     17  O   UNL     1      -2.760   4.664  -2.624  0.00  0.00    -0.241 OA
ATOM     18  O   UNL     1      -3.053   6.897  -2.757  0.00  0.00    -0.241 OA
ENDBRANCH  11  16
ENDBRANCH   1  10
TORSDOF 3
ENDMDL
MODEL 3
REMARK VINA RESULT:      -7.2      4.629      7.880
REMARK  Name = 
REMARK  3 active torsions:
REMARK  status: ('A' for Active; 'I' for Inactive)
REMARK    1  A    between atoms: C_6  and  N_7
REMARK    2  A    between atoms: N_7  and  C_8
REMARK    3  A    between atoms: C_13  and  C_14
REMARK                            x       y       z     vdW  Elec       q    Type
REMARK                         _______ _______ _______ _____ _____    ______ ____
ROOT
ATOM      1  N   UNL     1       4.239   7.148 -10.539  0.00  0.00    -0.213 NA
ENDROOT
BRANCH   1   6
ATOM      2  C   UNL     1       8.759   5.791 -12.019  0.00  0.00    +0.031 C 
ATOM      3  C   UNL     1       7.727   6.012 -10.966  0.00  0.00    -0.025 A 
ATOM      4  C   UNL     1       6.484   6.540 -11.269  0.00  0.00    -0.011 A 
ATOM      5  C   UNL     1       6.350   7.354 -12.506  0.00  0.00    +0.032 C 
ATOM      6  C   UNL     1       5.459   6.453 -10.372  0.00  0.00    +0.066 A 
ATOM      7  C   UNL     1       5.587   5.522  -9.356  0.00  0.00    +0.016 A 
ATOM      8  C   UNL     1       6.843   5.344  -8.833  0.00  0.00    +0.001 A 
ATOM      9  C   UNL     1       7.924   5.601  -9.659  0.00  0.00    -0.004 A 
ENDBRANCH   1   6
BRANCH   1  10
ATOM     10  C   UNL     1       2.991   6.506 -10.640  0.00  0.00    +0.077 A 
ATOM     11  C   UNL     1       2.006   6.836  -9.717  0.00  0.00    +0.095 A 
ATOM     12  C   UNL     1       0.685   6.502  -9.992  0.00  0.00    +0.008 A 
ATOM     13  C   UNL     1       0.317   5.843 -11.156  0.00  0.00    +0.000 A 
ATOM     14  C   UNL     1       1.341   5.608 -12.062  0.00  0.00    +0.001 A 
ATOM     15  C   UNL     1       2.648   5.573 -11.593  0.00  0.00    +0.017 A 
BRANCH  11  16
ATOM     16  C   UNL     1       2.386   7.182  -8.343  0.00  0.00    +0.389 C 
ATOM     17  O   UNL     1       2.700   6.166  -7.468  0.00  0.00    -0.241 OA
ATOM     18  O   UNL     1       2.153   8.318  -7.863  0.00  0.00    -0.241 OA
ENDBRANCH  11  16
ENDBRANCH   1  10
TORSDOF 3
ENDMDL
MODEL 4
REMARK VINA RESULT:      -7.0      1.802      3.314
REMARK  Name = 
REMARK  3 active torsions:
REMARK  status: ('A' for Active; 'I' for Inactive)
REMARK    1  A    between atoms: C_6  and  N_7
REMARK    2  A    between atoms: N_7  and  C_8
REMARK    3  A    between atoms: C_13  and  C_14
REMARK                            x       y       z     vdW  Elec       q    Type
REMARK                         _______ _______ _______ _____ _____    ______ ____
ROOT
ATOM      1  N   UNL     1       1.415   6.537  -5.251  0.00  0.00    -0.213 NA
ENDROOT
BRANCH   1   6
ATOM      2  C   UNL     1      -3.065   5.266  -3.585  0.00  0.00    +0.031 C 
ATOM      3  C   UNL     1      -2.117   5.625  -4.679  0.00  0.00    -0.025 A 
ATOM      4  C   UNL     1      -0.804   5.971  -4.414  0.00  0.00    -0.011 A 
ATOM      5  C   UNL     1      -0.472   6.485  -3.059  0.00  0.00    +0.032 C 
ATOM      6  C   UNL     1       0.119   5.997  -5.420  0.00  0.00    +0.066 A 
ATOM      7  C   UNL     1      -0.198   5.321  -6.585  0.00  0.00    +0.016 A 
ATOM      8  C   UNL     1      -1.509   5.365  -6.989  0.00  0.00    +0.001 A 
ATOM      9  C   UNL     1      -2.476   5.524  -6.011  0.00  0.00    -0.004 A 
ENDBRANCH   1   6
BRANCH   1  10
ATOM     10  C   UNL     1       2.351   6.644  -6.296  0.00  0.00    +0.077 A 
ATOM     11  C   UNL     1       3.479   5.833  -6.252  0.00  0.00    +0.095 A 
ATOM     12  C   UNL     1       4.226   5.654  -7.411  0.00  0.00    +0.008 A 
ATOM     13  C   UNL     1       3.886   6.264  -8.610  0.00  0.00    +0.000 A 
ATOM     14  C   UNL     1       2.711   7.001  -8.597  0.00  0.00    +0.001 A 
ATOM     15  C   UNL     1       2.244   7.485  -7.381  0.00  0.00    +0.017 A 
BRANCH  11  16
ATOM     16  C   UNL     1       4.073   5.484  -4.956  0.00  0.00    +0.389 C 
ATOM     17  O   UNL     1       5.019   6.326  -4.415  0.00  0.00    -0.241 OA
ATOM     18  O   UNL     1       3.972   4.329  -4.477  0.00  0.00    -0.241 OA
ENDBRANCH  11  16
ENDBRANCH   1  10
TORSDOF 3
ENDMDL
MODEL 5
REMARK VINA RESULT:      -6.9      1.171      2.239
REMARK  Name = 
REMARK  3 active torsions:
REMARK  status: ('A' for Active; 'I' for Inactive)
REMARK    1  A    between atoms: C_6  and  N_7
REMARK    2  A    between atoms: N_7  and  C_8
REMARK    3  A    between atoms: C_13  and  C_14
REMARK                            x       y       z     vdW  Elec       q    Type
REMARK                         _______ _______ _______ _____ _____    ______ ____
ROOT
ATOM      1  N   UNL     1       0.958   6.916  -5.286  0.00  0.00    -0.213 NA
ENDROOT
BRANCH   1   6
ATOM      2  C   UNL     1      -3.298   5.200  -3.442  0.00  0.00    +0.031 C 
ATOM      3  C   UNL     1      -2.437   5.651  -4.572  0.00  0.00    -0.025 A 
ATOM      4  C   UNL     1      -1.156   6.129  -4.361  0.00  0.00    -0.011 A 
ATOM      5  C   UNL     1      -0.823   6.676  -3.019  0.00  0.00    +0.032 C 
ATOM      6  C   UNL     1      -0.282   6.247  -5.403  0.00  0.00    +0.066 A 
ATOM      7  C   UNL     1      -0.577   5.541  -6.556  0.00  0.00    +0.016 A 
ATOM      8  C   UNL     1      -1.901   5.451  -6.906  0.00  0.00    +0.001 A 
ATOM      9  C   UNL     1      -2.839   5.513  -5.889  0.00  0.00    -0.004 A 
ENDBRANCH   1   6
BRANCH   1  10
ATOM     10  C   UNL     1       2.195   6.248  -5.239  0.00  0.00    +0.077 A 
ATOM     11  C   UNL     1       3.157   6.579  -6.187  0.00  0.00    +0.095 A 
ATOM     12  C   UNL     1       4.479   6.213  -5.962  0.00  0.00    +0.008 A 
ATOM     13  C   UNL     1       4.871   5.523  -4.825  0.00  0.00    +0.000 A 
ATOM     14  C   UNL     1       3.873   5.288  -3.891  0.00  0.00    +0.001 A 
ATOM     15  C   UNL     1       2.550   5.288  -4.318  0.00  0.00    +0.017 A 
BRANCH  11  16
ATOM     16  C   UNL     1       2.740   6.961  -7.541  0.00  0.00    +0.389 C 
ATOM     17  O   UNL     1       2.300   8.249  -7.758  0.00  0.00    -0.241 OA
ATOM     18  O   UNL     1       2.494   6.101  -8.420  0.00  0.00    -0.241 OA
ENDBRANCH  11  16
ENDBRANCH   1  10
TORSDOF 3
ENDMDL
MODEL 6
REMARK VINA RESULT:      -6.8      1.939      4.986
REMARK  Name = 
REMARK  3 active torsions:
REMARK  status: ('A' for Active; 'I' for Inactive)
REMARK    1  A    between atoms: C_6  and  N_7
REMARK    2  A    between atoms: N_7  and  C_8
REMARK    3  A    between atoms: C_13  and  C_14
REMARK                            x       y       z     vdW  Elec       q    Type
REMARK                         _______ _______ _______ _____ _____    ______ ____
ROOT
ATOM      1  N   UNL     1       1.150   6.727  -4.513  0.00  0.00    -0.213 NA
ENDROOT
BRANCH   1   6
ATOM      2  C   UNL     1       4.148   4.623  -1.188  0.00  0.00    +0.031 C 
ATOM      3  C   UNL     1       2.826   5.164  -1.617  0.00  0.00    -0.025 A 
ATOM      4  C   UNL     1       2.651   5.748  -2.859  0.00  0.00    -0.011 A 
ATOM      5  C   UNL     1       3.846   6.301  -3.550  0.00  0.00    +0.032 C 
ATOM      6  C   UNL     1       1.395   5.956  -3.353  0.00  0.00    +0.066 A 
ATOM      7  C   UNL     1       0.362   5.243  -2.770  0.00  0.00    +0.016 A 
ATOM      8  C   UNL     1       0.435   5.044  -1.414  0.00  0.00    +0.001 A 
ATOM      9  C   UNL     1       1.694   5.010  -0.838  0.00  0.00    -0.004 A 
ENDBRANCH   1   6
BRANCH   1  10
ATOM     10  C   UNL     1      -0.043   6.653  -5.253  0.00  0.00    +0.077 A 
ATOM     11  C   UNL     1      -0.143   5.683  -6.244  0.00  0.00    +0.095 A 
ATOM     12  C   UNL     1      -1.398   5.352  -6.739  0.00  0.00    +0.008 A 
ATOM     13  C   UNL     1      -2.557   5.963  -6.283  0.00  0.00    +0.000 A 
ATOM     14  C   UNL     1      -2.389   6.870  -5.247  0.00  0.00    +0.001 A 
ATOM     15  C   UNL     1      -1.144   7.462  -5.077  0.00  0.00    +0.017 A 
BRANCH  11  16
ATOM     16  C   UNL     1       1.052   5.295  -7.002  0.00  0.00    +0.389 C 
ATOM     17  O   UNL     1       1.302   5.916  -8.206  0.00  0.00    -0.241 OA
ATOM     18  O   UNL     1       1.678   4.237  -6.746  0.00  0.00    -0.241 OA
ENDBRANCH  11  16
ENDBRANCH   1  10
TORSDOF 3
ENDMDL
MODEL 7
REMARK VINA RESULT:      -6.8      2.600      5.492
REMARK  Name = 
REMARK  3 active torsions:
REMARK  status: ('A' for Active; 'I' for Inactive)
REMARK    1  A    between atoms: C_6  and  N_7
REMARK    2  A    between atoms: N_7  and  C_8
REMARK    3  A    between atoms: C_13  and  C_14
REMARK                            x       y       z     vdW  Elec       q    Type
REMARK                         _______ _______ _______ _____ _____    ______ ____
ROOT
ATOM      1  N   UNL     1       1.003   4.843  -6.172  0.00  0.00    -0.213 NA
ENDROOT
BRANCH   1   6
ATOM      2  C   UNL     1       4.267   5.327  -9.857  0.00  0.00    +0.031 C 
ATOM      3  C   UNL     1       3.214   5.865  -8.948  0.00  0.00    -0.025 A 
ATOM      4  C   UNL     1       2.570   5.056  -8.028  0.00  0.00    -0.011 A 
ATOM      5  C   UNL     1       2.538   3.591  -8.282  0.00  0.00    +0.032 C 
ATOM      6  C   UNL     1       1.845   5.608  -7.012  0.00  0.00    +0.066 A 
ATOM      7  C   UNL     1       2.084   6.939  -6.717  0.00  0.00    +0.016 A 
ATOM      8  C   UNL     1       2.340   7.773  -7.777  0.00  0.00    +0.001 A 
ATOM      9  C   UNL     1       2.911   7.214  -8.909  0.00  0.00    -0.004 A 
ENDBRANCH   1   6
BRANCH   1  10
ATOM     10  C   UNL     1      -0.273   5.267  -5.763  0.00  0.00    +0.077 A 
ATOM     11  C   UNL     1      -0.388   5.927  -4.545  0.00  0.00    +0.095 A 
ATOM     12  C   UNL     1      -1.540   6.657  -4.279  0.00  0.00    +0.008 A 
ATOM     13  C   UNL     1      -2.585   6.744  -5.187  0.00  0.00    +0.000 A 
ATOM     14  C   UNL     1      -2.374   6.119  -6.407  0.00  0.00    +0.001 A 
ATOM     15  C   UNL     1      -1.439   5.093  -6.475  0.00  0.00    +0.017 A 
BRANCH  11  16
ATOM     16  C   UNL     1       0.501   5.563  -3.435  0.00  0.00    +0.389 C 
ATOM     17  O   UNL     1       0.006   4.769  -2.425  0.00  0.00    -0.241 OA
ATOM     18  O   UNL     1       1.577   6.174  -3.227  0.00  0.00    -0.241 OA
ENDBRANCH  11  16
ENDBRANCH   1  10
TORSDOF 3
ENDMDL
MODEL 8
REMARK VINA RESULT:      -6.8      3.579      6.340
REMARK  Name = 
REMARK  3 active torsions:
REMARK  status: ('A' for Active; 'I' for Inactive)
REMARK    1  A    between atoms: C_6  and  N_7
REMARK    2  A    between atoms: N_7  and  C_8
REMARK    3  A    between atoms: C_13  and  C_14
REMARK                            x       y       z     vdW  Elec       q    Type
REMARK                         _______ _______ _______ _____ _____    ______ ____
ROOT
ATOM      1  N   UNL     1       4.191   5.303  -8.668  0.00  0.00    -0.213 NA
ENDROOT
BRANCH   1   6
ATOM      2  C   UNL     1       6.302   7.254 -12.694  0.00  0.00    +0.031 C 
ATOM      3  C   UNL     1       6.312   6.874 -11.252  0.00  0.00    -0.025 A 
ATOM      4  C   UNL     1       5.200   6.319 -10.641  0.00  0.00    -0.011 A 
ATOM      5  C   UNL     1       3.866   6.571 -11.248  0.00  0.00    +0.032 C 
ATOM      6  C   UNL     1       5.314   5.702  -9.429  0.00  0.00    +0.066 A 
ATOM      7  C   UNL     1       6.585   5.326  -9.030  0.00  0.00    +0.016 A 
ATOM      8  C   UNL     1       7.614   6.172  -9.358  0.00  0.00    +0.001 A 
ATOM      9  C   UNL     1       7.462   6.958 -10.488  0.00  0.00    -0.004 A 
ENDBRANCH   1   6
BRANCH   1  10
ATOM     10  C   UNL     1       3.951   5.743  -7.354  0.00  0.00    +0.077 A 
ATOM     11  C   UNL     1       2.731   6.350  -7.078  0.00  0.00    +0.095 A 
ATOM     12  C   UNL     1       2.323   6.472  -5.755  0.00  0.00    +0.008 A 
ATOM     13  C   UNL     1       3.096   6.012  -4.699  0.00  0.00    +0.000 A 
ATOM     14  C   UNL     1       4.266   5.356  -5.051  0.00  0.00    +0.001 A 
ATOM     15  C   UNL     1       4.824   5.616  -6.297  0.00  0.00    +0.017 A 
BRANCH  11  16
ATOM     16  C   UNL     1       2.077   7.166  -8.107  0.00  0.00    +0.389 C 
ATOM     17  O   UNL     1       2.174   8.538  -8.024  0.00  0.00    -0.241 OA
ATOM     18  O   UNL     1       1.207   6.685  -8.872  0.00  0.00    -0.241 OA
ENDBRANCH  11  16
ENDBRANCH   1  10
TORSDOF 3
ENDMDL
MODEL 9
REMARK VINA RESULT:      -6.8      5.469      6.979
REMARK  Name = 
REMARK  3 active torsions:
REMARK  status: ('A' for Active; 'I' for Inactive)
REMARK    1  A    between atoms: C_6  and  N_7
REMARK    2  A    between atoms: N_7  and  C_8
REMARK    3  A    between atoms: C_13  and  C_14
REMARK                            x       y       z     vdW  Elec       q    Type
REMARK                         _______ _______ _______ _____ _____    ______ ____
ROOT
ATOM      1  N   UNL     1       4.787   6.761 -11.072  0.00  0.00    -0.213 NA
ENDROOT
BRANCH   1   6
ATOM      2  C   UNL     1       0.275   4.957 -10.144  0.00  0.00    +0.031 C 
ATOM      3  C   UNL     1       1.752   4.985  -9.942  0.00  0.00    -0.025 A 
ATOM      4  C   UNL     1       2.567   5.837 -10.667  0.00  0.00    -0.011 A 
ATOM      5  C   UNL     1       2.071   6.338 -11.976  0.00  0.00    +0.032 C 
ATOM      6  C   UNL     1       3.851   6.071 -10.267  0.00  0.00    +0.066 A 
ATOM      7  C   UNL     1       4.173   5.749  -8.960  0.00  0.00    +0.016 A 
ATOM      8  C   UNL     1       3.591   4.621  -8.438  0.00  0.00    +0.001 A 
ATOM      9  C   UNL     1       2.362   4.239  -8.949  0.00  0.00    -0.004 A 
ENDBRANCH   1   6
BRANCH   1  10
ATOM     10  C   UNL     1       6.018   6.212 -11.472  0.00  0.00    +0.077 A 
ATOM     11  C   UNL     1       6.238   6.011 -12.829  0.00  0.00    +0.095 A 
ATOM     12  C   UNL     1       7.537   5.812 -13.280  0.00  0.00    +0.008 A 
ATOM     13  C   UNL     1       8.624   5.801 -12.418  0.00  0.00    +0.000 A 
ATOM     14  C   UNL     1       8.339   6.077 -11.088  0.00  0.00    +0.001 A 
ATOM     15  C   UNL     1       7.046   5.859 -10.627  0.00  0.00    +0.017 A 
BRANCH  11  16
ATOM     16  C   UNL     1       5.114   5.648 -13.701  0.00  0.00    +0.389 C 
ATOM     17  O   UNL     1       4.568   4.389 -13.584  0.00  0.00    -0.241 OA
ATOM     18  O   UNL     1       4.834   6.316 -14.725  0.00  0.00    -0.241 OA
ENDBRANCH  11  16
ENDBRANCH   1  10
TORSDOF 3
ENDMDL
