MODEL 1
REMARK VINA RESULT:      -7.9      0.000      0.000
REMARK  Name = 
REMARK  5 active torsions:
REMARK  status: ('A' for Active; 'I' for Inactive)
REMARK    1  A    between atoms: C_2  and  C_3
REMARK    2  A    between atoms: C_4  and  C_5
REMARK    3  A    between atoms: C_6  and  C_8
REMARK    4  A    between atoms: C_9  and  C_10
REMARK    5  A    between atoms: C_19  and  C_20
REMARK                            x       y       z     vdW  Elec       q    Type
REMARK                         _______ _______ _______ _____ _____    ______ ____
ROOT
ATOM      1  C   UNL     1       1.834   7.075  -8.889  0.00  0.00    -0.004 C 
ATOM      2  C   UNL     1       2.436   6.052  -9.499  0.00  0.00    -0.022 C 
ATOM      3  C   UNL     1       1.603   5.236 -10.440  0.00  0.00    +0.031 C 
ENDROOT
BRANCH   1   5
ATOM      4  C   UNL     1       2.032   6.894  -6.456  0.00  0.00    -0.004 C 
ATOM      5  C   UNL     1       2.401   7.453  -7.588  0.00  0.00    -0.001 C 
BRANCH   4   7
ATOM      6  C   UNL     1       4.061   5.492  -5.890  0.00  0.00    +0.031 C 
ATOM      7  C   UNL     1       2.982   6.426  -5.440  0.00  0.00    -0.015 C 
ATOM      8  C   UNL     1       3.209   7.055  -4.309  0.00  0.00    +0.082 C 
BRANCH   8   9
ATOM      9  C   UNL     1       4.553   7.435  -3.853  0.00  0.00    +0.388 C 
ATOM     10  O   UNL     1       4.819   7.166  -2.507  0.00  0.00    -0.241 OA
ATOM     11  O   UNL     1       5.194   8.388  -4.374  0.00  0.00    -0.241 OA
ENDBRANCH   8   9
ENDBRANCH   4   7
ENDBRANCH   1   5
BRANCH   2  12
ATOM     12  C   UNL     1       3.884   6.194  -9.664  0.00  0.00    -0.005 C 
ATOM     13  C   UNL     1       4.649   5.289 -10.228  0.00  0.00    -0.005 C 
BRANCH  13  14
ATOM     14  C   UNL     1       5.740   5.610 -11.158  0.00  0.00    -0.031 C 
ATOM     15  C   UNL     1       7.071   6.085 -10.698  0.00  0.00    +0.018 C 
ATOM     16  C   UNL     1       8.101   5.528 -11.667  0.00  0.00    +0.004 C 
ATOM     17  C   UNL     1       7.389   5.651  -9.297  0.00  0.00    +0.004 C 
ATOM     18  C   UNL     1       7.078   7.583 -10.810  0.00  0.00    +0.004 C 
ATOM     19  C   UNL     1       6.572   8.060 -12.140  0.00  0.00    +0.005 C 
ATOM     20  C   UNL     1       6.339   6.902 -13.105  0.00  0.00    +0.022 C 
ATOM     21  C   UNL     1       5.404   5.972 -12.397  0.00  0.00    -0.048 C 
ATOM     22  C   UNL     1       4.256   5.321 -13.056  0.00  0.00    +0.026 C 
ENDBRANCH  13  14
ENDBRANCH   2  12
TORSDOF 5
ENDMDL
MODEL 2
REMARK VINA RESULT:      -7.8      4.913      6.969
REMARK  Name = 
REMARK  5 active torsions:
REMARK  status: ('A' for Active; 'I' for Inactive)
REMARK    1  A    between atoms: C_2  and  C_3
REMARK    2  A    between atoms: C_4  and  C_5
REMARK    3  A    between atoms: C_6  and  C_8
REMARK    4  A    between atoms: C_9  and  C_10
REMARK    5  A    between atoms: C_19  and  C_20
REMARK                            x       y       z     vdW  Elec       q    Type
REMARK                         _______ _______ _______ _____ _____    ______ ____
ROOT
ATOM      1  C   UNL     1      -1.996   7.289  -4.916  0.00  0.00    -0.004 C 
ATOM      2  C   UNL     1      -1.172   6.273  -5.183  0.00  0.00    -0.022 C 
ATOM      3  C   UNL     1      -1.469   5.459  -6.404  0.00  0.00    +0.031 C 
ENDROOT
BRANCH   1   5
ATOM      4  C   UNL     1      -2.707   6.914  -2.604  0.00  0.00    -0.004 C 
ATOM      5  C   UNL     1      -2.098   7.661  -3.499  0.00  0.00    -0.001 C 
BRANCH   4   7
ATOM      6  C   UNL     1      -0.993   5.626  -1.258  0.00  0.00    +0.031 C 
ATOM      7  C   UNL     1      -2.131   6.598  -1.291  0.00  0.00    -0.015 C 
ATOM      8  C   UNL     1      -2.246   7.376  -0.238  0.00  0.00    +0.082 C 
BRANCH   8   9
ATOM      9  C   UNL     1      -1.099   7.830   0.559  0.00  0.00    +0.388 C 
ATOM     10  O   UNL     1      -0.989   7.247   1.825  0.00  0.00    -0.241 OA
ATOM     11  O   UNL     1      -0.602   8.982   0.425  0.00  0.00    -0.241 OA
ENDBRANCH   8   9
ENDBRANCH   4   7
ENDBRANCH   1   5
BRANCH   2  12
ATOM     12  C   UNL     1       0.187   6.425  -4.659  0.00  0.00    -0.005 C 
ATOM     13  C   UNL     1       0.914   5.430  -4.208  0.00  0.00    -0.005 C 
BRANCH  13  14
ATOM     14  C   UNL     1       2.347   5.275  -4.488  0.00  0.00    -0.031 C 
ATOM     15  C   UNL     1       3.395   6.011  -3.733  0.00  0.00    +0.018 C 
ATOM     16  C   UNL     1       4.602   5.092  -3.639  0.00  0.00    +0.004 C 
ATOM     17  C   UNL     1       2.943   6.416  -2.361  0.00  0.00    +0.004 C 
ATOM     18  C   UNL     1       3.778   7.212  -4.548  0.00  0.00    +0.004 C 
ATOM     19  C   UNL     1       4.044   6.869  -5.985  0.00  0.00    +0.005 C 
ATOM     20  C   UNL     1       4.026   5.362  -6.218  0.00  0.00    +0.022 C 
ATOM     21  C   UNL     1       2.695   4.895  -5.719  0.00  0.00    -0.048 C 
ATOM     22  C   UNL     1       1.857   3.917  -6.439  0.00  0.00    +0.026 C 
ENDBRANCH  13  14
ENDBRANCH   2  12
TORSDOF 5
ENDMDL
MODEL 3
REMARK VINA RESULT:      -7.8      3.896      6.012
REMARK  Name = 
REMARK  5 active torsions:
REMARK  status: ('A' for Active; 'I' for Inactive)
REMARK    1  A    between atoms: C_2  and  C_3
REMARK    2  A    between atoms: C_4  and  C_5
REMARK    3  A    between atoms: C_6  and  C_8
REMARK    4  A    between atoms: C_9  and  C_10
REMARK    5  A    between atoms: C_19  and  C_20
REMARK                            x       y       z     vdW  Elec       q    Type
REMARK                         _______ _______ _______ _____ _____    ______ ____
ROOT
ATOM      1  C   UNL     1      -2.512   7.354  -4.992  0.00  0.00    -0.004 C 
ATOM      2  C   UNL     1      -1.973   6.216  -5.435  0.00  0.00    -0.022 C 
ATOM      3  C   UNL     1      -2.840   5.338  -6.283  0.00  0.00    +0.031 C 
ENDROOT
BRANCH   1   5
ATOM      4  C   UNL     1      -2.319   7.425  -2.553  0.00  0.00    -0.004 C 
ATOM      5  C   UNL     1      -1.952   7.869  -3.736  0.00  0.00    -0.001 C 
BRANCH   4   7
ATOM      6  C   UNL     1      -1.932   6.729  -0.150  0.00  0.00    +0.031 C 
ATOM      7  C   UNL     1      -1.366   7.072  -1.492  0.00  0.00    -0.015 C 
ATOM      8  C   UNL     1      -0.145   6.645  -1.722  0.00  0.00    +0.082 C 
BRANCH   8   9
ATOM      9  C   UNL     1       0.398   5.407  -1.147  0.00  0.00    +0.388 C 
ATOM     10  O   UNL     1       1.528   5.575  -0.340  0.00  0.00    -0.241 OA
ATOM     11  O   UNL     1       0.278   4.291  -1.721  0.00  0.00    -0.241 OA
ENDBRANCH   8   9
ENDBRANCH   4   7
ENDBRANCH   1   5
BRANCH   2  12
ATOM     12  C   UNL     1      -0.514   6.233  -5.566  0.00  0.00    -0.005 C 
ATOM     13  C   UNL     1       0.187   5.245  -6.070  0.00  0.00    -0.005 C 
BRANCH  13  14
ATOM     14  C   UNL     1       1.321   5.434  -6.983  0.00  0.00    -0.031 C 
ATOM     15  C   UNL     1       2.704   5.688  -6.501  0.00  0.00    +0.018 C 
ATOM     16  C   UNL     1       3.648   5.020  -7.487  0.00  0.00    +0.004 C 
ATOM     17  C   UNL     1       2.941   5.159  -5.117  0.00  0.00    +0.004 C 
ATOM     18  C   UNL     1       2.935   7.171  -6.556  0.00  0.00    +0.004 C 
ATOM     19  C   UNL     1       2.517   7.768  -7.868  0.00  0.00    +0.005 C 
ATOM     20  C   UNL     1       2.124   6.695  -8.877  0.00  0.00    +0.022 C 
ATOM     21  C   UNL     1       1.054   5.889  -8.209  0.00  0.00    -0.048 C 
ATOM     22  C   UNL     1      -0.172   5.442  -8.897  0.00  0.00    +0.026 C 
ENDBRANCH  13  14
ENDBRANCH   2  12
TORSDOF 5
ENDMDL
MODEL 4
REMARK VINA RESULT:      -7.7      1.547      2.173
REMARK  Name = 
REMARK  5 active torsions:
REMARK  status: ('A' for Active; 'I' for Inactive)
REMARK    1  A    between atoms: C_2  and  C_3
REMARK    2  A    between atoms: C_4  and  C_5
REMARK    3  A    between atoms: C_6  and  C_8
REMARK    4  A    between atoms: C_9  and  C_10
REMARK    5  A    between atoms: C_19  and  C_20
REMARK                            x       y       z     vdW  Elec       q    Type
REMARK                         _______ _______ _______ _____ _____    ______ ____
ROOT
ATOM      1  C   UNL     1       3.005   6.747  -6.887  0.00  0.00    -0.004 C 
ATOM      2  C   UNL     1       3.077   6.333  -8.154  0.00  0.00    -0.022 C 
ATOM      3  C   UNL     1       1.885   6.592  -9.024  0.00  0.00    +0.031 C 
ENDROOT
BRANCH   1   5
ATOM      4  C   UNL     1       4.716   6.558  -5.148  0.00  0.00    -0.004 C 
ATOM      5  C   UNL     1       3.824   5.991  -5.931  0.00  0.00    -0.001 C 
BRANCH   4   7
ATOM      6  C   UNL     1       4.998   7.437  -2.791  0.00  0.00    +0.031 C 
ATOM      7  C   UNL     1       4.830   6.270  -3.712  0.00  0.00    -0.015 C 
ATOM      8  C   UNL     1       4.397   5.162  -3.155  0.00  0.00    +0.082 C 
BRANCH   8   9
ATOM      9  C   UNL     1       3.492   5.141  -1.998  0.00  0.00    +0.388 C 
ATOM     10  O   UNL     1       3.964   4.431  -0.890  0.00  0.00    -0.241 OA
ATOM     11  O   UNL     1       2.239   5.220  -2.124  0.00  0.00    -0.241 OA
ENDBRANCH   8   9
ENDBRANCH   4   7
ENDBRANCH   1   5
BRANCH   2  12
ATOM     12  C   UNL     1       4.434   6.240  -8.699  0.00  0.00    -0.005 C 
ATOM     13  C   UNL     1       4.810   5.342  -9.578  0.00  0.00    -0.005 C 
BRANCH  13  14
ATOM     14  C   UNL     1       5.682   5.638 -10.722  0.00  0.00    -0.031 C 
ATOM     15  C   UNL     1       7.138   5.897 -10.574  0.00  0.00    +0.018 C 
ATOM     16  C   UNL     1       7.817   5.339 -11.814  0.00  0.00    +0.004 C 
ATOM     17  C   UNL     1       7.715   5.269  -9.340  0.00  0.00    +0.004 C 
ATOM     18  C   UNL     1       7.331   7.386 -10.559  0.00  0.00    +0.004 C 
ATOM     19  C   UNL     1       6.596   8.071 -11.674  0.00  0.00    +0.005 C 
ATOM     20  C   UNL     1       5.978   7.068 -12.642  0.00  0.00    +0.022 C 
ATOM     21  C   UNL     1       5.115   6.179 -11.803  0.00  0.00    -0.048 C 
ATOM     22  C   UNL     1       3.762   5.748 -12.204  0.00  0.00    +0.026 C 
ENDBRANCH  13  14
ENDBRANCH   2  12
TORSDOF 5
ENDMDL
MODEL 5
REMARK VINA RESULT:      -7.7      3.286      6.679
REMARK  Name = 
REMARK  5 active torsions:
REMARK  status: ('A' for Active; 'I' for Inactive)
REMARK    1  A    between atoms: C_2  and  C_3
REMARK    2  A    between atoms: C_4  and  C_5
REMARK    3  A    between atoms: C_6  and  C_8
REMARK    4  A    between atoms: C_9  and  C_10
REMARK    5  A    between atoms: C_19  and  C_20
REMARK                            x       y       z     vdW  Elec       q    Type
REMARK                         _______ _______ _______ _____ _____    ______ ____
ROOT
ATOM      1  C   UNL     1       2.539   6.097 -11.172  0.00  0.00    -0.004 C 
ATOM      2  C   UNL     1       1.402   6.633 -10.726  0.00  0.00    -0.022 C 
ATOM      3  C   UNL     1       0.208   6.544 -11.625  0.00  0.00    +0.031 C 
ENDROOT
BRANCH   1   5
ATOM      4  C   UNL     1       4.741   5.982 -10.110  0.00  0.00    -0.004 C 
ATOM      5  C   UNL     1       3.769   6.694 -10.638  0.00  0.00    -0.001 C 
BRANCH   4   7
ATOM      6  C   UNL     1       7.165   5.759  -9.416  0.00  0.00    +0.031 C 
ATOM      7  C   UNL     1       6.158   6.178 -10.441  0.00  0.00    -0.015 C 
ATOM      8  C   UNL     1       6.610   6.296 -11.669  0.00  0.00    +0.082 C 
BRANCH   8   9
ATOM      9  C   UNL     1       7.702   5.475 -12.209  0.00  0.00    +0.388 C 
ATOM     10  O   UNL     1       8.938   6.120 -12.302  0.00  0.00    -0.241 OA
ATOM     11  O   UNL     1       7.494   4.535 -13.025  0.00  0.00    -0.241 OA
ENDBRANCH   8   9
ENDBRANCH   4   7
ENDBRANCH   1   5
BRANCH   2  12
ATOM     12  C   UNL     1       1.276   6.693  -9.267  0.00  0.00    -0.005 C 
ATOM     13  C   UNL     1       0.755   5.734  -8.538  0.00  0.00    -0.005 C 
BRANCH  13  14
ATOM     14  C   UNL     1       1.313   5.295  -7.252  0.00  0.00    -0.031 C 
ATOM     15  C   UNL     1       1.014   5.986  -5.971  0.00  0.00    +0.018 C 
ATOM     16  C   UNL     1       0.985   4.921  -4.887  0.00  0.00    +0.004 C 
ATOM     17  C   UNL     1      -0.291   6.727  -6.004  0.00  0.00    +0.004 C 
ATOM     18  C   UNL     1       2.154   6.921  -5.686  0.00  0.00    +0.004 C 
ATOM     19  C   UNL     1       3.491   6.256  -5.842  0.00  0.00    +0.005 C 
ATOM     20  C   UNL     1       3.353   4.757  -6.082  0.00  0.00    +0.022 C 
ATOM     21  C   UNL     1       2.466   4.624  -7.280  0.00  0.00    -0.048 C 
ATOM     22  C   UNL     1       2.723   3.671  -8.377  0.00  0.00    +0.026 C 
ENDBRANCH  13  14
ENDBRANCH   2  12
TORSDOF 5
ENDMDL
MODEL 6
REMARK VINA RESULT:      -7.7      4.134      8.679
REMARK  Name = 
REMARK  5 active torsions:
REMARK  status: ('A' for Active; 'I' for Inactive)
REMARK    1  A    between atoms: C_2  and  C_3
REMARK    2  A    between atoms: C_4  and  C_5
REMARK    3  A    between atoms: C_6  and  C_8
REMARK    4  A    between atoms: C_9  and  C_10
REMARK    5  A    between atoms: C_19  and  C_20
REMARK                            x       y       z     vdW  Elec       q    Type
REMARK                         _______ _______ _______ _____ _____    ______ ____
ROOT
ATOM      1  C   UNL     1       3.443   7.026  -5.836  0.00  0.00    -0.004 C 
ATOM      2  C   UNL     1       2.747   6.224  -5.028  0.00  0.00    -0.022 C 
ATOM      3  C   UNL     1       3.390   5.839  -3.732  0.00  0.00    +0.031 C 
ENDROOT
BRANCH   1   5
ATOM      4  C   UNL     1       3.705   6.005  -8.045  0.00  0.00    -0.004 C 
ATOM      5  C   UNL     1       3.135   6.899  -7.267  0.00  0.00    -0.001 C 
BRANCH   4   7
ATOM      6  C   UNL     1       2.677   3.752  -8.571  0.00  0.00    +0.031 C 
ATOM      7  C   UNL     1       2.957   5.162  -8.987  0.00  0.00    -0.015 C 
ATOM      8  C   UNL     1       2.187   5.639  -9.939  0.00  0.00    +0.082 C 
BRANCH   8   9
ATOM      9  C   UNL     1       0.787   5.232 -10.124  0.00  0.00    +0.388 C 
ATOM     10  O   UNL     1       0.523   4.547 -11.314  0.00  0.00    -0.241 OA
ATOM     11  O   UNL     1      -0.172   5.878  -9.621  0.00  0.00    -0.241 OA
ENDBRANCH   8   9
ENDBRANCH   4   7
ENDBRANCH   1   5
BRANCH   2  12
ATOM     12  C   UNL     1       1.292   6.299  -5.184  0.00  0.00    -0.005 C 
ATOM     13  C   UNL     1       0.472   5.319  -4.887  0.00  0.00    -0.005 C 
BRANCH  13  14
ATOM     14  C   UNL     1      -0.814   5.512  -4.204  0.00  0.00    -0.031 C 
ATOM     15  C   UNL     1      -2.050   5.916  -4.922  0.00  0.00    +0.018 C 
ATOM     16  C   UNL     1      -3.215   5.236  -4.220  0.00  0.00    +0.004 C 
ATOM     17  C   UNL     1      -2.027   5.536  -6.374  0.00  0.00    +0.004 C 
ATOM     18  C   UNL     1      -2.202   7.401  -4.759  0.00  0.00    +0.004 C 
ATOM     19  C   UNL     1      -2.030   7.841  -3.335  0.00  0.00    +0.005 C 
ATOM     20  C   UNL     1      -1.916   6.653  -2.386  0.00  0.00    +0.022 C 
ATOM     21  C   UNL     1      -0.780   5.831  -2.908  0.00  0.00    -0.048 C 
ATOM     22  C   UNL     1       0.251   5.228  -2.041  0.00  0.00    +0.026 C 
ENDBRANCH  13  14
ENDBRANCH   2  12
TORSDOF 5
ENDMDL
MODEL 7
REMARK VINA RESULT:      -7.6      3.717      8.518
REMARK  Name = 
REMARK  5 active torsions:
REMARK  status: ('A' for Active; 'I' for Inactive)
REMARK    1  A    between atoms: C_2  and  C_3
REMARK    2  A    between atoms: C_4  and  C_5
REMARK    3  A    between atoms: C_6  and  C_8
REMARK    4  A    between atoms: C_9  and  C_10
REMARK    5  A    between atoms: C_19  and  C_20
REMARK                            x       y       z     vdW  Elec       q    Type
REMARK                         _______ _______ _______ _____ _____    ______ ____
ROOT
ATOM      1  C   UNL     1       3.958   7.042  -3.878  0.00  0.00    -0.004 C 
ATOM      2  C   UNL     1       3.019   6.221  -3.404  0.00  0.00    -0.022 C 
ATOM      3  C   UNL     1       3.185   5.739  -1.995  0.00  0.00    +0.031 C 
ENDROOT
BRANCH   1   5
ATOM      4  C   UNL     1       4.396   5.901  -5.999  0.00  0.00    -0.004 C 
ATOM      5  C   UNL     1       4.146   7.008  -5.334  0.00  0.00    -0.001 C 
BRANCH   4   7
ATOM      6  C   UNL     1       2.633   4.484  -7.135  0.00  0.00    +0.031 C 
ATOM      7  C   UNL     1       3.700   5.528  -7.237  0.00  0.00    -0.015 C 
ATOM      8  C   UNL     1       3.645   6.296  -8.302  0.00  0.00    +0.082 C 
BRANCH   8   9
ATOM      9  C   UNL     1       2.388   6.663  -8.968  0.00  0.00    +0.388 C 
ATOM     10  O   UNL     1       2.323   6.341 -10.327  0.00  0.00    -0.241 OA
ATOM     11  O   UNL     1       1.685   7.638  -8.586  0.00  0.00    -0.241 OA
ENDBRANCH   8   9
ENDBRANCH   4   7
ENDBRANCH   1   5
BRANCH   2  12
ATOM     12  C   UNL     1       1.702   6.357  -4.031  0.00  0.00    -0.005 C 
ATOM     13  C   UNL     1       0.799   5.406  -4.052  0.00  0.00    -0.005 C 
BRANCH  13  14
ATOM     14  C   UNL     1      -0.633   5.638  -3.829  0.00  0.00    -0.031 C 
ATOM     15  C   UNL     1      -1.564   6.019  -4.923  0.00  0.00    +0.018 C 
ATOM     16  C   UNL     1      -2.906   5.379  -4.608  0.00  0.00    +0.004 C 
ATOM     17  C   UNL     1      -1.082   5.575  -6.273  0.00  0.00    +0.004 C 
ATOM     18  C   UNL     1      -1.728   7.511  -4.876  0.00  0.00    +0.004 C 
ATOM     19  C   UNL     1      -2.015   8.012  -3.491  0.00  0.00    +0.005 C 
ATOM     20  C   UNL     1      -2.238   6.866  -2.510  0.00  0.00    +0.022 C 
ATOM     21  C   UNL     1      -1.012   6.014  -2.605  0.00  0.00    -0.048 C 
ATOM     22  C   UNL     1      -0.329   5.442  -1.429  0.00  0.00    +0.026 C 
ENDBRANCH  13  14
ENDBRANCH   2  12
TORSDOF 5
ENDMDL
MODEL 8
REMARK VINA RESULT:      -7.5      3.690      8.474
REMARK  Name = 
REMARK  5 active torsions:
REMARK  status: ('A' for Active; 'I' for Inactive)
REMARK    1  A    between atoms: C_2  and  C_3
REMARK    2  A    between atoms: C_4  and  C_5
REMARK    3  A    between atoms: C_6  and  C_8
REMARK    4  A    between atoms: C_9  and  C_10
REMARK    5  A    between atoms: C_19  and  C_20
REMARK                            x       y       z     vdW  Elec       q    Type
REMARK                         _______ _______ _______ _____ _____    ______ ____
ROOT
ATOM      1  C   UNL     1       3.805   6.942  -5.597  0.00  0.00    -0.004 C 
ATOM      2  C   UNL     1       2.969   6.760  -4.573  0.00  0.00    -0.022 C 
ATOM      3  C   UNL     1       3.357   7.369  -3.261  0.00  0.00    +0.031 C 
ENDROOT
BRANCH   1   5
ATOM      4  C   UNL     1       3.763   6.164  -7.917  0.00  0.00    -0.004 C 
ATOM      5  C   UNL     1       3.773   5.898  -6.629  0.00  0.00    -0.001 C 
BRANCH   4   7
ATOM      6  C   UNL     1       4.024   5.122 -10.209  0.00  0.00    +0.031 C 
ATOM      7  C   UNL     1       4.629   5.485  -8.889  0.00  0.00    -0.015 C 
ATOM      8  C   UNL     1       5.941   5.541  -8.860  0.00  0.00    +0.082 C 
BRANCH   8   9
ATOM      9  C   UNL     1       6.757   5.935 -10.016  0.00  0.00    +0.388 C 
ATOM     10  O   UNL     1       7.933   5.198 -10.189  0.00  0.00    -0.241 OA
ATOM     11  O   UNL     1       6.760   7.113 -10.466  0.00  0.00    -0.241 OA
ENDBRANCH   8   9
ENDBRANCH   4   7
ENDBRANCH   1   5
BRANCH   2  12
ATOM     12  C   UNL     1       1.570   6.542  -4.947  0.00  0.00    -0.005 C 
ATOM     13  C   UNL     1       0.855   5.516  -4.547  0.00  0.00    -0.005 C 
BRANCH  13  14
ATOM     14  C   UNL     1      -0.546   5.617  -4.120  0.00  0.00    -0.031 C 
ATOM     15  C   UNL     1      -1.648   5.955  -5.058  0.00  0.00    +0.018 C 
ATOM     16  C   UNL     1      -2.877   5.192  -4.592  0.00  0.00    +0.004 C 
ATOM     17  C   UNL     1      -1.326   5.601  -6.480  0.00  0.00    +0.004 C 
ATOM     18  C   UNL     1      -1.922   7.424  -4.920  0.00  0.00    +0.004 C 
ATOM     19  C   UNL     1      -2.052   7.851  -3.487  0.00  0.00    +0.005 C 
ATOM     20  C   UNL     1      -2.043   6.657  -2.539  0.00  0.00    +0.022 C 
ATOM     21  C   UNL     1      -0.778   5.916  -2.840  0.00  0.00    -0.048 C 
ATOM     22  C   UNL     1       0.107   5.365  -1.795  0.00  0.00    +0.026 C 
ENDBRANCH  13  14
ENDBRANCH   2  12
TORSDOF 5
ENDMDL
MODEL 9
REMARK VINA RESULT:      -7.4      4.049      7.435
REMARK  Name = 
REMARK  5 active torsions:
REMARK  status: ('A' for Active; 'I' for Inactive)
REMARK    1  A    between atoms: C_2  and  C_3
REMARK    2  A    between atoms: C_4  and  C_5
REMARK    3  A    between atoms: C_6  and  C_8
REMARK    4  A    between atoms: C_9  and  C_10
REMARK    5  A    between atoms: C_19  and  C_20
REMARK                            x       y       z     vdW  Elec       q    Type
REMARK                         _______ _______ _______ _____ _____    ______ ____
ROOT
ATOM      1  C   UNL     1       4.451   6.194 -10.282  0.00  0.00    -0.004 C 
ATOM      2  C   UNL     1       5.146   5.536  -9.352  0.00  0.00    -0.022 C 
ATOM      3  C   UNL     1       6.628   5.757  -9.328  0.00  0.00    +0.031 C 
ENDROOT
BRANCH   1   5
ATOM      4  C   UNL     1       2.058   6.195 -10.799  0.00  0.00    -0.004 C 
ATOM      5  C   UNL     1       3.201   5.550 -10.707  0.00  0.00    -0.001 C 
BRANCH   4   7
ATOM      6  C   UNL     1       0.108   7.138 -12.109  0.00  0.00    +0.031 C 
ATOM      7  C   UNL     1       1.160   6.085 -11.956  0.00  0.00    -0.015 C 
ATOM      8  C   UNL     1       1.454   5.411 -13.045  0.00  0.00    +0.082 C 
BRANCH   8   9
ATOM      9  C   UNL     1       1.380   5.987 -14.394  0.00  0.00    +0.388 C 
ATOM     10  O   UNL     1       0.394   5.437 -15.219  0.00  0.00    -0.241 OA
ATOM     11  O   UNL     1       2.390   6.474 -14.972  0.00  0.00    -0.241 OA
ENDBRANCH   8   9
ENDBRANCH   4   7
ENDBRANCH   1   5
BRANCH   2  12
ATOM     12  C   UNL     1       4.391   5.184  -8.148  0.00  0.00    -0.005 C 
ATOM     13  C   UNL     1       4.317   5.944  -7.081  0.00  0.00    -0.005 C 
BRANCH  13  14
ATOM     14  C   UNL     1       3.081   6.157  -6.318  0.00  0.00    -0.031 C 
ATOM     15  C   UNL     1       2.671   5.276  -5.193  0.00  0.00    +0.018 C 
ATOM     16  C   UNL     1       1.957   6.153  -4.178  0.00  0.00    +0.004 C 
ATOM     17  C   UNL     1       3.836   4.581  -4.549  0.00  0.00    +0.004 C 
ATOM     18  C   UNL     1       1.686   4.281  -5.735  0.00  0.00    +0.004 C 
ATOM     19  C   UNL     1       0.612   4.929  -6.558  0.00  0.00    +0.005 C 
ATOM     20  C   UNL     1       0.693   6.450  -6.496  0.00  0.00    +0.022 C 
ATOM     21  C   UNL     1       2.082   6.796  -6.930  0.00  0.00    -0.048 C 
ATOM     22  C   UNL     1       2.390   7.907  -7.852  0.00  0.00    +0.026 C 
ENDBRANCH  13  14
ENDBRANCH   2  12
TORSDOF 5
ENDMDL
