MODEL 1
REMARK VINA RESULT:      -6.3      0.000      0.000
REMARK  Name = 
REMARK  5 active torsions:
REMARK  status: ('A' for Active; 'I' for Inactive)
REMARK    1  A    between atoms: C_2  and  C_3
REMARK    2  A    between atoms: C_3  and  C_4
REMARK    3  A    between atoms: C_3  and  C_11
REMARK    4  A    between atoms: C_11  and  C_13
REMARK    5  A    between atoms: C_13  and  N_14
REMARK                            x       y       z     vdW  Elec       q    Type
REMARK                         _______ _______ _______ _____ _____    ______ ____
ROOT
ATOM      1  C   UNL     1       0.246   6.403  -5.987  0.00  0.00    +0.024 C 
ENDROOT
BRANCH   1   2
ATOM      2  C   UNL     1      -0.676   6.718  -4.733  0.00  0.00    -0.019 A 
ATOM      3  C   UNL     1      -0.939   5.652  -3.885  0.00  0.00    +0.038 A 
ATOM      4  C   UNL     1      -2.070   5.718  -3.081  0.00  0.00    +0.195 A 
ATOM      5  O   UNL     1      -2.880   4.603  -2.843  0.00  0.00    -0.287 OA
ATOM      6  C   UNL     1      -2.582   6.980  -2.803  0.00  0.00    +0.042 A 
ATOM      7  C   UNL     1      -2.116   8.083  -3.506  0.00  0.00    +0.003 A 
ATOM      8  C   UNL     1      -1.342   7.887  -4.646  0.00  0.00    -0.004 A 
ENDBRANCH   1   2
BRANCH   1  10
ATOM      9  C   UNL     1      -1.300   5.202  -7.159  0.00  0.00    +0.000 C 
ATOM     10  C   UNL     1      -0.564   5.056  -6.396  0.00  0.00    +0.004 C 
ENDBRANCH   1  10
BRANCH   1  11
ATOM     11  C   UNL     1       1.363   5.530  -5.057  0.00  0.00    +0.020 C 
ATOM     12  C   UNL     1       2.152   5.023  -6.376  0.00  0.00    +0.002 C 
BRANCH  11  13
ATOM     13  C   UNL     1       2.284   6.842  -4.861  0.00  0.00    +0.072 C 
BRANCH  13  14
ATOM     14  N   UNL     1       2.643   6.940  -3.481  0.00  0.00    -0.270 NA
ATOM     15  C   UNL     1       2.702   5.650  -2.810  0.00  0.00    +0.090 C 
ATOM     16  C   UNL     1       3.879   7.632  -3.234  0.00  0.00    +0.090 C 
ENDBRANCH  13  14
ENDBRANCH  11  13
ENDBRANCH   1  11
TORSDOF 5
ENDMDL
MODEL 2
REMARK VINA RESULT:      -6.0      6.847      9.378
REMARK  Name = 
REMARK  5 active torsions:
REMARK  status: ('A' for Active; 'I' for Inactive)
REMARK    1  A    between atoms: C_2  and  C_3
REMARK    2  A    between atoms: C_3  and  C_4
REMARK    3  A    between atoms: C_3  and  C_11
REMARK    4  A    between atoms: C_11  and  C_13
REMARK    5  A    between atoms: C_13  and  N_14
REMARK                            x       y       z     vdW  Elec       q    Type
REMARK                         _______ _______ _______ _____ _____    ______ ____
ROOT
ATOM      1  C   UNL     1       4.108   6.250  -9.632  0.00  0.00    +0.024 C 
ENDROOT
BRANCH   1   2
ATOM      2  C   UNL     1       5.109   6.549 -10.828  0.00  0.00    -0.019 A 
ATOM      3  C   UNL     1       5.544   5.447 -11.550  0.00  0.00    +0.038 A 
ATOM      4  C   UNL     1       6.733   5.558 -12.260  0.00  0.00    +0.195 A 
ATOM      5  O   UNL     1       7.660   4.512 -12.326  0.00  0.00    -0.287 OA
ATOM      6  C   UNL     1       7.153   6.836 -12.607  0.00  0.00    +0.042 A 
ATOM      7  C   UNL     1       6.526   7.943 -12.050  0.00  0.00    +0.003 A 
ATOM      8  C   UNL     1       5.671   7.767 -10.966  0.00  0.00    -0.004 A 
ENDBRANCH   1   2
BRANCH   1  10
ATOM      9  C   UNL     1       5.528   5.186  -8.199  0.00  0.00    +0.000 C 
ATOM     10  C   UNL     1       4.957   4.981  -9.080  0.00  0.00    +0.004 C 
ENDBRANCH   1  10
BRANCH   1  11
ATOM     11  C   UNL     1       3.121   5.259 -10.590  0.00  0.00    +0.020 C 
ATOM     12  C   UNL     1       2.230   4.815  -9.314  0.00  0.00    +0.002 C 
BRANCH  11  13
ATOM     13  C   UNL     1       2.171   6.509 -10.973  0.00  0.00    +0.072 C 
BRANCH  13  14
ATOM     14  N   UNL     1       0.901   6.000 -11.386  0.00  0.00    -0.270 NA
ATOM     15  C   UNL     1      -0.174   6.975 -11.270  0.00  0.00    +0.090 C 
ATOM     16  C   UNL     1       0.880   5.463 -12.720  0.00  0.00    +0.090 C 
ENDBRANCH  13  14
ENDBRANCH  11  13
ENDBRANCH   1  11
TORSDOF 5
ENDMDL
MODEL 3
REMARK VINA RESULT:      -5.9      1.566      2.011
REMARK  Name = 
REMARK  5 active torsions:
REMARK  status: ('A' for Active; 'I' for Inactive)
REMARK    1  A    between atoms: C_2  and  C_3
REMARK    2  A    between atoms: C_3  and  C_4
REMARK    3  A    between atoms: C_3  and  C_11
REMARK    4  A    between atoms: C_11  and  C_13
REMARK    5  A    between atoms: C_13  and  N_14
REMARK                            x       y       z     vdW  Elec       q    Type
REMARK                         _______ _______ _______ _____ _____    ______ ____
ROOT
ATOM      1  C   UNL     1      -0.241   6.315  -5.344  0.00  0.00    +0.024 C 
ENDROOT
BRANCH   1   2
ATOM      2  C   UNL     1      -1.481   6.434  -4.359  0.00  0.00    -0.019 A 
ATOM      3  C   UNL     1      -1.537   7.583  -3.584  0.00  0.00    +0.038 A 
ATOM      4  C   UNL     1      -2.279   7.546  -2.410  0.00  0.00    +0.195 A 
ATOM      5  O   UNL     1      -1.846   8.169  -1.236  0.00  0.00    -0.287 OA
ATOM      6  C   UNL     1      -3.281   6.587  -2.319  0.00  0.00    +0.042 A 
ATOM      7  C   UNL     1      -3.353   5.573  -3.266  0.00  0.00    +0.003 A 
ATOM      8  C   UNL     1      -2.284   5.374  -4.133  0.00  0.00    -0.004 A 
ENDBRANCH   1   2
BRANCH   1  10
ATOM      9  C   UNL     1      -1.152   5.465  -7.255  0.00  0.00    +0.000 C 
ATOM     10  C   UNL     1      -0.923   5.158  -6.256  0.00  0.00    +0.004 C 
ENDBRANCH   1  10
BRANCH   1  11
ATOM     11  C   UNL     1       0.541   5.175  -4.363  0.00  0.00    +0.020 C 
ATOM     12  C   UNL     1       1.694   4.927  -5.471  0.00  0.00    +0.002 C 
BRANCH  11  13
ATOM     13  C   UNL     1       1.358   6.339  -3.595  0.00  0.00    +0.072 C 
BRANCH  13  14
ATOM     14  N   UNL     1       1.617   5.902  -2.260  0.00  0.00    -0.270 NA
ATOM     15  C   UNL     1       0.615   4.976  -1.752  0.00  0.00    +0.090 C 
ATOM     16  C   UNL     1       2.914   5.312  -2.067  0.00  0.00    +0.090 C 
ENDBRANCH  13  14
ENDBRANCH  11  13
ENDBRANCH   1  11
TORSDOF 5
ENDMDL
MODEL 4
REMARK VINA RESULT:      -5.9      2.983      5.809
REMARK  Name = 
REMARK  5 active torsions:
REMARK  status: ('A' for Active; 'I' for Inactive)
REMARK    1  A    between atoms: C_2  and  C_3
REMARK    2  A    between atoms: C_3  and  C_4
REMARK    3  A    between atoms: C_3  and  C_11
REMARK    4  A    between atoms: C_11  and  C_13
REMARK    5  A    between atoms: C_13  and  N_14
REMARK                            x       y       z     vdW  Elec       q    Type
REMARK                         _______ _______ _______ _____ _____    ______ ____
ROOT
ATOM      1  C   UNL     1       3.400   7.064  -4.769  0.00  0.00    +0.024 C 
ENDROOT
BRANCH   1   2
ATOM      2  C   UNL     1       3.624   6.731  -6.306  0.00  0.00    -0.019 A 
ATOM      3  C   UNL     1       2.772   7.366  -7.199  0.00  0.00    +0.038 A 
ATOM      4  C   UNL     1       2.588   6.790  -8.450  0.00  0.00    +0.195 A 
ATOM      5  O   UNL     1       1.338   6.757  -9.076  0.00  0.00    -0.287 OA
ATOM      6  C   UNL     1       3.583   5.937  -8.912  0.00  0.00    +0.042 A 
ATOM      7  C   UNL     1       4.580   5.507  -8.046  0.00  0.00    +0.003 A 
ATOM      8  C   UNL     1       4.433   5.719  -6.679  0.00  0.00    -0.004 A 
ENDBRANCH   1   2
BRANCH   1  10
ATOM      9  C   UNL     1       5.558   7.447  -4.139  0.00  0.00    +0.000 C 
ATOM     10  C   UNL     1       4.900   6.625  -4.331  0.00  0.00    +0.004 C 
ENDBRANCH   1  10
BRANCH   1  11
ATOM     11  C   UNL     1       2.779   5.522  -4.436  0.00  0.00    +0.020 C 
ATOM     12  C   UNL     1       2.767   5.808  -2.843  0.00  0.00    +0.002 C 
BRANCH  11  13
ATOM     13  C   UNL     1       1.265   6.039  -4.663  0.00  0.00    +0.072 C 
BRANCH  13  14
ATOM     14  N   UNL     1       0.511   4.981  -5.255  0.00  0.00    -0.270 NA
ATOM     15  C   UNL     1      -0.626   5.449  -6.034  0.00  0.00    +0.090 C 
ATOM     16  C   UNL     1       1.281   4.087  -6.077  0.00  0.00    +0.090 C 
ENDBRANCH  13  14
ENDBRANCH  11  13
ENDBRANCH   1  11
TORSDOF 5
ENDMDL
MODEL 5
REMARK VINA RESULT:      -5.8      2.728      4.967
REMARK  Name = 
REMARK  5 active torsions:
REMARK  status: ('A' for Active; 'I' for Inactive)
REMARK    1  A    between atoms: C_2  and  C_3
REMARK    2  A    between atoms: C_3  and  C_4
REMARK    3  A    between atoms: C_3  and  C_11
REMARK    4  A    between atoms: C_11  and  C_13
REMARK    5  A    between atoms: C_13  and  N_14
REMARK                            x       y       z     vdW  Elec       q    Type
REMARK                         _______ _______ _______ _____ _____    ______ ____
ROOT
ATOM      1  C   UNL     1       3.283   4.850  -6.794  0.00  0.00    +0.024 C 
ENDROOT
BRANCH   1   2
ATOM      2  C   UNL     1       3.959   5.606  -5.572  0.00  0.00    -0.019 A 
ATOM      3  C   UNL     1       4.343   4.814  -4.500  0.00  0.00    +0.038 A 
ATOM      4  C   UNL     1       4.485   5.417  -3.257  0.00  0.00    +0.195 A 
ATOM      5  O   UNL     1       4.072   4.793  -2.076  0.00  0.00    -0.287 OA
ATOM      6  C   UNL     1       4.715   6.787  -3.236  0.00  0.00    +0.042 A 
ATOM      7  C   UNL     1       4.561   7.531  -4.400  0.00  0.00    +0.003 A 
ATOM      8  C   UNL     1       3.934   6.953  -5.499  0.00  0.00    -0.004 A 
ENDBRANCH   1   2
BRANCH   1  10
ATOM      9  C   UNL     1       4.883   5.361  -8.338  0.00  0.00    +0.000 C 
ATOM     10  C   UNL     1       3.993   5.782  -7.919  0.00  0.00    +0.004 C 
ENDBRANCH   1  10
BRANCH   1  11
ATOM     11  C   UNL     1       1.903   5.834  -6.754  0.00  0.00    +0.020 C 
ATOM     12  C   UNL     1       1.358   5.226  -8.151  0.00  0.00    +0.002 C 
BRANCH  11  13
ATOM     13  C   UNL     1       1.116   4.759  -5.838  0.00  0.00    +0.072 C 
BRANCH  13  14
ATOM     14  N   UNL     1       0.300   5.471  -4.907  0.00  0.00    -0.270 NA
ATOM     15  C   UNL     1       0.749   5.339  -3.529  0.00  0.00    +0.090 C 
ATOM     16  C   UNL     1       0.148   6.872  -5.197  0.00  0.00    +0.090 C 
ENDBRANCH  13  14
ENDBRANCH  11  13
ENDBRANCH   1  11
TORSDOF 5
ENDMDL
MODEL 6
REMARK VINA RESULT:      -5.8      5.703      8.019
REMARK  Name = 
REMARK  5 active torsions:
REMARK  status: ('A' for Active; 'I' for Inactive)
REMARK    1  A    between atoms: C_2  and  C_3
REMARK    2  A    between atoms: C_3  and  C_4
REMARK    3  A    between atoms: C_3  and  C_11
REMARK    4  A    between atoms: C_11  and  C_13
REMARK    5  A    between atoms: C_13  and  N_14
REMARK                            x       y       z     vdW  Elec       q    Type
REMARK                         _______ _______ _______ _____ _____    ______ ____
ROOT
ATOM      1  C   UNL     1       3.606   5.432  -9.969  0.00  0.00    +0.024 C 
ENDROOT
BRANCH   1   2
ATOM      2  C   UNL     1       5.046   6.099  -9.996  0.00  0.00    -0.019 A 
ATOM      3  C   UNL     1       5.151   7.299 -10.684  0.00  0.00    +0.038 A 
ATOM      4  C   UNL     1       6.403   7.681 -11.148  0.00  0.00    +0.195 A 
ATOM      5  O   UNL     1       6.581   8.285 -12.397  0.00  0.00    -0.287 OA
ATOM      6  C   UNL     1       7.512   7.137 -10.513  0.00  0.00    +0.042 A 
ATOM      7  C   UNL     1       7.349   6.081  -9.625  0.00  0.00    +0.003 A 
ATOM      8  C   UNL     1       6.130   5.413  -9.578  0.00  0.00    -0.004 A 
ENDBRANCH   1   2
BRANCH   1  10
ATOM      9  C   UNL     1       2.875   5.768 -12.103  0.00  0.00    +0.000 C 
ATOM     10  C   UNL     1       3.038   6.322 -11.202  0.00  0.00    +0.004 C 
ENDBRANCH   1  10
BRANCH   1  11
ATOM     11  C   UNL     1       3.022   6.532  -8.818  0.00  0.00    +0.020 C 
ATOM     12  C   UNL     1       1.524   5.928  -8.916  0.00  0.00    +0.002 C 
BRANCH  11  13
ATOM     13  C   UNL     1       3.466   5.560  -7.606  0.00  0.00    +0.072 C 
BRANCH  13  14
ATOM     14  N   UNL     1       2.760   5.956  -6.429  0.00  0.00    -0.270 NA
ATOM     15  C   UNL     1       2.572   4.869  -5.478  0.00  0.00    +0.090 C 
ATOM     16  C   UNL     1       3.345   7.068  -5.730  0.00  0.00    +0.090 C 
ENDBRANCH  13  14
ENDBRANCH  11  13
ENDBRANCH   1  11
TORSDOF 5
ENDMDL
MODEL 7
REMARK VINA RESULT:      -5.8      2.306      3.905
REMARK  Name = 
REMARK  5 active torsions:
REMARK  status: ('A' for Active; 'I' for Inactive)
REMARK    1  A    between atoms: C_2  and  C_3
REMARK    2  A    between atoms: C_3  and  C_4
REMARK    3  A    between atoms: C_3  and  C_11
REMARK    4  A    between atoms: C_11  and  C_13
REMARK    5  A    between atoms: C_13  and  N_14
REMARK                            x       y       z     vdW  Elec       q    Type
REMARK                         _______ _______ _______ _____ _____    ______ ____
ROOT
ATOM      1  C   UNL     1       1.756   5.629  -5.368  0.00  0.00    +0.024 C 
ENDROOT
BRANCH   1   2
ATOM      2  C   UNL     1       0.246   6.032  -5.653  0.00  0.00    -0.019 A 
ATOM      3  C   UNL     1      -0.198   7.201  -5.051  0.00  0.00    +0.038 A 
ATOM      4  C   UNL     1      -1.564   7.360  -4.859  0.00  0.00    +0.195 A 
ATOM      5  O   UNL     1      -2.089   7.934  -3.696  0.00  0.00    -0.287 OA
ATOM      6  C   UNL     1      -2.413   6.623  -5.675  0.00  0.00    +0.042 A 
ATOM      7  C   UNL     1      -1.898   5.605  -6.466  0.00  0.00    +0.003 A 
ATOM      8  C   UNL     1      -0.598   5.163  -6.245  0.00  0.00    -0.004 A 
ENDBRANCH   1   2
BRANCH   1  10
ATOM      9  C   UNL     1       1.874   5.833  -3.099  0.00  0.00    +0.000 C 
ATOM     10  C   UNL     1       1.838   6.453  -3.971  0.00  0.00    +0.004 C 
ENDBRANCH   1  10
BRANCH   1  11
ATOM     11  C   UNL     1       2.365   6.940  -6.255  0.00  0.00    +0.020 C 
ATOM     12  C   UNL     1       3.873   6.662  -5.738  0.00  0.00    +0.002 C 
BRANCH  11  13
ATOM     13  C   UNL     1       2.519   6.024  -7.577  0.00  0.00    +0.072 C 
BRANCH  13  14
ATOM     14  N   UNL     1       2.473   6.875  -8.723  0.00  0.00    -0.270 NA
ATOM     15  C   UNL     1       3.643   6.749  -9.580  0.00  0.00    +0.090 C 
ATOM     16  C   UNL     1       1.299   6.715  -9.538  0.00  0.00    +0.090 C 
ENDBRANCH  13  14
ENDBRANCH  11  13
ENDBRANCH   1  11
TORSDOF 5
ENDMDL
MODEL 8
REMARK VINA RESULT:      -5.7      2.472      4.365
REMARK  Name = 
REMARK  5 active torsions:
REMARK  status: ('A' for Active; 'I' for Inactive)
REMARK    1  A    between atoms: C_2  and  C_3
REMARK    2  A    between atoms: C_3  and  C_4
REMARK    3  A    between atoms: C_3  and  C_11
REMARK    4  A    between atoms: C_11  and  C_13
REMARK    5  A    between atoms: C_13  and  N_14
REMARK                            x       y       z     vdW  Elec       q    Type
REMARK                         _______ _______ _______ _____ _____    ______ ____
ROOT
ATOM      1  C   UNL     1      -0.106   5.052  -5.155  0.00  0.00    +0.024 C 
ENDROOT
BRANCH   1   2
ATOM      2  C   UNL     1       1.305   5.583  -5.653  0.00  0.00    -0.019 A 
ATOM      3  C   UNL     1       1.355   6.914  -6.041  0.00  0.00    +0.038 A 
ATOM      4  C   UNL     1       2.371   7.307  -6.903  0.00  0.00    +0.195 A 
ATOM      5  O   UNL     1       2.153   8.217  -7.943  0.00  0.00    -0.287 OA
ATOM      6  C   UNL     1       3.516   6.521  -6.940  0.00  0.00    +0.042 A 
ATOM      7  C   UNL     1       3.519   5.277  -6.322  0.00  0.00    +0.003 A 
ATOM      8  C   UNL     1       2.314   4.723  -5.901  0.00  0.00    -0.004 A 
ENDBRANCH   1   2
BRANCH   1  10
ATOM      9  C   UNL     1      -1.335   5.321  -7.057  0.00  0.00    +0.000 C 
ATOM     10  C   UNL     1      -0.948   5.906  -6.249  0.00  0.00    +0.004 C 
ENDBRANCH   1  10
BRANCH   1  11
ATOM     11  C   UNL     1      -0.252   6.275  -3.989  0.00  0.00    +0.020 C 
ATOM     12  C   UNL     1      -1.753   5.807  -3.603  0.00  0.00    +0.002 C 
BRANCH  11  13
ATOM     13  C   UNL     1       0.455   5.347  -2.871  0.00  0.00    +0.072 C 
BRANCH  13  14
ATOM     14  N   UNL     1       1.243   6.185  -2.023  0.00  0.00    -0.270 NA
ATOM     15  C   UNL     1       0.908   6.054  -0.613  0.00  0.00    +0.090 C 
ATOM     16  C   UNL     1       2.664   6.009  -2.165  0.00  0.00    +0.090 C 
ENDBRANCH  13  14
ENDBRANCH  11  13
ENDBRANCH   1  11
TORSDOF 5
ENDMDL
MODEL 9
REMARK VINA RESULT:      -5.7      2.909      4.572
REMARK  Name = 
REMARK  5 active torsions:
REMARK  status: ('A' for Active; 'I' for Inactive)
REMARK    1  A    between atoms: C_2  and  C_3
REMARK    2  A    between atoms: C_3  and  C_4
REMARK    3  A    between atoms: C_3  and  C_11
REMARK    4  A    between atoms: C_11  and  C_13
REMARK    5  A    between atoms: C_13  and  N_14
REMARK                            x       y       z     vdW  Elec       q    Type
REMARK                         _______ _______ _______ _____ _____    ______ ____
ROOT
ATOM      1  C   UNL     1       0.502   4.994  -5.860  0.00  0.00    +0.024 C 
ENDROOT
BRANCH   1   2
ATOM      2  C   UNL     1       1.338   5.670  -7.029  0.00  0.00    -0.019 A 
ATOM      3  C   UNL     1       2.056   4.807  -7.844  0.00  0.00    +0.038 A 
ATOM      4  C   UNL     1       3.141   5.318  -8.545  0.00  0.00    +0.195 A 
ATOM      5  O   UNL     1       4.330   4.600  -8.703  0.00  0.00    -0.287 OA
ATOM      6  C   UNL     1       3.158   6.687  -8.784  0.00  0.00    +0.042 A 
ATOM      7  C   UNL     1       2.250   7.512  -8.131  0.00  0.00    +0.003 A 
ATOM      8  C   UNL     1       1.515   7.006  -7.064  0.00  0.00    -0.004 A 
ENDBRANCH   1   2
BRANCH   1  10
ATOM      9  C   UNL     1      -1.566   5.408  -6.729  0.00  0.00    +0.000 C 
ATOM     10  C   UNL     1      -0.824   5.891  -6.127  0.00  0.00    +0.004 C 
ENDBRANCH   1  10
BRANCH   1  11
ATOM     11  C   UNL     1       1.085   6.081  -4.697  0.00  0.00    +0.020 C 
ATOM     12  C   UNL     1       0.086   5.497  -3.566  0.00  0.00    +0.002 C 
BRANCH  11  13
ATOM     13  C   UNL     1       2.298   5.084  -4.315  0.00  0.00    +0.072 C 
BRANCH  13  14
ATOM     14  N   UNL     1       3.457   5.870  -4.034  0.00  0.00    -0.270 NA
ATOM     15  C   UNL     1       4.480   5.776  -5.065  0.00  0.00    +0.090 C 
ATOM     16  C   UNL     1       3.189   7.262  -3.791  0.00  0.00    +0.090 C 
ENDBRANCH  13  14
ENDBRANCH  11  13
ENDBRANCH   1  11
TORSDOF 5
ENDMDL
