MODEL 1
REMARK VINA RESULT:      -7.0      0.000      0.000
REMARK  Name = 
REMARK  2 active torsions:
REMARK  status: ('A' for Active; 'I' for Inactive)
REMARK    1  A    between atoms: N_11  and  C1*_12
REMARK    2  A    between atoms: C4*_16  and  C5*_17
REMARK                            x       y       z     vdW  Elec       q    Type
REMARK                         _______ _______ _______ _____ _____    ______ ____
ROOT
ATOM      1  N   UNL     1       3.478   6.479  -8.516  0.00  0.00    -0.105 NA
ATOM      2  C   UNL     1       3.274   6.135  -7.237  0.00  0.00    +0.193 A 
ATOM      3  C   UNL     1       2.021   5.651  -6.862  0.00  0.00    +0.152 A 
ATOM      4  N   UNL     1       0.922   5.221  -7.517  0.00  0.00    -0.219 NA
ATOM      5  C   UNL     1      -0.065   5.061  -6.598  0.00  0.00    +0.182 A 
ATOM      6  N   UNL     1       0.326   5.409  -5.389  0.00  0.00    -0.271 N 
ATOM      7  C   UNL     1       1.667   5.553  -5.520  0.00  0.00    +0.170 A 
ATOM      8  N   UNL     1       2.675   5.664  -4.638  0.00  0.00    -0.198 NA
ATOM      9  C   UNL     1       3.955   5.520  -5.059  0.00  0.00    +0.227 A 
ATOM     10 CL   UNL     1       5.183   4.705  -4.113  0.00  0.00    -0.041 Cl
ATOM     11  N   UNL     1       4.198   6.058  -6.253  0.00  0.00    -0.197 NA
ENDROOT
BRANCH   6  12
ATOM     12  C1* UNL     1      -0.351   6.582  -4.550  0.00  0.00    +0.210 C 
ATOM     13  O4* UNL     1      -1.187   5.594  -3.729  0.00  0.00    -0.332 OA
ATOM     14  C4* UNL     1      -1.765   6.813  -3.057  0.00  0.00    +0.180 C 
ATOM     15  C3* UNL     1      -2.667   7.323  -4.430  0.00  0.00    +0.186 C 
ATOM     16  O3* UNL     1      -1.905   8.633  -4.459  0.00  0.00    -0.220 OA
ATOM     17  C2* UNL     1      -1.663   6.669  -5.544  0.00  0.00    +0.089 C 
BRANCH  14  18
ATOM     18  C5* UNL     1      -3.056   5.968  -2.491  0.00  0.00    +0.214 C 
ATOM     19  O5* UNL     1      -2.654   4.653  -2.420  0.00  0.00    -0.218 OA
ENDBRANCH  14  18
ENDBRANCH   6  12
TORSDOF 2
ENDMDL
MODEL 2
REMARK VINA RESULT:      -6.9      2.646      4.283
REMARK  Name = 
REMARK  2 active torsions:
REMARK  status: ('A' for Active; 'I' for Inactive)
REMARK    1  A    between atoms: N_11  and  C1*_12
REMARK    2  A    between atoms: C4*_16  and  C5*_17
REMARK                            x       y       z     vdW  Elec       q    Type
REMARK                         _______ _______ _______ _____ _____    ______ ____
ROOT
ATOM      1  N   UNL     1       4.459   4.214  -0.727  0.00  0.00    -0.105 NA
ATOM      2  C   UNL     1       3.872   4.998  -1.643  0.00  0.00    +0.193 A 
ATOM      3  C   UNL     1       2.665   5.617  -1.324  0.00  0.00    +0.152 A 
ATOM      4  N   UNL     1       1.955   5.815  -0.192  0.00  0.00    -0.219 NA
ATOM      5  C   UNL     1       0.746   6.320  -0.550  0.00  0.00    +0.182 A 
ATOM      6  N   UNL     1       0.620   6.415  -1.858  0.00  0.00    -0.271 N 
ATOM      7  C   UNL     1       1.877   6.197  -2.313  0.00  0.00    +0.170 A 
ATOM      8  N   UNL     1       2.473   6.381  -3.504  0.00  0.00    -0.198 NA
ATOM      9  C   UNL     1       3.825   6.330  -3.594  0.00  0.00    +0.227 A 
ATOM     10 CL   UNL     1       4.751   7.396  -4.630  0.00  0.00    -0.041 Cl
ATOM     11  N   UNL     1       4.386   5.395  -2.829  0.00  0.00    -0.197 NA
ENDROOT
BRANCH   6  12
ATOM     12  C1* UNL     1      -0.493   5.638  -2.693  0.00  0.00    +0.210 C 
ATOM     13  O4* UNL     1      -0.749   6.850  -3.595  0.00  0.00    -0.332 OA
ATOM     14  C4* UNL     1      -1.801   5.997  -4.255  0.00  0.00    +0.180 C 
ATOM     15  C3* UNL     1      -2.883   6.039  -2.919  0.00  0.00    +0.186 C 
ATOM     16  O3* UNL     1      -2.814   4.529  -2.800  0.00  0.00    -0.220 OA
ATOM     17  C2* UNL     1      -1.730   6.221  -1.773  0.00  0.00    +0.089 C 
BRANCH  14  18
ATOM     18  C5* UNL     1      -2.535   7.306  -4.925  0.00  0.00    +0.214 C 
ATOM     19  O5* UNL     1      -1.706   8.378  -4.681  0.00  0.00    -0.218 OA
ENDBRANCH  14  18
ENDBRANCH   6  12
TORSDOF 2
ENDMDL
MODEL 3
REMARK VINA RESULT:      -6.9      6.141      8.770
REMARK  Name = 
REMARK  2 active torsions:
REMARK  status: ('A' for Active; 'I' for Inactive)
REMARK    1  A    between atoms: N_11  and  C1*_12
REMARK    2  A    between atoms: C4*_16  and  C5*_17
REMARK                            x       y       z     vdW  Elec       q    Type
REMARK                         _______ _______ _______ _____ _____    ______ ____
ROOT
ATOM      1  N   UNL     1       1.235   6.402  -7.205  0.00  0.00    -0.105 NA
ATOM      2  C   UNL     1       1.441   6.021  -8.474  0.00  0.00    +0.193 A 
ATOM      3  C   UNL     1       2.702   5.550  -8.838  0.00  0.00    +0.152 A 
ATOM      4  N   UNL     1       3.812   5.162  -8.175  0.00  0.00    -0.219 NA
ATOM      5  C   UNL     1       4.798   4.991  -9.093  0.00  0.00    +0.182 A 
ATOM      6  N   UNL     1       4.396   5.294 -10.310  0.00  0.00    -0.271 N 
ATOM      7  C   UNL     1       3.053   5.416 -10.178  0.00  0.00    +0.170 A 
ATOM      8  N   UNL     1       2.040   5.480 -11.059  0.00  0.00    -0.198 NA
ATOM      9  C   UNL     1       0.764   5.325 -10.628  0.00  0.00    +0.227 A 
ATOM     10 CL   UNL     1      -0.452   4.457 -11.543  0.00  0.00    -0.041 Cl
ATOM     11  N   UNL     1       0.515   5.896  -9.451  0.00  0.00    -0.197 NA
ENDROOT
BRANCH   6  12
ATOM     12  C1* UNL     1       5.047   6.451 -11.189  0.00  0.00    +0.210 C 
ATOM     13  O4* UNL     1       6.003   5.473 -11.879  0.00  0.00    -0.332 OA
ATOM     14  C4* UNL     1       6.542   6.681 -12.601  0.00  0.00    +0.180 C 
ATOM     15  C3* UNL     1       7.310   7.350 -11.215  0.00  0.00    +0.186 C 
ATOM     16  O3* UNL     1       6.460   8.600 -11.332  0.00  0.00    -0.220 OA
ATOM     17  C2* UNL     1       6.278   6.703 -10.122  0.00  0.00    +0.089 C 
BRANCH  14  18
ATOM     18  C5* UNL     1       7.924   5.896 -13.020  0.00  0.00    +0.214 C 
ATOM     19  O5* UNL     1       7.601   4.559 -13.084  0.00  0.00    -0.218 OA
ENDBRANCH  14  18
ENDBRANCH   6  12
TORSDOF 2
ENDMDL
MODEL 4
REMARK VINA RESULT:      -6.8      5.399      7.971
REMARK  Name = 
REMARK  2 active torsions:
REMARK  status: ('A' for Active; 'I' for Inactive)
REMARK    1  A    between atoms: N_11  and  C1*_12
REMARK    2  A    between atoms: C4*_16  and  C5*_17
REMARK                            x       y       z     vdW  Elec       q    Type
REMARK                         _______ _______ _______ _____ _____    ______ ____
ROOT
ATOM      1  N   UNL     1       3.335   7.163  -5.034  0.00  0.00    -0.105 NA
ATOM      2  C   UNL     1       2.858   6.750  -6.218  0.00  0.00    +0.193 A 
ATOM      3  C   UNL     1       3.712   6.077  -7.090  0.00  0.00    +0.152 A 
ATOM      4  N   UNL     1       4.934   5.513  -6.994  0.00  0.00    -0.219 NA
ATOM      5  C   UNL     1       5.332   5.180  -8.249  0.00  0.00    +0.182 A 
ATOM      6  N   UNL     1       4.449   5.543  -9.157  0.00  0.00    -0.271 N 
ATOM      7  C   UNL     1       3.363   5.885  -8.423  0.00  0.00    +0.170 A 
ATOM      8  N   UNL     1       2.075   6.113  -8.730  0.00  0.00    -0.198 NA
ATOM      9  C   UNL     1       1.148   6.171  -7.743  0.00  0.00    +0.227 A 
ATOM     10 CL   UNL     1      -0.467   5.514  -7.911  0.00  0.00    -0.041 Cl
ATOM     11  N   UNL     1       1.572   6.777  -6.635  0.00  0.00    -0.197 NA
ENDROOT
BRANCH   6  12
ATOM     12  C1* UNL     1       4.765   6.575 -10.328  0.00  0.00    +0.210 C 
ATOM     13  O4* UNL     1       4.817   5.462 -11.379  0.00  0.00    -0.332 OA
ATOM     14  C4* UNL     1       5.152   6.555 -12.360  0.00  0.00    +0.180 C 
ATOM     15  C3* UNL     1       6.733   6.830 -11.739  0.00  0.00    +0.186 C 
ATOM     16  O3* UNL     1       6.371   8.267 -11.419  0.00  0.00    -0.220 OA
ATOM     17  C2* UNL     1       6.396   6.363 -10.208  0.00  0.00    +0.089 C 
BRANCH  14  18
ATOM     18  C5* UNL     1       5.741   5.481 -13.456  0.00  0.00    +0.214 C 
ATOM     19  O5* UNL     1       4.824   4.456 -13.519  0.00  0.00    -0.218 OA
ENDBRANCH  14  18
ENDBRANCH   6  12
TORSDOF 2
ENDMDL
MODEL 5
REMARK VINA RESULT:      -6.6      4.392      6.540
REMARK  Name = 
REMARK  2 active torsions:
REMARK  status: ('A' for Active; 'I' for Inactive)
REMARK    1  A    between atoms: N_11  and  C1*_12
REMARK    2  A    between atoms: C4*_16  and  C5*_17
REMARK                            x       y       z     vdW  Elec       q    Type
REMARK                         _______ _______ _______ _____ _____    ______ ____
ROOT
ATOM      1  N   UNL     1       1.338   5.365  -3.630  0.00  0.00    -0.105 NA
ATOM      2  C   UNL     1       0.702   5.397  -4.810  0.00  0.00    +0.193 A 
ATOM      3  C   UNL     1       1.291   4.774  -5.909  0.00  0.00    +0.152 A 
ATOM      4  N   UNL     1       2.317   3.916  -6.092  0.00  0.00    -0.219 NA
ATOM      5  C   UNL     1       2.539   3.822  -7.428  0.00  0.00    +0.182 A 
ATOM      6  N   UNL     1       1.738   4.610  -8.117  0.00  0.00    -0.271 N 
ATOM      7  C   UNL     1       0.829   5.017  -7.199  0.00  0.00    +0.170 A 
ATOM      8  N   UNL     1      -0.364   5.630  -7.288  0.00  0.00    -0.198 NA
ATOM      9  C   UNL     1      -1.183   5.667  -6.209  0.00  0.00    +0.227 A 
ATOM     10 CL   UNL     1      -2.922   5.499  -6.327  0.00  0.00    -0.041 Cl
ATOM     11  N   UNL     1      -0.549   5.849  -5.052  0.00  0.00    -0.197 NA
ENDROOT
BRANCH   6  12
ATOM     12  C1* UNL     1       2.258   5.792  -9.050  0.00  0.00    +0.210 C 
ATOM     13  O4* UNL     1       1.568   5.202 -10.284  0.00  0.00    -0.332 OA
ATOM     14  C4* UNL     1       2.171   6.359 -11.038  0.00  0.00    +0.180 C 
ATOM     15  C3* UNL     1       3.784   5.769 -10.947  0.00  0.00    +0.186 C 
ATOM     16  O3* UNL     1       4.212   7.016 -10.198  0.00  0.00    -0.220 OA
ATOM     17  C2* UNL     1       3.585   4.948  -9.546  0.00  0.00    +0.089 C 
BRANCH  14  18
ATOM     18  C5* UNL     1       1.952   5.615 -12.487  0.00  0.00    +0.214 C 
ATOM     19  O5* UNL     1       0.786   4.892 -12.375  0.00  0.00    -0.218 OA
ENDBRANCH  14  18
ENDBRANCH   6  12
TORSDOF 2
ENDMDL
MODEL 6
REMARK VINA RESULT:      -6.6      3.683      6.039
REMARK  Name = 
REMARK  2 active torsions:
REMARK  status: ('A' for Active; 'I' for Inactive)
REMARK    1  A    between atoms: N_11  and  C1*_12
REMARK    2  A    between atoms: C4*_16  and  C5*_17
REMARK                            x       y       z     vdW  Elec       q    Type
REMARK                         _______ _______ _______ _____ _____    ______ ____
ROOT
ATOM      1  N   UNL     1      -3.322   6.029  -2.585  0.00  0.00    -0.105 NA
ATOM      2  C   UNL     1      -2.256   5.912  -3.389  0.00  0.00    +0.193 A 
ATOM      3  C   UNL     1      -1.042   5.498  -2.842  0.00  0.00    +0.152 A 
ATOM      4  N   UNL     1      -0.652   4.957  -1.668  0.00  0.00    -0.219 NA
ATOM      5  C   UNL     1       0.706   4.956  -1.649  0.00  0.00    +0.182 A 
ATOM      6  N   UNL     1       1.214   5.512  -2.730  0.00  0.00    -0.271 N 
ATOM      7  C   UNL     1       0.145   5.635  -3.554  0.00  0.00    +0.170 A 
ATOM      8  N   UNL     1       0.015   5.901  -4.865  0.00  0.00    -0.198 NA
ATOM      9  C   UNL     1      -1.175   5.689  -5.478  0.00  0.00    +0.227 A 
ATOM     10 CL   UNL     1      -1.308   5.056  -7.106  0.00  0.00    -0.041 Cl
ATOM     11  N   UNL     1      -2.233   6.011  -4.738  0.00  0.00    -0.197 NA
ENDROOT
BRANCH   6  12
ATOM     12  C1* UNL     1       2.135   6.811  -2.701  0.00  0.00    +0.210 C 
ATOM     13  O4* UNL     1       3.049   6.261  -3.801  0.00  0.00    -0.332 OA
ATOM     14  C4* UNL     1       3.843   7.530  -3.622  0.00  0.00    +0.180 C 
ATOM     15  C3* UNL     1       4.473   7.091  -2.082  0.00  0.00    +0.186 C 
ATOM     16  O3* UNL     1       3.820   8.307  -1.455  0.00  0.00    -0.220 OA
ATOM     17  C2* UNL     1       3.214   6.142  -1.648  0.00  0.00    +0.089 C 
BRANCH  14  18
ATOM     18  C5* UNL     1       5.158   6.890  -4.372  0.00  0.00    +0.214 C 
ATOM     19  O5* UNL     1       4.687   6.262  -5.503  0.00  0.00    -0.218 OA
ENDBRANCH  14  18
ENDBRANCH   6  12
TORSDOF 2
ENDMDL
MODEL 7
REMARK VINA RESULT:      -6.5      3.267      5.671
REMARK  Name = 
REMARK  2 active torsions:
REMARK  status: ('A' for Active; 'I' for Inactive)
REMARK    1  A    between atoms: N_11  and  C1*_12
REMARK    2  A    between atoms: C4*_16  and  C5*_17
REMARK                            x       y       z     vdW  Elec       q    Type
REMARK                         _______ _______ _______ _____ _____    ______ ____
ROOT
ATOM      1  N   UNL     1      -3.024   4.860  -2.653  0.00  0.00    -0.105 NA
ATOM      2  C   UNL     1      -1.785   5.355  -2.523  0.00  0.00    +0.193 A 
ATOM      3  C   UNL     1      -1.264   6.142  -3.549  0.00  0.00    +0.152 A 
ATOM      4  N   UNL     1      -1.766   6.749  -4.645  0.00  0.00    -0.219 NA
ATOM      5  C   UNL     1      -0.718   7.211  -5.374  0.00  0.00    +0.182 A 
ATOM      6  N   UNL     1       0.439   6.893  -4.830  0.00  0.00    -0.271 N 
ATOM      7  C   UNL     1       0.095   6.437  -3.602  0.00  0.00    +0.170 A 
ATOM      8  N   UNL     1       0.794   6.181  -2.482  0.00  0.00    -0.198 NA
ATOM      9  C   UNL     1       0.140   5.992  -1.310  0.00  0.00    +0.227 A 
ATOM     10 CL   UNL     1       0.742   6.589   0.223  0.00  0.00    -0.041 Cl
ATOM     11  N   UNL     1      -0.997   5.308  -1.426  0.00  0.00    -0.197 NA
ENDROOT
BRANCH   6  12
ATOM     12  C1* UNL     1       1.530   5.985  -5.553  0.00  0.00    +0.210 C 
ATOM     13  O4* UNL     1       1.909   7.107  -6.524  0.00  0.00    -0.332 OA
ATOM     14  C4* UNL     1       2.867   6.112  -7.126  0.00  0.00    +0.180 C 
ATOM     15  C3* UNL     1       1.639   5.135  -7.831  0.00  0.00    +0.186 C 
ATOM     16  O3* UNL     1       2.101   3.944  -7.015  0.00  0.00    -0.220 OA
ATOM     17  C2* UNL     1       0.485   5.493  -6.729  0.00  0.00    +0.089 C 
BRANCH  14  18
ATOM     18  C5* UNL     1       3.005   6.985  -8.512  0.00  0.00    +0.214 C 
ATOM     19  O5* UNL     1       2.529   8.243  -8.222  0.00  0.00    -0.218 OA
ENDBRANCH  14  18
ENDBRANCH   6  12
TORSDOF 2
ENDMDL
MODEL 8
REMARK VINA RESULT:      -6.4      3.459      5.869
REMARK  Name = 
REMARK  2 active torsions:
REMARK  status: ('A' for Active; 'I' for Inactive)
REMARK    1  A    between atoms: N_11  and  C1*_12
REMARK    2  A    between atoms: C4*_16  and  C5*_17
REMARK                            x       y       z     vdW  Elec       q    Type
REMARK                         _______ _______ _______ _____ _____    ______ ____
ROOT
ATOM      1  N   UNL     1      -3.272   4.840  -3.400  0.00  0.00    -0.105 NA
ATOM      2  C   UNL     1      -2.136   5.347  -2.900  0.00  0.00    +0.193 A 
ATOM      3  C   UNL     1      -1.330   6.131  -3.724  0.00  0.00    +0.152 A 
ATOM      4  N   UNL     1      -1.475   6.725  -4.927  0.00  0.00    -0.219 NA
ATOM      5  C   UNL     1      -0.256   7.191  -5.303  0.00  0.00    +0.182 A 
ATOM      6  N   UNL     1       0.679   6.888  -4.427  0.00  0.00    -0.271 N 
ATOM      7  C   UNL     1      -0.023   6.439  -3.359  0.00  0.00    +0.170 A 
ATOM      8  N   UNL     1       0.299   6.197  -2.076  0.00  0.00    -0.198 NA
ATOM      9  C   UNL     1      -0.682   6.012  -1.160  0.00  0.00    +0.227 A 
ATOM     10 CL   UNL     1      -0.585   6.626   0.478  0.00  0.00    -0.041 Cl
ATOM     11  N   UNL     1      -1.724   5.316  -1.612  0.00  0.00    -0.197 NA
ENDROOT
BRANCH   6  12
ATOM     12  C1* UNL     1       1.945   5.984  -4.769  0.00  0.00    +0.210 C 
ATOM     13  O4* UNL     1       2.910   6.987  -4.128  0.00  0.00    -0.332 OA
ATOM     14  C4* UNL     1       4.003   6.043  -4.560  0.00  0.00    +0.180 C 
ATOM     15  C3* UNL     1       3.844   6.394  -6.237  0.00  0.00    +0.186 C 
ATOM     16  O3* UNL     1       3.517   4.942  -6.522  0.00  0.00    -0.220 OA
ATOM     17  C2* UNL     1       2.256   6.781  -6.178  0.00  0.00    +0.089 C 
BRANCH  14  18
ATOM     18  C5* UNL     1       5.157   7.202  -4.400  0.00  0.00    +0.214 C 
ATOM     19  O5* UNL     1       5.171   7.548  -3.067  0.00  0.00    -0.218 OA
ENDBRANCH  14  18
ENDBRANCH   6  12
TORSDOF 2
ENDMDL
MODEL 9
REMARK VINA RESULT:      -6.3      3.273      4.474
REMARK  Name = 
REMARK  2 active torsions:
REMARK  status: ('A' for Active; 'I' for Inactive)
REMARK    1  A    between atoms: N_11  and  C1*_12
REMARK    2  A    between atoms: C4*_16  and  C5*_17
REMARK                            x       y       z     vdW  Elec       q    Type
REMARK                         _______ _______ _______ _____ _____    ______ ____
ROOT
ATOM      1  N   UNL     1       3.134   5.898 -11.665  0.00  0.00    -0.105 NA
ATOM      2  C   UNL     1       3.893   5.731 -10.572  0.00  0.00    +0.193 A 
ATOM      3  C   UNL     1       3.373   5.014  -9.495  0.00  0.00    +0.152 A 
ATOM      4  N   UNL     1       2.303   4.215  -9.299  0.00  0.00    -0.219 NA
ATOM      5  C   UNL     1       2.218   3.964  -7.967  0.00  0.00    +0.182 A 
ATOM      6  N   UNL     1       3.151   4.597  -7.286  0.00  0.00    -0.271 N 
ATOM      7  C   UNL     1       3.989   5.053  -8.248  0.00  0.00    +0.170 A 
ATOM      8  N   UNL     1       5.233   5.562  -8.224  0.00  0.00    -0.198 NA
ATOM      9  C   UNL     1       5.932   5.681  -9.379  0.00  0.00    +0.227 A 
ATOM     10 CL   UNL     1       7.654   5.375  -9.486  0.00  0.00    -0.041 Cl
ATOM     11  N   UNL     1       5.197   6.057 -10.424  0.00  0.00    -0.197 NA
ENDROOT
BRANCH   6  12
ATOM     12  C1* UNL     1       2.837   5.681  -6.162  0.00  0.00    +0.210 C 
ATOM     13  O4* UNL     1       3.705   4.953  -5.131  0.00  0.00    -0.332 OA
ATOM     14  C4* UNL     1       3.278   6.034  -4.172  0.00  0.00    +0.180 C 
ATOM     15  C3* UNL     1       1.654   5.482  -4.044  0.00  0.00    +0.186 C 
ATOM     16  O3* UNL     1       1.148   6.808  -4.578  0.00  0.00    -0.220 OA
ATOM     17  C2* UNL     1       1.586   4.811  -5.534  0.00  0.00    +0.089 C 
BRANCH  14  18
ATOM     18  C5* UNL     1       3.714   5.137  -2.866  0.00  0.00    +0.214 C 
ATOM     19  O5* UNL     1       4.330   6.004  -1.992  0.00  0.00    -0.218 OA
ENDBRANCH  14  18
ENDBRANCH   6  12
TORSDOF 2
ENDMDL
