MODEL 1
REMARK VINA RESULT:      -7.0      0.000      0.000
REMARK  Name = 
REMARK  8 active torsions:
REMARK  status: ('A' for Active; 'I' for Inactive)
REMARK    1  A    between atoms: C_2  and  O_4
REMARK    2  A    between atoms: O_4  and  C_5
REMARK    3  A    between atoms: C_9  and  O_10
REMARK    4  A    between atoms: O_10  and  C_11
REMARK    5  A    between atoms: C_11  and  C_12
REMARK    6  A    between atoms: C_12  and  C_14
REMARK    7  A    between atoms: C_14  and  N_15
REMARK    8  A    between atoms: N_15  and  C_16
REMARK                            x       y       z     vdW  Elec       q    Type
REMARK                         _______ _______ _______ _____ _____    ______ ____
ROOT
ATOM      1  C   UNL     1      -0.702   5.515  -4.490  0.00  0.00    +0.140 A 
ATOM      2  C   UNL     1      -0.981   5.328  -5.841  0.00  0.00    +0.011 A 
ATOM      3  C   UNL     1      -2.402   5.326  -6.232  0.00  0.00    +0.034 C 
ATOM      4  C   UNL     1       0.020   5.333  -6.807  0.00  0.00    +0.011 A 
ATOM      5  C   UNL     1      -0.294   5.628  -8.240  0.00  0.00    +0.034 C 
ATOM      6  C   UNL     1       1.355   5.392  -6.421  0.00  0.00    +0.134 A 
ATOM      7  C   UNL     1       1.584   5.050  -5.092  0.00  0.00    +0.035 A 
ATOM      8  C   UNL     1       0.597   5.173  -4.121  0.00  0.00    +0.015 A 
ATOM      9  C   UNL     1       0.924   5.245  -2.663  0.00  0.00    +0.034 C 
ENDROOT
BRANCH   1  10
ATOM     10  O   UNL     1      -1.459   6.427  -3.743  0.00  0.00    -0.425 OA
BRANCH  10  12
ATOM     11  C   UNL     1      -3.646   6.809  -2.757  0.00  0.00    +0.122 C 
ATOM     12  C   UNL     1      -2.428   5.989  -2.837  0.00  0.00    +0.322 C 
ATOM     13  O   UNL     1      -2.459   4.729  -2.702  0.00  0.00    -0.250 OA
ENDBRANCH  10  12
ENDBRANCH   1  10
BRANCH   6  14
ATOM     14  O   UNL     1       2.245   6.192  -7.144  0.00  0.00    -0.473 OA
BRANCH  14  15
ATOM     15  C   UNL     1       3.548   5.757  -7.489  0.00  0.00    +0.239 C 
BRANCH  15  16
ATOM     16  C   UNL     1       3.249   5.370  -9.100  0.00  0.00    +0.213 C 
ATOM     17  O   UNL     1       3.301   3.855  -8.778  0.00  0.00    -0.218 OA
BRANCH  16  18
ATOM     18  C   UNL     1       4.895   5.387  -9.451  0.00  0.00    +0.125 C 
BRANCH  18  19
ATOM     19  N   UNL     1       4.999   6.565 -10.299  0.00  0.00    -0.217 NA
BRANCH  19  20
ATOM     20  C   UNL     1       6.361   6.589 -10.804  0.00  0.00    +0.073 C 
ATOM     21  C   UNL     1       7.317   6.105  -9.723  0.00  0.00    +0.019 C 
ATOM     22  C   UNL     1       6.693   7.990 -11.243  0.00  0.00    +0.019 C 
ENDBRANCH  19  20
ENDBRANCH  18  19
ENDBRANCH  16  18
ENDBRANCH  15  16
ENDBRANCH  14  15
ENDBRANCH   6  14
TORSDOF 8
ENDMDL
MODEL 2
REMARK VINA RESULT:      -6.9      1.046      2.324
REMARK  Name = 
REMARK  8 active torsions:
REMARK  status: ('A' for Active; 'I' for Inactive)
REMARK    1  A    between atoms: C_2  and  O_4
REMARK    2  A    between atoms: O_4  and  C_5
REMARK    3  A    between atoms: C_9  and  O_10
REMARK    4  A    between atoms: O_10  and  C_11
REMARK    5  A    between atoms: C_11  and  C_12
REMARK    6  A    between atoms: C_12  and  C_14
REMARK    7  A    between atoms: C_14  and  N_15
REMARK    8  A    between atoms: N_15  and  C_16
REMARK                            x       y       z     vdW  Elec       q    Type
REMARK                         _______ _______ _______ _____ _____    ______ ____
ROOT
ATOM      1  C   UNL     1      -0.484   5.713  -4.583  0.00  0.00    +0.140 A 
ATOM      2  C   UNL     1       0.874   5.813  -4.298  0.00  0.00    +0.011 A 
ATOM      3  C   UNL     1       1.241   6.083  -2.896  0.00  0.00    +0.034 C 
ATOM      4  C   UNL     1       1.849   5.489  -5.235  0.00  0.00    +0.011 A 
ATOM      5  C   UNL     1       3.236   5.120  -4.810  0.00  0.00    +0.034 C 
ATOM      6  C   UNL     1       1.480   5.183  -6.541  0.00  0.00    +0.134 A 
ATOM      7  C   UNL     1       0.201   5.604  -6.891  0.00  0.00    +0.035 A 
ATOM      8  C   UNL     1      -0.793   5.802  -5.939  0.00  0.00    +0.015 A 
ATOM      9  C   UNL     1      -2.245   5.814  -6.300  0.00  0.00    +0.034 C 
ENDROOT
BRANCH   1  10
ATOM     10  O   UNL     1      -1.340   5.071  -3.679  0.00  0.00    -0.425 OA
BRANCH  10  12
ATOM     11  C   UNL     1      -2.288   7.190  -2.963  0.00  0.00    +0.122 C 
ATOM     12  C   UNL     1      -1.984   5.783  -2.664  0.00  0.00    +0.322 C 
ATOM     13  O   UNL     1      -2.756   5.067  -1.957  0.00  0.00    -0.250 OA
ENDBRANCH  10  12
ENDBRANCH   1  10
BRANCH   6  14
ATOM     14  O   UNL     1       2.124   4.137  -7.211  0.00  0.00    -0.473 OA
BRANCH  14  15
ATOM     15  C   UNL     1       2.494   4.223  -8.575  0.00  0.00    +0.239 C 
BRANCH  15  16
ATOM     16  C   UNL     1       3.407   5.635  -8.483  0.00  0.00    +0.213 C 
ATOM     17  O   UNL     1       2.632   6.251  -9.676  0.00  0.00    -0.218 OA
BRANCH  16  18
ATOM     18  C   UNL     1       4.569   4.998  -9.521  0.00  0.00    +0.125 C 
BRANCH  18  19
ATOM     19  N   UNL     1       4.797   6.116 -10.423  0.00  0.00    -0.217 NA
BRANCH  19  20
ATOM     20  C   UNL     1       6.228   6.159 -10.671  0.00  0.00    +0.073 C 
ATOM     21  C   UNL     1       6.979   5.735  -9.417  0.00  0.00    +0.019 C 
ATOM     22  C   UNL     1       6.608   7.552 -11.093  0.00  0.00    +0.019 C 
ENDBRANCH  19  20
ENDBRANCH  18  19
ENDBRANCH  16  18
ENDBRANCH  15  16
ENDBRANCH  14  15
ENDBRANCH   6  14
TORSDOF 8
ENDMDL
MODEL 3
REMARK VINA RESULT:      -6.8      2.721      8.394
REMARK  Name = 
REMARK  8 active torsions:
REMARK  status: ('A' for Active; 'I' for Inactive)
REMARK    1  A    between atoms: C_2  and  O_4
REMARK    2  A    between atoms: O_4  and  C_5
REMARK    3  A    between atoms: C_9  and  O_10
REMARK    4  A    between atoms: O_10  and  C_11
REMARK    5  A    between atoms: C_11  and  C_12
REMARK    6  A    between atoms: C_12  and  C_14
REMARK    7  A    between atoms: C_14  and  N_15
REMARK    8  A    between atoms: N_15  and  C_16
REMARK                            x       y       z     vdW  Elec       q    Type
REMARK                         _______ _______ _______ _____ _____    ______ ____
ROOT
ATOM      1  C   UNL     1       4.988   5.544 -10.973  0.00  0.00    +0.140 A 
ATOM      2  C   UNL     1       3.612   5.673 -11.135  0.00  0.00    +0.011 A 
ATOM      3  C   UNL     1       3.125   5.928 -12.502  0.00  0.00    +0.034 C 
ATOM      4  C   UNL     1       2.720   5.390 -10.106  0.00  0.00    +0.011 A 
ATOM      5  C   UNL     1       1.291   5.050 -10.397  0.00  0.00    +0.034 C 
ATOM      6  C   UNL     1       3.199   5.096  -8.834  0.00  0.00    +0.134 A 
ATOM      7  C   UNL     1       4.514   5.492  -8.611  0.00  0.00    +0.035 A 
ATOM      8  C   UNL     1       5.422   5.648  -9.653  0.00  0.00    +0.015 A 
ATOM      9  C   UNL     1       6.900   5.629  -9.425  0.00  0.00    +0.034 C 
ENDROOT
BRANCH   1  10
ATOM     10  O   UNL     1       5.742   4.865 -11.939  0.00  0.00    -0.425 OA
BRANCH  10  12
ATOM     11  C   UNL     1       6.592   7.011 -12.695  0.00  0.00    +0.122 C 
ATOM     12  C   UNL     1       6.473   5.562 -12.905  0.00  0.00    +0.322 C 
ATOM     13  O   UNL     1       7.412   4.879 -13.416  0.00  0.00    -0.250 OA
ENDBRANCH  10  12
ENDBRANCH   1  10
BRANCH   6  14
ATOM     14  O   UNL     1       2.595   4.079  -8.089  0.00  0.00    -0.473 OA
BRANCH  14  15
ATOM     15  C   UNL     1       2.339   4.204  -6.701  0.00  0.00    +0.239 C 
BRANCH  15  16
ATOM     16  C   UNL     1       1.467   5.643  -6.751  0.00  0.00    +0.213 C 
ATOM     17  O   UNL     1       2.122   6.122  -5.431  0.00  0.00    -0.218 OA
BRANCH  16  18
ATOM     18  C   UNL     1       0.190   4.944  -5.905  0.00  0.00    +0.125 C 
BRANCH  18  19
ATOM     19  N   UNL     1      -0.260   6.058  -5.086  0.00  0.00    -0.217 NA
BRANCH  19  20
ATOM     20  C   UNL     1      -1.712   6.030  -5.115  0.00  0.00    +0.073 C 
ATOM     21  C   UNL     1      -2.188   5.497  -6.460  0.00  0.00    +0.019 C 
ATOM     22  C   UNL     1      -2.233   7.419  -4.861  0.00  0.00    +0.019 C 
ENDBRANCH  19  20
ENDBRANCH  18  19
ENDBRANCH  16  18
ENDBRANCH  15  16
ENDBRANCH  14  15
ENDBRANCH   6  14
TORSDOF 8
ENDMDL
MODEL 4
REMARK VINA RESULT:      -6.7      3.247      8.019
REMARK  Name = 
REMARK  8 active torsions:
REMARK  status: ('A' for Active; 'I' for Inactive)
REMARK    1  A    between atoms: C_2  and  O_4
REMARK    2  A    between atoms: O_4  and  C_5
REMARK    3  A    between atoms: C_9  and  O_10
REMARK    4  A    between atoms: O_10  and  C_11
REMARK    5  A    between atoms: C_11  and  C_12
REMARK    6  A    between atoms: C_12  and  C_14
REMARK    7  A    between atoms: C_14  and  N_15
REMARK    8  A    between atoms: N_15  and  C_16
REMARK                            x       y       z     vdW  Elec       q    Type
REMARK                         _______ _______ _______ _____ _____    ______ ____
ROOT
ATOM      1  C   UNL     1       4.779   5.747 -11.779  0.00  0.00    +0.140 A 
ATOM      2  C   UNL     1       3.418   5.857 -12.049  0.00  0.00    +0.011 A 
ATOM      3  C   UNL     1       3.018   5.832 -13.468  0.00  0.00    +0.034 C 
ATOM      4  C   UNL     1       2.460   5.804 -11.043  0.00  0.00    +0.011 A 
ATOM      5  C   UNL     1       1.043   5.429 -11.346  0.00  0.00    +0.034 C 
ATOM      6  C   UNL     1       2.857   5.772  -9.710  0.00  0.00    +0.134 A 
ATOM      7  C   UNL     1       4.167   6.188  -9.490  0.00  0.00    +0.035 A 
ATOM      8  C   UNL     1       5.137   6.115 -10.484  0.00  0.00    +0.015 A 
ATOM      9  C   UNL     1       6.598   6.125 -10.166  0.00  0.00    +0.034 C 
ENDROOT
BRANCH   1  10
ATOM     10  O   UNL     1       5.570   4.874 -12.537  0.00  0.00    -0.425 OA
BRANCH  10  12
ATOM     11  C   UNL     1       6.467   6.782 -13.744  0.00  0.00    +0.122 C 
ATOM     12  C   UNL     1       6.565   5.359 -13.390  0.00  0.00    +0.322 C 
ATOM     13  O   UNL     1       7.684   4.782 -13.239  0.00  0.00    -0.250 OA
ENDBRANCH  10  12
ENDBRANCH   1  10
BRANCH   6  14
ATOM     14  O   UNL     1       2.185   4.937  -8.811  0.00  0.00    -0.473 OA
BRANCH  14  15
ATOM     15  C   UNL     1       1.720   5.394  -7.554  0.00  0.00    +0.239 C 
BRANCH  15  16
ATOM     16  C   UNL     1       2.442   4.216  -6.592  0.00  0.00    +0.213 C 
ATOM     17  O   UNL     1       1.068   3.808  -6.004  0.00  0.00    -0.218 OA
BRANCH  16  18
ATOM     18  C   UNL     1       2.685   5.325  -5.349  0.00  0.00    +0.125 C 
BRANCH  18  19
ATOM     19  N   UNL     1       3.760   6.141  -5.893  0.00  0.00    -0.217 NA
BRANCH  19  20
ATOM     20  C   UNL     1       4.780   6.218  -4.862  0.00  0.00    +0.073 C 
ATOM     21  C   UNL     1       4.454   5.239  -3.743  0.00  0.00    +0.019 C 
ATOM     22  C   UNL     1       4.850   7.632  -4.350  0.00  0.00    +0.019 C 
ENDBRANCH  19  20
ENDBRANCH  18  19
ENDBRANCH  16  18
ENDBRANCH  15  16
ENDBRANCH  14  15
ENDBRANCH   6  14
TORSDOF 8
ENDMDL
MODEL 5
REMARK VINA RESULT:      -6.5      1.845      2.457
REMARK  Name = 
REMARK  8 active torsions:
REMARK  status: ('A' for Active; 'I' for Inactive)
REMARK    1  A    between atoms: C_2  and  O_4
REMARK    2  A    between atoms: O_4  and  C_5
REMARK    3  A    between atoms: C_9  and  O_10
REMARK    4  A    between atoms: O_10  and  C_11
REMARK    5  A    between atoms: C_11  and  C_12
REMARK    6  A    between atoms: C_12  and  C_14
REMARK    7  A    between atoms: C_14  and  N_15
REMARK    8  A    between atoms: N_15  and  C_16
REMARK                            x       y       z     vdW  Elec       q    Type
REMARK                         _______ _______ _______ _____ _____    ______ ____
ROOT
ATOM      1  C   UNL     1       0.748   6.195  -6.117  0.00  0.00    +0.140 A 
ATOM      2  C   UNL     1       0.212   5.555  -7.230  0.00  0.00    +0.011 A 
ATOM      3  C   UNL     1      -1.250   5.368  -7.248  0.00  0.00    +0.034 C 
ATOM      4  C   UNL     1       0.976   5.271  -8.356  0.00  0.00    +0.011 A 
ATOM      5  C   UNL     1       0.332   5.055  -9.690  0.00  0.00    +0.034 C 
ATOM      6  C   UNL     1       2.347   5.506  -8.340  0.00  0.00    +0.134 A 
ATOM      7  C   UNL     1       2.892   5.640  -7.067  0.00  0.00    +0.035 A 
ATOM      8  C   UNL     1       2.127   6.045  -5.979  0.00  0.00    +0.015 A 
ATOM      9  C   UNL     1       2.747   6.615  -4.743  0.00  0.00    +0.034 C 
ENDROOT
BRANCH   1  10
ATOM     10  O   UNL     1       0.069   7.276  -5.541  0.00  0.00    -0.425 OA
BRANCH  10  12
ATOM     11  C   UNL     1      -2.043   7.802  -4.462  0.00  0.00    +0.122 C 
ATOM     12  C   UNL     1      -0.752   7.101  -4.424  0.00  0.00    +0.322 C 
ATOM     13  O   UNL     1      -0.623   5.964  -3.877  0.00  0.00    -0.250 OA
ENDBRANCH  10  12
ENDBRANCH   1  10
BRANCH   6  14
ATOM     14  O   UNL     1       2.965   6.049  -9.471  0.00  0.00    -0.473 OA
BRANCH  14  15
ATOM     15  C   UNL     1       3.952   5.347 -10.207  0.00  0.00    +0.239 C 
BRANCH  15  16
ATOM     16  C   UNL     1       3.896   6.269 -11.614  0.00  0.00    +0.213 C 
ATOM     17  O   UNL     1       4.670   5.178 -12.397  0.00  0.00    -0.218 OA
BRANCH  16  18
ATOM     18  C   UNL     1       5.333   7.046 -11.208  0.00  0.00    +0.125 C 
BRANCH  18  19
ATOM     19  N   UNL     1       6.322   6.147 -11.782  0.00  0.00    -0.217 NA
BRANCH  19  20
ATOM     20  C   UNL     1       7.590   6.475 -11.154  0.00  0.00    +0.073 C 
ATOM     21  C   UNL     1       8.725   5.786 -11.899  0.00  0.00    +0.019 C 
ATOM     22  C   UNL     1       7.545   6.050  -9.711  0.00  0.00    +0.019 C 
ENDBRANCH  19  20
ENDBRANCH  18  19
ENDBRANCH  16  18
ENDBRANCH  15  16
ENDBRANCH  14  15
ENDBRANCH   6  14
TORSDOF 8
ENDMDL
MODEL 6
REMARK VINA RESULT:      -6.5      2.173      4.003
REMARK  Name = 
REMARK  8 active torsions:
REMARK  status: ('A' for Active; 'I' for Inactive)
REMARK    1  A    between atoms: C_2  and  O_4
REMARK    2  A    between atoms: O_4  and  C_5
REMARK    3  A    between atoms: C_9  and  O_10
REMARK    4  A    between atoms: O_10  and  C_11
REMARK    5  A    between atoms: C_11  and  C_12
REMARK    6  A    between atoms: C_12  and  C_14
REMARK    7  A    between atoms: C_14  and  N_15
REMARK    8  A    between atoms: N_15  and  C_16
REMARK                            x       y       z     vdW  Elec       q    Type
REMARK                         _______ _______ _______ _____ _____    ______ ____
ROOT
ATOM      1  C   UNL     1       1.018   6.265  -4.377  0.00  0.00    +0.140 A 
ATOM      2  C   UNL     1       2.309   6.735  -4.153  0.00  0.00    +0.011 A 
ATOM      3  C   UNL     1       2.793   6.711  -2.761  0.00  0.00    +0.034 C 
ATOM      4  C   UNL     1       3.175   7.036  -5.198  0.00  0.00    +0.011 A 
ATOM      5  C   UNL     1       4.657   7.055  -4.991  0.00  0.00    +0.034 C 
ATOM      6  C   UNL     1       2.715   7.000  -6.511  0.00  0.00    +0.134 A 
ATOM      7  C   UNL     1       1.330   7.043  -6.636  0.00  0.00    +0.035 A 
ATOM      8  C   UNL     1       0.487   6.619  -5.615  0.00  0.00    +0.015 A 
ATOM      9  C   UNL     1      -0.937   6.239  -5.870  0.00  0.00    +0.034 C 
ENDROOT
BRANCH   1  10
ATOM     10  O   UNL     1       0.553   5.146  -3.674  0.00  0.00    -0.425 OA
BRANCH  10  12
ATOM     11  C   UNL     1      -1.531   5.625  -2.521  0.00  0.00    +0.122 C 
ATOM     12  C   UNL     1      -0.103   5.285  -2.448  0.00  0.00    +0.322 C 
ATOM     13  O   UNL     1       0.361   4.530  -1.540  0.00  0.00    -0.250 OA
ENDBRANCH  10  12
ENDBRANCH   1  10
BRANCH   6  14
ATOM     14  O   UNL     1       3.532   6.465  -7.511  0.00  0.00    -0.473 OA
BRANCH  14  15
ATOM     15  C   UNL     1       3.423   6.853  -8.869  0.00  0.00    +0.239 C 
BRANCH  15  16
ATOM     16  C   UNL     1       3.929   5.408  -9.570  0.00  0.00    +0.213 C 
ATOM     17  O   UNL     1       3.971   6.066 -10.972  0.00  0.00    -0.218 OA
BRANCH  16  18
ATOM     18  C   UNL     1       2.335   4.920  -9.807  0.00  0.00    +0.125 C 
BRANCH  18  19
ATOM     19  N   UNL     1       1.899   5.847 -10.840  0.00  0.00    -0.217 NA
BRANCH  19  20
ATOM     20  C   UNL     1       0.448   5.779 -10.868  0.00  0.00    +0.073 C 
ATOM     21  C   UNL     1      -0.121   7.136 -11.259  0.00  0.00    +0.019 C 
ATOM     22  C   UNL     1      -0.046   5.349  -9.513  0.00  0.00    +0.019 C 
ENDBRANCH  19  20
ENDBRANCH  18  19
ENDBRANCH  16  18
ENDBRANCH  15  16
ENDBRANCH  14  15
ENDBRANCH   6  14
TORSDOF 8
ENDMDL
MODEL 7
REMARK VINA RESULT:      -6.4      3.495      5.987
REMARK  Name = 
REMARK  8 active torsions:
REMARK  status: ('A' for Active; 'I' for Inactive)
REMARK    1  A    between atoms: C_2  and  O_4
REMARK    2  A    between atoms: O_4  and  C_5
REMARK    3  A    between atoms: C_9  and  O_10
REMARK    4  A    between atoms: O_10  and  C_11
REMARK    5  A    between atoms: C_11  and  C_12
REMARK    6  A    between atoms: C_12  and  C_14
REMARK    7  A    between atoms: C_14  and  N_15
REMARK    8  A    between atoms: N_15  and  C_16
REMARK                            x       y       z     vdW  Elec       q    Type
REMARK                         _______ _______ _______ _____ _____    ______ ____
ROOT
ATOM      1  C   UNL     1       3.530   6.571  -0.950  0.00  0.00    +0.140 A 
ATOM      2  C   UNL     1       4.091   5.573  -1.741  0.00  0.00    +0.011 A 
ATOM      3  C   UNL     1       4.156   4.221  -1.158  0.00  0.00    +0.034 C 
ATOM      4  C   UNL     1       4.402   5.782  -3.080  0.00  0.00    +0.011 A 
ATOM      5  C   UNL     1       4.524   4.633  -4.032  0.00  0.00    +0.034 C 
ATOM      6  C   UNL     1       4.281   7.054  -3.629  0.00  0.00    +0.134 A 
ATOM      7  C   UNL     1       4.231   8.081  -2.692  0.00  0.00    +0.035 A 
ATOM      8  C   UNL     1       3.797   7.866  -1.389  0.00  0.00    +0.015 A 
ATOM      9  C   UNL     1       3.317   8.985  -0.519  0.00  0.00    +0.034 C 
ENDROOT
BRANCH   1  10
ATOM     10  O   UNL     1       2.415   6.284  -0.153  0.00  0.00    -0.425 OA
BRANCH  10  12
ATOM     11  C   UNL     1       0.637   5.233  -1.433  0.00  0.00    +0.122 C 
ATOM     12  C   UNL     1       1.118   6.389  -0.662  0.00  0.00    +0.322 C 
ATOM     13  O   UNL     1       0.342   7.075   0.071  0.00  0.00    -0.250 OA
ENDBRANCH  10  12
ENDBRANCH   1  10
BRANCH   6  14
ATOM     14  O   UNL     1       3.757   7.201  -4.918  0.00  0.00    -0.473 OA
BRANCH  14  15
ATOM     15  C   UNL     1       2.370   7.108  -5.188  0.00  0.00    +0.239 C 
BRANCH  15  16
ATOM     16  C   UNL     1       2.475   6.474  -6.744  0.00  0.00    +0.213 C 
ATOM     17  O   UNL     1       2.369   7.890  -7.363  0.00  0.00    -0.218 OA
BRANCH  16  18
ATOM     18  C   UNL     1       0.804   6.278  -6.819  0.00  0.00    +0.125 C 
BRANCH  18  19
ATOM     19  N   UNL     1       0.519   5.720  -5.506  0.00  0.00    -0.217 NA
BRANCH  19  20
ATOM     20  C   UNL     1      -0.927   5.707  -5.370  0.00  0.00    +0.073 C 
ATOM     21  C   UNL     1      -1.565   5.355  -6.707  0.00  0.00    +0.019 C 
ATOM     22  C   UNL     1      -1.384   7.057  -4.884  0.00  0.00    +0.019 C 
ENDBRANCH  19  20
ENDBRANCH  18  19
ENDBRANCH  16  18
ENDBRANCH  15  16
ENDBRANCH  14  15
ENDBRANCH   6  14
TORSDOF 8
ENDMDL
MODEL 8
REMARK VINA RESULT:      -6.3      2.130      3.166
REMARK  Name = 
REMARK  8 active torsions:
REMARK  status: ('A' for Active; 'I' for Inactive)
REMARK    1  A    between atoms: C_2  and  O_4
REMARK    2  A    between atoms: O_4  and  C_5
REMARK    3  A    between atoms: C_9  and  O_10
REMARK    4  A    between atoms: O_10  and  C_11
REMARK    5  A    between atoms: C_11  and  C_12
REMARK    6  A    between atoms: C_12  and  C_14
REMARK    7  A    between atoms: C_14  and  N_15
REMARK    8  A    between atoms: N_15  and  C_16
REMARK                            x       y       z     vdW  Elec       q    Type
REMARK                         _______ _______ _______ _____ _____    ______ ____
ROOT
ATOM      1  C   UNL     1       2.295   5.727  -4.190  0.00  0.00    +0.140 A 
ATOM      2  C   UNL     1       0.961   5.607  -4.569  0.00  0.00    +0.011 A 
ATOM      3  C   UNL     1      -0.035   6.278  -3.716  0.00  0.00    +0.034 C 
ATOM      4  C   UNL     1       0.589   5.048  -5.787  0.00  0.00    +0.011 A 
ATOM      5  C   UNL     1      -0.740   5.357  -6.403  0.00  0.00    +0.034 C 
ATOM      6  C   UNL     1       1.552   4.468  -6.606  0.00  0.00    +0.134 A 
ATOM      7  C   UNL     1       2.742   4.152  -5.958  0.00  0.00    +0.035 A 
ATOM      8  C   UNL     1       3.149   4.815  -4.805  0.00  0.00    +0.015 A 
ATOM      9  C   UNL     1       4.576   4.819  -4.356  0.00  0.00    +0.034 C 
ENDROOT
BRANCH   1  10
ATOM     10  O   UNL     1       2.767   6.944  -3.681  0.00  0.00    -0.425 OA
BRANCH  10  12
ATOM     11  C   UNL     1       3.823   8.345  -2.002  0.00  0.00    +0.122 C 
ATOM     12  C   UNL     1       3.289   7.032  -2.388  0.00  0.00    +0.322 C 
ATOM     13  O   UNL     1       2.704   6.275  -1.556  0.00  0.00    -0.250 OA
ENDBRANCH  10  12
ENDBRANCH   1  10
BRANCH   6  14
ATOM     14  O   UNL     1       1.493   4.670  -7.988  0.00  0.00    -0.473 OA
BRANCH  14  15
ATOM     15  C   UNL     1       2.537   4.271  -8.859  0.00  0.00    +0.239 C 
BRANCH  15  16
ATOM     16  C   UNL     1       2.848   5.771  -9.557  0.00  0.00    +0.213 C 
ATOM     17  O   UNL     1       2.072   5.372 -10.838  0.00  0.00    -0.218 OA
BRANCH  16  18
ATOM     18  C   UNL     1       4.292   5.209 -10.214  0.00  0.00    +0.125 C 
BRANCH  18  19
ATOM     19  N   UNL     1       4.832   6.422 -10.809  0.00  0.00    -0.217 NA
BRANCH  19  20
ATOM     20  C   UNL     1       6.278   6.293 -10.770  0.00  0.00    +0.073 C 
ATOM     21  C   UNL     1       6.707   5.752  -9.412  0.00  0.00    +0.019 C 
ATOM     22  C   UNL     1       6.896   7.637 -11.044  0.00  0.00    +0.019 C 
ENDBRANCH  19  20
ENDBRANCH  18  19
ENDBRANCH  16  18
ENDBRANCH  15  16
ENDBRANCH  14  15
ENDBRANCH   6  14
TORSDOF 8
ENDMDL
MODEL 9
REMARK VINA RESULT:      -6.3      1.900      2.714
REMARK  Name = 
REMARK  8 active torsions:
REMARK  status: ('A' for Active; 'I' for Inactive)
REMARK    1  A    between atoms: C_2  and  O_4
REMARK    2  A    between atoms: O_4  and  C_5
REMARK    3  A    between atoms: C_9  and  O_10
REMARK    4  A    between atoms: O_10  and  C_11
REMARK    5  A    between atoms: C_11  and  C_12
REMARK    6  A    between atoms: C_12  and  C_14
REMARK    7  A    between atoms: C_14  and  N_15
REMARK    8  A    between atoms: N_15  and  C_16
REMARK                            x       y       z     vdW  Elec       q    Type
REMARK                         _______ _______ _______ _____ _____    ______ ____
ROOT
ATOM      1  C   UNL     1      -0.325   5.609  -4.592  0.00  0.00    +0.140 A 
ATOM      2  C   UNL     1      -0.847   5.352  -5.856  0.00  0.00    +0.011 A 
ATOM      3  C   UNL     1      -2.315   5.359  -5.983  0.00  0.00    +0.034 C 
ATOM      4  C   UNL     1      -0.039   5.278  -6.986  0.00  0.00    +0.011 A 
ATOM      5  C   UNL     1      -0.605   5.498  -8.354  0.00  0.00    +0.034 C 
ATOM      6  C   UNL     1       1.345   5.329  -6.852  0.00  0.00    +0.134 A 
ATOM      7  C   UNL     1       1.808   5.059  -5.569  0.00  0.00    +0.035 A 
ATOM      8  C   UNL     1       1.016   5.259  -4.444  0.00  0.00    +0.015 A 
ATOM      9  C   UNL     1       1.604   5.407  -3.076  0.00  0.00    +0.034 C 
ENDROOT
BRANCH   1  10
ATOM     10  O   UNL     1      -0.922   6.579  -3.777  0.00  0.00    -0.425 OA
BRANCH  10  12
ATOM     11  C   UNL     1      -2.754   7.135  -2.282  0.00  0.00    +0.122 C 
ATOM     12  C   UNL     1      -1.668   6.217  -2.652  0.00  0.00    +0.322 C 
ATOM     13  O   UNL     1      -1.768   4.962  -2.496  0.00  0.00    -0.250 OA
ENDBRANCH  10  12
ENDBRANCH   1  10
BRANCH   6  14
ATOM     14  O   UNL     1       2.098   6.066  -7.771  0.00  0.00    -0.473 OA
BRANCH  14  15
ATOM     15  C   UNL     1       3.433   5.727  -8.105  0.00  0.00    +0.239 C 
BRANCH  15  16
ATOM     16  C   UNL     1       3.110   4.847  -9.503  0.00  0.00    +0.213 C 
ATOM     17  O   UNL     1       4.485   5.236 -10.102  0.00  0.00    -0.218 OA
BRANCH  16  18
ATOM     18  C   UNL     1       2.380   6.183 -10.222  0.00  0.00    +0.125 C 
BRANCH  18  19
ATOM     19  N   UNL     1       2.418   5.813 -11.628  0.00  0.00    -0.217 NA
BRANCH  19  20
ATOM     20  C   UNL     1       1.059   5.939 -12.124  0.00  0.00    +0.073 C 
ATOM     21  C   UNL     1       0.367   7.106 -11.433  0.00  0.00    +0.019 C 
ATOM     22  C   UNL     1       0.328   4.646 -11.880  0.00  0.00    +0.019 C 
ENDBRANCH  19  20
ENDBRANCH  18  19
ENDBRANCH  16  18
ENDBRANCH  15  16
ENDBRANCH  14  15
ENDBRANCH   6  14
TORSDOF 8
ENDMDL
