MODEL 1
REMARK VINA RESULT:      -7.4      0.000      0.000
REMARK  Name = 
REMARK  4 active torsions:
REMARK  status: ('A' for Active; 'I' for Inactive)
REMARK    1  A    between atoms: N_2  and  C_4
REMARK    2  A    between atoms: C_4  and  C_5
REMARK    3  A    between atoms: C_5  and  C_6
REMARK    4  A    between atoms: C_6  and  N_7
REMARK                            x       y       z     vdW  Elec       q    Type
REMARK                         _______ _______ _______ _____ _____    ______ ____
ROOT
ATOM      1  N   UNL     1       1.752   5.306  -5.723  0.00  0.00    -0.287 N 
ATOM      2  C   UNL     1       0.342   5.232  -5.497  0.00  0.00    +0.048 A 
ATOM      3  C   UNL     1      -0.362   5.564  -4.348  0.00  0.00    -0.008 A 
ATOM      4  C   UNL     1      -1.736   5.672  -4.461  0.00  0.00    -0.003 A 
ATOM      5  C   UNL     1      -2.372   5.819  -5.688  0.00  0.00    -0.000 A 
ATOM      6  C   UNL     1      -1.674   5.505  -6.824  0.00  0.00    +0.001 A 
ATOM      7  C   UNL     1       0.081   6.234  -3.090  0.00  0.00    +0.032 C 
ATOM      8  C   UNL     1       1.434   5.755  -2.631  0.00  0.00    +0.032 C 
ATOM      9  C   UNL     1       2.508   6.255  -3.520  0.00  0.00    -0.008 A 
ATOM     10  C   UNL     1       3.454   7.043  -2.878  0.00  0.00    -0.003 A 
ATOM     11  C   UNL     1       4.379   7.681  -3.696  0.00  0.00    -0.000 A 
ATOM     12  C   UNL     1       4.819   6.926  -4.778  0.00  0.00    +0.001 A 
ATOM     13  C   UNL     1       3.978   5.989  -5.362  0.00  0.00    +0.015 A 
ATOM     14  C   UNL     1      -0.336   5.158  -6.709  0.00  0.00    +0.015 A 
ATOM     15  C   UNL     1       2.719   5.847  -4.828  0.00  0.00    +0.048 A 
ENDROOT
BRANCH   1  16
ATOM     16  C   UNL     1       2.153   5.390  -7.117  0.00  0.00    +0.097 C 
BRANCH  16  17
ATOM     17  C   UNL     1       2.555   4.052  -7.685  0.00  0.00    +0.039 C 
BRANCH  17  18
ATOM     18  C   UNL     1       3.404   4.247  -8.935  0.00  0.00    +0.074 C 
BRANCH  18  20
ATOM     19  C   UNL     1       4.005   6.249 -10.135  0.00  0.00    +0.090 C 
ATOM     20  N   UNL     1       4.128   5.506  -8.900  0.00  0.00    -0.270 NA
ATOM     21  C   UNL     1       5.552   5.289  -8.654  0.00  0.00    +0.090 C 
ENDBRANCH  18  20
ENDBRANCH  17  18
ENDBRANCH  16  17
ENDBRANCH   1  16
TORSDOF 4
ENDMDL
MODEL 2
REMARK VINA RESULT:      -7.3      1.919      5.880
REMARK  Name = 
REMARK  4 active torsions:
REMARK  status: ('A' for Active; 'I' for Inactive)
REMARK    1  A    between atoms: N_2  and  C_4
REMARK    2  A    between atoms: C_4  and  C_5
REMARK    3  A    between atoms: C_5  and  C_6
REMARK    4  A    between atoms: C_6  and  N_7
REMARK                            x       y       z     vdW  Elec       q    Type
REMARK                         _______ _______ _______ _____ _____    ______ ____
ROOT
ATOM      1  N   UNL     1       1.046   5.783  -4.479  0.00  0.00    -0.287 N 
ATOM      2  C   UNL     1       1.913   5.438  -5.563  0.00  0.00    +0.048 A 
ATOM      3  C   UNL     1       1.587   5.257  -6.899  0.00  0.00    -0.008 A 
ATOM      4  C   UNL     1       2.634   5.202  -7.801  0.00  0.00    -0.003 A 
ATOM      5  C   UNL     1       3.907   5.667  -7.492  0.00  0.00    -0.000 A 
ATOM      6  C   UNL     1       4.225   5.860  -6.174  0.00  0.00    +0.001 A 
ATOM      7  C   UNL     1       0.316   5.513  -7.638  0.00  0.00    +0.032 C 
ATOM      8  C   UNL     1      -0.899   5.103  -6.849  0.00  0.00    +0.032 C 
ATOM      9  C   UNL     1      -1.134   6.022  -5.711  0.00  0.00    -0.008 A 
ATOM     10  C   UNL     1      -2.361   6.669  -5.749  0.00  0.00    -0.003 A 
ATOM     11  C   UNL     1      -2.556   7.671  -4.806  0.00  0.00    -0.000 A 
ATOM     12  C   UNL     1      -2.028   7.400  -3.549  0.00  0.00    +0.001 A 
ATOM     13  C   UNL     1      -0.893   6.609  -3.427  0.00  0.00    +0.015 A 
ATOM     14  C   UNL     1       3.237   5.687  -5.217  0.00  0.00    +0.015 A 
ATOM     15  C   UNL     1      -0.335   6.118  -4.582  0.00  0.00    +0.048 A 
ENDROOT
BRANCH   1  16
ATOM     16  C   UNL     1       1.698   6.392  -3.333  0.00  0.00    +0.097 C 
BRANCH  16  17
ATOM     17  C   UNL     1       1.886   5.424  -2.192  0.00  0.00    +0.039 C 
BRANCH  17  18
ATOM     18  C   UNL     1       2.272   6.176  -0.925  0.00  0.00    +0.074 C 
BRANCH  18  20
ATOM     19  C   UNL     1       4.542   6.699  -0.305  0.00  0.00    +0.090 C 
ATOM     20  N   UNL     1       3.518   5.679  -0.365  0.00  0.00    -0.270 NA
ATOM     21  C   UNL     1       4.045   4.570  -1.155  0.00  0.00    +0.090 C 
ENDBRANCH  18  20
ENDBRANCH  17  18
ENDBRANCH  16  17
ENDBRANCH   1  16
TORSDOF 4
ENDMDL
MODEL 3
REMARK VINA RESULT:      -7.2      2.808      8.179
REMARK  Name = 
REMARK  4 active torsions:
REMARK  status: ('A' for Active; 'I' for Inactive)
REMARK    1  A    between atoms: N_2  and  C_4
REMARK    2  A    between atoms: C_4  and  C_5
REMARK    3  A    between atoms: C_5  and  C_6
REMARK    4  A    between atoms: C_6  and  N_7
REMARK                            x       y       z     vdW  Elec       q    Type
REMARK                         _______ _______ _______ _____ _____    ______ ____
ROOT
ATOM      1  N   UNL     1       3.875   5.624 -10.645  0.00  0.00    -0.287 N 
ATOM      2  C   UNL     1       5.239   5.542 -11.070  0.00  0.00    +0.048 A 
ATOM      3  C   UNL     1       5.736   5.523 -12.365  0.00  0.00    -0.008 A 
ATOM      4  C   UNL     1       7.096   5.720 -12.520  0.00  0.00    -0.003 A 
ATOM      5  C   UNL     1       7.886   6.275 -11.521  0.00  0.00    -0.000 A 
ATOM      6  C   UNL     1       7.391   6.308 -10.245  0.00  0.00    +0.001 A 
ATOM      7  C   UNL     1       5.055   5.740 -13.676  0.00  0.00    +0.032 C 
ATOM      8  C   UNL     1       3.701   5.083 -13.734  0.00  0.00    +0.032 C 
ATOM      9  C   UNL     1       2.725   5.793 -12.876  0.00  0.00    -0.008 A 
ATOM     10  C   UNL     1       1.627   6.295 -13.562  0.00  0.00    -0.003 A 
ATOM     11  C   UNL     1       0.775   7.119 -12.836  0.00  0.00    -0.000 A 
ATOM     12  C   UNL     1       0.567   6.729 -11.518  0.00  0.00    +0.001 A 
ATOM     13  C   UNL     1       1.568   6.062 -10.824  0.00  0.00    +0.015 A 
ATOM     14  C   UNL     1       6.089   5.886 -10.023  0.00  0.00    +0.015 A 
ATOM     15  C   UNL     1       2.743   5.812 -11.489  0.00  0.00    +0.048 A 
ENDROOT
BRANCH   1  16
ATOM     16  C   UNL     1       3.674   6.128  -9.298  0.00  0.00    +0.097 C 
BRANCH  16  17
ATOM     17  C   UNL     1       3.557   5.024  -8.278  0.00  0.00    +0.039 C 
BRANCH  17  18
ATOM     18  C   UNL     1       3.908   5.551  -6.892  0.00  0.00    +0.074 C 
BRANCH  18  20
ATOM     19  C   UNL     1       3.588   4.711  -4.656  0.00  0.00    +0.090 C 
ATOM     20  N   UNL     1       2.951   5.106  -5.892  0.00  0.00    -0.270 NA
ATOM     21  C   UNL     1       2.176   3.966  -6.375  0.00  0.00    +0.090 C 
ENDBRANCH  18  20
ENDBRANCH  17  18
ENDBRANCH  16  17
ENDBRANCH   1  16
TORSDOF 4
ENDMDL
MODEL 4
REMARK VINA RESULT:      -7.1      1.787      6.414
REMARK  Name = 
REMARK  4 active torsions:
REMARK  status: ('A' for Active; 'I' for Inactive)
REMARK    1  A    between atoms: N_2  and  C_4
REMARK    2  A    between atoms: C_4  and  C_5
REMARK    3  A    between atoms: C_5  and  C_6
REMARK    4  A    between atoms: C_6  and  N_7
REMARK                            x       y       z     vdW  Elec       q    Type
REMARK                         _______ _______ _______ _____ _____    ______ ____
ROOT
ATOM      1  N   UNL     1       1.516   5.760  -4.619  0.00  0.00    -0.287 N 
ATOM      2  C   UNL     1       2.847   6.204  -4.337  0.00  0.00    +0.048 A 
ATOM      3  C   UNL     1       3.934   6.259  -5.197  0.00  0.00    -0.008 A 
ATOM      4  C   UNL     1       5.035   6.981  -4.774  0.00  0.00    -0.003 A 
ATOM      5  C   UNL     1       4.963   7.912  -3.744  0.00  0.00    -0.000 A 
ATOM      6  C   UNL     1       3.883   7.868  -2.903  0.00  0.00    +0.001 A 
ATOM      7  C   UNL     1       4.026   6.041  -6.671  0.00  0.00    +0.032 C 
ATOM      8  C   UNL     1       3.182   4.883  -7.133  0.00  0.00    +0.032 C 
ATOM      9  C   UNL     1       1.739   5.211  -7.064  0.00  0.00    -0.008 A 
ATOM     10  C   UNL     1       1.083   5.145  -8.285  0.00  0.00    -0.003 A 
ATOM     11  C   UNL     1      -0.225   5.614  -8.306  0.00  0.00    -0.000 A 
ATOM     12  C   UNL     1      -0.972   5.309  -7.174  0.00  0.00    +0.001 A 
ATOM     13  C   UNL     1      -0.348   5.188  -5.940  0.00  0.00    +0.015 A 
ATOM     14  C   UNL     1       2.861   6.972  -3.177  0.00  0.00    +0.015 A 
ATOM     15  C   UNL     1       1.011   5.378  -5.895  0.00  0.00    +0.048 A 
ENDROOT
BRANCH   1  16
ATOM     16  C   UNL     1       0.490   6.271  -3.728  0.00  0.00    +0.097 C 
BRANCH  16  17
ATOM     17  C   UNL     1       0.202   5.336  -2.581  0.00  0.00    +0.039 C 
BRANCH  17  18
ATOM     18  C   UNL     1      -1.281   5.376  -2.231  0.00  0.00    +0.074 C 
BRANCH  18  20
ATOM     19  C   UNL     1      -1.754   7.385  -0.986  0.00  0.00    +0.090 C 
ATOM     20  N   UNL     1      -1.805   6.731  -2.275  0.00  0.00    -0.270 NA
ATOM     21  C   UNL     1      -3.196   6.743  -2.723  0.00  0.00    +0.090 C 
ENDBRANCH  18  20
ENDBRANCH  17  18
ENDBRANCH  16  17
ENDBRANCH   1  16
TORSDOF 4
ENDMDL
MODEL 5
REMARK VINA RESULT:      -7.0      3.303      6.055
REMARK  Name = 
REMARK  4 active torsions:
REMARK  status: ('A' for Active; 'I' for Inactive)
REMARK    1  A    between atoms: N_2  and  C_4
REMARK    2  A    between atoms: C_4  and  C_5
REMARK    3  A    between atoms: C_5  and  C_6
REMARK    4  A    between atoms: C_6  and  N_7
REMARK                            x       y       z     vdW  Elec       q    Type
REMARK                         _______ _______ _______ _____ _____    ______ ____
ROOT
ATOM      1  N   UNL     1       3.699   5.667 -10.763  0.00  0.00    -0.287 N 
ATOM      2  C   UNL     1       2.851   5.417  -9.640  0.00  0.00    +0.048 A 
ATOM      3  C   UNL     1       3.214   5.231  -8.314  0.00  0.00    -0.008 A 
ATOM      4  C   UNL     1       2.204   5.281  -7.371  0.00  0.00    -0.003 A 
ATOM      5  C   UNL     1       0.964   5.849  -7.639  0.00  0.00    -0.000 A 
ATOM      6  C   UNL     1       0.610   6.047  -8.947  0.00  0.00    +0.001 A 
ATOM      7  C   UNL     1       4.532   5.388  -7.630  0.00  0.00    +0.032 C 
ATOM      8  C   UNL     1       5.674   4.861  -8.459  0.00  0.00    +0.032 C 
ATOM      9  C   UNL     1       5.940   5.737  -9.622  0.00  0.00    -0.008 A 
ATOM     10  C   UNL     1       7.219   6.276  -9.646  0.00  0.00    -0.003 A 
ATOM     11  C   UNL     1       7.461   7.241 -10.616  0.00  0.00    -0.000 A 
ATOM     12  C   UNL     1       6.860   6.997 -11.845  0.00  0.00    +0.001 A 
ATOM     13  C   UNL     1       5.657   6.305 -11.908  0.00  0.00    +0.015 A 
ATOM     14  C   UNL     1       1.540   5.773  -9.939  0.00  0.00    +0.015 A 
ATOM     15  C   UNL     1       5.107   5.883 -10.721  0.00  0.00    +0.048 A 
ENDROOT
BRANCH   1  16
ATOM     16  C   UNL     1       3.056   6.311 -11.895  0.00  0.00    +0.097 C 
BRANCH  16  17
ATOM     17  C   UNL     1       2.828   5.365 -13.047  0.00  0.00    +0.039 C 
BRANCH  17  18
ATOM     18  C   UNL     1       2.595   6.150 -14.332  0.00  0.00    +0.074 C 
BRANCH  18  20
ATOM     19  C   UNL     1       0.378   6.989 -14.770  0.00  0.00    +0.090 C 
ATOM     20  N   UNL     1       1.286   5.870 -14.900  0.00  0.00    -0.270 NA
ATOM     21  C   UNL     1       0.666   4.718 -14.252  0.00  0.00    +0.090 C 
ENDBRANCH  18  20
ENDBRANCH  17  18
ENDBRANCH  16  17
ENDBRANCH   1  16
TORSDOF 4
ENDMDL
MODEL 6
REMARK VINA RESULT:      -7.0      3.046      7.316
REMARK  Name = 
REMARK  4 active torsions:
REMARK  status: ('A' for Active; 'I' for Inactive)
REMARK    1  A    between atoms: N_2  and  C_4
REMARK    2  A    between atoms: C_4  and  C_5
REMARK    3  A    between atoms: C_5  and  C_6
REMARK    4  A    between atoms: C_6  and  N_7
REMARK                            x       y       z     vdW  Elec       q    Type
REMARK                         _______ _______ _______ _____ _____    ______ ____
ROOT
ATOM      1  N   UNL     1       4.118   6.605 -11.050  0.00  0.00    -0.287 N 
ATOM      2  C   UNL     1       2.910   6.236 -11.721  0.00  0.00    +0.048 A 
ATOM      3  C   UNL     1       2.763   5.692 -12.988  0.00  0.00    -0.008 A 
ATOM      4  C   UNL     1       1.525   5.165 -13.308  0.00  0.00    -0.003 A 
ATOM      5  C   UNL     1       0.584   4.837 -12.339  0.00  0.00    -0.000 A 
ATOM      6  C   UNL     1       0.736   5.361 -11.083  0.00  0.00    +0.001 A 
ATOM      7  C   UNL     1       3.778   5.184 -13.957  0.00  0.00    +0.032 C 
ATOM      8  C   UNL     1       5.006   6.055 -14.011  0.00  0.00    +0.032 C 
ATOM      9  C   UNL     1       5.813   5.919 -12.777  0.00  0.00    -0.008 A 
ATOM     10  C   UNL     1       7.105   5.459 -12.992  0.00  0.00    -0.003 A 
ATOM     11  C   UNL     1       7.842   5.146 -11.856  0.00  0.00    -0.000 A 
ATOM     12  C   UNL     1       7.653   6.008 -10.782  0.00  0.00    +0.001 A 
ATOM     13  C   UNL     1       6.431   6.643 -10.605  0.00  0.00    +0.015 A 
ATOM     14  C   UNL     1       1.872   6.105 -10.803  0.00  0.00    +0.015 A 
ATOM     15  C   UNL     1       5.443   6.383 -11.524  0.00  0.00    +0.048 A 
ENDROOT
BRANCH   1  16
ATOM     16  C   UNL     1       4.031   6.660  -9.601  0.00  0.00    +0.097 C 
BRANCH  16  17
ATOM     17  C   UNL     1       4.165   5.302  -8.960  0.00  0.00    +0.039 C 
BRANCH  17  18
ATOM     18  C   UNL     1       3.653   5.346  -7.526  0.00  0.00    +0.074 C 
BRANCH  18  20
ATOM     19  C   UNL     1       1.374   6.003  -7.095  0.00  0.00    +0.090 C 
ATOM     20  N   UNL     1       2.267   4.918  -7.438  0.00  0.00    -0.270 NA
ATOM     21  C   UNL     1       2.101   3.874  -6.430  0.00  0.00    +0.090 C 
ENDBRANCH  18  20
ENDBRANCH  17  18
ENDBRANCH  16  17
ENDBRANCH   1  16
TORSDOF 4
ENDMDL
MODEL 7
REMARK VINA RESULT:      -6.9      1.334      4.227
REMARK  Name = 
REMARK  4 active torsions:
REMARK  status: ('A' for Active; 'I' for Inactive)
REMARK    1  A    between atoms: N_2  and  C_4
REMARK    2  A    between atoms: C_4  and  C_5
REMARK    3  A    between atoms: C_5  and  C_6
REMARK    4  A    between atoms: C_6  and  N_7
REMARK                            x       y       z     vdW  Elec       q    Type
REMARK                         _______ _______ _______ _____ _____    ______ ____
ROOT
ATOM      1  N   UNL     1       2.378   5.987  -6.299  0.00  0.00    -0.287 N 
ATOM      2  C   UNL     1       2.999   5.980  -5.010  0.00  0.00    +0.048 A 
ATOM      3  C   UNL     1       2.398   6.117  -3.767  0.00  0.00    -0.008 A 
ATOM      4  C   UNL     1       3.164   5.801  -2.659  0.00  0.00    -0.003 A 
ATOM      5  C   UNL     1       4.322   5.038  -2.749  0.00  0.00    -0.000 A 
ATOM      6  C   UNL     1       4.908   4.889  -3.979  0.00  0.00    +0.001 A 
ATOM      7  C   UNL     1       0.958   6.149  -3.375  0.00  0.00    +0.032 C 
ATOM      8  C   UNL     1       0.119   6.947  -4.339  0.00  0.00    +0.032 C 
ATOM      9  C   UNL     1      -0.034   6.237  -5.630  0.00  0.00    -0.008 A 
ATOM     10  C   UNL     1      -1.350   5.948  -5.965  0.00  0.00    -0.003 A 
ATOM     11  C   UNL     1      -1.535   5.130  -7.073  0.00  0.00    -0.000 A 
ATOM     12  C   UNL     1      -0.656   5.363  -8.124  0.00  0.00    +0.001 A 
ATOM     13  C   UNL     1       0.629   5.823  -7.868  0.00  0.00    +0.015 A 
ATOM     14  C   UNL     1       4.267   5.413  -5.091  0.00  0.00    +0.015 A 
ATOM     15  C   UNL     1       0.977   6.033  -6.556  0.00  0.00    +0.048 A 
ENDROOT
BRANCH   1  16
ATOM     16  C   UNL     1       3.131   5.333  -7.354  0.00  0.00    +0.097 C 
BRANCH  16  17
ATOM     17  C   UNL     1       3.721   6.313  -8.337  0.00  0.00    +0.039 C 
BRANCH  17  18
ATOM     18  C   UNL     1       4.829   5.646  -9.142  0.00  0.00    +0.074 C 
BRANCH  18  20
ATOM     19  C   UNL     1       5.262   7.276 -10.865  0.00  0.00    +0.090 C 
ATOM     20  N   UNL     1       4.730   5.966 -10.557  0.00  0.00    -0.270 NA
ATOM     21  C   UNL     1       3.342   5.935 -11.008  0.00  0.00    +0.090 C 
ENDBRANCH  18  20
ENDBRANCH  17  18
ENDBRANCH  16  17
ENDBRANCH   1  16
TORSDOF 4
ENDMDL
MODEL 8
REMARK VINA RESULT:      -6.9      2.299      3.386
REMARK  Name = 
REMARK  4 active torsions:
REMARK  status: ('A' for Active; 'I' for Inactive)
REMARK    1  A    between atoms: N_2  and  C_4
REMARK    2  A    between atoms: C_4  and  C_5
REMARK    3  A    between atoms: C_5  and  C_6
REMARK    4  A    between atoms: C_6  and  N_7
REMARK                            x       y       z     vdW  Elec       q    Type
REMARK                         _______ _______ _______ _____ _____    ______ ____
ROOT
ATOM      1  N   UNL     1       0.867   5.066  -7.874  0.00  0.00    -0.287 N 
ATOM      2  C   UNL     1       0.000   5.125  -6.738  0.00  0.00    +0.048 A 
ATOM      3  C   UNL     1       0.345   5.122  -5.394  0.00  0.00    -0.008 A 
ATOM      4  C   UNL     1      -0.644   5.464  -4.489  0.00  0.00    -0.003 A 
ATOM      5  C   UNL     1      -1.800   6.135  -4.870  0.00  0.00    -0.000 A 
ATOM      6  C   UNL     1      -2.134   6.150  -6.199  0.00  0.00    +0.001 A 
ATOM      7  C   UNL     1       1.676   5.222  -4.727  0.00  0.00    +0.032 C 
ATOM      8  C   UNL     1       2.734   4.416  -5.435  0.00  0.00    +0.032 C 
ATOM      9  C   UNL     1       3.105   5.039  -6.726  0.00  0.00    -0.008 A 
ATOM     10  C   UNL     1       4.443   5.394  -6.821  0.00  0.00    -0.003 A 
ATOM     11  C   UNL     1       4.802   6.140  -7.938  0.00  0.00    -0.000 A 
ATOM     12  C   UNL     1       4.167   5.768  -9.117  0.00  0.00    +0.001 A 
ATOM     13  C   UNL     1       2.883   5.238  -9.079  0.00  0.00    +0.015 A 
ATOM     14  C   UNL     1      -1.255   5.592  -7.114  0.00  0.00    +0.015 A 
ATOM     15  C   UNL     1       2.291   5.101  -7.847  0.00  0.00    +0.048 A 
ENDROOT
BRANCH   1  16
ATOM     16  C   UNL     1       0.306   5.585  -9.109  0.00  0.00    +0.097 C 
BRANCH  16  17
ATOM     17  C   UNL     1       0.148   4.521 -10.165  0.00  0.00    +0.039 C 
BRANCH  17  18
ATOM     18  C   UNL     1      -0.049   5.163 -11.533  0.00  0.00    +0.074 C 
BRANCH  18  20
ATOM     19  C   UNL     1      -0.134   7.481 -12.191  0.00  0.00    +0.090 C 
ATOM     20  N   UNL     1       0.679   6.416 -11.645  0.00  0.00    -0.270 NA
ATOM     21  C   UNL     1       1.851   6.270 -12.506  0.00  0.00    +0.090 C 
ENDBRANCH  18  20
ENDBRANCH  17  18
ENDBRANCH  16  17
ENDBRANCH   1  16
TORSDOF 4
ENDMDL
MODEL 9
REMARK VINA RESULT:      -6.9      1.905      6.232
REMARK  Name = 
REMARK  4 active torsions:
REMARK  status: ('A' for Active; 'I' for Inactive)
REMARK    1  A    between atoms: N_2  and  C_4
REMARK    2  A    between atoms: C_4  and  C_5
REMARK    3  A    between atoms: C_5  and  C_6
REMARK    4  A    between atoms: C_6  and  N_7
REMARK                            x       y       z     vdW  Elec       q    Type
REMARK                         _______ _______ _______ _____ _____    ______ ____
ROOT
ATOM      1  N   UNL     1       1.356   5.635  -7.397  0.00  0.00    -0.287 N 
ATOM      2  C   UNL     1       2.507   5.703  -6.551  0.00  0.00    +0.048 A 
ATOM      3  C   UNL     1       3.842   5.579  -6.906  0.00  0.00    -0.008 A 
ATOM      4  C   UNL     1       4.783   5.956  -5.964  0.00  0.00    -0.003 A 
ATOM      5  C   UNL     1       4.464   6.758  -4.875  0.00  0.00    -0.000 A 
ATOM      6  C   UNL     1       3.144   6.893  -4.532  0.00  0.00    +0.001 A 
ATOM      7  C   UNL     1       4.494   5.505  -8.247  0.00  0.00    +0.032 C 
ATOM      8  C   UNL     1       3.719   4.648  -9.214  0.00  0.00    +0.032 C 
ATOM      9  C   UNL     1       2.464   5.315  -9.632  0.00  0.00    -0.008 A 
ATOM     10  C   UNL     1       2.372   5.544 -10.998  0.00  0.00    -0.003 A 
ATOM     11  C   UNL     1       1.300   6.323 -11.418  0.00  0.00    -0.000 A 
ATOM     12  C   UNL     1       0.109   6.093 -10.738  0.00  0.00    +0.001 A 
ATOM     13  C   UNL     1       0.133   5.688  -9.409  0.00  0.00    +0.015 A 
ATOM     14  C   UNL     1       2.182   6.313  -5.344  0.00  0.00    +0.015 A 
ATOM     15  C   UNL     1       1.363   5.530  -8.817  0.00  0.00    +0.048 A 
ENDROOT
BRANCH   1  16
ATOM     16  C   UNL     1       0.166   6.285  -6.878  0.00  0.00    +0.097 C 
BRANCH  16  17
ATOM     17  C   UNL     1      -0.863   5.300  -6.382  0.00  0.00    +0.039 C 
BRANCH  17  18
ATOM     18  C   UNL     1      -1.857   5.998  -5.463  0.00  0.00    +0.074 C 
BRANCH  18  20
ATOM     19  C   UNL     1      -1.054   6.423  -3.230  0.00  0.00    +0.090 C 
ATOM     20  N   UNL     1      -1.196   6.939  -4.573  0.00  0.00    -0.270 NA
ATOM     21  C   UNL     1      -1.938   8.195  -4.489  0.00  0.00    +0.090 C 
ENDBRANCH  18  20
ENDBRANCH  17  18
ENDBRANCH  16  17
ENDBRANCH   1  16
TORSDOF 4
ENDMDL
