MODEL 1
REMARK VINA RESULT:      -8.0      0.000      0.000
REMARK  Name = 
REMARK  2 active torsions:
REMARK  status: ('A' for Active; 'I' for Inactive)
REMARK    1  A    between atoms: C_23  and  C_25
REMARK    2  A    between atoms: C_25  and  C_27
REMARK                            x       y       z     vdW  Elec       q    Type
REMARK                         _______ _______ _______ _____ _____    ______ ____
ROOT
ATOM      1  C   UNL     1       1.294   4.978  -0.783  0.00  0.00    +0.003 C 
ATOM      2  C   UNL     1       1.873   6.482  -0.535  0.00  0.00    +0.035 C 
ATOM      3  C   UNL     1       3.398   6.103  -0.955  0.00  0.00    +0.180 C 
ATOM      4  O   UNL     1       3.688   4.844  -0.518  0.00  0.00    -0.218 OA
ATOM      5  C   UNL     1       3.549   6.488  -2.299  0.00  0.00    +0.035 C 
ATOM      6  C   UNL     1       2.154   5.849  -2.827  0.00  0.00    +0.004 C 
ATOM      7  C   UNL     1       2.393   6.686  -4.263  0.00  0.00    +0.019 C 
ATOM      8  C   UNL     1       2.753   5.263  -5.060  0.00  0.00    +0.039 C 
ATOM      9  C   UNL     1       3.957   4.669  -4.004  0.00  0.00    +0.153 C 
ATOM     10  O   UNL     1       5.096   4.667  -4.999  0.00  0.00    -0.223 OA
ATOM     11  C   UNL     1       3.599   6.016  -6.185  0.00  0.00    +0.036 C 
ATOM     12  C   UNL     1       2.424   6.799  -6.731  0.00  0.00    -0.037 C 
ATOM     13  C   UNL     1       2.707   7.394  -7.894  0.00  0.00    +0.034 C 
ATOM     14  C   UNL     1       3.595   6.747  -8.872  0.00  0.00    +0.195 C 
ATOM     15  C   UNL     1       3.872   5.339  -8.548  0.00  0.00    +0.038 C 
ATOM     16  O   UNL     1       3.767   7.213 -10.037  0.00  0.00    -0.287 OA
ATOM     17  C   UNL     1       1.047   6.549  -6.318  0.00  0.00    +0.039 C 
ATOM     18  C   UNL     1       4.556   6.985  -5.762  0.00  0.00    +0.009 C 
ATOM     19  C   UNL     1       3.959   5.067  -7.243  0.00  0.00    -0.020 C 
ATOM     20  C   UNL     1       0.827   6.738  -4.766  0.00  0.00    +0.084 C 
ATOM     21 CL   UNL     1       0.312   4.970  -4.468  0.00  0.00    -0.115 Cl
ATOM     22  C   UNL     1       3.408   8.009  -2.352  0.00  0.00    +0.003 C 
ATOM     23  C   UNL     1       4.449   6.067  -3.312  0.00  0.00    +0.036 C 
ATOM     24  C   UNL     1       1.376   6.999  -2.006  0.00  0.00    +0.003 C 
ENDROOT
BRANCH   3  25
ATOM     25  C   UNL     1       4.196   7.012  -0.061  0.00  0.00    +0.211 C 
ATOM     26  O   UNL     1       5.422   7.015  -0.178  0.00  0.00    -0.291 OA
BRANCH  25  27
ATOM     27  C   UNL     1       3.651   7.691   1.129  0.00  0.00    +0.248 C 
ATOM     28  O   UNL     1       3.992   7.102   2.327  0.00  0.00    -0.212 OA
ENDBRANCH  25  27
ENDBRANCH   3  25
TORSDOF 2
ENDMDL
MODEL 2
REMARK VINA RESULT:      -7.7      1.715      6.624
REMARK  Name = 
REMARK  2 active torsions:
REMARK  status: ('A' for Active; 'I' for Inactive)
REMARK    1  A    between atoms: C_23  and  C_25
REMARK    2  A    between atoms: C_25  and  C_27
REMARK                            x       y       z     vdW  Elec       q    Type
REMARK                         _______ _______ _______ _____ _____    ______ ____
ROOT
ATOM      1  C   UNL     1      -0.009   6.181  -7.625  0.00  0.00    +0.003 C 
ATOM      2  C   UNL     1       0.736   4.735  -7.736  0.00  0.00    +0.035 C 
ATOM      3  C   UNL     1       2.233   5.367  -7.799  0.00  0.00    +0.180 C 
ATOM      4  O   UNL     1       2.206   6.525  -8.518  0.00  0.00    -0.218 OA
ATOM      5  C   UNL     1       2.749   5.303  -6.492  0.00  0.00    +0.035 C 
ATOM      6  C   UNL     1       1.427   5.878  -5.748  0.00  0.00    +0.004 C 
ATOM      7  C   UNL     1       2.121   5.406  -4.294  0.00  0.00    +0.019 C 
ATOM      8  C   UNL     1       2.416   7.000  -3.891  0.00  0.00    +0.039 C 
ATOM      9  C   UNL     1       3.232   7.483  -5.311  0.00  0.00    +0.153 C 
ATOM     10  O   UNL     1       4.553   7.831  -4.660  0.00  0.00    -0.223 OA
ATOM     11  C   UNL     1       3.608   6.610  -2.904  0.00  0.00    +0.036 C 
ATOM     12  C   UNL     1       2.733   5.836  -1.940  0.00  0.00    -0.037 C 
ATOM     13  C   UNL     1       3.368   5.544  -0.800  0.00  0.00    +0.034 C 
ATOM     14  C   UNL     1       4.338   6.485  -0.219  0.00  0.00    +0.195 C 
ATOM     15  C   UNL     1       4.299   7.810  -0.855  0.00  0.00    +0.038 C 
ATOM     16  O   UNL     1       4.846   6.306   0.928  0.00  0.00    -0.287 OA
ATOM     17  C   UNL     1       1.277   5.832  -2.023  0.00  0.00    +0.039 C 
ATOM     18  C   UNL     1       4.588   5.688  -3.374  0.00  0.00    +0.009 C 
ATOM     19  C   UNL     1       4.040   7.802  -2.165  0.00  0.00    -0.020 C 
ATOM     20  C   UNL     1       0.742   5.287  -3.405  0.00  0.00    +0.084 C 
ATOM     21 CL   UNL     1      -0.110   6.877  -3.878  0.00  0.00    -0.115 Cl
ATOM     22  C   UNL     1       2.875   3.824  -6.127  0.00  0.00    +0.003 C 
ATOM     23  C   UNL     1       3.775   6.033  -5.839  0.00  0.00    +0.036 C 
ATOM     24  C   UNL     1       0.680   4.496  -6.118  0.00  0.00    +0.003 C 
ENDROOT
BRANCH   3  25
ATOM     25  C   UNL     1       2.944   4.383  -8.686  0.00  0.00    +0.211 C 
ATOM     26  O   UNL     1       2.466   3.255  -8.807  0.00  0.00    -0.291 OA
BRANCH  25  27
ATOM     27  C   UNL     1       4.314   4.571  -9.201  0.00  0.00    +0.248 C 
ATOM     28  O   UNL     1       4.376   5.015 -10.504  0.00  0.00    -0.212 OA
ENDBRANCH  25  27
ENDBRANCH   3  25
TORSDOF 2
ENDMDL
MODEL 3
REMARK VINA RESULT:      -7.5      2.214      7.241
REMARK  Name = 
REMARK  2 active torsions:
REMARK  status: ('A' for Active; 'I' for Inactive)
REMARK    1  A    between atoms: C_23  and  C_25
REMARK    2  A    between atoms: C_25  and  C_27
REMARK                            x       y       z     vdW  Elec       q    Type
REMARK                         _______ _______ _______ _____ _____    ______ ____
ROOT
ATOM      1  C   UNL     1       3.988   4.223  -9.014  0.00  0.00    +0.003 C 
ATOM      2  C   UNL     1       3.443   5.699  -9.443  0.00  0.00    +0.035 C 
ATOM      3  C   UNL     1       1.931   5.438  -8.903  0.00  0.00    +0.180 C 
ATOM      4  O   UNL     1       1.581   4.143  -9.144  0.00  0.00    -0.218 OA
ATOM      5  C   UNL     1       1.861   6.011  -7.621  0.00  0.00    +0.035 C 
ATOM      6  C   UNL     1       3.262   5.401  -7.074  0.00  0.00    +0.004 C 
ATOM      7  C   UNL     1       3.124   6.438  -5.761  0.00  0.00    +0.019 C 
ATOM      8  C   UNL     1       2.763   5.153  -4.755  0.00  0.00    +0.039 C 
ATOM      9  C   UNL     1       1.488   4.464  -5.659  0.00  0.00    +0.153 C 
ATOM     10  O   UNL     1       0.403   4.642  -4.621  0.00  0.00    -0.223 OA
ATOM     11  C   UNL     1       2.000   6.086  -3.709  0.00  0.00    +0.036 C 
ATOM     12  C   UNL     1       3.225   6.893  -3.335  0.00  0.00    -0.037 C 
ATOM     13  C   UNL     1       3.021   7.655  -2.254  0.00  0.00    +0.034 C 
ATOM     14  C   UNL     1       2.166   7.183  -1.154  0.00  0.00    +0.195 C 
ATOM     15  C   UNL     1       1.830   5.755  -1.264  0.00  0.00    +0.038 C 
ATOM     16  O   UNL     1       2.068   7.812  -0.059  0.00  0.00    -0.287 OA
ATOM     17  C   UNL     1       4.570   6.538  -3.773  0.00  0.00    +0.039 C 
ATOM     18  C   UNL     1       1.052   7.022  -4.218  0.00  0.00    +0.009 C 
ATOM     19  C   UNL     1       1.667   5.307  -2.511  0.00  0.00    -0.020 C 
ATOM     20  C   UNL     1       4.715   6.501  -5.345  0.00  0.00    +0.084 C 
ATOM     21 CL   UNL     1       5.160   4.691  -5.415  0.00  0.00    -0.115 Cl
ATOM     22  C   UNL     1       2.051   7.519  -7.788  0.00  0.00    +0.003 C 
ATOM     23  C   UNL     1       1.004   5.769  -6.517  0.00  0.00    +0.036 C 
ATOM     24  C   UNL     1       4.031   6.397  -8.085  0.00  0.00    +0.003 C 
ENDROOT
BRANCH   3  25
ATOM     25  C   UNL     1       1.115   6.243  -9.876  0.00  0.00    +0.211 C 
ATOM     26  O   UNL     1      -0.104   6.295  -9.712  0.00  0.00    -0.291 OA
BRANCH  25  27
ATOM     27  C   UNL     1       1.623   6.745 -11.167  0.00  0.00    +0.248 C 
ATOM     28  O   UNL     1       1.278   5.971 -12.254  0.00  0.00    -0.212 OA
ENDBRANCH  25  27
ENDBRANCH   3  25
TORSDOF 2
ENDMDL
MODEL 4
REMARK VINA RESULT:      -7.2      3.158      5.423
REMARK  Name = 
REMARK  2 active torsions:
REMARK  status: ('A' for Active; 'I' for Inactive)
REMARK    1  A    between atoms: C_23  and  C_25
REMARK    2  A    between atoms: C_25  and  C_27
REMARK                            x       y       z     vdW  Elec       q    Type
REMARK                         _______ _______ _______ _____ _____    ______ ____
ROOT
ATOM      1  C   UNL     1       1.003   4.199  -6.117  0.00  0.00    +0.003 C 
ATOM      2  C   UNL     1       1.140   5.806  -5.877  0.00  0.00    +0.035 C 
ATOM      3  C   UNL     1       2.711   5.863  -6.294  0.00  0.00    +0.180 C 
ATOM      4  O   UNL     1       3.339   4.738  -5.849  0.00  0.00    -0.218 OA
ATOM      5  C   UNL     1       2.753   6.268  -7.640  0.00  0.00    +0.035 C 
ATOM      6  C   UNL     1       1.592   5.264  -8.166  0.00  0.00    +0.004 C 
ATOM      7  C   UNL     1       1.592   6.126  -9.606  0.00  0.00    +0.019 C 
ATOM      8  C   UNL     1       2.336   4.855 -10.394  0.00  0.00    +0.039 C 
ATOM      9  C   UNL     1       3.655   4.625  -9.333  0.00  0.00    +0.153 C 
ATOM     10  O   UNL     1       4.753   4.935 -10.328  0.00  0.00    -0.223 OA
ATOM     11  C   UNL     1       2.942   5.807 -11.523  0.00  0.00    +0.036 C 
ATOM     12  C   UNL     1       1.596   6.229 -12.074  0.00  0.00    -0.037 C 
ATOM     13  C   UNL     1       1.705   6.873 -13.241  0.00  0.00    +0.034 C 
ATOM     14  C   UNL     1       2.742   6.493 -14.214  0.00  0.00    +0.195 C 
ATOM     15  C   UNL     1       3.398   5.220 -13.881  0.00  0.00    +0.038 C 
ATOM     16  O   UNL     1       2.780   6.982 -15.382  0.00  0.00    -0.287 OA
ATOM     17  C   UNL     1       0.343   5.608 -11.661  0.00  0.00    +0.039 C 
ATOM     18  C   UNL     1       3.590   7.007 -11.105  0.00  0.00    +0.009 C 
ATOM     19  C   UNL     1       3.555   4.990 -12.575  0.00  0.00    -0.020 C 
ATOM     20  C   UNL     1       0.075   5.737 -10.110  0.00  0.00    +0.084 C 
ATOM     21 CL   UNL     1       0.072   3.898  -9.803  0.00  0.00    -0.115 Cl
ATOM     22  C   UNL     1       2.194   7.690  -7.702  0.00  0.00    +0.003 C 
ATOM     23  C   UNL     1       3.736   6.109  -8.649  0.00  0.00    +0.036 C 
ATOM     24  C   UNL     1       0.523   6.156  -7.351  0.00  0.00    +0.003 C 
ENDROOT
BRANCH   3  25
ATOM     25  C   UNL     1       3.223   6.964  -5.405  0.00  0.00    +0.211 C 
ATOM     26  O   UNL     1       4.323   7.454  -5.659  0.00  0.00    -0.291 OA
BRANCH  25  27
ATOM     27  C   UNL     1       2.640   7.309  -4.095  0.00  0.00    +0.248 C 
ATOM     28  O   UNL     1       3.541   7.821  -3.187  0.00  0.00    -0.212 OA
ENDBRANCH  25  27
ENDBRANCH   3  25
TORSDOF 2
ENDMDL
MODEL 5
REMARK VINA RESULT:      -7.1      4.223      7.773
REMARK  Name = 
REMARK  2 active torsions:
REMARK  status: ('A' for Active; 'I' for Inactive)
REMARK    1  A    between atoms: C_23  and  C_25
REMARK    2  A    between atoms: C_25  and  C_27
REMARK                            x       y       z     vdW  Elec       q    Type
REMARK                         _______ _______ _______ _____ _____    ______ ____
ROOT
ATOM      1  C   UNL     1       3.359   6.863 -12.217  0.00  0.00    +0.003 C 
ATOM      2  C   UNL     1       4.166   5.531 -11.735  0.00  0.00    +0.035 C 
ATOM      3  C   UNL     1       4.811   6.241 -10.422  0.00  0.00    +0.180 C 
ATOM      4  O   UNL     1       5.120   7.536 -10.713  0.00  0.00    -0.218 OA
ATOM      5  C   UNL     1       3.992   5.887  -9.335  0.00  0.00    +0.035 C 
ATOM      6  C   UNL     1       2.577   6.189 -10.070  0.00  0.00    +0.004 C 
ATOM      7  C   UNL     1       1.821   5.414  -8.786  0.00  0.00    +0.019 C 
ATOM      8  C   UNL     1       1.249   6.875  -8.211  0.00  0.00    +0.039 C 
ATOM      9  C   UNL     1       2.724   7.735  -8.168  0.00  0.00    +0.153 C 
ATOM     10  O   UNL     1       2.753   7.985  -6.677  0.00  0.00    -0.223 OA
ATOM     11  C   UNL     1       1.111   6.322  -6.720  0.00  0.00    +0.036 C 
ATOM     12  C   UNL     1       0.057   5.289  -7.061  0.00  0.00    -0.037 C 
ATOM     13  C   UNL     1      -0.509   4.761  -5.970  0.00  0.00    +0.034 C 
ATOM     14  C   UNL     1      -0.737   5.584  -4.772  0.00  0.00    +0.195 C 
ATOM     15  C   UNL     1      -0.543   7.020  -5.020  0.00  0.00    +0.038 C 
ATOM     16  O   UNL     1      -1.399   5.158  -3.779  0.00  0.00    -0.287 OA
ATOM     17  C   UNL     1      -0.595   5.225  -8.364  0.00  0.00    +0.039 C 
ATOM     18  C   UNL     1       2.210   5.598  -6.173  0.00  0.00    +0.009 C 
ATOM     19  C   UNL     1       0.423   7.318  -5.891  0.00  0.00    -0.020 C 
ATOM     20  C   UNL     1       0.423   5.006  -9.551  0.00  0.00    +0.084 C 
ATOM     21 CL   UNL     1       0.014   6.614 -10.402  0.00  0.00    -0.115 Cl
ATOM     22  C   UNL     1       4.104   4.373  -9.157  0.00  0.00    +0.003 C 
ATOM     23  C   UNL     1       3.781   6.491  -8.068  0.00  0.00    +0.036 C 
ATOM     24  C   UNL     1       2.846   4.901 -11.003  0.00  0.00    +0.003 C 
ENDROOT
BRANCH   3  25
ATOM     25  C   UNL     1       6.140   5.544 -10.318  0.00  0.00    +0.211 C 
ATOM     26  O   UNL     1       6.699   5.515  -9.222  0.00  0.00    -0.291 OA
BRANCH  25  27
ATOM     27  C   UNL     1       6.955   5.137 -11.479  0.00  0.00    +0.248 C 
ATOM     28  O   UNL     1       8.306   5.360 -11.332  0.00  0.00    -0.212 OA
ENDBRANCH  25  27
ENDBRANCH   3  25
TORSDOF 2
ENDMDL
MODEL 6
REMARK VINA RESULT:      -7.1      2.421      7.315
REMARK  Name = 
REMARK  2 active torsions:
REMARK  status: ('A' for Active; 'I' for Inactive)
REMARK    1  A    between atoms: C_23  and  C_25
REMARK    2  A    between atoms: C_25  and  C_27
REMARK                            x       y       z     vdW  Elec       q    Type
REMARK                         _______ _______ _______ _____ _____    ______ ____
ROOT
ATOM      1  C   UNL     1       3.518   3.924  -8.852  0.00  0.00    +0.003 C 
ATOM      2  C   UNL     1       3.465   5.517  -9.197  0.00  0.00    +0.035 C 
ATOM      3  C   UNL     1       1.856   5.639  -8.991  0.00  0.00    +0.180 C 
ATOM      4  O   UNL     1       1.254   4.505  -9.450  0.00  0.00    -0.218 OA
ATOM      5  C   UNL     1       1.656   6.124  -7.687  0.00  0.00    +0.035 C 
ATOM      6  C   UNL     1       2.708   5.124  -6.959  0.00  0.00    +0.004 C 
ATOM      7  C   UNL     1       2.552   6.071  -5.582  0.00  0.00    +0.019 C 
ATOM      8  C   UNL     1       1.672   4.868  -4.827  0.00  0.00    +0.039 C 
ATOM      9  C   UNL     1       0.493   4.609  -6.034  0.00  0.00    +0.153 C 
ATOM     10  O   UNL     1      -0.712   5.005  -5.209  0.00  0.00    -0.223 OA
ATOM     11  C   UNL     1       0.959   5.901  -3.841  0.00  0.00    +0.036 C 
ATOM     12  C   UNL     1       2.237   6.321  -3.144  0.00  0.00    -0.037 C 
ATOM     13  C   UNL     1       2.001   7.037  -2.039  0.00  0.00    +0.034 C 
ATOM     14  C   UNL     1       0.837   6.741  -1.189  0.00  0.00    +0.195 C 
ATOM     15  C   UNL     1       0.188   5.468  -1.532  0.00  0.00    +0.038 C 
ATOM     16  O   UNL     1       0.666   7.300  -0.065  0.00  0.00    -0.287 OA
ATOM     17  C   UNL     1       3.512   5.646  -3.357  0.00  0.00    +0.039 C 
ATOM     18  C   UNL     1       0.409   7.090  -4.405  0.00  0.00    +0.009 C 
ATOM     19  C   UNL     1       0.191   5.164  -2.832  0.00  0.00    -0.020 C 
ATOM     20  C   UNL     1       3.979   5.675  -4.865  0.00  0.00    +0.084 C 
ATOM     21 CL   UNL     1       3.962   3.821  -5.066  0.00  0.00    -0.115 Cl
ATOM     22  C   UNL     1       2.249   7.533  -7.632  0.00  0.00    +0.003 C 
ATOM     23  C   UNL     1       0.548   6.050  -6.805  0.00  0.00    +0.036 C 
ATOM     24  C   UNL     1       3.901   5.939  -7.678  0.00  0.00    +0.003 C 
ENDROOT
BRANCH   3  25
ATOM     25  C   UNL     1       1.498   6.697  -9.999  0.00  0.00    +0.211 C 
ATOM     26  O   UNL     1       0.395   7.235  -9.911  0.00  0.00    -0.291 OA
BRANCH  25  27
ATOM     27  C   UNL     1       2.249   6.942 -11.245  0.00  0.00    +0.248 C 
ATOM     28  O   UNL     1       1.872   6.144 -12.303  0.00  0.00    -0.212 OA
ENDBRANCH  25  27
ENDBRANCH   3  25
TORSDOF 2
ENDMDL
MODEL 7
REMARK VINA RESULT:      -6.8      2.772      8.104
REMARK  Name = 
REMARK  2 active torsions:
REMARK  status: ('A' for Active; 'I' for Inactive)
REMARK    1  A    between atoms: C_23  and  C_25
REMARK    2  A    between atoms: C_25  and  C_27
REMARK                            x       y       z     vdW  Elec       q    Type
REMARK                         _______ _______ _______ _____ _____    ______ ____
ROOT
ATOM      1  C   UNL     1      -0.877   6.166 -10.854  0.00  0.00    +0.003 C 
ATOM      2  C   UNL     1       0.252   5.122 -11.398  0.00  0.00    +0.035 C 
ATOM      3  C   UNL     1       1.486   6.167 -11.225  0.00  0.00    +0.180 C 
ATOM      4  O   UNL     1       1.063   7.424 -11.542  0.00  0.00    -0.218 OA
ATOM      5  C   UNL     1       2.095   5.864  -9.994  0.00  0.00    +0.035 C 
ATOM      6  C   UNL     1       0.722   5.752  -9.136  0.00  0.00    +0.004 C 
ATOM      7  C   UNL     1       1.633   5.091  -7.891  0.00  0.00    +0.019 C 
ATOM      8  C   UNL     1       1.473   6.494  -6.998  0.00  0.00    +0.039 C 
ATOM      9  C   UNL     1       2.001   7.614  -8.175  0.00  0.00    +0.153 C 
ATOM     10  O   UNL     1       3.205   8.129  -7.418  0.00  0.00    -0.223 OA
ATOM     11  C   UNL     1       2.799   6.202  -6.158  0.00  0.00    +0.036 C 
ATOM     12  C   UNL     1       2.267   4.942  -5.508  0.00  0.00    -0.037 C 
ATOM     13  C   UNL     1       3.044   4.521  -4.504  0.00  0.00    +0.034 C 
ATOM     14  C   UNL     1       3.734   5.486  -3.634  0.00  0.00    +0.195 C 
ATOM     15  C   UNL     1       3.257   6.865  -3.820  0.00  0.00    +0.038 C 
ATOM     16  O   UNL     1       4.358   5.127  -2.592  0.00  0.00    -0.287 OA
ATOM     17  C   UNL     1       0.875   4.521  -5.621  0.00  0.00    +0.039 C 
ATOM     18  C   UNL     1       3.969   5.812  -6.873  0.00  0.00    +0.009 C 
ATOM     19  C   UNL     1       2.914   7.181  -5.071  0.00  0.00    -0.020 C 
ATOM     20  C   UNL     1       0.422   4.291  -7.116  0.00  0.00    +0.084 C 
ATOM     21 CL   UNL     1      -0.895   5.612  -7.081  0.00  0.00    -0.115 Cl
ATOM     22  C   UNL     1       2.680   4.456 -10.112  0.00  0.00    +0.003 C 
ATOM     23  C   UNL     1       2.906   6.634  -9.121  0.00  0.00    +0.036 C 
ATOM     24  C   UNL     1       0.391   4.393  -9.940  0.00  0.00    +0.003 C 
ENDROOT
BRANCH   3  25
ATOM     25  C   UNL     1       2.387   5.768 -12.362  0.00  0.00    +0.211 C 
ATOM     26  O   UNL     1       3.527   6.230 -12.391  0.00  0.00    -0.291 OA
BRANCH  25  27
ATOM     27  C   UNL     1       1.923   5.090 -13.587  0.00  0.00    +0.248 C 
ATOM     28  O   UNL     1       2.850   5.057 -14.605  0.00  0.00    -0.212 OA
ENDBRANCH  25  27
ENDBRANCH   3  25
TORSDOF 2
ENDMDL
MODEL 8
REMARK VINA RESULT:      -6.5      4.792     10.065
REMARK  Name = 
REMARK  2 active torsions:
REMARK  status: ('A' for Active; 'I' for Inactive)
REMARK    1  A    between atoms: C_23  and  C_25
REMARK    2  A    between atoms: C_25  and  C_27
REMARK                            x       y       z     vdW  Elec       q    Type
REMARK                         _______ _______ _______ _____ _____    ______ ____
ROOT
ATOM      1  C   UNL     1       3.856   4.560 -13.833  0.00  0.00    +0.003 C 
ATOM      2  C   UNL     1       3.126   5.952 -14.266  0.00  0.00    +0.035 C 
ATOM      3  C   UNL     1       1.625   5.410 -13.954  0.00  0.00    +0.180 C 
ATOM      4  O   UNL     1       1.536   4.095 -14.301  0.00  0.00    -0.218 OA
ATOM      5  C   UNL     1       1.292   5.875 -12.669  0.00  0.00    +0.035 C 
ATOM      6  C   UNL     1       2.694   5.466 -11.961  0.00  0.00    +0.004 C 
ATOM      7  C   UNL     1       2.211   6.373 -10.634  0.00  0.00    +0.019 C 
ATOM      8  C   UNL     1       1.949   4.981  -9.749  0.00  0.00    +0.039 C 
ATOM      9  C   UNL     1       0.939   4.155 -10.852  0.00  0.00    +0.153 C 
ATOM     10  O   UNL     1      -0.286   4.081  -9.968  0.00  0.00    -0.223 OA
ATOM     11  C   UNL     1       0.907   5.702  -8.777  0.00  0.00    +0.036 C 
ATOM     12  C   UNL     1       1.917   6.671  -8.199  0.00  0.00    -0.037 C 
ATOM     13  C   UNL     1       1.447   7.312  -7.123  0.00  0.00    +0.034 C 
ATOM     14  C   UNL     1       0.551   6.632  -6.176  0.00  0.00    +0.195 C 
ATOM     15  C   UNL     1       0.483   5.180  -6.397  0.00  0.00    +0.038 C 
ATOM     16  O   UNL     1       0.206   7.160  -5.078  0.00  0.00    -0.287 OA
ATOM     17  C   UNL     1       3.349   6.572  -8.462  0.00  0.00    +0.039 C 
ATOM     18  C   UNL     1      -0.113   6.502  -9.369  0.00  0.00    +0.009 C 
ATOM     19  C   UNL     1       0.561   4.798  -7.675  0.00  0.00    -0.020 C 
ATOM     20  C   UNL     1       3.700   6.667  -9.998  0.00  0.00    +0.084 C 
ATOM     21 CL   UNL     1       4.454   4.964 -10.089  0.00  0.00    -0.115 Cl
ATOM     22  C   UNL     1       1.239   7.401 -12.739  0.00  0.00    +0.003 C 
ATOM     23  C   UNL     1       0.353   5.420 -11.708  0.00  0.00    +0.036 C 
ATOM     24  C   UNL     1       3.405   6.641 -12.809  0.00  0.00    +0.003 C 
ENDROOT
BRANCH   3  25
ATOM     25  C   UNL     1       0.815   6.136 -14.993  0.00  0.00    +0.211 C 
ATOM     26  O   UNL     1      -0.238   5.624 -15.374  0.00  0.00    -0.291 OA
BRANCH  25  27
ATOM     27  C   UNL     1       1.318   7.270 -15.792  0.00  0.00    +0.248 C 
ATOM     28  O   UNL     1       1.053   7.178 -17.141  0.00  0.00    -0.212 OA
ENDBRANCH  25  27
ENDBRANCH   3  25
TORSDOF 2
ENDMDL
MODEL 9
REMARK VINA RESULT:      -6.3      1.822      7.160
REMARK  Name = 
REMARK  2 active torsions:
REMARK  status: ('A' for Active; 'I' for Inactive)
REMARK    1  A    between atoms: C_23  and  C_25
REMARK    2  A    between atoms: C_25  and  C_27
REMARK                            x       y       z     vdW  Elec       q    Type
REMARK                         _______ _______ _______ _____ _____    ______ ____
ROOT
ATOM      1  C   UNL     1       0.983   6.748  -9.768  0.00  0.00    +0.003 C 
ATOM      2  C   UNL     1       1.870   5.394  -9.966  0.00  0.00    +0.035 C 
ATOM      3  C   UNL     1       3.251   6.067  -9.431  0.00  0.00    +0.180 C 
ATOM      4  O   UNL     1       3.314   7.363  -9.848  0.00  0.00    -0.218 OA
ATOM      5  C   UNL     1       3.374   5.703  -8.078  0.00  0.00    +0.035 C 
ATOM      6  C   UNL     1       1.842   6.042  -7.661  0.00  0.00    +0.004 C 
ATOM      7  C   UNL     1       2.134   5.252  -6.208  0.00  0.00    +0.019 C 
ATOM      8  C   UNL     1       2.138   6.709  -5.391  0.00  0.00    +0.039 C 
ATOM      9  C   UNL     1       3.275   7.546  -6.352  0.00  0.00    +0.153 C 
ATOM     10  O   UNL     1       4.311   7.765  -5.272  0.00  0.00    -0.223 OA
ATOM     11  C   UNL     1       3.030   6.127  -4.201  0.00  0.00    +0.036 C 
ATOM     12  C   UNL     1       1.998   5.117  -3.745  0.00  0.00    -0.037 C 
ATOM     13  C   UNL     1       2.305   4.577  -2.561  0.00  0.00    +0.034 C 
ATOM     14  C   UNL     1       2.967   5.377  -1.520  0.00  0.00    +0.195 C 
ATOM     15  C   UNL     1       2.979   6.815  -1.826  0.00  0.00    +0.038 C 
ATOM     16  O   UNL     1       3.140   4.941  -0.343  0.00  0.00    -0.287 OA
ATOM     17  C   UNL     1       0.635   5.091  -4.264  0.00  0.00    +0.039 C 
ATOM     18  C   UNL     1       4.192   5.376  -4.545  0.00  0.00    +0.009 C 
ATOM     19  C   UNL     1       3.109   7.117  -3.121  0.00  0.00    -0.020 C 
ATOM     20  C   UNL     1       0.577   4.881  -5.828  0.00  0.00    +0.084 C 
ATOM     21 CL   UNL     1      -0.259   6.512  -6.171  0.00  0.00    -0.115 Cl
ATOM     22  C   UNL     1       3.538   4.184  -8.030  0.00  0.00    +0.003 C 
ATOM     23  C   UNL     1       4.089   6.284  -6.999  0.00  0.00    +0.036 C 
ATOM     24  C   UNL     1       1.377   4.769  -8.537  0.00  0.00    +0.003 C 
ENDROOT
BRANCH   3  25
ATOM     25  C   UNL     1       4.282   5.348 -10.257  0.00  0.00    +0.211 C 
ATOM     26  O   UNL     1       5.429   5.269  -9.817  0.00  0.00    -0.291 OA
BRANCH  25  27
ATOM     27  C   UNL     1       4.096   4.974 -11.672  0.00  0.00    +0.248 C 
ATOM     28  O   UNL     1       5.266   4.878 -12.393  0.00  0.00    -0.212 OA
ENDBRANCH  25  27
ENDBRANCH   3  25
TORSDOF 2
ENDMDL
