MODEL 1
REMARK VINA RESULT:      -7.0      0.000      0.000
REMARK  Name = 
REMARK  7 active torsions:
REMARK  status: ('A' for Active; 'I' for Inactive)
REMARK    1  A    between atoms: C_2  and  C_3
REMARK    2  A    between atoms: C_3  and  C_5
REMARK    3  A    between atoms: C_5  and  C_6
REMARK    4  A    between atoms: C_5  and  C_12
REMARK    5  A    between atoms: C_5  and  C_18
REMARK    6  A    between atoms: C_6  and  C_7
REMARK    7  A    between atoms: C_7  and  N_9
REMARK                            x       y       z     vdW  Elec       q    Type
REMARK                         _______ _______ _______ _____ _____    ______ ____
ROOT
ATOM      1  C   UNL     1       3.376   5.866  -8.249  0.00  0.00    +0.090 C 
ENDROOT
BRANCH   1   2
ATOM      2  C   UNL     1       3.521   6.284  -6.815  0.00  0.00    -0.012 A 
ATOM      3  C   UNL     1       2.497   6.948  -6.200  0.00  0.00    -0.004 A 
ATOM      4  C   UNL     1       2.580   7.388  -4.885  0.00  0.00    -0.000 A 
ATOM      5  C   UNL     1       3.781   7.198  -4.247  0.00  0.00    -0.000 A 
ATOM      6  C   UNL     1       4.787   6.430  -4.801  0.00  0.00    -0.000 A 
ATOM      7  C   UNL     1       4.684   6.083  -6.124  0.00  0.00    -0.004 A 
ENDBRANCH   1   2
BRANCH   1   8
ATOM      8  C   UNL     1       4.651   6.107  -8.888  0.00  0.00    -0.012 A 
ATOM      9  C   UNL     1       4.579   6.964  -9.989  0.00  0.00    -0.004 A 
ATOM     10  C   UNL     1       5.568   7.039 -10.937  0.00  0.00    -0.000 A 
ATOM     11  C   UNL     1       6.856   6.752 -10.508  0.00  0.00    -0.000 A 
ATOM     12  C   UNL     1       6.934   5.752  -9.544  0.00  0.00    -0.000 A 
ATOM     13  C   UNL     1       5.789   5.350  -8.865  0.00  0.00    -0.004 A 
ENDBRANCH   1   8
BRANCH   1  14
ATOM     14  C   UNL     1       3.218   4.368  -8.194  0.00  0.00    +0.157 C 
ATOM     15  O   UNL     1       3.645   3.698  -9.129  0.00  0.00    -0.295 OA
BRANCH  14  17
ATOM     16  C   UNL     1       2.195   3.431  -6.427  0.00  0.00    +0.008 C 
ATOM     17  C   UNL     1       2.099   3.887  -7.331  0.00  0.00    +0.065 C 
ENDBRANCH  14  17
ENDBRANCH   1  14
BRANCH   1  18
ATOM     18  C   UNL     1       2.139   6.413  -8.768  0.00  0.00    +0.031 C 
BRANCH  18  19
ATOM     19  C   UNL     1       1.522   5.403  -9.935  0.00  0.00    +0.059 C 
ATOM     20  C   UNL     1      -0.039   5.636  -9.389  0.00  0.00    +0.017 C 
BRANCH  19  21
ATOM     21  N   UNL     1       1.386   6.600 -10.989  0.00  0.00    -0.272 NA
ATOM     22  C   UNL     1       1.835   5.968 -12.210  0.00  0.00    +0.090 C 
ATOM     23  C   UNL     1      -0.005   6.917 -11.050  0.00  0.00    +0.090 C 
ENDBRANCH  19  21
ENDBRANCH  18  19
ENDBRANCH   1  18
TORSDOF 7
ENDMDL
MODEL 2
REMARK VINA RESULT:      -7.0      2.687      6.312
REMARK  Name = 
REMARK  7 active torsions:
REMARK  status: ('A' for Active; 'I' for Inactive)
REMARK    1  A    between atoms: C_2  and  C_3
REMARK    2  A    between atoms: C_3  and  C_5
REMARK    3  A    between atoms: C_5  and  C_6
REMARK    4  A    between atoms: C_5  and  C_12
REMARK    5  A    between atoms: C_5  and  C_18
REMARK    6  A    between atoms: C_6  and  C_7
REMARK    7  A    between atoms: C_7  and  N_9
REMARK                            x       y       z     vdW  Elec       q    Type
REMARK                         _______ _______ _______ _____ _____    ______ ____
ROOT
ATOM      1  C   UNL     1       1.204   5.951  -7.047  0.00  0.00    +0.090 C 
ENDROOT
BRANCH   1   2
ATOM      2  C   UNL     1       1.093   6.133  -8.532  0.00  0.00    -0.012 A 
ATOM      3  C   UNL     1       2.077   6.805  -9.204  0.00  0.00    -0.004 A 
ATOM      4  C   UNL     1       2.019   7.032 -10.573  0.00  0.00    -0.000 A 
ATOM      5  C   UNL     1       0.878   6.622 -11.218  0.00  0.00    -0.000 A 
ATOM      6  C   UNL     1      -0.074   5.843 -10.590  0.00  0.00    -0.000 A 
ATOM      7  C   UNL     1      -0.006   5.709  -9.227  0.00  0.00    -0.004 A 
ENDBRANCH   1   2
BRANCH   1   8
ATOM      8  C   UNL     1      -0.113   6.182  -6.495  0.00  0.00    -0.012 A 
ATOM      9  C   UNL     1      -0.155   7.198  -5.537  0.00  0.00    -0.004 A 
ATOM     10  C   UNL     1      -1.188   7.335  -4.646  0.00  0.00    -0.000 A 
ATOM     11  C   UNL     1      -2.431   6.885  -5.069  0.00  0.00    -0.000 A 
ATOM     12  C   UNL     1      -2.391   5.749  -5.870  0.00  0.00    -0.000 A 
ATOM     13  C   UNL     1      -1.189   5.342  -6.440  0.00  0.00    -0.004 A 
ENDBRANCH   1   8
BRANCH   1  14
ATOM     14  C   UNL     1       1.476   4.480  -6.864  0.00  0.00    +0.157 C 
ATOM     15  O   UNL     1       1.088   3.935  -5.835  0.00  0.00    -0.295 OA
BRANCH  14  17
ATOM     16  C   UNL     1       2.589   3.392  -8.485  0.00  0.00    +0.008 C 
ATOM     17  C   UNL     1       2.638   3.956  -7.640  0.00  0.00    +0.065 C 
ENDBRANCH  14  17
ENDBRANCH   1  14
BRANCH   1  18
ATOM     18  C   UNL     1       2.372   6.668  -6.578  0.00  0.00    +0.031 C 
BRANCH  18  19
ATOM     19  C   UNL     1       3.044   5.868  -5.285  0.00  0.00    +0.059 C 
ATOM     20  C   UNL     1       4.589   6.092  -5.880  0.00  0.00    +0.017 C 
BRANCH  19  21
ATOM     21  N   UNL     1       3.128   7.210  -4.417  0.00  0.00    -0.272 NA
ATOM     22  C   UNL     1       2.674   6.751  -3.123  0.00  0.00    +0.090 C 
ATOM     23  C   UNL     1       4.509   7.572  -4.383  0.00  0.00    +0.090 C 
ENDBRANCH  19  21
ENDBRANCH  18  19
ENDBRANCH   1  18
TORSDOF 7
ENDMDL
MODEL 3
REMARK VINA RESULT:      -6.4      2.743      5.456
REMARK  Name = 
REMARK  7 active torsions:
REMARK  status: ('A' for Active; 'I' for Inactive)
REMARK    1  A    between atoms: C_2  and  C_3
REMARK    2  A    between atoms: C_3  and  C_5
REMARK    3  A    between atoms: C_5  and  C_6
REMARK    4  A    between atoms: C_5  and  C_12
REMARK    5  A    between atoms: C_5  and  C_18
REMARK    6  A    between atoms: C_6  and  C_7
REMARK    7  A    between atoms: C_7  and  N_9
REMARK                            x       y       z     vdW  Elec       q    Type
REMARK                         _______ _______ _______ _____ _____    ______ ____
ROOT
ATOM      1  C   UNL     1       2.363   5.825  -5.089  0.00  0.00    +0.090 C 
ENDROOT
BRANCH   1   2
ATOM      2  C   UNL     1       2.681   5.426  -3.678  0.00  0.00    -0.012 A 
ATOM      3  C   UNL     1       3.864   4.797  -3.406  0.00  0.00    -0.004 A 
ATOM      4  C   UNL     1       4.205   4.377  -2.126  0.00  0.00    -0.000 A 
ATOM      5  C   UNL     1       3.256   4.548  -1.148  0.00  0.00    -0.000 A 
ATOM      6  C   UNL     1       2.107   5.282  -1.369  0.00  0.00    -0.000 A 
ATOM      7  C   UNL     1       1.785   5.610  -2.661  0.00  0.00    -0.004 A 
ENDBRANCH   1   2
BRANCH   1   8
ATOM      8  C   UNL     1       0.929   5.992  -5.165  0.00  0.00    -0.012 A 
ATOM      9  C   UNL     1       0.281   4.998  -5.903  0.00  0.00    -0.004 A 
ATOM     10  C   UNL     1      -0.988   5.152  -6.400  0.00  0.00    -0.000 A 
ATOM     11  C   UNL     1      -1.834   5.986  -5.684  0.00  0.00    -0.000 A 
ATOM     12  C   UNL     1      -1.208   7.088  -5.111  0.00  0.00    -0.000 A 
ATOM     13  C   UNL     1       0.178   7.123  -5.007  0.00  0.00    -0.004 A 
ENDBRANCH   1   8
BRANCH   1  14
ATOM     14  C   UNL     1       2.948   7.205  -5.236  0.00  0.00    +0.157 C 
ATOM     15  O   UNL     1       2.853   7.771  -6.320  0.00  0.00    -0.295 OA
BRANCH  14  17
ATOM     16  C   UNL     1       4.994   7.803  -4.523  0.00  0.00    +0.008 C 
ATOM     17  C   UNL     1       4.047   7.525  -4.277  0.00  0.00    +0.065 C 
ENDBRANCH  14  17
ENDBRANCH   1  14
BRANCH   1  18
ATOM     18  C   UNL     1       3.085   4.950  -5.990  0.00  0.00    +0.031 C 
BRANCH  18  19
ATOM     19  C   UNL     1       3.355   5.729  -7.435  0.00  0.00    +0.059 C 
ATOM     20  C   UNL     1       4.941   5.206  -7.482  0.00  0.00    +0.017 C 
BRANCH  19  21
ATOM     21  N   UNL     1       2.860   4.465  -8.282  0.00  0.00    -0.272 NA
ATOM     22  C   UNL     1       1.802   5.044  -9.080  0.00  0.00    +0.090 C 
ATOM     23  C   UNL     1       3.968   4.074  -9.093  0.00  0.00    +0.090 C 
ENDBRANCH  19  21
ENDBRANCH  18  19
ENDBRANCH   1  18
TORSDOF 7
ENDMDL
MODEL 4
REMARK VINA RESULT:      -6.4      3.100      6.485
REMARK  Name = 
REMARK  7 active torsions:
REMARK  status: ('A' for Active; 'I' for Inactive)
REMARK    1  A    between atoms: C_2  and  C_3
REMARK    2  A    between atoms: C_3  and  C_5
REMARK    3  A    between atoms: C_5  and  C_6
REMARK    4  A    between atoms: C_5  and  C_12
REMARK    5  A    between atoms: C_5  and  C_18
REMARK    6  A    between atoms: C_6  and  C_7
REMARK    7  A    between atoms: C_7  and  N_9
REMARK                            x       y       z     vdW  Elec       q    Type
REMARK                         _______ _______ _______ _____ _____    ______ ____
ROOT
ATOM      1  C   UNL     1       1.170   6.195  -5.806  0.00  0.00    +0.090 C 
ENDROOT
BRANCH   1   2
ATOM      2  C   UNL     1       1.537   5.775  -7.199  0.00  0.00    -0.012 A 
ATOM      3  C   UNL     1       1.280   6.615  -8.246  0.00  0.00    -0.004 A 
ATOM      4  C   UNL     1       1.569   6.273  -9.562  0.00  0.00    -0.000 A 
ATOM      5  C   UNL     1       2.052   5.006  -9.776  0.00  0.00    -0.000 A 
ATOM      6  C   UNL     1       2.429   4.183  -8.733  0.00  0.00    -0.000 A 
ATOM      7  C   UNL     1       2.057   4.537  -7.461  0.00  0.00    -0.004 A 
ENDBRANCH   1   2
BRANCH   1   8
ATOM      8  C   UNL     1      -0.234   6.541  -5.827  0.00  0.00    -0.012 A 
ATOM      9  C   UNL     1      -0.561   7.632  -5.017  0.00  0.00    -0.004 A 
ATOM     10  C   UNL     1      -1.843   7.895  -4.611  0.00  0.00    -0.000 A 
ATOM     11  C   UNL     1      -2.858   7.481  -5.462  0.00  0.00    -0.000 A 
ATOM     12  C   UNL     1      -2.604   6.284  -6.123  0.00  0.00    -0.000 A 
ATOM     13  C   UNL     1      -1.312   5.768  -6.154  0.00  0.00    -0.004 A 
ENDBRANCH   1   8
BRANCH   1  14
ATOM     14  C   UNL     1       1.272   4.933  -4.989  0.00  0.00    +0.157 C 
ATOM     15  O   UNL     1       1.026   3.861  -5.532  0.00  0.00    -0.295 OA
BRANCH  14  17
ATOM     16  C   UNL     1       0.281   4.893  -2.972  0.00  0.00    +0.008 C 
ATOM     17  C   UNL     1       1.108   5.124  -3.518  0.00  0.00    +0.065 C 
ENDBRANCH  14  17
ENDBRANCH   1  14
BRANCH   1  18
ATOM     18  C   UNL     1       2.181   7.110  -5.317  0.00  0.00    +0.031 C 
BRANCH  18  19
ATOM     19  C   UNL     1       3.418   6.256  -4.606  0.00  0.00    +0.059 C 
ATOM     20  C   UNL     1       4.491   6.704  -5.805  0.00  0.00    +0.017 C 
BRANCH  19  21
ATOM     21  N   UNL     1       3.838   7.501  -3.693  0.00  0.00    -0.272 NA
ATOM     22  C   UNL     1       3.976   6.879  -2.395  0.00  0.00    +0.090 C 
ATOM     23  C   UNL     1       5.100   7.948  -4.190  0.00  0.00    +0.090 C 
ENDBRANCH  19  21
ENDBRANCH  18  19
ENDBRANCH   1  18
TORSDOF 7
ENDMDL
MODEL 5
REMARK VINA RESULT:      -6.4      2.729      4.811
REMARK  Name = 
REMARK  7 active torsions:
REMARK  status: ('A' for Active; 'I' for Inactive)
REMARK    1  A    between atoms: C_2  and  C_3
REMARK    2  A    between atoms: C_3  and  C_5
REMARK    3  A    between atoms: C_5  and  C_6
REMARK    4  A    between atoms: C_5  and  C_12
REMARK    5  A    between atoms: C_5  and  C_18
REMARK    6  A    between atoms: C_6  and  C_7
REMARK    7  A    between atoms: C_7  and  N_9
REMARK                            x       y       z     vdW  Elec       q    Type
REMARK                         _______ _______ _______ _____ _____    ______ ____
ROOT
ATOM      1  C   UNL     1       1.056   6.113  -5.646  0.00  0.00    +0.090 C 
ENDROOT
BRANCH   1   2
ATOM      2  C   UNL     1      -0.016   6.730  -4.797  0.00  0.00    -0.012 A 
ATOM      3  C   UNL     1      -0.313   6.181  -3.581  0.00  0.00    -0.004 A 
ATOM      4  C   UNL     1      -1.314   6.687  -2.761  0.00  0.00    -0.000 A 
ATOM      5  C   UNL     1      -2.058   7.724  -3.267  0.00  0.00    -0.000 A 
ATOM      6  C   UNL     1      -1.707   8.371  -4.436  0.00  0.00    -0.000 A 
ATOM      7  C   UNL     1      -0.761   7.789  -5.240  0.00  0.00    -0.004 A 
ENDBRANCH   1   2
BRANCH   1   8
ATOM      8  C   UNL     1       2.193   5.879  -4.783  0.00  0.00    -0.012 A 
ATOM      9  C   UNL     1       2.880   7.041  -4.424  0.00  0.00    -0.004 A 
ATOM     10  C   UNL     1       4.160   7.023  -3.932  0.00  0.00    -0.000 A 
ATOM     11  C   UNL     1       4.535   5.887  -3.229  0.00  0.00    -0.000 A 
ATOM     12  C   UNL     1       3.996   4.702  -3.718  0.00  0.00    -0.000 A 
ATOM     13  C   UNL     1       2.928   4.740  -4.609  0.00  0.00    -0.004 A 
ENDBRANCH   1   8
BRANCH   1  14
ATOM     14  C   UNL     1       0.521   4.750  -6.003  0.00  0.00    +0.157 C 
ATOM     15  O   UNL     1       1.276   3.786  -5.933  0.00  0.00    -0.295 OA
BRANCH  14  17
ATOM     16  C   UNL     1      -1.635   4.765  -6.640  0.00  0.00    +0.008 C 
ATOM     17  C   UNL     1      -0.657   4.760  -6.921  0.00  0.00    +0.065 C 
ENDBRANCH  14  17
ENDBRANCH   1  14
BRANCH   1  18
ATOM     18  C   UNL     1       1.166   6.870  -6.876  0.00  0.00    +0.031 C 
BRANCH  18  19
ATOM     19  C   UNL     1       1.836   5.921  -8.065  0.00  0.00    +0.059 C 
ATOM     20  C   UNL     1       1.173   6.867  -9.271  0.00  0.00    +0.017 C 
BRANCH  19  21
ATOM     21  N   UNL     1       3.191   6.773  -8.070  0.00  0.00    -0.272 NA
ATOM     22  C   UNL     1       4.175   5.760  -7.760  0.00  0.00    +0.090 C 
ATOM     23  C   UNL     1       3.347   7.257  -9.404  0.00  0.00    +0.090 C 
ENDBRANCH  19  21
ENDBRANCH  18  19
ENDBRANCH   1  18
TORSDOF 7
ENDMDL
MODEL 6
REMARK VINA RESULT:      -6.4      3.466      6.027
REMARK  Name = 
REMARK  7 active torsions:
REMARK  status: ('A' for Active; 'I' for Inactive)
REMARK    1  A    between atoms: C_2  and  C_3
REMARK    2  A    between atoms: C_3  and  C_5
REMARK    3  A    between atoms: C_5  and  C_6
REMARK    4  A    between atoms: C_5  and  C_12
REMARK    5  A    between atoms: C_5  and  C_18
REMARK    6  A    between atoms: C_6  and  C_7
REMARK    7  A    between atoms: C_7  and  N_9
REMARK                            x       y       z     vdW  Elec       q    Type
REMARK                         _______ _______ _______ _____ _____    ______ ____
ROOT
ATOM      1  C   UNL     1       1.129   5.888  -5.695  0.00  0.00    +0.090 C 
ENDROOT
BRANCH   1   2
ATOM      2  C   UNL     1      -0.280   6.393  -5.579  0.00  0.00    -0.012 A 
ATOM      3  C   UNL     1      -0.521   7.579  -4.943  0.00  0.00    -0.004 A 
ATOM      4  C   UNL     1      -1.803   8.085  -4.777  0.00  0.00    -0.000 A 
ATOM      5  C   UNL     1      -2.839   7.294  -5.209  0.00  0.00    -0.000 A 
ATOM      6  C   UNL     1      -2.621   6.152  -5.955  0.00  0.00    -0.000 A 
ATOM      7  C   UNL     1      -1.343   5.659  -6.028  0.00  0.00    -0.004 A 
ENDBRANCH   1   2
BRANCH   1   8
ATOM      8  C   UNL     1       1.248   5.269  -6.997  0.00  0.00    -0.012 A 
ATOM      9  C   UNL     1       2.200   4.249  -7.054  0.00  0.00    -0.004 A 
ATOM     10  C   UNL     1       2.725   3.789  -8.234  0.00  0.00    -0.000 A 
ATOM     11  C   UNL     1       1.906   3.881  -9.351  0.00  0.00    -0.000 A 
ATOM     12  C   UNL     1       1.095   5.010  -9.380  0.00  0.00    -0.000 A 
ATOM     13  C   UNL     1       0.912   5.764  -8.226  0.00  0.00    -0.004 A 
ENDBRANCH   1   8
BRANCH   1  14
ATOM     14  C   UNL     1       1.975   7.134  -5.751  0.00  0.00    +0.157 C 
ATOM     15  O   UNL     1       1.734   7.969  -6.616  0.00  0.00    -0.295 OA
BRANCH  14  17
ATOM     16  C   UNL     1       4.219   7.067  -5.649  0.00  0.00    +0.008 C 
ATOM     17  C   UNL     1       3.335   6.995  -5.151  0.00  0.00    +0.065 C 
ENDBRANCH  14  17
ENDBRANCH   1  14
BRANCH   1  18
ATOM     18  C   UNL     1       1.471   5.187  -4.475  0.00  0.00    +0.031 C 
BRANCH  18  19
ATOM     19  C   UNL     1       1.090   6.127  -3.158  0.00  0.00    +0.059 C 
ATOM     20  C   UNL     1      -0.005   4.997  -2.599  0.00  0.00    +0.017 C 
BRANCH  19  21
ATOM     21  N   UNL     1       2.270   5.492  -2.283  0.00  0.00    -0.272 NA
ATOM     22  C   UNL     1       2.915   6.675  -1.757  0.00  0.00    +0.090 C 
ATOM     23  C   UNL     1       1.635   4.744  -1.246  0.00  0.00    +0.090 C 
ENDBRANCH  19  21
ENDBRANCH  18  19
ENDBRANCH   1  18
TORSDOF 7
ENDMDL
MODEL 7
REMARK VINA RESULT:      -6.2      1.651      4.425
REMARK  Name = 
REMARK  7 active torsions:
REMARK  status: ('A' for Active; 'I' for Inactive)
REMARK    1  A    between atoms: C_2  and  C_3
REMARK    2  A    between atoms: C_3  and  C_5
REMARK    3  A    between atoms: C_5  and  C_6
REMARK    4  A    between atoms: C_5  and  C_12
REMARK    5  A    between atoms: C_5  and  C_18
REMARK    6  A    between atoms: C_6  and  C_7
REMARK    7  A    between atoms: C_7  and  N_9
REMARK                            x       y       z     vdW  Elec       q    Type
REMARK                         _______ _______ _______ _____ _____    ______ ____
ROOT
ATOM      1  C   UNL     1       3.772   5.559  -9.144  0.00  0.00    +0.090 C 
ENDROOT
BRANCH   1   2
ATOM      2  C   UNL     1       5.172   5.567  -9.683  0.00  0.00    -0.012 A 
ATOM      3  C   UNL     1       5.374   5.522 -11.035  0.00  0.00    -0.004 A 
ATOM      4  C   UNL     1       6.645   5.497 -11.596  0.00  0.00    -0.000 A 
ATOM      5  C   UNL     1       7.702   5.434 -10.722  0.00  0.00    -0.000 A 
ATOM      6  C   UNL     1       7.533   5.595  -9.361  0.00  0.00    -0.000 A 
ATOM      7  C   UNL     1       6.260   5.543  -8.855  0.00  0.00    -0.004 A 
ENDBRANCH   1   2
BRANCH   1   8
ATOM      8  C   UNL     1       3.858   5.170  -7.754  0.00  0.00    -0.012 A 
ATOM      9  C   UNL     1       2.809   4.351  -7.329  0.00  0.00    -0.004 A 
ATOM     10  C   UNL     1       2.500   4.169  -6.005  0.00  0.00    -0.000 A 
ATOM     11  C   UNL     1       3.550   4.280  -5.105  0.00  0.00    -0.000 A 
ATOM     12  C   UNL     1       4.497   5.242  -5.440  0.00  0.00    -0.000 A 
ATOM     13  C   UNL     1       4.524   5.774  -6.725  0.00  0.00    -0.004 A 
ENDBRANCH   1   8
BRANCH   1  14
ATOM     14  C   UNL     1       3.357   7.007  -9.143  0.00  0.00    +0.157 C 
ATOM     15  O   UNL     1       3.924   7.782  -9.906  0.00  0.00    -0.295 OA
BRANCH  14  17
ATOM     16  C   UNL     1       1.872   8.024  -7.796  0.00  0.00    +0.008 C 
ATOM     17  C   UNL     1       2.726   7.477  -7.874  0.00  0.00    +0.065 C 
ENDBRANCH  14  17
ENDBRANCH   1  14
BRANCH   1  18
ATOM     18  C   UNL     1       2.917   4.865 -10.086  0.00  0.00    +0.031 C 
BRANCH  18  19
ATOM     19  C   UNL     1       1.678   5.865 -10.565  0.00  0.00    +0.059 C 
ATOM     20  C   UNL     1       1.812   5.361 -12.152  0.00  0.00    +0.017 C 
BRANCH  19  21
ATOM     21  N   UNL     1       0.573   4.750 -10.251  0.00  0.00    -0.272 NA
ATOM     22  C   UNL     1      -0.173   5.371  -9.178  0.00  0.00    +0.090 C 
ATOM     23  C   UNL     1      -0.219   4.635 -11.434  0.00  0.00    +0.090 C 
ENDBRANCH  19  21
ENDBRANCH  18  19
ENDBRANCH   1  18
TORSDOF 7
ENDMDL
MODEL 8
REMARK VINA RESULT:      -6.2      2.522      3.983
REMARK  Name = 
REMARK  7 active torsions:
REMARK  status: ('A' for Active; 'I' for Inactive)
REMARK    1  A    between atoms: C_2  and  C_3
REMARK    2  A    between atoms: C_3  and  C_5
REMARK    3  A    between atoms: C_5  and  C_6
REMARK    4  A    between atoms: C_5  and  C_12
REMARK    5  A    between atoms: C_5  and  C_18
REMARK    6  A    between atoms: C_6  and  C_7
REMARK    7  A    between atoms: C_7  and  N_9
REMARK                            x       y       z     vdW  Elec       q    Type
REMARK                         _______ _______ _______ _____ _____    ______ ____
ROOT
ATOM      1  C   UNL     1       2.229   6.457  -5.453  0.00  0.00    +0.090 C 
ENDROOT
BRANCH   1   2
ATOM      2  C   UNL     1       3.238   6.975  -4.471  0.00  0.00    -0.012 A 
ATOM      3  C   UNL     1       4.551   7.068  -4.841  0.00  0.00    -0.004 A 
ATOM      4  C   UNL     1       5.539   7.511  -3.970  0.00  0.00    -0.000 A 
ATOM      5  C   UNL     1       5.148   7.775  -2.680  0.00  0.00    -0.000 A 
ATOM      6  C   UNL     1       3.817   7.802  -2.312  0.00  0.00    -0.000 A 
ATOM      7  C   UNL     1       2.893   7.288  -3.185  0.00  0.00    -0.004 A 
ENDBRANCH   1   2
BRANCH   1   8
ATOM      8  C   UNL     1       2.806   6.610  -6.770  0.00  0.00    -0.012 A 
ATOM      9  C   UNL     1       1.956   7.224  -7.693  0.00  0.00    -0.004 A 
ATOM     10  C   UNL     1       2.149   7.141  -9.048  0.00  0.00    -0.000 A 
ATOM     11  C   UNL     1       3.460   6.993  -9.477  0.00  0.00    -0.000 A 
ATOM     12  C   UNL     1       4.255   6.212  -8.644  0.00  0.00    -0.000 A 
ATOM     13  C   UNL     1       3.827   5.914  -7.355  0.00  0.00    -0.004 A 
ENDBRANCH   1   8
BRANCH   1  14
ATOM     14  C   UNL     1       2.174   4.974  -5.195  0.00  0.00    +0.157 C 
ATOM     15  O   UNL     1       2.938   4.493  -4.365  0.00  0.00    -0.295 OA
BRANCH  14  17
ATOM     16  C   UNL     1       2.015   3.288  -6.674  0.00  0.00    +0.008 C 
ATOM     17  C   UNL     1       1.628   4.161  -6.323  0.00  0.00    +0.065 C 
ENDBRANCH  14  17
ENDBRANCH   1  14
BRANCH   1  18
ATOM     18  C   UNL     1       0.931   7.004  -5.113  0.00  0.00    +0.031 C 
BRANCH  18  19
ATOM     19  C   UNL     1      -0.144   5.768  -4.826  0.00  0.00    +0.059 C 
ATOM     20  C   UNL     1      -0.656   6.471  -3.400  0.00  0.00    +0.017 C 
BRANCH  19  21
ATOM     21  N   UNL     1      -1.300   6.495  -5.660  0.00  0.00    -0.272 NA
ATOM     22  C   UNL     1      -1.770   5.421  -6.507  0.00  0.00    +0.090 C 
ATOM     23  C   UNL     1      -2.294   6.876  -4.707  0.00  0.00    +0.090 C 
ENDBRANCH  19  21
ENDBRANCH  18  19
ENDBRANCH   1  18
TORSDOF 7
ENDMDL
MODEL 9
REMARK VINA RESULT:      -6.2      2.696      4.114
REMARK  Name = 
REMARK  7 active torsions:
REMARK  status: ('A' for Active; 'I' for Inactive)
REMARK    1  A    between atoms: C_2  and  C_3
REMARK    2  A    between atoms: C_3  and  C_5
REMARK    3  A    between atoms: C_5  and  C_6
REMARK    4  A    between atoms: C_5  and  C_12
REMARK    5  A    between atoms: C_5  and  C_18
REMARK    6  A    between atoms: C_6  and  C_7
REMARK    7  A    between atoms: C_7  and  N_9
REMARK                            x       y       z     vdW  Elec       q    Type
REMARK                         _______ _______ _______ _____ _____    ______ ____
ROOT
ATOM      1  C   UNL     1       2.189   5.765  -5.462  0.00  0.00    +0.090 C 
ENDROOT
BRANCH   1   2
ATOM      2  C   UNL     1       3.009   6.609  -4.532  0.00  0.00    -0.012 A 
ATOM      3  C   UNL     1       2.577   6.816  -3.251  0.00  0.00    -0.004 A 
ATOM      4  C   UNL     1       3.275   7.611  -2.351  0.00  0.00    -0.000 A 
ATOM      5  C   UNL     1       4.387   8.257  -2.833  0.00  0.00    -0.000 A 
ATOM      6  C   UNL     1       4.909   7.976  -4.080  0.00  0.00    -0.000 A 
ATOM      7  C   UNL     1       4.146   7.243  -4.953  0.00  0.00    -0.004 A 
ENDBRANCH   1   2
BRANCH   1   8
ATOM      8  C   UNL     1       2.436   6.252  -6.801  0.00  0.00    -0.012 A 
ATOM      9  C   UNL     1       3.378   5.504  -7.512  0.00  0.00    -0.004 A 
ATOM     10  C   UNL     1       4.017   5.983  -8.626  0.00  0.00    -0.000 A 
ATOM     11  C   UNL     1       3.320   6.910  -9.388  0.00  0.00    -0.000 A 
ATOM     12  C   UNL     1       2.528   7.783  -8.650  0.00  0.00    -0.000 A 
ATOM     13  C   UNL     1       2.234   7.500  -7.320  0.00  0.00    -0.004 A 
ENDBRANCH   1   8
BRANCH   1  14
ATOM     14  C   UNL     1       2.824   4.400  -5.396  0.00  0.00    +0.157 C 
ATOM     15  O   UNL     1       2.217   3.446  -5.873  0.00  0.00    -0.295 OA
BRANCH  14  17
ATOM     16  C   UNL     1       4.808   4.003  -4.418  0.00  0.00    +0.008 C 
ATOM     17  C   UNL     1       3.823   4.226  -4.300  0.00  0.00    +0.065 C 
ENDBRANCH  14  17
ENDBRANCH   1  14
BRANCH   1  18
ATOM     18  C   UNL     1       0.850   5.646  -4.921  0.00  0.00    +0.031 C 
BRANCH  18  19
ATOM     19  C   UNL     1      -0.175   6.683  -5.721  0.00  0.00    +0.059 C 
ATOM     20  C   UNL     1      -1.029   5.411  -6.387  0.00  0.00    +0.017 C 
BRANCH  19  21
ATOM     21  N   UNL     1      -1.171   6.763  -4.471  0.00  0.00    -0.272 NA
ATOM     22  C   UNL     1      -1.702   8.102  -4.605  0.00  0.00    +0.090 C 
ATOM     23  C   UNL     1      -2.179   5.779  -4.705  0.00  0.00    +0.090 C 
ENDBRANCH  19  21
ENDBRANCH  18  19
ENDBRANCH   1  18
TORSDOF 7
ENDMDL
