MODEL 1
REMARK VINA RESULT:     -10.0      0.000      0.000
REMARK  Name = 
REMARK  6 active torsions:
REMARK  status: ('A' for Active; 'I' for Inactive)
REMARK    1  A    between atoms: C_2  and  O_3
REMARK    2  A    between atoms: O_3  and  C_4
REMARK    3  A    between atoms: N_6  and  C_7
REMARK    4  A    between atoms: C_20  and  C_21
REMARK    5  A    between atoms: C_22  and  C_23
REMARK    6  A    between atoms: C_26  and  C_27
REMARK                            x       y       z     vdW  Elec       q    Type
REMARK                         _______ _______ _______ _____ _____    ______ ____
ROOT
ATOM      1  C   UNL     1       1.706   5.567 -10.692  0.00  0.00    +0.099 C 
ATOM      2  C   UNL     1       1.919   4.259  -9.764  0.00  0.00    +0.022 C 
ATOM      3  C   UNL     1       2.004   4.284  -8.172  0.00  0.00    +0.003 C 
ATOM      4  C   UNL     1       3.377   5.175  -8.006  0.00  0.00    +0.011 C 
ATOM      5  C   UNL     1       3.449   5.399  -6.376  0.00  0.00    +0.103 C 
ATOM      6  C   UNL     1       2.184   4.401  -5.850  0.00  0.00    +0.055 C 
ATOM      7  C   UNL     1       0.680   4.908  -6.452  0.00  0.00    +0.026 C 
ATOM      8  C   UNL     1       2.125   5.307  -4.384  0.00  0.00    +0.170 C 
ATOM      9  C   UNL     1       3.651   4.764  -3.987  0.00  0.00    +0.047 C 
ATOM     10  O   UNL     1       2.696   6.617  -4.954  0.00  0.00    -0.452 OA
ATOM     11  C   UNL     1       2.580   6.765  -6.240  0.00  0.00    +0.316 C 
ATOM     12  O   UNL     1       3.244   7.694  -6.795  0.00  0.00    -0.250 OA
ATOM     13  C   UNL     1       1.220   5.772  -7.805  0.00  0.00    +0.004 C 
ATOM     14  C   UNL     1       0.005   5.460  -8.821  0.00  0.00    +0.002 C 
ATOM     15  C   UNL     1       0.778   6.499  -9.652  0.00  0.00    +0.022 C 
ENDROOT
BRANCH   1  17
ATOM     16  C   UNL     1       4.062   5.880 -11.311  0.00  0.00    +0.421 C 
ATOM     17  N   UNL     1       3.126   6.220 -10.275  0.00  0.00    -0.170 NA
ATOM     18  O   UNL     1       3.707   5.781 -12.525  0.00  0.00    -0.225 OA
BRANCH  16  19
ATOM     19  O   UNL     1       5.411   5.644 -11.134  0.00  0.00    -0.434 OA
BRANCH  19  21
ATOM     20  C   UNL     1       7.099   5.852  -9.422  0.00  0.00    +0.051 C 
ATOM     21  C   UNL     1       6.291   6.502 -10.419  0.00  0.00    +0.210 C 
ENDBRANCH  19  21
ENDBRANCH  16  19
ENDBRANCH   1  17
BRANCH   7  22
ATOM     22  C   UNL     1       0.348   6.152  -5.465  0.00  0.00    -0.025 C 
ATOM     23  C   UNL     1      -0.979   6.218  -5.448  0.00  0.00    +0.015 C 
BRANCH  23  24
ATOM     24  C   UNL     1      -1.901   6.455  -4.388  0.00  0.00    +0.081 A 
ATOM     25  N   UNL     1      -2.202   7.644  -3.820  0.00  0.00    -0.244 NA
ATOM     26  C   UNL     1      -2.184   7.892  -2.512  0.00  0.00    +0.099 A 
ATOM     27  C   UNL     1      -2.184   6.864  -1.610  0.00  0.00    +0.019 A 
ATOM     28  C   UNL     1      -2.331   5.593  -2.152  0.00  0.00    +0.003 A 
ATOM     29  C   UNL     1      -2.149   5.388  -3.521  0.00  0.00    +0.019 A 
BRANCH  27  30
ATOM     30  C   UNL     1      -1.592   7.107  -0.292  0.00  0.00    +0.004 A 
ATOM     31  C   UNL     1      -0.239   6.909  -0.036  0.00  0.00    +0.030 A 
ATOM     32  C   UNL     1       0.400   7.694   0.913  0.00  0.00    +0.140 A 
ATOM     33  F   UNL     1       1.752   7.716   1.063  0.00  0.00    -0.204 F 
ATOM     34  C   UNL     1      -0.316   8.677   1.581  0.00  0.00    +0.030 A 
ATOM     35  C   UNL     1      -1.683   8.519   1.650  0.00  0.00    +0.002 A 
ATOM     36  C   UNL     1      -2.318   7.707   0.730  0.00  0.00    +0.000 A 
ENDBRANCH  27  30
ENDBRANCH  23  24
ENDBRANCH   7  22
TORSDOF 6
ENDMDL
MODEL 2
REMARK VINA RESULT:      -9.8      4.090     10.800
REMARK  Name = 
REMARK  6 active torsions:
REMARK  status: ('A' for Active; 'I' for Inactive)
REMARK    1  A    between atoms: C_2  and  O_3
REMARK    2  A    between atoms: O_3  and  C_4
REMARK    3  A    between atoms: N_6  and  C_7
REMARK    4  A    between atoms: C_20  and  C_21
REMARK    5  A    between atoms: C_22  and  C_23
REMARK    6  A    between atoms: C_26  and  C_27
REMARK                            x       y       z     vdW  Elec       q    Type
REMARK                         _______ _______ _______ _____ _____    ______ ____
ROOT
ATOM      1  C   UNL     1       2.754   5.520  -4.437  0.00  0.00    +0.099 C 
ATOM      2  C   UNL     1       2.492   4.261  -5.419  0.00  0.00    +0.022 C 
ATOM      3  C   UNL     1       2.457   4.347  -7.010  0.00  0.00    +0.003 C 
ATOM      4  C   UNL     1       1.144   5.324  -7.181  0.00  0.00    +0.011 C 
ATOM      5  C   UNL     1       1.134   5.610  -8.803  0.00  0.00    +0.103 C 
ATOM      6  C   UNL     1       2.353   4.557  -9.331  0.00  0.00    +0.055 C 
ATOM      7  C   UNL     1       3.865   4.951  -8.669  0.00  0.00    +0.026 C 
ATOM      8  C   UNL     1       2.508   5.509 -10.759  0.00  0.00    +0.170 C 
ATOM      9  C   UNL     1       0.965   5.073 -11.218  0.00  0.00    +0.047 C 
ATOM     10  O   UNL     1       1.999   6.830 -10.157  0.00  0.00    -0.452 OA
ATOM     11  C   UNL     1       2.085   6.926  -8.863  0.00  0.00    +0.316 C 
ATOM     12  O   UNL     1       1.462   7.872  -8.293  0.00  0.00    -0.250 OA
ATOM     13  C   UNL     1       3.337   5.797  -7.299  0.00  0.00    +0.004 C 
ATOM     14  C   UNL     1       4.500   5.376  -6.263  0.00  0.00    +0.002 C 
ATOM     15  C   UNL     1       3.767   6.430  -5.415  0.00  0.00    +0.022 C 
ENDROOT
BRANCH   1  17
ATOM     16  C   UNL     1       0.411   5.973  -3.857  0.00  0.00    +0.421 C 
ATOM     17  N   UNL     1       1.388   6.271  -4.868  0.00  0.00    -0.170 NA
ATOM     18  O   UNL     1       0.734   5.828  -2.639  0.00  0.00    -0.225 OA
BRANCH  16  19
ATOM     19  O   UNL     1      -0.946   5.828  -4.066  0.00  0.00    -0.434 OA
BRANCH  19  21
ATOM     20  C   UNL     1      -2.319   5.783  -6.051  0.00  0.00    +0.051 C 
ATOM     21  C   UNL     1      -1.697   6.570  -5.019  0.00  0.00    +0.210 C 
ENDBRANCH  19  21
ENDBRANCH  16  19
ENDBRANCH   1  17
BRANCH   7  22
ATOM     22  C   UNL     1       4.299   6.207  -9.599  0.00  0.00    -0.025 C 
ATOM     23  C   UNL     1       5.628   6.181  -9.595  0.00  0.00    +0.015 C 
BRANCH  23  24
ATOM     24  C   UNL     1       6.582   6.394 -10.631  0.00  0.00    +0.081 A 
ATOM     25  N   UNL     1       6.820   7.548 -11.295  0.00  0.00    -0.244 NA
ATOM     26  C   UNL     1       6.849   7.674 -12.619  0.00  0.00    +0.099 A 
ATOM     27  C   UNL     1       6.974   6.571 -13.419  0.00  0.00    +0.019 A 
ATOM     28  C   UNL     1       7.191   5.372 -12.755  0.00  0.00    +0.003 A 
ATOM     29  C   UNL     1       6.955   5.277 -11.381  0.00  0.00    +0.019 A 
BRANCH  27  30
ATOM     30  C   UNL     1       6.433   6.645 -14.779  0.00  0.00    +0.004 A 
ATOM     31  C   UNL     1       5.067   6.650 -15.037  0.00  0.00    +0.030 A 
ATOM     32  C   UNL     1       4.582   7.329 -16.146  0.00  0.00    +0.140 A 
ATOM     33  F   UNL     1       3.256   7.567 -16.344  0.00  0.00    -0.204 F 
ATOM     34  C   UNL     1       5.466   8.008 -16.973  0.00  0.00    +0.030 A 
ATOM     35  C   UNL     1       6.779   7.591 -16.961  0.00  0.00    +0.002 A 
ATOM     36  C   UNL     1       7.255   6.882 -15.875  0.00  0.00    +0.000 A 
ENDBRANCH  27  30
ENDBRANCH  23  24
ENDBRANCH   7  22
TORSDOF 6
ENDMDL
MODEL 3
REMARK VINA RESULT:      -9.2      4.012      9.773
REMARK  Name = 
REMARK  6 active torsions:
REMARK  status: ('A' for Active; 'I' for Inactive)
REMARK    1  A    between atoms: C_2  and  O_3
REMARK    2  A    between atoms: O_3  and  C_4
REMARK    3  A    between atoms: N_6  and  C_7
REMARK    4  A    between atoms: C_20  and  C_21
REMARK    5  A    between atoms: C_22  and  C_23
REMARK    6  A    between atoms: C_26  and  C_27
REMARK                            x       y       z     vdW  Elec       q    Type
REMARK                         _______ _______ _______ _____ _____    ______ ____
ROOT
ATOM      1  C   UNL     1      -0.982   6.071  -3.959  0.00  0.00    +0.099 C 
ATOM      2  C   UNL     1       0.093   7.174  -4.454  0.00  0.00    +0.022 C 
ATOM      3  C   UNL     1       1.105   6.969  -5.669  0.00  0.00    +0.003 C 
ATOM      4  C   UNL     1       1.993   5.729  -5.052  0.00  0.00    +0.011 C 
ATOM      5  C   UNL     1       2.963   5.332  -6.322  0.00  0.00    +0.103 C 
ATOM      6  C   UNL     1       2.602   6.576  -7.414  0.00  0.00    +0.055 C 
ATOM      7  C   UNL     1       0.971   6.556  -7.885  0.00  0.00    +0.026 C 
ATOM      8  C   UNL     1       3.189   5.579  -8.691  0.00  0.00    +0.170 C 
ATOM      9  C   UNL     1       4.723   5.647  -8.041  0.00  0.00    +0.047 C 
ATOM     10  O   UNL     1       2.916   4.227  -8.009  0.00  0.00    -0.452 OA
ATOM     11  C   UNL     1       2.017   4.244  -7.070  0.00  0.00    +0.316 C 
ATOM     12  O   UNL     1       1.928   3.231  -6.312  0.00  0.00    -0.250 OA
ATOM     13  C   UNL     1       0.328   5.719  -6.560  0.00  0.00    +0.004 C 
ATOM     14  C   UNL     1      -1.109   6.447  -6.458  0.00  0.00    +0.002 C 
ATOM     15  C   UNL     1      -1.312   5.326  -5.424  0.00  0.00    +0.022 C 
ENDROOT
BRANCH   1  17
ATOM     16  C   UNL     1       0.099   4.955  -2.058  0.00  0.00    +0.421 C 
ATOM     17  N   UNL     1       0.156   5.022  -3.492  0.00  0.00    -0.170 NA
ATOM     18  O   UNL     1      -0.995   5.073  -1.427  0.00  0.00    -0.225 OA
BRANCH  16  19
ATOM     19  O   UNL     1       1.174   4.748  -1.217  0.00  0.00    -0.434 OA
BRANCH  19  21
ATOM     20  C   UNL     1       3.568   4.712  -1.525  0.00  0.00    +0.051 C 
ATOM     21  C   UNL     1       2.387   5.491  -1.263  0.00  0.00    +0.210 C 
ENDBRANCH  19  21
ENDBRANCH  16  19
ENDBRANCH   1  17
BRANCH   7  22
ATOM     22  C   UNL     1       0.973   5.356  -8.976  0.00  0.00    -0.025 C 
ATOM     23  C   UNL     1       0.156   5.777  -9.936  0.00  0.00    +0.015 C 
BRANCH  23  24
ATOM     24  C   UNL     1       0.243   5.697 -11.355  0.00  0.00    +0.081 A 
ATOM     25  N   UNL     1       0.557   4.608 -12.092  0.00  0.00    -0.244 NA
ATOM     26  C   UNL     1       1.492   4.570 -13.039  0.00  0.00    +0.099 A 
ATOM     27  C   UNL     1       1.982   5.728 -13.576  0.00  0.00    +0.019 A 
ATOM     28  C   UNL     1       1.353   6.894 -13.161  0.00  0.00    +0.003 A 
ATOM     29  C   UNL     1       0.525   6.883 -12.036  0.00  0.00    +0.019 A 
BRANCH  27  30
ATOM     30  C   UNL     1       3.338   5.707 -14.133  0.00  0.00    +0.004 A 
ATOM     31  C   UNL     1       3.717   6.516 -15.198  0.00  0.00    +0.030 A 
ATOM     32  C   UNL     1       5.030   6.958 -15.289  0.00  0.00    +0.140 A 
ATOM     33  F   UNL     1       5.425   7.920 -16.166  0.00  0.00    -0.204 F 
ATOM     34  C   UNL     1       5.941   6.598 -14.306  0.00  0.00    +0.030 A 
ATOM     35  C   UNL     1       5.663   5.461 -13.580  0.00  0.00    +0.002 A 
ATOM     36  C   UNL     1       4.363   4.997 -13.519  0.00  0.00    +0.000 A 
ENDBRANCH  27  30
ENDBRANCH  23  24
ENDBRANCH   7  22
TORSDOF 6
ENDMDL
MODEL 4
REMARK VINA RESULT:      -9.1      2.340      4.370
REMARK  Name = 
REMARK  6 active torsions:
REMARK  status: ('A' for Active; 'I' for Inactive)
REMARK    1  A    between atoms: C_2  and  O_3
REMARK    2  A    between atoms: O_3  and  C_4
REMARK    3  A    between atoms: N_6  and  C_7
REMARK    4  A    between atoms: C_20  and  C_21
REMARK    5  A    between atoms: C_22  and  C_23
REMARK    6  A    between atoms: C_26  and  C_27
REMARK                            x       y       z     vdW  Elec       q    Type
REMARK                         _______ _______ _______ _____ _____    ______ ____
ROOT
ATOM      1  C   UNL     1       5.694   6.008 -11.141  0.00  0.00    +0.099 C 
ATOM      2  C   UNL     1       4.641   7.149 -10.688  0.00  0.00    +0.022 C 
ATOM      3  C   UNL     1       3.609   7.000  -9.481  0.00  0.00    +0.003 C 
ATOM      4  C   UNL     1       2.697   5.768 -10.079  0.00  0.00    +0.011 C 
ATOM      5  C   UNL     1       1.701   5.428  -8.813  0.00  0.00    +0.103 C 
ATOM      6  C   UNL     1       2.080   6.690  -7.747  0.00  0.00    +0.055 C 
ATOM      7  C   UNL     1       3.704   6.640  -7.254  0.00  0.00    +0.026 C 
ATOM      8  C   UNL     1       1.452   5.740  -6.453  0.00  0.00    +0.170 C 
ATOM      9  C   UNL     1      -0.071   5.831  -7.126  0.00  0.00    +0.047 C 
ATOM     10  O   UNL     1       1.698   4.365  -7.098  0.00  0.00    -0.452 OA
ATOM     11  C   UNL     1       2.610   4.336  -8.025  0.00  0.00    +0.316 C 
ATOM     12  O   UNL     1       2.682   3.302  -8.757  0.00  0.00    -0.250 OA
ATOM     13  C   UNL     1       4.342   5.754  -8.549  0.00  0.00    +0.004 C 
ATOM     14  C   UNL     1       5.798   6.443  -8.650  0.00  0.00    +0.002 C 
ATOM     15  C   UNL     1       5.985   5.292  -9.653  0.00  0.00    +0.022 C 
ENDROOT
BRANCH   1  17
ATOM     16  C   UNL     1       4.613   4.865 -13.027  0.00  0.00    +0.421 C 
ATOM     17  N   UNL     1       4.535   4.976 -11.596  0.00  0.00    -0.170 NA
ATOM     18  O   UNL     1       5.719   4.936 -13.642  0.00  0.00    -0.225 OA
BRANCH  16  19
ATOM     19  O   UNL     1       3.546   4.663 -13.880  0.00  0.00    -0.434 OA
BRANCH  19  21
ATOM     20  C   UNL     1       1.132   4.685 -13.875  0.00  0.00    +0.051 C 
ATOM     21  C   UNL     1       2.356   5.442 -13.878  0.00  0.00    +0.210 C 
ENDBRANCH  19  21
ENDBRANCH  16  19
ENDBRANCH   1  17
BRANCH   7  22
ATOM     22  C   UNL     1       3.658   5.469  -6.133  0.00  0.00    -0.025 C 
ATOM     23  C   UNL     1       4.546   5.847  -5.220  0.00  0.00    +0.015 C 
BRANCH  23  24
ATOM     24  C   UNL     1       4.515   5.805  -3.796  0.00  0.00    +0.081 A 
ATOM     25  N   UNL     1       4.185   4.749  -3.019  0.00  0.00    -0.244 NA
ATOM     26  C   UNL     1       3.290   4.775  -2.035  0.00  0.00    +0.099 A 
ATOM     27  C   UNL     1       2.872   5.967  -1.508  0.00  0.00    +0.019 A 
ATOM     28  C   UNL     1       3.533   7.093  -1.979  0.00  0.00    +0.003 A 
ATOM     29  C   UNL     1       4.312   7.018  -3.136  0.00  0.00    +0.019 A 
BRANCH  27  30
ATOM     30  C   UNL     1       1.541   6.018  -0.897  0.00  0.00    +0.004 A 
ATOM     31  C   UNL     1       1.182   7.001   0.019  0.00  0.00    +0.030 A 
ATOM     32  C   UNL     1      -0.139   7.423   0.087  0.00  0.00    +0.140 A 
ATOM     33  F   UNL     1      -0.527   8.522   0.790  0.00  0.00    -0.204 F 
ATOM     34  C   UNL     1      -1.078   6.870  -0.772  0.00  0.00    +0.030 A 
ATOM     35  C   UNL     1      -0.796   5.626  -1.290  0.00  0.00    +0.002 A 
ATOM     36  C   UNL     1       0.513   5.187  -1.325  0.00  0.00    +0.000 A 
ENDBRANCH  27  30
ENDBRANCH  23  24
ENDBRANCH   7  22
TORSDOF 6
ENDMDL
MODEL 5
REMARK VINA RESULT:      -9.1      2.283      4.082
REMARK  Name = 
REMARK  6 active torsions:
REMARK  status: ('A' for Active; 'I' for Inactive)
REMARK    1  A    between atoms: C_2  and  O_3
REMARK    2  A    between atoms: O_3  and  C_4
REMARK    3  A    between atoms: N_6  and  C_7
REMARK    4  A    between atoms: C_20  and  C_21
REMARK    5  A    between atoms: C_22  and  C_23
REMARK    6  A    between atoms: C_26  and  C_27
REMARK                            x       y       z     vdW  Elec       q    Type
REMARK                         _______ _______ _______ _____ _____    ______ ____
ROOT
ATOM      1  C   UNL     1       3.873   6.226  -8.622  0.00  0.00    +0.099 C 
ATOM      2  C   UNL     1       2.800   7.387  -8.280  0.00  0.00    +0.022 C 
ATOM      3  C   UNL     1       1.753   7.325  -7.079  0.00  0.00    +0.003 C 
ATOM      4  C   UNL     1       0.865   6.035  -7.584  0.00  0.00    +0.011 C 
ATOM      5  C   UNL     1      -0.145   5.788  -6.307  0.00  0.00    +0.103 C 
ATOM      6  C   UNL     1       0.204   7.140  -5.346  0.00  0.00    +0.055 C 
ATOM      7  C   UNL     1       1.820   7.153  -4.828  0.00  0.00    +0.026 C 
ATOM      8  C   UNL     1      -0.432   6.292  -3.985  0.00  0.00    +0.170 C 
ATOM      9  C   UNL     1      -1.946   6.307  -4.683  0.00  0.00    +0.047 C 
ATOM     10  O   UNL     1      -0.159   4.872  -4.510  0.00  0.00    -0.452 OA
ATOM     11  C   UNL     1       0.765   4.778  -5.419  0.00  0.00    +0.316 C 
ATOM     12  O   UNL     1       0.861   3.688  -6.062  0.00  0.00    -0.250 OA
ATOM     13  C   UNL     1       2.488   6.170  -6.036  0.00  0.00    +0.004 C 
ATOM     14  C   UNL     1       3.937   6.867  -6.175  0.00  0.00    +0.002 C 
ATOM     15  C   UNL     1       4.152   5.640  -7.076  0.00  0.00    +0.022 C 
ENDROOT
BRANCH   1  17
ATOM     16  C   UNL     1       2.449   5.316 -10.404  0.00  0.00    +0.421 C 
ATOM     17  N   UNL     1       2.733   5.144  -9.006  0.00  0.00    -0.170 NA
ATOM     18  O   UNL     1       3.348   5.656 -11.231  0.00  0.00    -0.225 OA
BRANCH  16  19
ATOM     19  O   UNL     1       1.221   5.128 -11.006  0.00  0.00    -0.434 OA
BRANCH  19  21
ATOM     20  C   UNL     1      -0.187   7.075 -11.237  0.00  0.00    +0.051 C 
ATOM     21  C   UNL     1       0.604   6.062 -11.884  0.00  0.00    +0.210 C 
ENDBRANCH  19  21
ENDBRANCH  16  19
ENDBRANCH   1  17
BRANCH   7  22
ATOM     22  C   UNL     1       1.773   6.078  -3.615  0.00  0.00    -0.025 C 
ATOM     23  C   UNL     1       2.511   6.626  -2.655  0.00  0.00    +0.015 C 
BRANCH  23  24
ATOM     24  C   UNL     1       2.328   6.696  -1.244  0.00  0.00    +0.081 A 
ATOM     25  N   UNL     1       1.304   6.177  -0.529  0.00  0.00    -0.244 NA
ATOM     26  C   UNL     1       0.572   6.852   0.355  0.00  0.00    +0.099 A 
ATOM     27  C   UNL     1       1.016   8.044   0.859  0.00  0.00    +0.019 A 
ATOM     28  C   UNL     1       2.302   8.410   0.484  0.00  0.00    +0.003 A 
ATOM     29  C   UNL     1       2.931   7.768  -0.584  0.00  0.00    +0.019 A 
BRANCH  27  30
ATOM     30  C   UNL     1       0.015   9.007   1.325  0.00  0.00    +0.004 A 
ATOM     31  C   UNL     1      -1.351   8.790   1.178  0.00  0.00    +0.030 A 
ATOM     32  C   UNL     1      -2.232   9.310   2.116  0.00  0.00    +0.140 A 
ATOM     33  F   UNL     1      -3.546   8.962   2.167  0.00  0.00    -0.204 F 
ATOM     34  C   UNL     1      -1.735  10.025   3.197  0.00  0.00    +0.030 A 
ATOM     35  C   UNL     1      -0.493  10.602   3.049  0.00  0.00    +0.002 A 
ATOM     36  C   UNL     1       0.372  10.111   2.090  0.00  0.00    +0.000 A 
ENDBRANCH  27  30
ENDBRANCH  23  24
ENDBRANCH   7  22
TORSDOF 6
ENDMDL
MODEL 6
REMARK VINA RESULT:      -9.0      3.177      4.918
REMARK  Name = 
REMARK  6 active torsions:
REMARK  status: ('A' for Active; 'I' for Inactive)
REMARK    1  A    between atoms: C_2  and  O_3
REMARK    2  A    between atoms: O_3  and  C_4
REMARK    3  A    between atoms: N_6  and  C_7
REMARK    4  A    between atoms: C_20  and  C_21
REMARK    5  A    between atoms: C_22  and  C_23
REMARK    6  A    between atoms: C_26  and  C_27
REMARK                            x       y       z     vdW  Elec       q    Type
REMARK                         _______ _______ _______ _____ _____    ______ ____
ROOT
ATOM      1  C   UNL     1       3.865   6.287  -8.695  0.00  0.00    +0.099 C 
ATOM      2  C   UNL     1       2.786   7.437  -8.332  0.00  0.00    +0.022 C 
ATOM      3  C   UNL     1       1.757   7.360  -7.117  0.00  0.00    +0.003 C 
ATOM      4  C   UNL     1       0.874   6.064  -7.615  0.00  0.00    +0.011 C 
ATOM      5  C   UNL     1      -0.116   5.802  -6.325  0.00  0.00    +0.103 C 
ATOM      6  C   UNL     1       0.234   7.152  -5.362  0.00  0.00    +0.055 C 
ATOM      7  C   UNL     1       1.858   7.179  -4.868  0.00  0.00    +0.026 C 
ATOM      8  C   UNL     1      -0.374   6.293  -3.997  0.00  0.00    +0.170 C 
ATOM      9  C   UNL     1      -1.899   6.297  -4.673  0.00  0.00    +0.047 C 
ATOM     10  O   UNL     1      -0.096   4.878  -4.532  0.00  0.00    -0.452 OA
ATOM     11  C   UNL     1       0.816   4.796  -5.454  0.00  0.00    +0.316 C 
ATOM     12  O   UNL     1       0.912   3.710  -6.103  0.00  0.00    -0.250 OA
ATOM     13  C   UNL     1       2.517   6.208  -6.090  0.00  0.00    +0.004 C 
ATOM     14  C   UNL     1       3.957   6.919  -6.246  0.00  0.00    +0.002 C 
ATOM     15  C   UNL     1       4.171   5.697  -7.156  0.00  0.00    +0.022 C 
ENDROOT
BRANCH   1  17
ATOM     16  C   UNL     1       2.487   5.312 -10.479  0.00  0.00    +0.421 C 
ATOM     17  N   UNL     1       2.730   5.197  -9.067  0.00  0.00    -0.170 NA
ATOM     18  O   UNL     1       3.413   5.613 -11.292  0.00  0.00    -0.225 OA
BRANCH  16  19
ATOM     19  O   UNL     1       1.276   5.106 -11.108  0.00  0.00    -0.434 OA
BRANCH  19  21
ATOM     20  C   UNL     1      -0.226   6.995 -11.153  0.00  0.00    +0.051 C 
ATOM     21  C   UNL     1       0.602   6.081 -11.894  0.00  0.00    +0.210 C 
ENDBRANCH  19  21
ENDBRANCH  16  19
ENDBRANCH   1  17
BRANCH   7  22
ATOM     22  C   UNL     1       1.837   6.098  -3.659  0.00  0.00    -0.025 C 
ATOM     23  C   UNL     1       2.905   6.397  -2.927  0.00  0.00    +0.015 C 
BRANCH  23  24
ATOM     24  C   UNL     1       3.101   6.448  -1.517  0.00  0.00    +0.081 A 
ATOM     25  N   UNL     1       2.208   6.846  -0.583  0.00  0.00    -0.244 NA
ATOM     26  C   UNL     1       2.445   7.751   0.364  0.00  0.00    +0.099 A 
ATOM     27  C   UNL     1       3.727   8.108   0.678  0.00  0.00    +0.019 A 
ATOM     28  C   UNL     1       4.724   7.378   0.042  0.00  0.00    +0.003 A 
ATOM     29  C   UNL     1       4.417   6.591  -1.070  0.00  0.00    +0.019 A 
BRANCH  27  30
ATOM     30  C   UNL     1       3.950   9.441   1.243  0.00  0.00    +0.004 A 
ATOM     31  C   UNL     1       4.937   9.691   2.191  0.00  0.00    +0.030 A 
ATOM     32  C   UNL     1       5.547  10.937   2.231  0.00  0.00    +0.140 A 
ATOM     33  F   UNL     1       6.661  11.190   2.971  0.00  0.00    -0.204 F 
ATOM     34  C   UNL     1       5.175  11.911   1.315  0.00  0.00    +0.030 A 
ATOM     35  C   UNL     1       3.925  11.792   0.748  0.00  0.00    +0.002 A 
ATOM     36  C   UNL     1       3.298  10.561   0.740  0.00  0.00    +0.000 A 
ENDBRANCH  27  30
ENDBRANCH  23  24
ENDBRANCH   7  22
TORSDOF 6
ENDMDL
MODEL 7
REMARK VINA RESULT:      -9.0      4.335     10.003
REMARK  Name = 
REMARK  6 active torsions:
REMARK  status: ('A' for Active; 'I' for Inactive)
REMARK    1  A    between atoms: C_2  and  O_3
REMARK    2  A    between atoms: O_3  and  C_4
REMARK    3  A    between atoms: N_6  and  C_7
REMARK    4  A    between atoms: C_20  and  C_21
REMARK    5  A    between atoms: C_22  and  C_23
REMARK    6  A    between atoms: C_26  and  C_27
REMARK                            x       y       z     vdW  Elec       q    Type
REMARK                         _______ _______ _______ _____ _____    ______ ____
ROOT
ATOM      1  C   UNL     1      -1.999   6.017  -4.469  0.00  0.00    +0.099 C 
ATOM      2  C   UNL     1      -0.990   7.239  -4.792  0.00  0.00    +0.022 C 
ATOM      3  C   UNL     1       0.335   7.112  -5.670  0.00  0.00    +0.003 C 
ATOM      4  C   UNL     1       1.180   6.082  -4.704  0.00  0.00    +0.011 C 
ATOM      5  C   UNL     1       2.506   5.755  -5.624  0.00  0.00    +0.103 C 
ATOM      6  C   UNL     1       2.292   6.839  -6.909  0.00  0.00    +0.055 C 
ATOM      7  C   UNL     1       0.872   6.519  -7.782  0.00  0.00    +0.026 C 
ATOM      8  C   UNL     1       3.338   5.857  -7.866  0.00  0.00    +0.170 C 
ATOM      9  C   UNL     1       4.610   6.223  -6.852  0.00  0.00    +0.047 C 
ATOM     10  O   UNL     1       3.076   4.534  -7.126  0.00  0.00    -0.452 OA
ATOM     11  C   UNL     1       1.960   4.475  -6.462  0.00  0.00    +0.316 C 
ATOM     12  O   UNL     1       1.805   3.520  -5.640  0.00  0.00    -0.250 OA
ATOM     13  C   UNL     1       0.011   5.689  -6.582  0.00  0.00    +0.004 C 
ATOM     14  C   UNL     1      -1.484   6.179  -6.942  0.00  0.00    +0.002 C 
ATOM     15  C   UNL     1      -1.808   5.121  -5.873  0.00  0.00    +0.022 C 
ENDROOT
BRANCH   1  17
ATOM     16  C   UNL     1      -1.386   5.154  -2.253  0.00  0.00    +0.421 C 
ATOM     17  N   UNL     1      -0.899   5.204  -3.604  0.00  0.00    -0.170 NA
ATOM     18  O   UNL     1      -2.625   5.080  -1.992  0.00  0.00    -0.225 OA
BRANCH  16  19
ATOM     19  O   UNL     1      -0.605   5.164  -1.114  0.00  0.00    -0.434 OA
BRANCH  19  21
ATOM     20  C   UNL     1       1.802   4.984  -1.148  0.00  0.00    +0.051 C 
ATOM     21  C   UNL     1       0.647   5.830  -1.004  0.00  0.00    +0.210 C 
ENDBRANCH  19  21
ENDBRANCH  16  19
ENDBRANCH   1  17
BRANCH   7  22
ATOM     22  C   UNL     1       1.337   5.256  -8.689  0.00  0.00    -0.025 C 
ATOM     23  C   UNL     1       0.737   5.448  -9.859  0.00  0.00    +0.015 C 
BRANCH  23  24
ATOM     24  C   UNL     1       1.194   5.274 -11.197  0.00  0.00    +0.081 A 
ATOM     25  N   UNL     1       2.163   5.977 -11.824  0.00  0.00    -0.244 NA
ATOM     26  C   UNL     1       2.034   6.563 -13.013  0.00  0.00    +0.099 A 
ATOM     27  C   UNL     1       1.010   6.215 -13.850  0.00  0.00    +0.019 A 
ATOM     28  C   UNL     1       0.227   5.149 -13.427  0.00  0.00    +0.003 A 
ATOM     29  C   UNL     1       0.290   4.714 -12.102  0.00  0.00    +0.019 A 
BRANCH  27  30
ATOM     30  C   UNL     1       0.546   7.213 -14.819  0.00  0.00    +0.004 A 
ATOM     31  C   UNL     1       0.852   8.564 -14.699  0.00  0.00    +0.030 A 
ATOM     32  C   UNL     1       0.983   9.340 -15.843  0.00  0.00    +0.140 A 
ATOM     33  F   UNL     1       1.493  10.601 -15.824  0.00  0.00    -0.204 F 
ATOM     34  C   UNL     1       0.821   8.752 -17.090  0.00  0.00    +0.030 A 
ATOM     35  C   UNL     1       0.077   7.594 -17.144  0.00  0.00    +0.002 A 
ATOM     36  C   UNL     1      -0.086   6.839 -15.999  0.00  0.00    +0.000 A 
ENDBRANCH  27  30
ENDBRANCH  23  24
ENDBRANCH   7  22
TORSDOF 6
ENDMDL
MODEL 8
REMARK VINA RESULT:      -8.5      3.870      9.983
REMARK  Name = 
REMARK  6 active torsions:
REMARK  status: ('A' for Active; 'I' for Inactive)
REMARK    1  A    between atoms: C_2  and  O_3
REMARK    2  A    between atoms: O_3  and  C_4
REMARK    3  A    between atoms: N_6  and  C_7
REMARK    4  A    between atoms: C_20  and  C_21
REMARK    5  A    between atoms: C_22  and  C_23
REMARK    6  A    between atoms: C_26  and  C_27
REMARK                            x       y       z     vdW  Elec       q    Type
REMARK                         _______ _______ _______ _____ _____    ______ ____
ROOT
ATOM      1  C   UNL     1       1.585   6.313  -0.751  0.00  0.00    +0.099 C 
ATOM      2  C   UNL     1       0.926   4.972  -1.371  0.00  0.00    +0.022 C 
ATOM      3  C   UNL     1       0.191   4.895  -2.784  0.00  0.00    +0.003 C 
ATOM      4  C   UNL     1      -1.070   5.904  -2.468  0.00  0.00    +0.011 C 
ATOM      5  C   UNL     1      -1.797   6.021  -3.941  0.00  0.00    +0.103 C 
ATOM      6  C   UNL     1      -0.929   4.869  -4.830  0.00  0.00    +0.055 C 
ATOM      7  C   UNL     1       0.717   5.265  -4.949  0.00  0.00    +0.026 C 
ATOM      8  C   UNL     1      -1.427   5.661  -6.277  0.00  0.00    +0.170 C 
ATOM      9  C   UNL     1      -3.011   5.246  -5.960  0.00  0.00    +0.047 C 
ATOM     10  O   UNL     1      -1.628   7.057  -5.664  0.00  0.00    -0.452 OA
ATOM     11  C   UNL     1      -0.980   7.282  -4.559  0.00  0.00    +0.316 C 
ATOM     12  O   UNL     1      -1.295   8.308  -3.882  0.00  0.00    -0.250 OA
ATOM     13  C   UNL     1       0.842   6.269  -3.590  0.00  0.00    +0.004 C 
ATOM     14  C   UNL     1       2.347   5.908  -3.131  0.00  0.00    +0.002 C 
ATOM     15  C   UNL     1       2.055   7.074  -2.170  0.00  0.00    +0.022 C 
ENDROOT
BRANCH   1  17
ATOM     16  C   UNL     1      -0.221   7.002   0.764  0.00  0.00    +0.421 C 
ATOM     17  N   UNL     1       0.163   7.073  -0.619  0.00  0.00    -0.170 NA
ATOM     18  O   UNL     1       0.638   7.030   1.697  0.00  0.00    -0.225 OA
BRANCH  16  19
ATOM     19  O   UNL     1      -1.515   6.913   1.238  0.00  0.00    -0.434 OA
BRANCH  19  21
ATOM     20  C   UNL     1      -1.851   9.278   1.582  0.00  0.00    +0.051 C 
ATOM     21  C   UNL     1      -2.433   7.998   1.276  0.00  0.00    +0.210 C 
ENDBRANCH  19  21
ENDBRANCH  16  19
ENDBRANCH   1  17
BRANCH   7  22
ATOM     22  C   UNL     1       0.687   6.399  -6.108  0.00  0.00    -0.025 C 
ATOM     23  C   UNL     1       1.810   6.206  -6.792  0.00  0.00    +0.015 C 
BRANCH  23  24
ATOM     24  C   UNL     1       2.084   6.236  -8.189  0.00  0.00    +0.081 A 
ATOM     25  N   UNL     1       2.204   5.175  -9.018  0.00  0.00    -0.244 NA
ATOM     26  C   UNL     1       3.226   4.964  -9.844  0.00  0.00    +0.099 A 
ATOM     27  C   UNL     1       4.082   5.982 -10.165  0.00  0.00    +0.019 A 
ATOM     28  C   UNL     1       3.730   7.234  -9.679  0.00  0.00    +0.003 A 
ATOM     29  C   UNL     1       2.771   7.352  -8.672  0.00  0.00    +0.019 A 
BRANCH  27  30
ATOM     30  C   UNL     1       5.451   5.631 -10.555  0.00  0.00    +0.004 A 
ATOM     31  C   UNL     1       5.796   5.330 -11.867  0.00  0.00    +0.030 A 
ATOM     32  C   UNL     1       7.072   5.627 -12.326  0.00  0.00    +0.140 A 
ATOM     33  F   UNL     1       7.416   5.569 -13.641  0.00  0.00    -0.204 F 
ATOM     34  C   UNL     1       7.980   6.237 -11.471  0.00  0.00    +0.030 A 
ATOM     35  C   UNL     1       7.771   6.078 -10.119  0.00  0.00    +0.002 A 
ATOM     36  C   UNL     1       6.511   5.744  -9.662  0.00  0.00    +0.000 A 
ENDBRANCH  27  30
ENDBRANCH  23  24
ENDBRANCH   7  22
TORSDOF 6
ENDMDL
MODEL 9
REMARK VINA RESULT:      -8.3      2.556      4.326
REMARK  Name = 
REMARK  6 active torsions:
REMARK  status: ('A' for Active; 'I' for Inactive)
REMARK    1  A    between atoms: C_2  and  O_3
REMARK    2  A    between atoms: O_3  and  C_4
REMARK    3  A    between atoms: N_6  and  C_7
REMARK    4  A    between atoms: C_20  and  C_21
REMARK    5  A    between atoms: C_22  and  C_23
REMARK    6  A    between atoms: C_26  and  C_27
REMARK                            x       y       z     vdW  Elec       q    Type
REMARK                         _______ _______ _______ _____ _____    ______ ____
ROOT
ATOM      1  C   UNL     1       3.885   5.455 -10.099  0.00  0.00    +0.099 C 
ATOM      2  C   UNL     1       3.548   6.884  -9.421  0.00  0.00    +0.022 C 
ATOM      3  C   UNL     1       2.792   7.071  -8.030  0.00  0.00    +0.003 C 
ATOM      4  C   UNL     1       1.338   6.422  -8.445  0.00  0.00    +0.011 C 
ATOM      5  C   UNL     1       0.539   6.415  -7.005  0.00  0.00    +0.103 C 
ATOM      6  C   UNL     1       1.623   7.271  -6.022  0.00  0.00    +0.055 C 
ATOM      7  C   UNL     1       3.114   6.474  -5.876  0.00  0.00    +0.026 C 
ATOM      8  C   UNL     1       0.881   6.556  -4.640  0.00  0.00    +0.170 C 
ATOM      9  C   UNL     1      -0.537   7.365  -4.982  0.00  0.00    +0.047 C 
ATOM     10  O   UNL     1       0.371   5.285  -5.342  0.00  0.00    -0.452 OA
ATOM     11  C   UNL     1       0.993   4.962  -6.437  0.00  0.00    +0.316 C 
ATOM     12  O   UNL     1       0.466   4.081  -7.184  0.00  0.00    -0.250 OA
ATOM     13  C   UNL     1       3.049   5.540  -7.288  0.00  0.00    +0.004 C 
ATOM     14  C   UNL     1       4.615   5.539  -7.678  0.00  0.00    +0.002 C 
ATOM     15  C   UNL     1       4.090   4.532  -8.714  0.00  0.00    +0.022 C 
ENDROOT
BRANCH   1  17
ATOM     16  C   UNL     1       1.988   5.478 -11.658  0.00  0.00    +0.421 C 
ATOM     17  N   UNL     1       2.328   5.078 -10.320  0.00  0.00    -0.170 NA
ATOM     18  O   UNL     1       2.827   5.418 -12.606  0.00  0.00    -0.225 OA
BRANCH  16  19
ATOM     19  O   UNL     1       0.756   5.944 -12.071  0.00  0.00    -0.434 OA
BRANCH  19  21
ATOM     20  C   UNL     1      -0.833   7.706 -11.621  0.00  0.00    +0.051 C 
ATOM     21  C   UNL     1       0.422   7.320 -12.211  0.00  0.00    +0.210 C 
ENDBRANCH  19  21
ENDBRANCH  16  19
ENDBRANCH   1  17
BRANCH   7  22
ATOM     22  C   UNL     1       2.755   5.327  -4.787  0.00  0.00    -0.025 C 
ATOM     23  C   UNL     1       3.692   5.448  -3.854  0.00  0.00    +0.015 C 
BRANCH  23  24
ATOM     24  C   UNL     1       3.626   5.383  -2.432  0.00  0.00    +0.081 A 
ATOM     25  N   UNL     1       2.512   5.382  -1.668  0.00  0.00    -0.244 NA
ATOM     26  C   UNL     1       2.293   6.194  -0.636  0.00  0.00    +0.099 A 
ATOM     27  C   UNL     1       3.328   6.874  -0.056  0.00  0.00    +0.019 A 
ATOM     28  C   UNL     1       4.594   6.555  -0.531  0.00  0.00    +0.003 A 
ATOM     29  C   UNL     1       4.738   5.853  -1.729  0.00  0.00    +0.019 A 
BRANCH  27  30
ATOM     30  C   UNL     1       3.026   8.134   0.628  0.00  0.00    +0.004 A 
ATOM     31  C   UNL     1       3.423   9.368   0.123  0.00  0.00    +0.030 A 
ATOM     32  C   UNL     1       2.647  10.491   0.371  0.00  0.00    +0.140 A 
ATOM     33  F   UNL     1       2.844  11.678  -0.264  0.00  0.00    -0.204 F 
ATOM     34  C   UNL     1       1.476  10.365   1.105  0.00  0.00    +0.030 A 
ATOM     35  C   UNL     1       1.382   9.282   1.952  0.00  0.00    +0.002 A 
ATOM     36  C   UNL     1       2.181   8.177   1.730  0.00  0.00    +0.000 A 
ENDBRANCH  27  30
ENDBRANCH  23  24
ENDBRANCH   7  22
TORSDOF 6
ENDMDL
