MODEL 1
REMARK VINA RESULT:      -5.7      0.000      0.000
REMARK  Name = 
REMARK  0 active torsions:
REMARK  status: ('A' for Active; 'I' for Inactive)
REMARK                            x       y       z     vdW  Elec       q    Type
REMARK                         _______ _______ _______ _____ _____    ______ ____
ROOT
ATOM      1  C   UNL     1       3.999   5.316  -5.817  0.00  0.00    +0.115 C 
ATOM      2  N   UNL     1       2.916   5.005  -6.721  0.00  0.00    -0.275 N 
ATOM      3  C   UNL     1       3.083   5.359  -8.095  0.00  0.00    +0.225 A 
ATOM      4  N   UNL     1       2.232   4.900  -9.044  0.00  0.00    -0.181 NA
ATOM      5  C   UNL     1       2.293   5.422 -10.293  0.00  0.00    +0.225 A 
ATOM      6  N   UNL     1       1.067   5.476 -11.033  0.00  0.00    -0.275 N 
ATOM      7  C   UNL     1       0.630   6.770 -11.514  0.00  0.00    +0.115 C 
ATOM      8  C   UNL     1       0.049   4.465 -10.767  0.00  0.00    +0.115 C 
ATOM      9  N   UNL     1       3.337   6.207 -10.652  0.00  0.00    -0.181 NA
ATOM     10  C   UNL     1       4.419   6.221  -9.849  0.00  0.00    +0.225 A 
ATOM     11  N   UNL     1       5.752   6.326 -10.356  0.00  0.00    -0.275 N 
ATOM     12  C   UNL     1       6.029   7.286 -11.412  0.00  0.00    +0.115 C 
ATOM     13  C   UNL     1       6.872   5.916  -9.535  0.00  0.00    +0.115 C 
ATOM     14  N   UNL     1       4.165   6.050  -8.528  0.00  0.00    -0.181 NA
ATOM     15  C   UNL     1       2.071   3.849  -6.437  0.00  0.00    +0.115 C 
ENDROOT
TORSDOF 0
ENDMDL
MODEL 2
REMARK VINA RESULT:      -5.6      3.039      6.471
REMARK  Name = 
REMARK  0 active torsions:
REMARK  status: ('A' for Active; 'I' for Inactive)
REMARK                            x       y       z     vdW  Elec       q    Type
REMARK                         _______ _______ _______ _____ _____    ______ ____
ROOT
ATOM      1  C   UNL     1       0.902   5.097  -9.571  0.00  0.00    +0.115 C 
ATOM      2  N   UNL     1       1.902   4.940  -8.541  0.00  0.00    -0.275 N 
ATOM      3  C   UNL     1       1.588   5.431  -7.237  0.00  0.00    +0.225 A 
ATOM      4  N   UNL     1       2.359   5.120  -6.167  0.00  0.00    -0.181 NA
ATOM      5  C   UNL     1       2.157   5.769  -4.995  0.00  0.00    +0.225 A 
ATOM      6  N   UNL     1       3.301   5.963  -4.156  0.00  0.00    -0.275 N 
ATOM      7  C   UNL     1       3.638   7.321  -3.784  0.00  0.00    +0.115 C 
ATOM      8  C   UNL     1       4.379   4.981  -4.212  0.00  0.00    +0.115 C 
ATOM      9  N   UNL     1       1.052   6.536  -4.825  0.00  0.00    -0.181 NA
ATOM     10  C   UNL     1       0.054   6.410  -5.722  0.00  0.00    +0.225 A 
ATOM     11  N   UNL     1      -1.325   6.503  -5.355  0.00  0.00    -0.275 N 
ATOM     12  C   UNL     1      -1.740   7.556  -4.444  0.00  0.00    +0.115 C 
ATOM     13  C   UNL     1      -2.342   5.952  -6.226  0.00  0.00    +0.115 C 
ATOM     14  N   UNL     1       0.443   6.110  -6.986  0.00  0.00    -0.181 NA
ATOM     15  C   UNL     1       2.815   3.803  -8.614  0.00  0.00    +0.115 C 
ENDROOT
TORSDOF 0
ENDMDL
MODEL 3
REMARK VINA RESULT:      -5.5      3.386      5.159
REMARK  Name = 
REMARK  0 active torsions:
REMARK  status: ('A' for Active; 'I' for Inactive)
REMARK                            x       y       z     vdW  Elec       q    Type
REMARK                         _______ _______ _______ _____ _____    ______ ____
ROOT
ATOM      1  C   UNL     1       5.371   7.605  -4.187  0.00  0.00    +0.115 C 
ATOM      2  N   UNL     1       4.080   7.306  -3.612  0.00  0.00    -0.275 N 
ATOM      3  C   UNL     1       2.991   7.092  -4.512  0.00  0.00    +0.225 A 
ATOM      4  N   UNL     1       1.814   6.581  -4.077  0.00  0.00    -0.181 NA
ATOM      5  C   UNL     1       0.743   6.591  -4.907  0.00  0.00    +0.225 A 
ATOM      6  N   UNL     1      -0.547   6.715  -4.299  0.00  0.00    -0.275 N 
ATOM      7  C   UNL     1      -1.381   7.823  -4.714  0.00  0.00    +0.115 C 
ATOM      8  C   UNL     1      -0.735   6.184  -2.952  0.00  0.00    +0.115 C 
ATOM      9  N   UNL     1       0.905   6.880  -6.221  0.00  0.00    -0.181 NA
ATOM     10  C   UNL     1       2.158   6.879  -6.717  0.00  0.00    +0.225 A 
ATOM     11  N   UNL     1       2.461   6.428  -8.040  0.00  0.00    -0.275 N 
ATOM     12  C   UNL     1       1.600   6.838  -9.137  0.00  0.00    +0.115 C 
ATOM     13  C   UNL     1       3.814   6.043  -8.379  0.00  0.00    +0.115 C 
ATOM     14  N   UNL     1       3.127   7.260  -5.849  0.00  0.00    -0.181 NA
ATOM     15  C   UNL     1       4.024   6.604  -2.333  0.00  0.00    +0.115 C 
ENDROOT
TORSDOF 0
ENDMDL
MODEL 4
REMARK VINA RESULT:      -5.5      0.479      3.943
REMARK  Name = 
REMARK  0 active torsions:
REMARK  status: ('A' for Active; 'I' for Inactive)
REMARK                            x       y       z     vdW  Elec       q    Type
REMARK                         _______ _______ _______ _____ _____    ______ ____
ROOT
ATOM      1  C   UNL     1       6.720   5.747  -9.510  0.00  0.00    +0.115 C 
ATOM      2  N   UNL     1       5.588   6.099 -10.336  0.00  0.00    -0.275 N 
ATOM      3  C   UNL     1       4.285   5.810  -9.826  0.00  0.00    +0.225 A 
ATOM      4  N   UNL     1       3.175   6.312 -10.419  0.00  0.00    -0.181 NA
ATOM      5  C   UNL     1       1.958   5.851 -10.040  0.00  0.00    +0.225 A 
ATOM      6  N   UNL     1       0.934   5.830 -11.040  0.00  0.00    -0.275 N 
ATOM      7  C   UNL     1       0.300   4.560 -11.326  0.00  0.00    +0.115 C 
ATOM      8  C   UNL     1       0.982   6.826 -12.106  0.00  0.00    +0.115 C 
ATOM      9  N   UNL     1       1.837   5.085  -8.929  0.00  0.00    -0.181 NA
ATOM     10  C   UNL     1       2.885   5.034  -8.082  0.00  0.00    +0.225 A 
ATOM     11  N   UNL     1       2.723   4.956  -6.663  0.00  0.00    -0.275 N 
ATOM     12  C   UNL     1       1.728   4.048  -6.119  0.00  0.00    +0.115 C 
ATOM     13  C   UNL     1       3.816   5.328  -5.790  0.00  0.00    +0.115 C 
ATOM     14  N   UNL     1       4.106   5.143  -8.661  0.00  0.00    -0.181 NA
ATOM     15  C   UNL     1       5.703   7.238 -11.241  0.00  0.00    +0.115 C 
ENDROOT
TORSDOF 0
ENDMDL
MODEL 5
REMARK VINA RESULT:      -5.5      2.784      5.528
REMARK  Name = 
REMARK  0 active torsions:
REMARK  status: ('A' for Active; 'I' for Inactive)
REMARK                            x       y       z     vdW  Elec       q    Type
REMARK                         _______ _______ _______ _____ _____    ______ ____
ROOT
ATOM      1  C   UNL     1      -1.913   5.593  -6.389  0.00  0.00    +0.115 C 
ATOM      2  N   UNL     1      -0.937   6.139  -5.475  0.00  0.00    -0.275 N 
ATOM      3  C   UNL     1       0.442   5.946  -5.792  0.00  0.00    +0.225 A 
ATOM      4  N   UNL     1       1.414   6.617  -5.127  0.00  0.00    -0.181 NA
ATOM      5  C   UNL     1       2.707   6.256  -5.305  0.00  0.00    +0.225 A 
ATOM      6  N   UNL     1       3.590   6.438  -4.193  0.00  0.00    -0.275 N 
ATOM      7  C   UNL     1       4.299   5.275  -3.700  0.00  0.00    +0.115 C 
ATOM      8  C   UNL     1       3.310   7.517  -3.251  0.00  0.00    +0.115 C 
ATOM      9  N   UNL     1       3.044   5.407  -6.307  0.00  0.00    -0.181 NA
ATOM     10  C   UNL     1       2.125   5.166  -7.263  0.00  0.00    +0.225 A 
ATOM     11  N   UNL     1       2.477   4.974  -8.636  0.00  0.00    -0.275 N 
ATOM     12  C   UNL     1       3.616   4.131  -8.958  0.00  0.00    +0.115 C 
ATOM     13  C   UNL     1       1.476   5.144  -9.668  0.00  0.00    +0.115 C 
ATOM     14  N   UNL     1       0.834   5.196  -6.849  0.00  0.00    -0.181 NA
ATOM     15  C   UNL     1      -1.277   7.339  -4.716  0.00  0.00    +0.115 C 
ENDROOT
TORSDOF 0
ENDMDL
MODEL 6
REMARK VINA RESULT:      -5.5      2.942      5.536
REMARK  Name = 
REMARK  0 active torsions:
REMARK  status: ('A' for Active; 'I' for Inactive)
REMARK                            x       y       z     vdW  Elec       q    Type
REMARK                         _______ _______ _______ _____ _____    ______ ____
ROOT
ATOM      1  C   UNL     1       3.125   7.267  -2.686  0.00  0.00    +0.115 C 
ATOM      2  N   UNL     1       3.692   6.981  -3.984  0.00  0.00    -0.275 N 
ATOM      3  C   UNL     1       2.795   6.575  -5.019  0.00  0.00    +0.225 A 
ATOM      4  N   UNL     1       3.199   6.515  -6.311  0.00  0.00    -0.181 NA
ATOM      5  C   UNL     1       2.393   5.928  -7.228  0.00  0.00    +0.225 A 
ATOM      6  N   UNL     1       3.034   5.273  -8.329  0.00  0.00    -0.275 N 
ATOM      7  C   UNL     1       2.742   3.870  -8.537  0.00  0.00    +0.115 C 
ATOM      8  C   UNL     1       4.325   5.778  -8.783  0.00  0.00    +0.115 C 
ATOM      9  N   UNL     1       1.110   5.626  -6.912  0.00  0.00    -0.181 NA
ATOM     10  C   UNL     1       0.594   6.166  -5.790  0.00  0.00    +0.225 A 
ATOM     11  N   UNL     1      -0.771   6.580  -5.694  0.00  0.00    -0.275 N 
ATOM     12  C   UNL     1      -1.807   5.714  -6.231  0.00  0.00    +0.115 C 
ATOM     13  C   UNL     1      -1.170   7.519  -4.667  0.00  0.00    +0.115 C 
ATOM     14  N   UNL     1       1.478   6.365  -4.782  0.00  0.00    -0.181 NA
ATOM     15  C   UNL     1       4.897   7.692  -4.399  0.00  0.00    +0.115 C 
ENDROOT
TORSDOF 0
ENDMDL
MODEL 7
REMARK VINA RESULT:      -5.4      4.180      7.083
REMARK  Name = 
REMARK  0 active torsions:
REMARK  status: ('A' for Active; 'I' for Inactive)
REMARK                            x       y       z     vdW  Elec       q    Type
REMARK                         _______ _______ _______ _____ _____    ______ ____
ROOT
ATOM      1  C   UNL     1       3.061   4.917  -1.421  0.00  0.00    +0.115 C 
ATOM      2  N   UNL     1       3.129   5.505  -2.739  0.00  0.00    -0.275 N 
ATOM      3  C   UNL     1       1.900   5.682  -3.445  0.00  0.00    +0.225 A 
ATOM      4  N   UNL     1       1.843   6.430  -4.573  0.00  0.00    -0.181 NA
ATOM      5  C   UNL     1       0.718   6.403  -5.328  0.00  0.00    +0.225 A 
ATOM      6  N   UNL     1       0.880   6.587  -6.739  0.00  0.00    -0.275 N 
ATOM      7  C   UNL     1       0.381   5.546  -7.613  0.00  0.00    +0.115 C 
ATOM      8  C   UNL     1       1.996   7.400  -7.211  0.00  0.00    +0.115 C 
ATOM      9  N   UNL     1      -0.412   5.835  -4.843  0.00  0.00    -0.181 NA
ATOM     10  C   UNL     1      -0.463   5.560  -3.524  0.00  0.00    +0.225 A 
ATOM     11  N   UNL     1      -1.664   5.687  -2.758  0.00  0.00    -0.275 N 
ATOM     12  C   UNL     1      -2.909   5.188  -3.316  0.00  0.00    +0.115 C 
ATOM     13  C   UNL     1      -1.592   5.802  -1.317  0.00  0.00    +0.115 C 
ATOM     14  N   UNL     1       0.722   5.230  -2.954  0.00  0.00    -0.181 NA
ATOM     15  C   UNL     1       4.200   6.452  -3.033  0.00  0.00    +0.115 C 
ENDROOT
TORSDOF 0
ENDMDL
MODEL 8
REMARK VINA RESULT:      -5.4      1.748      4.454
REMARK  Name = 
REMARK  0 active torsions:
REMARK  status: ('A' for Active; 'I' for Inactive)
REMARK                            x       y       z     vdW  Elec       q    Type
REMARK                         _______ _______ _______ _____ _____    ______ ____
ROOT
ATOM      1  C   UNL     1       7.497   6.522 -11.857  0.00  0.00    +0.115 C 
ATOM      2  N   UNL     1       6.897   6.366 -10.552  0.00  0.00    -0.275 N 
ATOM      3  C   UNL     1       5.471   6.309 -10.484  0.00  0.00    +0.225 A 
ATOM      4  N   UNL     1       4.839   5.933  -9.346  0.00  0.00    -0.181 NA
ATOM      5  C   UNL     1       3.497   6.094  -9.253  0.00  0.00    +0.225 A 
ATOM      6  N   UNL     1       2.966   6.357  -7.949  0.00  0.00    -0.275 N 
ATOM      7  C   UNL     1       2.193   7.569  -7.771  0.00  0.00    +0.115 C 
ATOM      8  C   UNL     1       3.669   5.818  -6.789  0.00  0.00    +0.115 C 
ATOM      9  N   UNL     1       2.770   6.395 -10.355  0.00  0.00    -0.181 NA
ATOM     10  C   UNL     1       3.362   6.256 -11.558  0.00  0.00    +0.225 A 
ATOM     11  N   UNL     1       2.654   5.806 -12.716  0.00  0.00    -0.275 N 
ATOM     12  C   UNL     1       1.332   6.346 -12.985  0.00  0.00    +0.115 C 
ATOM     13  C   UNL     1       3.384   5.269 -13.845  0.00  0.00    +0.115 C 
ATOM     14  N   UNL     1       4.697   6.494 -11.579  0.00  0.00    -0.181 NA
ATOM     15  C   UNL     1       7.634   5.643  -9.520  0.00  0.00    +0.115 C 
ENDROOT
TORSDOF 0
ENDMDL
MODEL 9
REMARK VINA RESULT:      -5.4      4.119      5.755
REMARK  Name = 
REMARK  0 active torsions:
REMARK  status: ('A' for Active; 'I' for Inactive)
REMARK                            x       y       z     vdW  Elec       q    Type
REMARK                         _______ _______ _______ _____ _____    ______ ____
ROOT
ATOM      1  C   UNL     1       3.447   6.145  -1.753  0.00  0.00    +0.115 C 
ATOM      2  N   UNL     1       2.032   5.889  -1.894  0.00  0.00    -0.275 N 
ATOM      3  C   UNL     1       1.443   6.132  -3.173  0.00  0.00    +0.225 A 
ATOM      4  N   UNL     1       0.190   5.703  -3.459  0.00  0.00    -0.181 NA
ATOM      5  C   UNL     1      -0.412   6.132  -4.594  0.00  0.00    +0.225 A 
ATOM      6  N   UNL     1      -1.837   6.264  -4.562  0.00  0.00    -0.275 N 
ATOM      7  C   UNL     1      -2.399   7.562  -4.874  0.00  0.00    +0.115 C 
ATOM      8  C   UNL     1      -2.598   5.384  -3.680  0.00  0.00    +0.115 C 
ATOM      9  N   UNL     1       0.308   6.779  -5.543  0.00  0.00    -0.181 NA
ATOM     10  C   UNL     1       1.652   6.734  -5.453  0.00  0.00    +0.225 A 
ATOM     11  N   UNL     1       2.498   6.666  -6.604  0.00  0.00    -0.275 N 
ATOM     12  C   UNL     1       2.204   7.520  -7.743  0.00  0.00    +0.115 C 
ATOM     13  C   UNL     1       3.861   6.197  -6.472  0.00  0.00    +0.115 C 
ATOM     14  N   UNL     1       2.149   6.677  -4.192  0.00  0.00    -0.181 NA
ATOM     15  C   UNL     1       1.419   4.848  -1.074  0.00  0.00    +0.115 C 
ENDROOT
TORSDOF 0
ENDMDL
