MODEL 1
REMARK VINA RESULT:      -9.8      0.000      0.000
REMARK  Name = 
REMARK  5 active torsions:
REMARK  status: ('A' for Active; 'I' for Inactive)
REMARK    1  A    between atoms: C_3  and  C_5
REMARK    2  A    between atoms: C_8  and  N_9
REMARK    3  A    between atoms: N_12  and  C_13
REMARK    4  A    between atoms: C_16  and  C_17
REMARK    5  A    between atoms: C_19  and  C_20
REMARK                            x       y       z     vdW  Elec       q    Type
REMARK                         _______ _______ _______ _____ _____    ______ ____
ROOT
ATOM      1  N   UNL     1       1.538   6.129  -7.019  0.00  0.00    -0.265 N 
ATOM      2  C   UNL     1       2.355   5.253  -6.185  0.00  0.00    +0.133 C 
ATOM      3  C   UNL     1       2.223   5.753  -4.775  0.00  0.00    +0.030 C 
ATOM      4  C   UNL     1       1.927   3.819  -6.339  0.00  0.00    +0.030 C 
ATOM      5  C   UNL     1       3.694   5.461  -6.765  0.00  0.00    +0.251 C 
ATOM      6  O   UNL     1       4.783   5.268  -6.177  0.00  0.00    -0.272 OA
ATOM      7  N   UNL     1       3.481   5.562  -8.178  0.00  0.00    -0.218 N 
ATOM      8  C   UNL     1       2.158   6.093  -8.308  0.00  0.00    +0.152 C 
ATOM      9  S   UNL     1       1.413   6.402  -9.738  0.00  0.00    -0.017 S 
ENDROOT
BRANCH   1  14
ATOM     10  C   UNL     1      -1.907   5.985  -4.829  0.00  0.00    +0.083 A 
ATOM     11  C   UNL     1      -1.288   7.223  -4.948  0.00  0.00    +0.146 A 
ATOM     12  F   UNL     1      -1.398   8.100  -3.909  0.00  0.00    -0.204 F 
ATOM     13  C   UNL     1      -0.211   7.386  -5.814  0.00  0.00    +0.045 A 
ATOM     14  C   UNL     1       0.163   6.383  -6.702  0.00  0.00    +0.055 A 
ATOM     15  C   UNL     1      -0.822   5.423  -6.915  0.00  0.00    +0.015 A 
ATOM     16  C   UNL     1      -1.765   5.151  -5.931  0.00  0.00    +0.008 A 
BRANCH  10  19
ATOM     17  C   UNL     1      -1.881   5.657  -1.040  0.00  0.00    +0.139 C 
ATOM     18  N   UNL     1      -1.421   5.644  -2.405  0.00  0.00    -0.200 NA
ATOM     19  C   UNL     1      -2.284   5.429  -3.522  0.00  0.00    +0.267 C 
ATOM     20  O   UNL     1      -3.488   5.179  -3.227  0.00  0.00    -0.268 OA
ENDBRANCH  10  19
ENDBRANCH   1  14
BRANCH   7  21
ATOM     21  C   UNL     1       4.420   5.252  -9.213  0.00  0.00    +0.060 A 
ATOM     22  C   UNL     1       5.720   5.721  -9.180  0.00  0.00    +0.020 A 
ATOM     23  C   UNL     1       6.335   6.120 -10.358  0.00  0.00    +0.082 A 
ATOM     24  C   UNL     1       5.735   5.949 -11.601  0.00  0.00    +0.072 A 
ATOM     25  C   UNL     1       4.557   5.215 -11.629  0.00  0.00    +0.012 A 
ATOM     26  C   UNL     1       3.900   4.895 -10.448  0.00  0.00    +0.016 A 
BRANCH  23  27
ATOM     27  C   UNL     1       7.655   6.813 -10.234  0.00  0.00    +0.419 C 
ATOM     28  F   UNL     1       7.505   8.182 -10.363  0.00  0.00    -0.166 F 
ATOM     29  F   UNL     1       8.134   6.599  -8.946  0.00  0.00    -0.166 F 
ATOM     30  F   UNL     1       8.594   6.296 -11.094  0.00  0.00    -0.166 F 
ENDBRANCH  23  27
BRANCH  24  31
ATOM     31  C   UNL     1       6.003   6.951 -12.607  0.00  0.00    +0.100 C 
ATOM     32  N   UNL     1       6.258   7.717 -13.452  0.00  0.00    -0.191 NA
ENDBRANCH  24  31
ENDBRANCH   7  21
TORSDOF 5
ENDMDL
MODEL 2
REMARK VINA RESULT:      -9.3      3.464      9.549
REMARK  Name = 
REMARK  5 active torsions:
REMARK  status: ('A' for Active; 'I' for Inactive)
REMARK    1  A    between atoms: C_3  and  C_5
REMARK    2  A    between atoms: C_8  and  N_9
REMARK    3  A    between atoms: N_12  and  C_13
REMARK    4  A    between atoms: C_16  and  C_17
REMARK    5  A    between atoms: C_19  and  C_20
REMARK                            x       y       z     vdW  Elec       q    Type
REMARK                         _______ _______ _______ _____ _____    ______ ____
ROOT
ATOM      1  N   UNL     1       2.287   5.719  -5.009  0.00  0.00    -0.265 N 
ATOM      2  C   UNL     1       3.622   5.888  -4.444  0.00  0.00    +0.133 C 
ATOM      3  C   UNL     1       4.555   5.071  -5.292  0.00  0.00    +0.030 C 
ATOM      4  C   UNL     1       4.000   7.343  -4.394  0.00  0.00    +0.030 C 
ATOM      5  C   UNL     1       3.435   5.352  -3.083  0.00  0.00    +0.251 C 
ATOM      6  O   UNL     1       4.340   4.899  -2.345  0.00  0.00    -0.272 OA
ATOM      7  N   UNL     1       2.132   5.790  -2.682  0.00  0.00    -0.218 N 
ATOM      8  C   UNL     1       1.395   5.903  -3.905  0.00  0.00    +0.152 C 
ATOM      9  S   UNL     1      -0.172   6.380  -4.009  0.00  0.00    -0.017 S 
ENDROOT
BRANCH   1  14
ATOM     10  C   UNL     1       3.189   6.247  -8.958  0.00  0.00    +0.083 A 
ATOM     11  C   UNL     1       2.507   5.084  -8.617  0.00  0.00    +0.146 A 
ATOM     12  F   UNL     1       2.744   3.961  -9.352  0.00  0.00    -0.204 F 
ATOM     13  C   UNL     1       2.017   4.914  -7.325  0.00  0.00    +0.045 A 
ATOM     14  C   UNL     1       2.036   5.953  -6.400  0.00  0.00    +0.055 A 
ATOM     15  C   UNL     1       2.207   7.211  -6.969  0.00  0.00    +0.015 A 
ATOM     16  C   UNL     1       2.886   7.353  -8.174  0.00  0.00    +0.008 A 
BRANCH  10  19
ATOM     17  C   UNL     1       5.986   7.662 -11.111  0.00  0.00    +0.139 C 
ATOM     18  N   UNL     1       4.666   7.265 -10.692  0.00  0.00    -0.200 NA
ATOM     19  C   UNL     1       4.423   6.216  -9.754  0.00  0.00    +0.267 C 
ATOM     20  O   UNL     1       5.455   5.601  -9.359  0.00  0.00    -0.268 OA
ENDBRANCH  10  19
ENDBRANCH   1  14
BRANCH   7  21
ATOM     21  C   UNL     1       1.671   6.003  -1.344  0.00  0.00    +0.060 A 
ATOM     22  C   UNL     1       0.346   5.822  -0.993  0.00  0.00    +0.020 A 
ATOM     23  C   UNL     1      -0.248   6.688  -0.085  0.00  0.00    +0.082 A 
ATOM     24  C   UNL     1       0.477   7.664   0.589  0.00  0.00    +0.072 A 
ATOM     25  C   UNL     1       1.857   7.636   0.434  0.00  0.00    +0.012 A 
ATOM     26  C   UNL     1       2.438   6.832  -0.538  0.00  0.00    +0.016 A 
BRANCH  23  27
ATOM     27  C   UNL     1      -1.729   6.574   0.092  0.00  0.00    +0.419 C 
ATOM     28  F   UNL     1      -2.376   7.654  -0.481  0.00  0.00    -0.166 F 
ATOM     29  F   UNL     1      -2.161   5.452  -0.606  0.00  0.00    -0.166 F 
ATOM     30  F   UNL     1      -2.079   6.379   1.407  0.00  0.00    -0.166 F 
ENDBRANCH  23  27
BRANCH  24  31
ATOM     31  C   UNL     1      -0.205   8.902   0.891  0.00  0.00    +0.100 C 
ATOM     32  N   UNL     1      -0.729   9.901   1.196  0.00  0.00    -0.191 NA
ENDBRANCH  24  31
ENDBRANCH   7  21
TORSDOF 5
ENDMDL
MODEL 3
REMARK VINA RESULT:      -9.1      1.712      1.979
REMARK  Name = 
REMARK  5 active torsions:
REMARK  status: ('A' for Active; 'I' for Inactive)
REMARK    1  A    between atoms: C_3  and  C_5
REMARK    2  A    between atoms: C_8  and  N_9
REMARK    3  A    between atoms: N_12  and  C_13
REMARK    4  A    between atoms: C_16  and  C_17
REMARK    5  A    between atoms: C_19  and  C_20
REMARK                            x       y       z     vdW  Elec       q    Type
REMARK                         _______ _______ _______ _____ _____    ______ ____
ROOT
ATOM      1  N   UNL     1       1.143   6.375  -5.824  0.00  0.00    -0.265 N 
ATOM      2  C   UNL     1       2.438   6.162  -5.186  0.00  0.00    +0.133 C 
ATOM      3  C   UNL     1       2.466   7.035  -3.964  0.00  0.00    +0.030 C 
ATOM      4  C   UNL     1       2.643   4.706  -4.869  0.00  0.00    +0.030 C 
ATOM      5  C   UNL     1       3.364   6.598  -6.248  0.00  0.00    +0.251 C 
ATOM      6  O   UNL     1       4.540   6.994  -6.075  0.00  0.00    -0.272 OA
ATOM      7  N   UNL     1       2.779   6.136  -7.471  0.00  0.00    -0.218 N 
ATOM      8  C   UNL     1       1.370   6.115  -7.213  0.00  0.00    +0.152 C 
ATOM      9  S   UNL     1       0.230   5.652  -8.299  0.00  0.00    -0.017 S 
ENDROOT
BRANCH   1  14
ATOM     10  C   UNL     1      -1.339   6.602  -2.588  0.00  0.00    +0.083 A 
ATOM     11  C   UNL     1      -1.601   7.466  -3.644  0.00  0.00    +0.146 A 
ATOM     12  F   UNL     1      -2.134   8.688  -3.358  0.00  0.00    -0.204 F 
ATOM     13  C   UNL     1      -0.909   7.333  -4.845  0.00  0.00    +0.045 A 
ATOM     14  C   UNL     1      -0.078   6.243  -5.085  0.00  0.00    +0.055 A 
ATOM     15  C   UNL     1      -0.300   5.166  -4.233  0.00  0.00    +0.015 A 
ATOM     16  C   UNL     1      -0.810   5.371  -2.956  0.00  0.00    +0.008 A 
BRANCH  10  19
ATOM     17  C   UNL     1       0.410   7.232   0.730  0.00  0.00    +0.139 C 
ATOM     18  N   UNL     1      -0.183   6.527  -0.377  0.00  0.00    -0.200 NA
ATOM     19  C   UNL     1      -1.203   7.084  -1.207  0.00  0.00    +0.267 C 
ATOM     20  O   UNL     1      -1.609   8.230  -0.859  0.00  0.00    -0.268 OA
ENDBRANCH  10  19
ENDBRANCH   1  14
BRANCH   7  21
ATOM     21  C   UNL     1       3.464   5.829  -8.689  0.00  0.00    +0.060 A 
ATOM     22  C   UNL     1       4.801   5.479  -8.703  0.00  0.00    +0.020 A 
ATOM     23  C   UNL     1       5.618   5.930  -9.731  0.00  0.00    +0.082 A 
ATOM     24  C   UNL     1       5.114   6.622 -10.826  0.00  0.00    +0.072 A 
ATOM     25  C   UNL     1       3.732   6.708 -10.928  0.00  0.00    +0.012 A 
ATOM     26  C   UNL     1       2.924   6.338  -9.861  0.00  0.00    +0.016 A 
BRANCH  23  27
ATOM     27  C   UNL     1       7.088   5.699  -9.581  0.00  0.00    +0.419 C 
ATOM     28  F   UNL     1       7.728   6.858  -9.181  0.00  0.00    -0.166 F 
ATOM     29  F   UNL     1       7.277   4.781  -8.553  0.00  0.00    -0.166 F 
ATOM     30  F   UNL     1       7.643   5.146 -10.710  0.00  0.00    -0.166 F 
ENDBRANCH  23  27
BRANCH  24  31
ATOM     31  C   UNL     1       5.961   7.636 -11.413  0.00  0.00    +0.100 C 
ATOM     32  N   UNL     1       6.647   8.486 -11.828  0.00  0.00    -0.191 NA
ENDBRANCH  24  31
ENDBRANCH   7  21
TORSDOF 5
ENDMDL
MODEL 4
REMARK VINA RESULT:      -9.1      3.900      8.026
REMARK  Name = 
REMARK  5 active torsions:
REMARK  status: ('A' for Active; 'I' for Inactive)
REMARK    1  A    between atoms: C_3  and  C_5
REMARK    2  A    between atoms: C_8  and  N_9
REMARK    3  A    between atoms: N_12  and  C_13
REMARK    4  A    between atoms: C_16  and  C_17
REMARK    5  A    between atoms: C_19  and  C_20
REMARK                            x       y       z     vdW  Elec       q    Type
REMARK                         _______ _______ _______ _____ _____    ______ ____
ROOT
ATOM      1  N   UNL     1       0.985   5.561  -8.491  0.00  0.00    -0.265 N 
ATOM      2  C   UNL     1       2.379   5.972  -8.360  0.00  0.00    +0.133 C 
ATOM      3  C   UNL     1       3.150   5.222  -9.407  0.00  0.00    +0.030 C 
ATOM      4  C   UNL     1       2.509   7.465  -8.495  0.00  0.00    +0.030 C 
ATOM      5  C   UNL     1       2.683   5.547  -6.981  0.00  0.00    +0.251 C 
ATOM      6  O   UNL     1       3.824   5.301  -6.527  0.00  0.00    -0.272 OA
ATOM      7  N   UNL     1       1.496   5.829  -6.230  0.00  0.00    -0.218 N 
ATOM      8  C   UNL     1       0.431   5.718  -7.181  0.00  0.00    +0.152 C 
ATOM      9  S   UNL     1      -1.157   5.953  -6.834  0.00  0.00    -0.017 S 
ENDROOT
BRANCH   1  14
ATOM     10  C   UNL     1       0.599   5.989 -12.535  0.00  0.00    +0.083 A 
ATOM     11  C   UNL     1       0.350   4.727 -12.008  0.00  0.00    +0.146 A 
ATOM     12  F   UNL     1       0.645   3.640 -12.776  0.00  0.00    -0.204 F 
ATOM     13  C   UNL     1       0.294   4.543 -10.629  0.00  0.00    +0.045 A 
ATOM     14  C   UNL     1       0.309   5.623  -9.753  0.00  0.00    +0.055 A 
ATOM     15  C   UNL     1      -0.003   6.840 -10.352  0.00  0.00    +0.015 A 
ATOM     16  C   UNL     1       0.260   7.047 -11.702  0.00  0.00    +0.008 A 
BRANCH  10  19
ATOM     17  C   UNL     1       3.924   5.827 -14.375  0.00  0.00    +0.139 C 
ATOM     18  N   UNL     1       2.936   6.184 -13.388  0.00  0.00    -0.200 NA
ATOM     19  C   UNL     1       1.532   6.192 -13.651  0.00  0.00    +0.267 C 
ATOM     20  O   UNL     1       1.210   5.929 -14.845  0.00  0.00    -0.268 OA
ENDBRANCH  10  19
ENDBRANCH   1  14
BRANCH   7  21
ATOM     21  C   UNL     1       1.411   6.099  -4.827  0.00  0.00    +0.060 A 
ATOM     22  C   UNL     1       2.323   6.917  -4.187  0.00  0.00    +0.020 A 
ATOM     23  C   UNL     1       2.752   6.596  -2.907  0.00  0.00    +0.082 A 
ATOM     24  C   UNL     1       2.202   5.543  -2.185  0.00  0.00    +0.072 A 
ATOM     25  C   UNL     1       1.091   4.920  -2.737  0.00  0.00    +0.012 A 
ATOM     26  C   UNL     1       0.720   5.180  -4.050  0.00  0.00    +0.016 A 
BRANCH  23  27
ATOM     27  C   UNL     1       3.890   7.393  -2.353  0.00  0.00    +0.419 C 
ATOM     28  F   UNL     1       5.094   6.747  -2.571  0.00  0.00    -0.166 F 
ATOM     29  F   UNL     1       3.962   8.589  -3.058  0.00  0.00    -0.166 F 
ATOM     30  F   UNL     1       3.696   7.725  -1.033  0.00  0.00    -0.166 F 
ENDBRANCH  23  27
BRANCH  24  31
ATOM     31  C   UNL     1       3.082   4.823  -1.292  0.00  0.00    +0.100 C 
ATOM     32  N   UNL     1       3.806   4.200  -0.620  0.00  0.00    -0.191 NA
ENDBRANCH  24  31
ENDBRANCH   7  21
TORSDOF 5
ENDMDL
MODEL 5
REMARK VINA RESULT:      -9.0      2.429      9.239
REMARK  Name = 
REMARK  5 active torsions:
REMARK  status: ('A' for Active; 'I' for Inactive)
REMARK    1  A    between atoms: C_3  and  C_5
REMARK    2  A    between atoms: C_8  and  N_9
REMARK    3  A    between atoms: N_12  and  C_13
REMARK    4  A    between atoms: C_16  and  C_17
REMARK    5  A    between atoms: C_19  and  C_20
REMARK                            x       y       z     vdW  Elec       q    Type
REMARK                         _______ _______ _______ _____ _____    ______ ____
ROOT
ATOM      1  N   UNL     1       3.084   6.200  -8.634  0.00  0.00    -0.265 N 
ATOM      2  C   UNL     1       2.340   5.175  -9.360  0.00  0.00    +0.133 C 
ATOM      3  C   UNL     1       2.452   5.514 -10.819  0.00  0.00    +0.030 C 
ATOM      4  C   UNL     1       2.867   3.804  -9.036  0.00  0.00    +0.030 C 
ATOM      5  C   UNL     1       0.983   5.354  -8.812  0.00  0.00    +0.251 C 
ATOM      6  O   UNL     1      -0.083   5.016  -9.375  0.00  0.00    -0.272 OA
ATOM      7  N   UNL     1       1.173   5.636  -7.420  0.00  0.00    -0.218 N 
ATOM      8  C   UNL     1       2.455   6.272  -7.351  0.00  0.00    +0.152 C 
ATOM      9  S   UNL     1       3.161   6.800  -5.966  0.00  0.00    -0.017 S 
ENDROOT
BRANCH   1  14
ATOM     10  C   UNL     1       6.547   6.061 -10.796  0.00  0.00    +0.083 A 
ATOM     11  C   UNL     1       5.845   7.261 -10.808  0.00  0.00    +0.146 A 
ATOM     12  F   UNL     1       5.902   8.028 -11.933  0.00  0.00    -0.204 F 
ATOM     13  C   UNL     1       4.752   7.439  -9.964  0.00  0.00    +0.045 A 
ATOM     14  C   UNL     1       4.441   6.512  -8.975  0.00  0.00    +0.055 A 
ATOM     15  C   UNL     1       5.487   5.649  -8.662  0.00  0.00    +0.015 A 
ATOM     16  C   UNL     1       6.454   5.341  -9.612  0.00  0.00    +0.008 A 
BRANCH  10  19
ATOM     17  C   UNL     1       6.863   5.569 -14.554  0.00  0.00    +0.139 C 
ATOM     18  N   UNL     1       6.268   5.684 -13.247  0.00  0.00    -0.200 NA
ATOM     19  C   UNL     1       6.971   5.399 -12.037  0.00  0.00    +0.267 C 
ATOM     20  O   UNL     1       8.149   4.965 -12.192  0.00  0.00    -0.268 OA
ENDBRANCH  10  19
ENDBRANCH   1  14
BRANCH   7  21
ATOM     21  C   UNL     1       0.248   5.383  -6.358  0.00  0.00    +0.060 A 
ATOM     22  C   UNL     1      -0.824   6.221  -6.113  0.00  0.00    +0.020 A 
ATOM     23  C   UNL     1      -1.202   6.487  -4.804  0.00  0.00    +0.082 A 
ATOM     24  C   UNL     1      -0.620   5.839  -3.720  0.00  0.00    +0.072 A 
ATOM     25  C   UNL     1       0.250   4.796  -4.010  0.00  0.00    +0.012 A 
ATOM     26  C   UNL     1       0.693   4.592  -5.310  0.00  0.00    +0.016 A 
BRANCH  23  27
ATOM     27  C   UNL     1      -2.225   7.559  -4.597  0.00  0.00    +0.419 C 
ATOM     28  F   UNL     1      -1.621   8.799  -4.496  0.00  0.00    -0.166 F 
ATOM     29  F   UNL     1      -3.027   7.613  -5.732  0.00  0.00    -0.166 F 
ATOM     30  F   UNL     1      -3.057   7.283  -3.539  0.00  0.00    -0.166 F 
ENDBRANCH  23  27
BRANCH  24  31
ATOM     31  C   UNL     1      -0.482   6.595  -2.496  0.00  0.00    +0.100 C 
ATOM     32  N   UNL     1      -0.409   7.161  -1.476  0.00  0.00    -0.191 NA
ENDBRANCH  24  31
ENDBRANCH   7  21
TORSDOF 5
ENDMDL
MODEL 6
REMARK VINA RESULT:      -9.0      3.039      9.494
REMARK  Name = 
REMARK  5 active torsions:
REMARK  status: ('A' for Active; 'I' for Inactive)
REMARK    1  A    between atoms: C_3  and  C_5
REMARK    2  A    between atoms: C_8  and  N_9
REMARK    3  A    between atoms: N_12  and  C_13
REMARK    4  A    between atoms: C_16  and  C_17
REMARK    5  A    between atoms: C_19  and  C_20
REMARK                            x       y       z     vdW  Elec       q    Type
REMARK                         _______ _______ _______ _____ _____    ______ ____
ROOT
ATOM      1  N   UNL     1       2.665   5.546  -5.860  0.00  0.00    -0.265 N 
ATOM      2  C   UNL     1       1.247   5.847  -6.028  0.00  0.00    +0.133 C 
ATOM      3  C   UNL     1       1.124   6.660  -7.285  0.00  0.00    +0.030 C 
ATOM      4  C   UNL     1       0.434   4.581  -6.069  0.00  0.00    +0.030 C 
ATOM      5  C   UNL     1       0.960   6.609  -4.799  0.00  0.00    +0.251 C 
ATOM      6  O   UNL     1       0.024   7.427  -4.647  0.00  0.00    -0.272 OA
ATOM      7  N   UNL     1       1.716   5.960  -3.769  0.00  0.00    -0.218 N 
ATOM      8  C   UNL     1       2.844   5.396  -4.448  0.00  0.00    +0.152 C 
ATOM      9  S   UNL     1       4.035   4.532  -3.720  0.00  0.00    -0.017 S 
ENDROOT
BRANCH   1  14
ATOM     10  C   UNL     1       4.018   5.005  -9.676  0.00  0.00    +0.083 A 
ATOM     11  C   UNL     1       4.931   5.487  -8.746  0.00  0.00    +0.146 A 
ATOM     12  F   UNL     1       5.906   6.334  -9.182  0.00  0.00    -0.204 F 
ATOM     13  C   UNL     1       4.595   5.536  -7.396  0.00  0.00    +0.045 A 
ATOM     14  C   UNL     1       3.427   4.952  -6.919  0.00  0.00    +0.055 A 
ATOM     15  C   UNL     1       2.862   4.026  -7.791  0.00  0.00    +0.015 A 
ATOM     16  C   UNL     1       3.063   4.136  -9.162  0.00  0.00    +0.008 A 
BRANCH  10  19
ATOM     17  C   UNL     1       4.225   5.486 -13.443  0.00  0.00    +0.139 C 
ATOM     18  N   UNL     1       4.637   5.353 -12.069  0.00  0.00    -0.200 NA
ATOM     19  C   UNL     1       3.793   5.678 -10.962  0.00  0.00    +0.267 C 
ATOM     20  O   UNL     1       2.668   6.164 -11.272  0.00  0.00    -0.268 OA
ENDBRANCH  10  19
ENDBRANCH   1  14
BRANCH   7  21
ATOM     21  C   UNL     1       1.422   5.943  -2.368  0.00  0.00    +0.060 A 
ATOM     22  C   UNL     1       0.141   5.729  -1.897  0.00  0.00    +0.020 A 
ATOM     23  C   UNL     1      -0.308   6.433  -0.787  0.00  0.00    +0.082 A 
ATOM     24  C   UNL     1       0.528   7.261  -0.049  0.00  0.00    +0.072 A 
ATOM     25  C   UNL     1       1.879   7.234  -0.372  0.00  0.00    +0.012 A 
ATOM     26  C   UNL     1       2.310   6.603  -1.531  0.00  0.00    +0.016 A 
BRANCH  23  27
ATOM     27  C   UNL     1      -1.762   6.318  -0.454  0.00  0.00    +0.419 C 
ATOM     28  F   UNL     1      -2.465   7.405  -0.942  0.00  0.00    -0.166 F 
ATOM     29  F   UNL     1      -2.269   5.204  -1.115  0.00  0.00    -0.166 F 
ATOM     30  F   UNL     1      -1.970   6.107   0.888  0.00  0.00    -0.166 F 
ENDBRANCH  23  27
BRANCH  24  31
ATOM     31  C   UNL     1      -0.064   8.439   0.543  0.00  0.00    +0.100 C 
ATOM     32  N   UNL     1      -0.491   9.426   1.000  0.00  0.00    -0.191 NA
ENDBRANCH  24  31
ENDBRANCH   7  21
TORSDOF 5
ENDMDL
MODEL 7
REMARK VINA RESULT:      -8.6      4.086      5.541
REMARK  Name = 
REMARK  5 active torsions:
REMARK  status: ('A' for Active; 'I' for Inactive)
REMARK    1  A    between atoms: C_3  and  C_5
REMARK    2  A    between atoms: C_8  and  N_9
REMARK    3  A    between atoms: N_12  and  C_13
REMARK    4  A    between atoms: C_16  and  C_17
REMARK    5  A    between atoms: C_19  and  C_20
REMARK                            x       y       z     vdW  Elec       q    Type
REMARK                         _______ _______ _______ _____ _____    ______ ____
ROOT
ATOM      1  N   UNL     1       2.208   5.381  -7.059  0.00  0.00    -0.265 N 
ATOM      2  C   UNL     1       0.893   5.738  -6.537  0.00  0.00    +0.133 C 
ATOM      3  C   UNL     1       0.748   5.036  -5.217  0.00  0.00    +0.030 C 
ATOM      4  C   UNL     1       0.751   7.231  -6.424  0.00  0.00    +0.030 C 
ATOM      5  C   UNL     1       0.006   5.209  -7.590  0.00  0.00    +0.251 C 
ATOM      6  O   UNL     1      -1.198   4.897  -7.442  0.00  0.00    -0.272 OA
ATOM      7  N   UNL     1       0.684   5.478  -8.823  0.00  0.00    -0.218 N 
ATOM      8  C   UNL     1       2.074   5.466  -8.482  0.00  0.00    +0.152 C 
ATOM      9  S   UNL     1       3.298   5.728  -9.544  0.00  0.00    -0.017 S 
ENDROOT
BRANCH   1  14
ATOM     10  C   UNL     1       4.442   6.483  -3.822  0.00  0.00    +0.083 A 
ATOM     11  C   UNL     1       4.314   5.121  -4.065  0.00  0.00    +0.146 A 
ATOM     12  F   UNL     1       4.314   4.274  -2.996  0.00  0.00    -0.204 F 
ATOM     13  C   UNL     1       3.715   4.673  -5.239  0.00  0.00    +0.045 A 
ATOM     14  C   UNL     1       3.391   5.551  -6.268  0.00  0.00    +0.055 A 
ATOM     15  C   UNL     1       4.044   6.777  -6.189  0.00  0.00    +0.015 A 
ATOM     16  C   UNL     1       4.449   7.282  -4.959  0.00  0.00    +0.008 A 
BRANCH  10  19
ATOM     17  C   UNL     1       2.551   6.939  -0.554  0.00  0.00    +0.139 C 
ATOM     18  N   UNL     1       2.832   6.924  -1.967  0.00  0.00    -0.200 NA
ATOM     19  C   UNL     1       4.146   7.067  -2.507  0.00  0.00    +0.267 C 
ATOM     20  O   UNL     1       5.055   7.281  -1.653  0.00  0.00    -0.268 OA
ENDBRANCH  10  19
ENDBRANCH   1  14
BRANCH   7  21
ATOM     21  C   UNL     1       0.086   5.654 -10.112  0.00  0.00    +0.060 A 
ATOM     22  C   UNL     1       0.497   4.922 -11.210  0.00  0.00    +0.020 A 
ATOM     23  C   UNL     1       0.562   5.532 -12.455  0.00  0.00    +0.082 A 
ATOM     24  C   UNL     1       0.107   6.828 -12.669  0.00  0.00    +0.072 A 
ATOM     25  C   UNL     1      -0.563   7.436 -11.616  0.00  0.00    +0.012 A 
ATOM     26  C   UNL     1      -0.549   6.864 -10.351  0.00  0.00    +0.016 A 
BRANCH  23  27
ATOM     27  C   UNL     1       1.211   4.756 -13.557  0.00  0.00    +0.419 C 
ATOM     28  F   UNL     1       1.000   3.399 -13.392  0.00  0.00    -0.166 F 
ATOM     29  F   UNL     1       0.587   5.100 -14.751  0.00  0.00    -0.166 F 
ATOM     30  F   UNL     1       2.540   5.075 -13.702  0.00  0.00    -0.166 F 
ENDBRANCH  23  27
BRANCH  24  31
ATOM     31  C   UNL     1       0.812   7.622 -13.650  0.00  0.00    +0.100 C 
ATOM     32  N   UNL     1       1.324   8.283 -14.466  0.00  0.00    -0.191 NA
ENDBRANCH  24  31
ENDBRANCH   7  21
TORSDOF 5
ENDMDL
MODEL 8
REMARK VINA RESULT:      -8.6      4.089      5.295
REMARK  Name = 
REMARK  5 active torsions:
REMARK  status: ('A' for Active; 'I' for Inactive)
REMARK    1  A    between atoms: C_3  and  C_5
REMARK    2  A    between atoms: C_8  and  N_9
REMARK    3  A    between atoms: N_12  and  C_13
REMARK    4  A    between atoms: C_16  and  C_17
REMARK    5  A    between atoms: C_19  and  C_20
REMARK                            x       y       z     vdW  Elec       q    Type
REMARK                         _______ _______ _______ _____ _____    ______ ____
ROOT
ATOM      1  N   UNL     1       2.052   5.501  -7.164  0.00  0.00    -0.265 N 
ATOM      2  C   UNL     1       3.164   5.318  -8.091  0.00  0.00    +0.133 C 
ATOM      3  C   UNL     1       4.389   5.854  -7.407  0.00  0.00    +0.030 C 
ATOM      4  C   UNL     1       3.299   3.872  -8.484  0.00  0.00    +0.030 C 
ATOM      5  C   UNL     1       2.724   6.131  -9.241  0.00  0.00    +0.251 C 
ATOM      6  O   UNL     1       3.473   6.631 -10.111  0.00  0.00    -0.272 OA
ATOM      7  N   UNL     1       1.312   5.912  -9.338  0.00  0.00    -0.218 N 
ATOM      8  C   UNL     1       0.896   5.630  -7.997  0.00  0.00    +0.152 C 
ATOM      9  S   UNL     1      -0.648   5.298  -7.550  0.00  0.00    -0.017 S 
ENDROOT
BRANCH   1  14
ATOM     10  C   UNL     1       3.069   5.533  -3.208  0.00  0.00    +0.083 A 
ATOM     11  C   UNL     1       1.720   5.669  -3.513  0.00  0.00    +0.146 A 
ATOM     12  F   UNL     1       0.946   6.424  -2.681  0.00  0.00    -0.204 F 
ATOM     13  C   UNL     1       1.278   5.498  -4.821  0.00  0.00    +0.045 A 
ATOM     14  C   UNL     1       2.125   5.020  -5.816  0.00  0.00    +0.055 A 
ATOM     15  C   UNL     1       3.265   4.388  -5.329  0.00  0.00    +0.015 A 
ATOM     16  C   UNL     1       3.790   4.739  -4.091  0.00  0.00    +0.008 A 
BRANCH  10  19
ATOM     17  C   UNL     1       4.777   6.713  -0.021  0.00  0.00    +0.139 C 
ATOM     18  N   UNL     1       3.749   6.239  -0.913  0.00  0.00    -0.200 NA
ATOM     19  C   UNL     1       3.762   6.477  -2.321  0.00  0.00    +0.267 C 
ATOM     20  O   UNL     1       4.714   7.201  -2.733  0.00  0.00    -0.268 OA
ENDBRANCH  10  19
ENDBRANCH   1  14
BRANCH   7  21
ATOM     21  C   UNL     1       0.505   6.017 -10.516  0.00  0.00    +0.060 A 
ATOM     22  C   UNL     1       0.715   5.206 -11.616  0.00  0.00    +0.020 A 
ATOM     23  C   UNL     1       0.573   5.732 -12.892  0.00  0.00    +0.082 A 
ATOM     24  C   UNL     1       0.101   7.021 -13.113  0.00  0.00    +0.072 A 
ATOM     25  C   UNL     1      -0.374   7.711 -12.005  0.00  0.00    +0.012 A 
ATOM     26  C   UNL     1      -0.149   7.222 -10.725  0.00  0.00    +0.016 A 
BRANCH  23  27
ATOM     27  C   UNL     1       1.016   4.872 -14.034  0.00  0.00    +0.419 C 
ATOM     28  F   UNL     1       2.345   5.107 -14.337  0.00  0.00    -0.166 F 
ATOM     29  F   UNL     1       0.944   3.545 -13.626  0.00  0.00    -0.166 F 
ATOM     30  F   UNL     1       0.190   4.995 -15.125  0.00  0.00    -0.166 F 
ENDBRANCH  23  27
BRANCH  24  31
ATOM     31  C   UNL     1       0.636   7.734 -14.251  0.00  0.00    +0.100 C 
ATOM     32  N   UNL     1       1.129   8.299 -15.147  0.00  0.00    -0.191 NA
ENDBRANCH  24  31
ENDBRANCH   7  21
TORSDOF 5
ENDMDL
MODEL 9
REMARK VINA RESULT:      -8.5      3.470      8.885
REMARK  Name = 
REMARK  5 active torsions:
REMARK  status: ('A' for Active; 'I' for Inactive)
REMARK    1  A    between atoms: C_3  and  C_5
REMARK    2  A    between atoms: C_8  and  N_9
REMARK    3  A    between atoms: N_12  and  C_13
REMARK    4  A    between atoms: C_16  and  C_17
REMARK    5  A    between atoms: C_19  and  C_20
REMARK                            x       y       z     vdW  Elec       q    Type
REMARK                         _______ _______ _______ _____ _____    ______ ____
ROOT
ATOM      1  N   UNL     1       3.047   5.164  -5.501  0.00  0.00    -0.265 N 
ATOM      2  C   UNL     1       3.812   5.696  -4.378  0.00  0.00    +0.133 C 
ATOM      3  C   UNL     1       5.221   5.205  -4.544  0.00  0.00    +0.030 C 
ATOM      4  C   UNL     1       3.717   7.197  -4.331  0.00  0.00    +0.030 C 
ATOM      5  C   UNL     1       3.106   5.095  -3.231  0.00  0.00    +0.251 C 
ATOM      6  O   UNL     1       3.592   4.904  -2.092  0.00  0.00    -0.272 OA
ATOM      7  N   UNL     1       1.718   5.129  -3.583  0.00  0.00    -0.218 N 
ATOM      8  C   UNL     1       1.706   5.055  -5.013  0.00  0.00    +0.152 C 
ATOM      9  S   UNL     1       0.348   5.062  -5.937  0.00  0.00    -0.017 S 
ENDROOT
BRANCH   1  14
ATOM     10  C   UNL     1       2.691   5.659  -9.540  0.00  0.00    +0.083 A 
ATOM     11  C   UNL     1       3.161   6.745  -8.811  0.00  0.00    +0.146 A 
ATOM     12  F   UNL     1       2.859   7.998  -9.256  0.00  0.00    -0.204 F 
ATOM     13  C   UNL     1       3.470   6.601  -7.461  0.00  0.00    +0.045 A 
ATOM     14  C   UNL     1       3.487   5.350  -6.852  0.00  0.00    +0.055 A 
ATOM     15  C   UNL     1       3.559   4.288  -7.747  0.00  0.00    +0.015 A 
ATOM     16  C   UNL     1       3.050   4.416  -9.035  0.00  0.00    +0.008 A 
BRANCH  10  19
ATOM     17  C   UNL     1       0.763   5.102 -12.770  0.00  0.00    +0.139 C 
ATOM     18  N   UNL     1       1.792   5.546 -11.865  0.00  0.00    -0.200 NA
ATOM     19  C   UNL     1       1.565   5.783 -10.475  0.00  0.00    +0.267 C 
ATOM     20  O   UNL     1       0.366   5.644 -10.098  0.00  0.00    -0.268 OA
ENDBRANCH  10  19
ENDBRANCH   1  14
BRANCH   7  21
ATOM     21  C   UNL     1       0.604   5.166  -2.686  0.00  0.00    +0.060 A 
ATOM     22  C   UNL     1      -0.615   5.700  -3.061  0.00  0.00    +0.020 A 
ATOM     23  C   UNL     1      -1.353   6.435  -2.143  0.00  0.00    +0.082 A 
ATOM     24  C   UNL     1      -0.972   6.552  -0.812  0.00  0.00    +0.072 A 
ATOM     25  C   UNL     1       0.098   5.770  -0.397  0.00  0.00    +0.012 A 
ATOM     26  C   UNL     1       0.887   5.109  -1.329  0.00  0.00    +0.016 A 
BRANCH  23  27
ATOM     27  C   UNL     1      -2.552   7.161  -2.664  0.00  0.00    +0.419 C 
ATOM     28  F   UNL     1      -3.019   6.569  -3.824  0.00  0.00    -0.166 F 
ATOM     29  F   UNL     1      -3.573   7.033  -1.729  0.00  0.00    -0.166 F 
ATOM     30  F   UNL     1      -2.319   8.508  -2.811  0.00  0.00    -0.166 F 
ENDBRANCH  23  27
BRANCH  24  31
ATOM     31  C   UNL     1      -1.276   7.799  -0.145  0.00  0.00    +0.100 C 
ATOM     32  N   UNL     1      -1.550   8.826   0.337  0.00  0.00    -0.191 NA
ENDBRANCH  24  31
ENDBRANCH   7  21
TORSDOF 5
ENDMDL
