MODEL 1
REMARK VINA RESULT:      -8.3      0.000      0.000
REMARK  Name = 
REMARK  1 active torsions:
REMARK  status: ('A' for Active; 'I' for Inactive)
REMARK    1  A    between atoms: C_2  and  C_3
REMARK                            x       y       z     vdW  Elec       q    Type
REMARK                         _______ _______ _______ _____ _____    ______ ____
ROOT
ATOM      1  O   UNL     1       3.403   5.589 -10.691  0.00  0.00    -0.275 OA
ATOM      2  C   UNL     1       2.585   5.528 -10.061  0.00  0.00    +0.226 C 
ATOM      3  N   UNL     1       2.789   5.354  -8.674  0.00  0.00    -0.269 N 
ATOM      4  C   UNL     1       3.419   6.292  -7.784  0.00  0.00    +0.118 C 
ATOM      5  C   UNL     1       2.269   6.571  -6.602  0.00  0.00    +0.117 C 
ATOM      6  N   UNL     1       2.449   5.126  -5.935  0.00  0.00    -0.274 N 
ATOM      7  C   UNL     1       1.635   5.081  -4.718  0.00  0.00    +0.098 C 
ATOM      8  C   UNL     1       1.381   6.454  -4.138  0.00  0.00    +0.048 C 
ATOM      9  C   UNL     1       2.658   7.225  -4.321  0.00  0.00    -0.023 A 
ATOM     10  C   UNL     1       3.475   7.509  -3.231  0.00  0.00    -0.004 A 
ATOM     11  C   UNL     1       4.849   7.470  -3.318  0.00  0.00    -0.000 A 
ATOM     12  C   UNL     1       5.437   7.093  -4.519  0.00  0.00    -0.000 A 
ATOM     13  C   UNL     1       4.596   6.709  -5.558  0.00  0.00    -0.003 A 
ATOM     14  C   UNL     1       2.228   4.052  -6.829  0.00  0.00    +0.246 C 
ATOM     15  O   UNL     1       1.856   2.935  -6.362  0.00  0.00    -0.273 OA
ATOM     16  C   UNL     1       3.333   7.230  -5.545  0.00  0.00    -0.007 A 
ATOM     17  C   UNL     1       2.812   3.973  -8.197  0.00  0.00    +0.179 C 
ENDROOT
BRANCH   2  18
ATOM     18  C   UNL     1       1.344   4.913 -10.632  0.00  0.00    +0.077 C 
ATOM     19  C   UNL     1       0.109   5.354  -9.871  0.00  0.00    +0.009 C 
ATOM     20  C   UNL     1       0.044   6.870 -10.005  0.00  0.00    +0.000 C 
ATOM     21  C   UNL     1      -0.132   7.206 -11.459  0.00  0.00    +0.000 C 
ATOM     22  C   UNL     1       1.010   6.726 -12.303  0.00  0.00    +0.000 C 
ATOM     23  C   UNL     1       1.244   5.239 -12.107  0.00  0.00    +0.009 C 
ENDBRANCH   2  18
TORSDOF 1
ENDMDL
MODEL 2
REMARK VINA RESULT:      -7.9      2.897      7.513
REMARK  Name = 
REMARK  1 active torsions:
REMARK  status: ('A' for Active; 'I' for Inactive)
REMARK    1  A    between atoms: C_2  and  C_3
REMARK                            x       y       z     vdW  Elec       q    Type
REMARK                         _______ _______ _______ _____ _____    ______ ____
ROOT
ATOM      1  O   UNL     1       2.091   5.706  -0.321  0.00  0.00    -0.275 OA
ATOM      2  C   UNL     1       2.723   6.176  -0.993  0.00  0.00    +0.226 C 
ATOM      3  N   UNL     1       2.699   5.793  -2.352  0.00  0.00    -0.269 N 
ATOM      4  C   UNL     1       1.595   5.954  -3.260  0.00  0.00    +0.118 C 
ATOM      5  C   UNL     1       2.230   6.851  -4.521  0.00  0.00    +0.117 C 
ATOM      6  N   UNL     1       3.105   5.635  -5.087  0.00  0.00    -0.274 N 
ATOM      7  C   UNL     1       3.723   6.063  -6.344  0.00  0.00    +0.098 C 
ATOM      8  C   UNL     1       2.952   7.174  -7.020  0.00  0.00    +0.048 C 
ATOM      9  C   UNL     1       1.498   6.857  -6.812  0.00  0.00    -0.023 A 
ATOM     10  C   UNL     1       0.714   6.403  -7.869  0.00  0.00    -0.004 A 
ATOM     11  C   UNL     1      -0.247   5.430  -7.700  0.00  0.00    -0.000 A 
ATOM     12  C   UNL     1      -0.408   4.854  -6.446  0.00  0.00    -0.000 A 
ATOM     13  C   UNL     1       0.461   5.249  -5.436  0.00  0.00    -0.003 A 
ATOM     14  C   UNL     1       4.009   5.094  -4.143  0.00  0.00    +0.246 C 
ATOM     15  O   UNL     1       5.053   4.512  -4.561  0.00  0.00    -0.273 OA
ATOM     16  C   UNL     1       1.007   6.496  -5.554  0.00  0.00    -0.007 A 
ATOM     17  C   UNL     1       3.643   4.748  -2.741  0.00  0.00    +0.179 C 
ENDROOT
BRANCH   2  18
ATOM     18  C   UNL     1       4.041   6.643  -0.457  0.00  0.00    +0.077 C 
ATOM     19  C   UNL     1       4.726   7.589  -1.425  0.00  0.00    +0.009 C 
ATOM     20  C   UNL     1       3.788   8.776  -1.597  0.00  0.00    +0.000 C 
ATOM     21  C   UNL     1       3.644   9.459  -0.267  0.00  0.00    +0.000 C 
ATOM     22  C   UNL     1       3.052   8.563   0.779  0.00  0.00    +0.000 C 
ATOM     23  C   UNL     1       3.845   7.275   0.905  0.00  0.00    +0.009 C 
ENDBRANCH   2  18
TORSDOF 1
ENDMDL
MODEL 3
REMARK VINA RESULT:      -7.8      2.715      3.518
REMARK  Name = 
REMARK  1 active torsions:
REMARK  status: ('A' for Active; 'I' for Inactive)
REMARK    1  A    between atoms: C_2  and  C_3
REMARK                            x       y       z     vdW  Elec       q    Type
REMARK                         _______ _______ _______ _____ _____    ______ ____
ROOT
ATOM      1  O   UNL     1       6.918   5.100  -9.350  0.00  0.00    -0.275 OA
ATOM      2  C   UNL     1       5.967   5.452  -9.553  0.00  0.00    +0.226 C 
ATOM      3  N   UNL     1       4.920   5.191  -8.642  0.00  0.00    -0.269 N 
ATOM      4  C   UNL     1       4.825   5.682  -7.293  0.00  0.00    +0.118 C 
ATOM      5  C   UNL     1       3.361   6.491  -7.254  0.00  0.00    +0.117 C 
ATOM      6  N   UNL     1       2.495   5.145  -7.305  0.00  0.00    -0.274 N 
ATOM      7  C   UNL     1       1.084   5.505  -7.143  0.00  0.00    +0.098 C 
ATOM      8  C   UNL     1       0.899   6.817  -6.416  0.00  0.00    +0.048 C 
ATOM      9  C   UNL     1       1.949   6.847  -5.341  0.00  0.00    -0.023 A 
ATOM     10  C   UNL     1       1.598   6.678  -4.005  0.00  0.00    -0.004 A 
ATOM     11  C   UNL     1       2.381   5.958  -3.130  0.00  0.00    -0.000 A 
ATOM     12  C   UNL     1       3.534   5.345  -3.607  0.00  0.00    -0.000 A 
ATOM     13  C   UNL     1       3.802   5.440  -4.968  0.00  0.00    -0.003 A 
ATOM     14  C   UNL     1       2.768   4.331  -8.429  0.00  0.00    +0.246 C 
ATOM     15  O   UNL     1       1.867   3.547  -8.850  0.00  0.00    -0.273 OA
ATOM     16  C   UNL     1       3.280   6.523  -5.618  0.00  0.00    -0.007 A 
ATOM     17  C   UNL     1       4.140   3.980  -8.890  0.00  0.00    +0.179 C 
ENDROOT
BRANCH   2  18
ATOM     18  C   UNL     1       5.582   5.544 -10.997  0.00  0.00    +0.077 C 
ATOM     19  C   UNL     1       4.704   6.753 -11.259  0.00  0.00    +0.009 C 
ATOM     20  C   UNL     1       5.527   7.972 -10.865  0.00  0.00    +0.000 C 
ATOM     21  C   UNL     1       6.729   8.038 -11.764  0.00  0.00    +0.000 C 
ATOM     22  C   UNL     1       7.613   6.834 -11.633  0.00  0.00    +0.000 C 
ATOM     23  C   UNL     1       6.827   5.555 -11.859  0.00  0.00    +0.009 C 
ENDBRANCH   2  18
TORSDOF 1
ENDMDL
MODEL 4
REMARK VINA RESULT:      -7.8      1.489      6.403
REMARK  Name = 
REMARK  1 active torsions:
REMARK  status: ('A' for Active; 'I' for Inactive)
REMARK    1  A    between atoms: C_2  and  C_3
REMARK                            x       y       z     vdW  Elec       q    Type
REMARK                         _______ _______ _______ _____ _____    ______ ____
ROOT
ATOM      1  O   UNL     1       1.121   7.212  -3.852  0.00  0.00    -0.275 OA
ATOM      2  C   UNL     1       1.933   6.694  -4.230  0.00  0.00    +0.226 C 
ATOM      3  N   UNL     1       1.834   6.074  -5.496  0.00  0.00    -0.269 N 
ATOM      4  C   UNL     1       1.660   6.743  -6.757  0.00  0.00    +0.118 C 
ATOM      5  C   UNL     1       2.957   6.225  -7.677  0.00  0.00    +0.117 C 
ATOM      6  N   UNL     1       2.371   4.747  -7.866  0.00  0.00    -0.274 N 
ATOM      7  C   UNL     1       3.248   4.023  -8.790  0.00  0.00    +0.098 C 
ATOM      8  C   UNL     1       4.014   4.949  -9.708  0.00  0.00    +0.048 C 
ATOM      9  C   UNL     1       3.062   6.052 -10.073  0.00  0.00    -0.023 A 
ATOM     10  C   UNL     1       2.513   6.120 -11.350  0.00  0.00    -0.004 A 
ATOM     11  C   UNL     1       1.206   6.499 -11.565  0.00  0.00    -0.000 A 
ATOM     12  C   UNL     1       0.399   6.780 -10.469  0.00  0.00    -0.000 A 
ATOM     13  C   UNL     1       0.942   6.599  -9.202  0.00  0.00    -0.003 A 
ATOM     14  C   UNL     1       2.116   4.074  -6.648  0.00  0.00    +0.246 C 
ATOM     15  O   UNL     1       2.135   2.807  -6.635  0.00  0.00    -0.273 OA
ATOM     16  C   UNL     1       2.300   6.705  -9.100  0.00  0.00    -0.007 A 
ATOM     17  C   UNL     1       1.396   4.681  -5.495  0.00  0.00    +0.179 C 
ENDROOT
BRANCH   2  18
ATOM     18  C   UNL     1       2.822   6.022  -3.230  0.00  0.00    +0.077 C 
ATOM     19  C   UNL     1       4.120   5.562  -3.865  0.00  0.00    +0.009 C 
ATOM     20  C   UNL     1       4.800   6.815  -4.402  0.00  0.00    +0.000 C 
ATOM     21  C   UNL     1       5.117   7.712  -3.239  0.00  0.00    +0.000 C 
ATOM     22  C   UNL     1       3.890   8.147  -2.496  0.00  0.00    +0.000 C 
ATOM     23  C   UNL     1       3.066   6.949  -2.058  0.00  0.00    +0.009 C 
ENDBRANCH   2  18
TORSDOF 1
ENDMDL
MODEL 5
REMARK VINA RESULT:      -7.6      3.038      4.789
REMARK  Name = 
REMARK  1 active torsions:
REMARK  status: ('A' for Active; 'I' for Inactive)
REMARK    1  A    between atoms: C_2  and  C_3
REMARK                            x       y       z     vdW  Elec       q    Type
REMARK                         _______ _______ _______ _____ _____    ______ ____
ROOT
ATOM      1  O   UNL     1       2.062   3.619  -6.688  0.00  0.00    -0.275 OA
ATOM      2  C   UNL     1       1.599   4.518  -6.906  0.00  0.00    +0.226 C 
ATOM      3  N   UNL     1       0.452   4.903  -6.177  0.00  0.00    -0.269 N 
ATOM      4  C   UNL     1       0.400   5.205  -4.772  0.00  0.00    +0.118 C 
ATOM      5  C   UNL     1      -0.222   6.756  -4.709  0.00  0.00    +0.117 C 
ATOM      6  N   UNL     1      -1.698   6.296  -5.125  0.00  0.00    -0.274 N 
ATOM      7  C   UNL     1      -2.582   7.461  -5.031  0.00  0.00    +0.098 C 
ATOM      8  C   UNL     1      -2.066   8.505  -4.067  0.00  0.00    +0.048 C 
ATOM      9  C   UNL     1      -1.475   7.747  -2.912  0.00  0.00    -0.023 A 
ATOM     10  C   UNL     1      -2.126   7.713  -1.682  0.00  0.00    -0.004 A 
ATOM     11  C   UNL     1      -2.158   6.576  -0.904  0.00  0.00    -0.000 A 
ATOM     12  C   UNL     1      -1.560   5.417  -1.383  0.00  0.00    -0.000 A 
ATOM     13  C   UNL     1      -1.013   5.450  -2.660  0.00  0.00    -0.003 A 
ATOM     14  C   UNL     1      -1.756   5.613  -6.362  0.00  0.00    +0.246 C 
ATOM     15  O   UNL     1      -2.836   5.638  -7.024  0.00  0.00    -0.273 OA
ATOM     16  C   UNL     1      -0.607   6.672  -3.118  0.00  0.00    -0.007 A 
ATOM     17  C   UNL     1      -0.834   4.510  -6.749  0.00  0.00    +0.179 C 
ENDROOT
BRANCH   2  18
ATOM     18  C   UNL     1       1.666   4.977  -8.329  0.00  0.00    +0.077 C 
ATOM     19  C   UNL     1       1.781   6.487  -8.418  0.00  0.00    +0.009 C 
ATOM     20  C   UNL     1       3.068   6.860  -7.694  0.00  0.00    +0.000 C 
ATOM     21  C   UNL     1       4.220   6.237  -8.432  0.00  0.00    +0.000 C 
ATOM     22  C   UNL     1       4.139   4.741  -8.469  0.00  0.00    +0.000 C 
ATOM     23  C   UNL     1       2.809   4.282  -9.038  0.00  0.00    +0.009 C 
ENDBRANCH   2  18
TORSDOF 1
ENDMDL
MODEL 6
REMARK VINA RESULT:      -7.5      2.594      6.392
REMARK  Name = 
REMARK  1 active torsions:
REMARK  status: ('A' for Active; 'I' for Inactive)
REMARK    1  A    between atoms: C_2  and  C_3
REMARK                            x       y       z     vdW  Elec       q    Type
REMARK                         _______ _______ _______ _____ _____    ______ ____
ROOT
ATOM      1  O   UNL     1      -2.190   4.988  -5.667  0.00  0.00    -0.275 OA
ATOM      2  C   UNL     1      -1.267   5.456  -5.659  0.00  0.00    +0.226 C 
ATOM      3  N   UNL     1      -0.329   5.156  -6.671  0.00  0.00    -0.269 N 
ATOM      4  C   UNL     1      -0.473   5.439  -8.074  0.00  0.00    +0.118 C 
ATOM      5  C   UNL     1       0.869   6.366  -8.444  0.00  0.00    +0.117 C 
ATOM      6  N   UNL     1       1.884   5.133  -8.336  0.00  0.00    -0.274 N 
ATOM      7  C   UNL     1       3.210   5.594  -8.755  0.00  0.00    +0.098 C 
ATOM      8  C   UNL     1       3.142   6.790  -9.679  0.00  0.00    +0.048 C 
ATOM      9  C   UNL     1       1.962   6.554 -10.578  0.00  0.00    -0.023 A 
ATOM     10  C   UNL     1       2.147   6.213 -11.915  0.00  0.00    -0.004 A 
ATOM     11  C   UNL     1       1.343   5.296 -12.553  0.00  0.00    -0.000 A 
ATOM     12  C   UNL     1       0.343   4.659 -11.828  0.00  0.00    -0.000 A 
ATOM     13  C   UNL     1       0.251   4.937 -10.469  0.00  0.00    -0.003 A 
ATOM     14  C   UNL     1       1.859   4.481  -7.081  0.00  0.00    +0.246 C 
ATOM     15  O   UNL     1       2.894   3.859  -6.695  0.00  0.00    -0.273 OA
ATOM     16  C   UNL     1       0.726   6.152 -10.063  0.00  0.00    -0.007 A 
ATOM     17  C   UNL     1       0.611   4.078  -6.375  0.00  0.00    +0.179 C 
ENDROOT
BRANCH   2  18
ATOM     18  C   UNL     1      -0.706   5.806  -4.316  0.00  0.00    +0.077 C 
ATOM     19  C   UNL     1      -0.170   7.224  -4.294  0.00  0.00    +0.009 C 
ATOM     20  C   UNL     1      -1.351   8.132  -4.613  0.00  0.00    +0.000 C 
ATOM     21  C   UNL     1      -2.371   7.978  -3.520  0.00  0.00    +0.000 C 
ATOM     22  C   UNL     1      -2.893   6.577  -3.413  0.00  0.00    +0.000 C 
ATOM     23  C   UNL     1      -1.757   5.584  -3.248  0.00  0.00    +0.009 C 
ENDBRANCH   2  18
TORSDOF 1
ENDMDL
MODEL 7
REMARK VINA RESULT:      -7.3      3.400      6.589
REMARK  Name = 
REMARK  1 active torsions:
REMARK  status: ('A' for Active; 'I' for Inactive)
REMARK    1  A    between atoms: C_2  and  C_3
REMARK                            x       y       z     vdW  Elec       q    Type
REMARK                         _______ _______ _______ _____ _____    ______ ____
ROOT
ATOM      1  O   UNL     1       2.521   3.984  -8.104  0.00  0.00    -0.275 OA
ATOM      2  C   UNL     1       3.094   4.839  -8.000  0.00  0.00    +0.226 C 
ATOM      3  N   UNL     1       4.170   5.066  -8.886  0.00  0.00    -0.269 N 
ATOM      4  C   UNL     1       4.069   5.292 -10.303  0.00  0.00    +0.118 C 
ATOM      5  C   UNL     1       4.827   6.765 -10.537  0.00  0.00    +0.117 C 
ATOM      6  N   UNL     1       6.292   6.174 -10.277  0.00  0.00    -0.274 N 
ATOM      7  C   UNL     1       7.267   7.233 -10.550  0.00  0.00    +0.098 C 
ATOM      8  C   UNL     1       6.736   8.278 -11.505  0.00  0.00    +0.048 C 
ATOM      9  C   UNL     1       5.931   7.531 -12.531  0.00  0.00    -0.023 A 
ATOM     10  C   UNL     1       6.411   7.369 -13.827  0.00  0.00    -0.004 A 
ATOM     11  C   UNL     1       6.232   6.199 -14.532  0.00  0.00    -0.000 A 
ATOM     12  C   UNL     1       5.590   5.133 -13.913  0.00  0.00    -0.000 A 
ATOM     13  C   UNL     1       5.218   5.285 -12.583  0.00  0.00    -0.003 A 
ATOM     14  C   UNL     1       6.442   5.549  -9.017  0.00  0.00    +0.246 C 
ATOM     15  O   UNL     1       7.595   5.492  -8.496  0.00  0.00    -0.273 OA
ATOM     16  C   UNL     1       4.995   6.564 -12.155  0.00  0.00    -0.007 A 
ATOM     17  C   UNL     1       5.473   4.568  -8.453  0.00  0.00    +0.179 C 
ENDROOT
BRANCH   2  18
ATOM     18  C   UNL     1       3.255   5.371  -6.610  0.00  0.00    +0.077 C 
ATOM     19  C   UNL     1       3.273   6.887  -6.597  0.00  0.00    +0.009 C 
ATOM     20  C   UNL     1       1.935   7.335  -7.169  0.00  0.00    +0.000 C 
ATOM     21  C   UNL     1       0.846   6.851  -6.252  0.00  0.00    +0.000 C 
ATOM     22  C   UNL     1       0.812   5.357  -6.137  0.00  0.00    +0.000 C 
ATOM     23  C   UNL     1       2.165   4.813  -5.718  0.00  0.00    +0.009 C 
ENDBRANCH   2  18
TORSDOF 1
ENDMDL
MODEL 8
REMARK VINA RESULT:      -7.0      3.766      8.025
REMARK  Name = 
REMARK  1 active torsions:
REMARK  status: ('A' for Active; 'I' for Inactive)
REMARK    1  A    between atoms: C_2  and  C_3
REMARK                            x       y       z     vdW  Elec       q    Type
REMARK                         _______ _______ _______ _____ _____    ______ ____
ROOT
ATOM      1  O   UNL     1       0.678   7.340   0.090  0.00  0.00    -0.275 OA
ATOM      2  C   UNL     1       1.650   7.411  -0.255  0.00  0.00    +0.226 C 
ATOM      3  N   UNL     1       2.096   6.524  -1.261  0.00  0.00    -0.269 N 
ATOM      4  C   UNL     1       1.609   6.461  -2.613  0.00  0.00    +0.118 C 
ATOM      5  C   UNL     1       2.976   6.682  -3.551  0.00  0.00    +0.117 C 
ATOM      6  N   UNL     1       3.570   5.233  -3.217  0.00  0.00    -0.274 N 
ATOM      7  C   UNL     1       4.772   5.034  -4.031  0.00  0.00    +0.098 C 
ATOM      8  C   UNL     1       4.769   5.877  -5.285  0.00  0.00    +0.048 C 
ATOM      9  C   UNL     1       3.352   5.875  -5.785  0.00  0.00    -0.023 A 
ATOM     10  C   UNL     1       3.003   5.150  -6.920  0.00  0.00    -0.004 A 
ATOM     11  C   UNL     1       1.810   4.469  -7.014  0.00  0.00    -0.000 A 
ATOM     12  C   UNL     1       0.947   4.470  -5.925  0.00  0.00    -0.000 A 
ATOM     13  C   UNL     1       1.369   5.110  -4.766  0.00  0.00    -0.003 A 
ATOM     14  C   UNL     1       3.751   4.994  -1.835  0.00  0.00    +0.246 C 
ATOM     15  O   UNL     1       4.627   4.155  -1.469  0.00  0.00    -0.273 OA
ATOM     16  C   UNL     1       2.279   6.118  -4.923  0.00  0.00    -0.007 A 
ATOM     17  C   UNL     1       2.726   5.291  -0.796  0.00  0.00    +0.179 C 
ENDROOT
BRANCH   2  18
ATOM     18  C   UNL     1       2.680   7.865   0.733  0.00  0.00    +0.077 C 
ATOM     19  C   UNL     1       3.940   8.342   0.038  0.00  0.00    +0.009 C 
ATOM     20  C   UNL     1       3.523   9.509  -0.848  0.00  0.00    +0.000 C 
ATOM     21  C   UNL     1       3.007  10.609   0.036  0.00  0.00    +0.000 C 
ATOM     22  C   UNL     1       1.806  10.193   0.831  0.00  0.00    +0.000 C 
ATOM     23  C   UNL     1       2.092   8.934   1.630  0.00  0.00    +0.009 C 
ENDBRANCH   2  18
TORSDOF 1
ENDMDL
MODEL 9
REMARK VINA RESULT:      -7.0      2.984      4.604
REMARK  Name = 
REMARK  1 active torsions:
REMARK  status: ('A' for Active; 'I' for Inactive)
REMARK    1  A    between atoms: C_2  and  C_3
REMARK                            x       y       z     vdW  Elec       q    Type
REMARK                         _______ _______ _______ _____ _____    ______ ____
ROOT
ATOM      1  O   UNL     1       2.565   5.987 -15.057  0.00  0.00    -0.275 OA
ATOM      2  C   UNL     1       1.879   6.348 -14.372  0.00  0.00    +0.226 C 
ATOM      3  N   UNL     1       1.912   5.874 -13.041  0.00  0.00    -0.269 N 
ATOM      4  C   UNL     1       2.977   6.071 -12.096  0.00  0.00    +0.118 C 
ATOM      5  C   UNL     1       2.236   6.814 -10.793  0.00  0.00    +0.117 C 
ATOM      6  N   UNL     1       1.467   5.485 -10.336  0.00  0.00    -0.274 N 
ATOM      7  C   UNL     1       0.786   5.765  -9.069  0.00  0.00    +0.098 C 
ATOM      8  C   UNL     1       1.436   6.891  -8.298  0.00  0.00    +0.048 C 
ATOM      9  C   UNL     1       2.917   6.725  -8.489  0.00  0.00    -0.023 A 
ATOM     10  C   UNL     1       3.719   6.271  -7.445  0.00  0.00    -0.004 A 
ATOM     11  C   UNL     1       4.769   5.405  -7.654  0.00  0.00    -0.000 A 
ATOM     12  C   UNL     1       5.009   4.937  -8.940  0.00  0.00    -0.000 A 
ATOM     13  C   UNL     1       4.127   5.321  -9.944  0.00  0.00    -0.003 A 
ATOM     14  C   UNL     1       0.637   4.932 -11.339  0.00  0.00    +0.246 C 
ATOM     15  O   UNL     1      -0.357   4.228 -10.990  0.00  0.00    -0.273 OA
ATOM     16  C   UNL     1       3.465   6.501  -9.755  0.00  0.00    -0.007 A 
ATOM     17  C   UNL     1       1.062   4.722 -12.751  0.00  0.00    +0.179 C 
ENDROOT
BRANCH   2  18
ATOM     18  C   UNL     1       0.534   6.729 -14.908  0.00  0.00    +0.077 C 
ATOM     19  C   UNL     1      -0.115   7.805 -14.059  0.00  0.00    +0.009 C 
ATOM     20  C   UNL     1       0.819   9.007 -14.106  0.00  0.00    +0.000 C 
ATOM     21  C   UNL     1       0.897   9.487 -15.528  0.00  0.00    +0.000 C 
ATOM     22  C   UNL     1       1.449   8.449 -16.457  0.00  0.00    +0.000 C 
ATOM     23  C   UNL     1       0.663   7.155 -16.356  0.00  0.00    +0.009 C 
ENDBRANCH   2  18
TORSDOF 1
ENDMDL
