MODEL 1
REMARK VINA RESULT:      -8.8      0.000      0.000
REMARK  Name = 
REMARK  3 active torsions:
REMARK  status: ('A' for Active; 'I' for Inactive)
REMARK    1  A    between atoms: O_2  and  C_3
REMARK    2  A    between atoms: C_12  and  C_14
REMARK    3  A    between atoms: C_26  and  O_27
REMARK                            x       y       z     vdW  Elec       q    Type
REMARK                         _______ _______ _______ _____ _____    ______ ____
ROOT
ATOM      1  C   UNL     1       7.075   6.072 -13.120  0.00  0.00    +0.174 A 
ATOM      2  C   UNL     1       6.365   6.093 -14.288  0.00  0.00    +0.173 A 
ATOM      3  C   UNL     1       4.981   6.091 -14.178  0.00  0.00    +0.044 A 
ATOM      4  C   UNL     1       4.344   5.728 -13.001  0.00  0.00    +0.056 A 
ATOM      5  C   UNL     1       5.083   5.549 -11.847  0.00  0.00    +0.090 A 
ATOM      6  N   UNL     1       4.398   5.600 -10.693  0.00  0.00    -0.213 NA
ATOM      7  C   UNL     1       3.109   6.018 -10.649  0.00  0.00    +0.221 A 
ATOM      8  N   UNL     1       2.359   5.858 -11.756  0.00  0.00    -0.195 NA
ATOM      9  N   UNL     1       2.481   5.904  -9.364  0.00  0.00    -0.275 N 
ATOM     10  C   UNL     1       3.080   6.776  -8.360  0.00  0.00    +0.115 C 
ATOM     11  C   UNL     1       2.451   6.654  -7.012  0.00  0.00    +0.115 C 
ATOM     12  N   UNL     1       1.517   5.549  -6.960  0.00  0.00    -0.274 N 
ATOM     13  C   UNL     1       0.131   5.682  -6.993  0.00  0.00    +0.253 C 
ATOM     14  O   UNL     1      -0.614   4.674  -7.131  0.00  0.00    -0.272 OA
ATOM     15  C   UNL     1       2.063   4.321  -7.539  0.00  0.00    +0.115 C 
ATOM     16  C   UNL     1       2.001   4.564  -9.042  0.00  0.00    +0.115 C 
ATOM     17  C   UNL     1       2.966   5.683 -12.953  0.00  0.00    +0.174 A 
ATOM     18  N   UNL     1       2.232   5.374 -14.138  0.00  0.00    -0.107 NA
ATOM     19  C   UNL     1       6.446   5.693 -11.941  0.00  0.00    +0.059 A 
ENDROOT
BRANCH  13  20
ATOM     20  C   UNL     1      -0.550   6.534  -5.750  0.00  0.00    +0.191 C 
ATOM     21  O   UNL     1      -0.249   5.405  -4.728  0.00  0.00    -0.347 OA
ATOM     22  C   UNL     1      -1.207   5.789  -3.789  0.00  0.00    +0.143 C 
ATOM     23  C   UNL     1      -2.502   5.948  -4.570  0.00  0.00    +0.035 C 
ATOM     24  C   UNL     1      -2.090   5.904  -6.036  0.00  0.00    +0.042 C 
ENDBRANCH  13  20
BRANCH   1  26
ATOM     25  C   UNL     1       9.170   5.795 -12.007  0.00  0.00    +0.253 C 
ATOM     26  O   UNL     1       8.451   6.106 -13.186  0.00  0.00    -0.468 OA
ENDBRANCH   1  26
BRANCH   2  27
ATOM     27  O   UNL     1       6.898   5.910 -15.543  0.00  0.00    -0.468 OA
ATOM     28  C   UNL     1       7.000   6.896 -16.536  0.00  0.00    +0.253 C 
ENDBRANCH   2  27
TORSDOF 3
ENDMDL
MODEL 2
REMARK VINA RESULT:      -8.4      1.575      2.278
REMARK  Name = 
REMARK  3 active torsions:
REMARK  status: ('A' for Active; 'I' for Inactive)
REMARK    1  A    between atoms: O_2  and  C_3
REMARK    2  A    between atoms: C_12  and  C_14
REMARK    3  A    between atoms: C_26  and  O_27
REMARK                            x       y       z     vdW  Elec       q    Type
REMARK                         _______ _______ _______ _____ _____    ______ ____
ROOT
ATOM      1  C   UNL     1       5.727   5.605 -11.405  0.00  0.00    +0.174 A 
ATOM      2  C   UNL     1       4.996   5.755 -12.550  0.00  0.00    +0.173 A 
ATOM      3  C   UNL     1       3.635   5.990 -12.397  0.00  0.00    +0.044 A 
ATOM      4  C   UNL     1       2.982   5.734 -11.201  0.00  0.00    +0.056 A 
ATOM      5  C   UNL     1       3.715   5.424 -10.071  0.00  0.00    +0.090 A 
ATOM      6  N   UNL     1       3.084   5.585  -8.896  0.00  0.00    -0.213 NA
ATOM      7  C   UNL     1       1.888   6.218  -8.812  0.00  0.00    +0.221 A 
ATOM      8  N   UNL     1       1.088   6.196  -9.895  0.00  0.00    -0.195 NA
ATOM      9  N   UNL     1       1.290   6.206  -7.507  0.00  0.00    -0.275 N 
ATOM     10  C   UNL     1       2.060   6.956  -6.522  0.00  0.00    +0.115 C 
ATOM     11  C   UNL     1       1.461   6.936  -5.155  0.00  0.00    +0.115 C 
ATOM     12  N   UNL     1       0.353   6.007  -5.075  0.00  0.00    -0.274 N 
ATOM     13  C   UNL     1      -0.990   6.376  -5.065  0.00  0.00    +0.253 C 
ATOM     14  O   UNL     1      -1.901   5.512  -5.180  0.00  0.00    -0.272 OA
ATOM     15  C   UNL     1       0.662   4.707  -5.671  0.00  0.00    +0.115 C 
ATOM     16  C   UNL     1       0.597   4.966  -7.171  0.00  0.00    +0.115 C 
ATOM     17  C   UNL     1       1.619   5.927 -11.110  0.00  0.00    +0.174 A 
ATOM     18  N   UNL     1       0.807   5.755 -12.272  0.00  0.00    -0.107 NA
ATOM     19  C   UNL     1       5.078   5.333 -10.207  0.00  0.00    +0.059 A 
ENDROOT
BRANCH  13  20
ATOM     20  C   UNL     1      -1.476   7.324  -3.800  0.00  0.00    +0.191 C 
ATOM     21  O   UNL     1      -0.850   6.362  -2.755  0.00  0.00    -0.347 OA
ATOM     22  C   UNL     1      -1.623   6.788  -1.674  0.00  0.00    +0.143 C 
ATOM     23  C   UNL     1      -3.063   6.745  -2.159  0.00  0.00    +0.035 C 
ATOM     24  C   UNL     1      -2.968   6.546  -3.666  0.00  0.00    +0.042 C 
ENDBRANCH  13  20
BRANCH   1  26
ATOM     25  C   UNL     1       7.936   6.483 -11.180  0.00  0.00    +0.253 C 
ATOM     26  O   UNL     1       7.085   5.403 -11.514  0.00  0.00    -0.468 OA
ENDBRANCH   1  26
BRANCH   2  27
ATOM     27  O   UNL     1       5.450   5.491 -13.821  0.00  0.00    -0.468 OA
ATOM     28  C   UNL     1       5.998   6.435 -14.703  0.00  0.00    +0.253 C 
ENDBRANCH   2  27
TORSDOF 3
ENDMDL
MODEL 3
REMARK VINA RESULT:      -8.4      2.594     10.362
REMARK  Name = 
REMARK  3 active torsions:
REMARK  status: ('A' for Active; 'I' for Inactive)
REMARK    1  A    between atoms: O_2  and  C_3
REMARK    2  A    between atoms: C_12  and  C_14
REMARK    3  A    between atoms: C_26  and  O_27
REMARK                            x       y       z     vdW  Elec       q    Type
REMARK                         _______ _______ _______ _____ _____    ______ ____
ROOT
ATOM      1  C   UNL     1      -1.624   5.646  -2.824  0.00  0.00    +0.174 A 
ATOM      2  C   UNL     1      -0.853   5.926  -1.731  0.00  0.00    +0.173 A 
ATOM      3  C   UNL     1       0.486   6.209  -1.967  0.00  0.00    +0.044 A 
ATOM      4  C   UNL     1       1.099   5.883  -3.167  0.00  0.00    +0.056 A 
ATOM      5  C   UNL     1       0.335   5.445  -4.232  0.00  0.00    +0.090 A 
ATOM      6  N   UNL     1       0.906   5.535  -5.444  0.00  0.00    -0.213 NA
ATOM      7  C   UNL     1       2.065   6.212  -5.637  0.00  0.00    +0.221 A 
ATOM      8  N   UNL     1       2.910   6.319  -4.594  0.00  0.00    -0.195 NA
ATOM      9  N   UNL     1       2.606   6.117  -6.962  0.00  0.00    -0.275 N 
ATOM     10  C   UNL     1       1.758   6.745  -7.969  0.00  0.00    +0.115 C 
ATOM     11  C   UNL     1       2.298   6.636  -9.356  0.00  0.00    +0.115 C 
ATOM     12  N   UNL     1       3.447   5.755  -9.411  0.00  0.00    -0.274 N 
ATOM     13  C   UNL     1       4.767   6.183  -9.515  0.00  0.00    +0.253 C 
ATOM     14  O   UNL     1       5.725   5.374  -9.371  0.00  0.00    -0.272 OA
ATOM     15  C   UNL     1       3.228   4.498  -8.696  0.00  0.00    +0.115 C 
ATOM     16  C   UNL     1       3.345   4.886  -7.227  0.00  0.00    +0.115 C 
ATOM     17  C   UNL     1       2.447   6.130  -3.337  0.00  0.00    +0.174 A 
ATOM     18  N   UNL     1       3.315   6.094  -2.205  0.00  0.00    -0.107 NA
ATOM     19  C   UNL     1      -1.015   5.303  -4.024  0.00  0.00    +0.059 A 
ENDROOT
BRANCH  13  20
ATOM     20  C   UNL     1       5.152   7.042 -10.875  0.00  0.00    +0.191 C 
ATOM     21  O   UNL     1       5.144   5.767 -11.759  0.00  0.00    -0.347 OA
ATOM     22  C   UNL     1       5.932   6.288 -12.786  0.00  0.00    +0.143 C 
ATOM     23  C   UNL     1       7.155   6.878 -12.102  0.00  0.00    +0.035 C 
ATOM     24  C   UNL     1       6.813   6.890 -10.618  0.00  0.00    +0.042 C 
ENDBRANCH  13  20
BRANCH   1  26
ATOM     25  C   UNL     1      -3.845   6.500  -2.625  0.00  0.00    +0.253 C 
ATOM     26  O   UNL     1      -2.965   5.392  -2.636  0.00  0.00    -0.468 OA
ENDBRANCH   1  26
BRANCH   2  27
ATOM     27  O   UNL     1      -1.239   5.750  -0.423  0.00  0.00    -0.468 OA
ATOM     28  C   UNL     1      -1.573   6.778   0.473  0.00  0.00    +0.253 C 
ENDBRANCH   2  27
TORSDOF 3
ENDMDL
MODEL 4
REMARK VINA RESULT:      -8.1      2.792      4.303
REMARK  Name = 
REMARK  3 active torsions:
REMARK  status: ('A' for Active; 'I' for Inactive)
REMARK    1  A    between atoms: O_2  and  C_3
REMARK    2  A    between atoms: C_12  and  C_14
REMARK    3  A    between atoms: C_26  and  O_27
REMARK                            x       y       z     vdW  Elec       q    Type
REMARK                         _______ _______ _______ _____ _____    ______ ____
ROOT
ATOM      1  C   UNL     1       2.332   5.303 -13.559  0.00  0.00    +0.174 A 
ATOM      2  C   UNL     1       3.590   5.738 -13.870  0.00  0.00    +0.173 A 
ATOM      3  C   UNL     1       4.411   6.088 -12.806  0.00  0.00    +0.044 A 
ATOM      4  C   UNL     1       3.900   6.333 -11.542  0.00  0.00    +0.056 A 
ATOM      5  C   UNL     1       2.578   6.040 -11.266  0.00  0.00    +0.090 A 
ATOM      6  N   UNL     1       2.259   5.916  -9.968  0.00  0.00    -0.213 NA
ATOM      7  C   UNL     1       3.210   5.862  -9.003  0.00  0.00    +0.221 A 
ATOM      8  N   UNL     1       4.389   6.464  -9.250  0.00  0.00    -0.195 NA
ATOM      9  N   UNL     1       2.706   5.847  -7.660  0.00  0.00    -0.275 N 
ATOM     10  C   UNL     1       1.945   4.642  -7.352  0.00  0.00    +0.115 C 
ATOM     11  C   UNL     1       1.397   4.620  -5.964  0.00  0.00    +0.115 C 
ATOM     12  N   UNL     1       1.579   5.895  -5.301  0.00  0.00    -0.274 N 
ATOM     13  C   UNL     1       2.546   6.151  -4.332  0.00  0.00    +0.253 C 
ATOM     14  O   UNL     1       2.769   7.326  -3.933  0.00  0.00    -0.272 OA
ATOM     15  C   UNL     1       1.187   7.028  -6.140  0.00  0.00    +0.115 C 
ATOM     16  C   UNL     1       2.330   7.158  -7.140  0.00  0.00    +0.115 C 
ATOM     17  C   UNL     1       4.745   6.735 -10.527  0.00  0.00    +0.174 A 
ATOM     18  N   UNL     1       5.913   7.491 -10.845  0.00  0.00    -0.107 NA
ATOM     19  C   UNL     1       1.810   5.560 -12.298  0.00  0.00    +0.059 A 
ENDROOT
BRANCH  13  20
ATOM     20  C   UNL     1       2.443   5.256  -2.945  0.00  0.00    +0.191 C 
ATOM     21  O   UNL     1       2.541   6.518  -2.048  0.00  0.00    -0.347 OA
ATOM     22  C   UNL     1       2.967   5.854  -0.896  0.00  0.00    +0.143 C 
ATOM     23  C   UNL     1       4.140   4.991  -1.333  0.00  0.00    +0.035 C 
ATOM     24  C   UNL     1       4.113   5.026  -2.856  0.00  0.00    +0.042 C 
ENDBRANCH  13  20
BRANCH   1  26
ATOM     25  C   UNL     1       0.426   4.049 -14.264  0.00  0.00    +0.253 C 
ATOM     26  O   UNL     1       1.498   4.915 -14.585  0.00  0.00    -0.468 OA
ENDBRANCH   1  26
BRANCH   2  27
ATOM     27  O   UNL     1       4.031   6.050 -15.136  0.00  0.00    -0.468 OA
ATOM     28  C   UNL     1       5.183   6.792 -15.437  0.00  0.00    +0.253 C 
ENDBRANCH   2  27
TORSDOF 3
ENDMDL
MODEL 5
REMARK VINA RESULT:      -8.1      2.004      3.592
REMARK  Name = 
REMARK  3 active torsions:
REMARK  status: ('A' for Active; 'I' for Inactive)
REMARK    1  A    between atoms: O_2  and  C_3
REMARK    2  A    between atoms: C_12  and  C_14
REMARK    3  A    between atoms: C_26  and  O_27
REMARK                            x       y       z     vdW  Elec       q    Type
REMARK                         _______ _______ _______ _____ _____    ______ ____
ROOT
ATOM      1  C   UNL     1       3.873   5.594 -13.329  0.00  0.00    +0.174 A 
ATOM      2  C   UNL     1       5.226   5.430 -13.234  0.00  0.00    +0.173 A 
ATOM      3  C   UNL     1       5.756   5.336 -11.954  0.00  0.00    +0.044 A 
ATOM      4  C   UNL     1       5.040   5.739 -10.838  0.00  0.00    +0.056 A 
ATOM      5  C   UNL     1       3.702   6.061 -10.960  0.00  0.00    +0.090 A 
ATOM      6  N   UNL     1       2.985   6.047  -9.824  0.00  0.00    -0.213 NA
ATOM      7  C   UNL     1       3.487   5.538  -8.672  0.00  0.00    +0.221 A 
ATOM      8  N   UNL     1       4.824   5.555  -8.508  0.00  0.00    -0.195 NA
ATOM      9  N   UNL     1       2.645   5.702  -7.522  0.00  0.00    -0.275 N 
ATOM     10  C   UNL     1       1.395   4.957  -7.622  0.00  0.00    +0.115 C 
ATOM     11  C   UNL     1       0.499   5.134  -6.442  0.00  0.00    +0.115 C 
ATOM     12  N   UNL     1       0.990   6.167  -5.552  0.00  0.00    -0.274 N 
ATOM     13  C   UNL     1       1.633   5.927  -4.341  0.00  0.00    +0.253 C 
ATOM     14  O   UNL     1       2.197   6.862  -3.710  0.00  0.00    -0.272 OA
ATOM     15  C   UNL     1       1.381   7.384  -6.264  0.00  0.00    +0.115 C 
ATOM     16  C   UNL     1       2.715   7.023  -6.905  0.00  0.00    +0.115 C 
ATOM     17  C   UNL     1       5.627   5.683  -9.590  0.00  0.00    +0.174 A 
ATOM     18  N   UNL     1       7.040   5.844  -9.471  0.00  0.00    -0.107 NA
ATOM     19  C   UNL     1       3.153   6.014 -12.218  0.00  0.00    +0.059 A 
ENDROOT
BRANCH  13  20
ATOM     20  C   UNL     1       0.753   5.124  -3.194  0.00  0.00    +0.191 C 
ATOM     21  O   UNL     1      -0.362   6.204  -3.203  0.00  0.00    -0.347 OA
ATOM     22  C   UNL     1      -0.882   5.897  -1.945  0.00  0.00    +0.143 C 
ATOM     23  C   UNL     1       0.313   5.874  -1.005  0.00  0.00    +0.035 C 
ATOM     24  C   UNL     1       1.534   5.901  -1.914  0.00  0.00    +0.042 C 
ENDBRANCH  13  20
BRANCH   1  26
ATOM     25  C   UNL     1       2.090   6.374 -14.713  0.00  0.00    +0.253 C 
ATOM     26  O   UNL     1       3.304   5.659 -14.583  0.00  0.00    -0.468 OA
ENDBRANCH   1  26
BRANCH   2  27
ATOM     27  O   UNL     1       6.115   5.555 -14.276  0.00  0.00    -0.468 OA
ATOM     28  C   UNL     1       6.630   6.765 -14.767  0.00  0.00    +0.253 C 
ENDBRANCH   2  27
TORSDOF 3
ENDMDL
MODEL 6
REMARK VINA RESULT:      -8.0      2.805      3.904
REMARK  Name = 
REMARK  3 active torsions:
REMARK  status: ('A' for Active; 'I' for Inactive)
REMARK    1  A    between atoms: O_2  and  C_3
REMARK    2  A    between atoms: C_12  and  C_14
REMARK    3  A    between atoms: C_26  and  O_27
REMARK                            x       y       z     vdW  Elec       q    Type
REMARK                         _______ _______ _______ _____ _____    ______ ____
ROOT
ATOM      1  C   UNL     1       2.935   6.168 -14.089  0.00  0.00    +0.174 A 
ATOM      2  C   UNL     1       1.776   6.814 -14.419  0.00  0.00    +0.173 A 
ATOM      3  C   UNL     1       0.950   7.190 -13.368  0.00  0.00    +0.044 A 
ATOM      4  C   UNL     1       1.087   6.644 -12.102  0.00  0.00    +0.056 A 
ATOM      5  C   UNL     1       2.183   5.855 -11.810  0.00  0.00    +0.090 A 
ATOM      6  N   UNL     1       2.467   5.698 -10.506  0.00  0.00    -0.213 NA
ATOM      7  C   UNL     1       1.856   6.441  -9.551  0.00  0.00    +0.221 A 
ATOM      8  N   UNL     1       0.625   6.917  -9.817  0.00  0.00    -0.195 NA
ATOM      9  N   UNL     1       2.181   6.075  -8.202  0.00  0.00    -0.275 N 
ATOM     10  C   UNL     1       3.581   6.312  -7.871  0.00  0.00    +0.115 C 
ATOM     11  C   UNL     1       3.940   5.916  -6.477  0.00  0.00    +0.115 C 
ATOM     12  N   UNL     1       2.858   5.200  -5.833  0.00  0.00    -0.274 N 
ATOM     13  C   UNL     1       2.006   5.747  -4.877  0.00  0.00    +0.253 C 
ATOM     14  O   UNL     1       0.975   5.128  -4.496  0.00  0.00    -0.272 OA
ATOM     15  C   UNL     1       2.290   4.153  -6.683  0.00  0.00    +0.115 C 
ATOM     16  C   UNL     1       1.448   4.918  -7.696  0.00  0.00    +0.115 C 
ATOM     17  C   UNL     1       0.207   7.003 -11.101  0.00  0.00    +0.174 A 
ATOM     18  N   UNL     1      -1.130   7.369 -11.441  0.00  0.00    -0.107 NA
ATOM     19  C   UNL     1       3.071   5.605 -12.827  0.00  0.00    +0.059 A 
ENDROOT
BRANCH  13  20
ATOM     20  C   UNL     1       2.717   6.266  -3.477  0.00  0.00    +0.191 C 
ATOM     21  O   UNL     1       3.484   4.929  -3.296  0.00  0.00    -0.347 OA
ATOM     22  C   UNL     1       3.706   5.065  -1.925  0.00  0.00    +0.143 C 
ATOM     23  C   UNL     1       2.348   5.389  -1.323  0.00  0.00    +0.035 C 
ATOM     24  C   UNL     1       1.451   5.704  -2.513  0.00  0.00    +0.042 C 
ENDBRANCH  13  20
BRANCH   1  26
ATOM     25  C   UNL     1       4.943   6.614 -15.303  0.00  0.00    +0.253 C 
ATOM     26  O   UNL     1       3.798   5.807 -15.101  0.00  0.00    -0.468 OA
ENDBRANCH   1  26
BRANCH   2  27
ATOM     27  O   UNL     1       1.271   6.936 -15.693  0.00  0.00    -0.468 OA
ATOM     28  C   UNL     1      -0.018   7.384 -16.019  0.00  0.00    +0.253 C 
ENDBRANCH   2  27
TORSDOF 3
ENDMDL
MODEL 7
REMARK VINA RESULT:      -8.0      3.718      9.633
REMARK  Name = 
REMARK  3 active torsions:
REMARK  status: ('A' for Active; 'I' for Inactive)
REMARK    1  A    between atoms: O_2  and  C_3
REMARK    2  A    between atoms: C_12  and  C_14
REMARK    3  A    between atoms: C_26  and  O_27
REMARK                            x       y       z     vdW  Elec       q    Type
REMARK                         _______ _______ _______ _____ _____    ______ ____
ROOT
ATOM      1  C   UNL     1       1.822   6.190  -1.180  0.00  0.00    +0.174 A 
ATOM      2  C   UNL     1       2.981   6.839  -0.859  0.00  0.00    +0.173 A 
ATOM      3  C   UNL     1       3.796   7.221  -1.916  0.00  0.00    +0.044 A 
ATOM      4  C   UNL     1       3.649   6.678  -3.183  0.00  0.00    +0.056 A 
ATOM      5  C   UNL     1       2.553   5.886  -3.468  0.00  0.00    +0.090 A 
ATOM      6  N   UNL     1       2.258   5.732  -4.769  0.00  0.00    -0.213 NA
ATOM      7  C   UNL     1       2.857   6.480  -5.728  0.00  0.00    +0.221 A 
ATOM      8  N   UNL     1       4.089   6.960  -5.471  0.00  0.00    -0.195 NA
ATOM      9  N   UNL     1       2.521   6.116  -7.075  0.00  0.00    -0.275 N 
ATOM     10  C   UNL     1       1.117   6.349  -7.392  0.00  0.00    +0.115 C 
ATOM     11  C   UNL     1       0.747   5.956  -8.784  0.00  0.00    +0.115 C 
ATOM     12  N   UNL     1       1.825   5.246  -9.440  0.00  0.00    -0.274 N 
ATOM     13  C   UNL     1       2.667   5.799 -10.402  0.00  0.00    +0.253 C 
ATOM     14  O   UNL     1       3.696   5.184 -10.794  0.00  0.00    -0.272 OA
ATOM     15  C   UNL     1       2.405   4.198  -8.598  0.00  0.00    +0.115 C 
ATOM     16  C   UNL     1       3.254   4.964  -7.591  0.00  0.00    +0.115 C 
ATOM     17  C   UNL     1       4.519   7.043  -4.191  0.00  0.00    +0.174 A 
ATOM     18  N   UNL     1       5.858   7.413  -3.862  0.00  0.00    -0.107 NA
ATOM     19  C   UNL     1       1.676   5.630  -2.443  0.00  0.00    +0.059 A 
ENDROOT
BRANCH  13  20
ATOM     20  C   UNL     1       1.941   6.320 -11.794  0.00  0.00    +0.191 C 
ATOM     21  O   UNL     1       1.171   4.983 -11.967  0.00  0.00    -0.347 OA
ATOM     22  C   UNL     1       0.934   5.120 -13.336  0.00  0.00    +0.143 C 
ATOM     23  C   UNL     1       2.286   5.444 -13.952  0.00  0.00    +0.035 C 
ATOM     24  C   UNL     1       3.196   5.757 -12.772  0.00  0.00    +0.042 C 
ENDBRANCH  13  20
BRANCH   1  26
ATOM     25  C   UNL     1      -0.305   6.437  -0.122  0.00  0.00    +0.253 C 
ATOM     26  O   UNL     1       0.969   5.823  -0.161  0.00  0.00    -0.468 OA
ENDBRANCH   1  26
BRANCH   2  27
ATOM     27  O   UNL     1       3.497   6.959   0.410  0.00  0.00    -0.468 OA
ATOM     28  C   UNL     1       4.841   7.215   0.722  0.00  0.00    +0.253 C 
ENDBRANCH   2  27
TORSDOF 3
ENDMDL
MODEL 8
REMARK VINA RESULT:      -7.9      4.525      6.653
REMARK  Name = 
REMARK  3 active torsions:
REMARK  status: ('A' for Active; 'I' for Inactive)
REMARK    1  A    between atoms: O_2  and  C_3
REMARK    2  A    between atoms: C_12  and  C_14
REMARK    3  A    between atoms: C_26  and  O_27
REMARK                            x       y       z     vdW  Elec       q    Type
REMARK                         _______ _______ _______ _____ _____    ______ ____
ROOT
ATOM      1  C   UNL     1       3.118   5.524  -9.815  0.00  0.00    +0.174 A 
ATOM      2  C   UNL     1       1.773   5.595 -10.046  0.00  0.00    +0.173 A 
ATOM      3  C   UNL     1       0.965   5.874  -8.951  0.00  0.00    +0.044 A 
ATOM      4  C   UNL     1       1.426   5.736  -7.651  0.00  0.00    +0.056 A 
ATOM      5  C   UNL     1       2.768   5.504  -7.420  0.00  0.00    +0.090 A 
ATOM      6  N   UNL     1       3.209   5.779  -6.181  0.00  0.00    -0.213 NA
ATOM      7  C   UNL     1       2.442   6.445  -5.283  0.00  0.00    +0.221 A 
ATOM      8  N   UNL     1       1.105   6.351  -5.410  0.00  0.00    -0.195 NA
ATOM      9  N   UNL     1       3.009   6.557  -3.970  0.00  0.00    -0.275 N 
ATOM     10  C   UNL     1       4.220   7.368  -3.942  0.00  0.00    +0.115 C 
ATOM     11  C   UNL     1       4.834   7.477  -2.585  0.00  0.00    +0.115 C 
ATOM     12  N   UNL     1       4.195   6.585  -1.640  0.00  0.00    -0.274 N 
ATOM     13  C   UNL     1       3.286   6.986  -0.664  0.00  0.00    +0.253 C 
ATOM     14  O   UNL     1       2.631   6.138   0.000  0.00  0.00    -0.272 OA
ATOM     15  C   UNL     1       4.020   5.233  -2.171  0.00  0.00    +0.115 C 
ATOM     16  C   UNL     1       2.852   5.366  -3.140  0.00  0.00    +0.115 C 
ATOM     17  C   UNL     1       0.571   5.968  -6.592  0.00  0.00    +0.174 A 
ATOM     18  N   UNL     1      -0.825   5.719  -6.750  0.00  0.00    -0.107 NA
ATOM     19  C   UNL     1       3.584   5.369  -8.516  0.00  0.00    +0.059 A 
ENDROOT
BRANCH  13  20
ATOM     20  C   UNL     1       3.855   8.049   0.469  0.00  0.00    +0.191 C 
ATOM     21  O   UNL     1       4.311   6.901   1.409  0.00  0.00    -0.347 OA
ATOM     22  C   UNL     1       4.335   7.662   2.578  0.00  0.00    +0.143 C 
ATOM     23  C   UNL     1       2.987   8.365   2.636  0.00  0.00    +0.035 C 
ATOM     24  C   UNL     1       2.367   8.147   1.262  0.00  0.00    +0.042 C 
ENDBRANCH  13  20
BRANCH   1  26
ATOM     25  C   UNL     1       4.571   6.396 -11.497  0.00  0.00    +0.253 C 
ATOM     26  O   UNL     1       3.956   5.281 -10.881  0.00  0.00    -0.468 OA
ENDBRANCH   1  26
BRANCH   2  27
ATOM     27  O   UNL     1       1.147   5.214 -11.210  0.00  0.00    -0.468 OA
ATOM     28  C   UNL     1      -0.125   4.627 -11.297  0.00  0.00    +0.253 C 
ENDBRANCH   2  27
TORSDOF 3
ENDMDL
MODEL 9
REMARK VINA RESULT:      -7.8      3.842      5.060
REMARK  Name = 
REMARK  3 active torsions:
REMARK  status: ('A' for Active; 'I' for Inactive)
REMARK    1  A    between atoms: O_2  and  C_3
REMARK    2  A    between atoms: C_12  and  C_14
REMARK    3  A    between atoms: C_26  and  O_27
REMARK                            x       y       z     vdW  Elec       q    Type
REMARK                         _______ _______ _______ _____ _____    ______ ____
ROOT
ATOM      1  C   UNL     1       5.821   5.649 -10.525  0.00  0.00    +0.174 A 
ATOM      2  C   UNL     1       4.617   5.632 -11.173  0.00  0.00    +0.173 A 
ATOM      3  C   UNL     1       3.487   5.856 -10.397  0.00  0.00    +0.044 A 
ATOM      4  C   UNL     1       3.518   5.746  -9.016  0.00  0.00    +0.056 A 
ATOM      5  C   UNL     1       4.729   5.602  -8.365  0.00  0.00    +0.090 A 
ATOM      6  N   UNL     1       4.735   5.902  -7.056  0.00  0.00    -0.213 NA
ATOM      7  C   UNL     1       3.682   6.514  -6.461  0.00  0.00    +0.221 A 
ATOM      8  N   UNL     1       2.463   6.334  -7.004  0.00  0.00    -0.195 NA
ATOM      9  N   UNL     1       3.793   6.661  -5.038  0.00  0.00    -0.275 N 
ATOM     10  C   UNL     1       4.879   7.550  -4.642  0.00  0.00    +0.115 C 
ATOM     11  C   UNL     1       5.021   7.696  -3.163  0.00  0.00    +0.115 C 
ATOM     12  N   UNL     1       4.171   6.762  -2.453  0.00  0.00    -0.274 N 
ATOM     13  C   UNL     1       2.976   7.101  -1.824  0.00  0.00    +0.253 C 
ATOM     14  O   UNL     1       2.198   6.209  -1.387  0.00  0.00    -0.272 OA
ATOM     15  C   UNL     1       4.259   5.402  -2.986  0.00  0.00    +0.115 C 
ATOM     16  C   UNL     1       3.455   5.461  -4.279  0.00  0.00    +0.115 C 
ATOM     17  C   UNL     1       2.358   5.919  -8.288  0.00  0.00    +0.174 A 
ATOM     18  N   UNL     1       1.103   5.580  -8.876  0.00  0.00    -0.107 NA
ATOM     19  C   UNL     1       5.858   5.523  -9.142  0.00  0.00    +0.059 A 
ENDROOT
BRANCH  13  20
ATOM     20  C   UNL     1       3.086   8.196  -0.590  0.00  0.00    +0.191 C 
ATOM     21  O   UNL     1       3.953   7.236   0.269  0.00  0.00    -0.347 OA
ATOM     22  C   UNL     1       3.680   7.841   1.496  0.00  0.00    +0.143 C 
ATOM     23  C   UNL     1       2.165   7.958   1.565  0.00  0.00    +0.035 C 
ATOM     24  C   UNL     1       1.678   7.639   0.157  0.00  0.00    +0.042 C 
ENDBRANCH  13  20
BRANCH   1  26
ATOM     25  C   UNL     1       7.616   6.617 -11.768  0.00  0.00    +0.253 C 
ATOM     26  O   UNL     1       6.968   5.464 -11.265  0.00  0.00    -0.468 OA
ENDBRANCH   1  26
BRANCH   2  27
ATOM     27  O   UNL     1       4.420   5.214 -12.468  0.00  0.00    -0.468 OA
ATOM     28  C   UNL     1       3.409   5.673 -13.327  0.00  0.00    +0.253 C 
ENDBRANCH   2  27
TORSDOF 3
ENDMDL
