MODEL 1
REMARK VINA RESULT:      -3.2      0.000      0.000
REMARK  Name = 
REMARK  4 active torsions:
REMARK  status: ('A' for Active; 'I' for Inactive)
REMARK    1  A    between atoms: N_2  and  C_3
REMARK    2  A    between atoms: N_2  and  C_6
REMARK    3  A    between atoms: C_3  and  C_4
REMARK    4  A    between atoms: C_6  and  C_7
REMARK                            x       y       z     vdW  Elec       q    Type
REMARK                         _______ _______ _______ _____ _____    ______ ____
ROOT
ATOM      1  C   UNL     1       6.171   7.748 -11.241  0.00  0.00    +0.090 C 
ATOM      2  N   UNL     1       5.873   6.376 -11.105  0.00  0.00    -0.269 NA
ENDROOT
BRANCH   2   3
ATOM      3  C   UNL     1       6.668   5.461 -11.846  0.00  0.00    +0.090 C 
BRANCH   3   4
ATOM      4  C   UNL     1       8.034   5.418 -11.194  0.00  0.00    +0.112 C 
ATOM      5 CL   UNL     1       9.287   5.914 -12.334  0.00  0.00    -0.112 Cl
ENDBRANCH   3   4
ENDBRANCH   2   3
BRANCH   2   6
ATOM      6  C   UNL     1       4.524   6.012 -10.878  0.00  0.00    +0.090 C 
BRANCH   6   7
ATOM      7  C   UNL     1       4.300   5.002  -9.795  0.00  0.00    +0.112 C 
ATOM      8 CL   UNL     1       5.434   5.326  -8.460  0.00  0.00    -0.112 Cl
ENDBRANCH   6   7
ENDBRANCH   2   6
TORSDOF 4
ENDMDL
MODEL 2
REMARK VINA RESULT:      -3.2      4.262      6.835
REMARK  Name = 
REMARK  4 active torsions:
REMARK  status: ('A' for Active; 'I' for Inactive)
REMARK    1  A    between atoms: N_2  and  C_3
REMARK    2  A    between atoms: N_2  and  C_6
REMARK    3  A    between atoms: C_3  and  C_4
REMARK    4  A    between atoms: C_6  and  C_7
REMARK                            x       y       z     vdW  Elec       q    Type
REMARK                         _______ _______ _______ _____ _____    ______ ____
ROOT
ATOM      1  C   UNL     1       1.977   3.830  -6.304  0.00  0.00    +0.090 C 
ATOM      2  N   UNL     1       2.122   4.509  -7.531  0.00  0.00    -0.269 NA
ENDROOT
BRANCH   2   3
ATOM      3  C   UNL     1       1.099   5.428  -7.891  0.00  0.00    +0.090 C 
BRANCH   3   4
ATOM      4  C   UNL     1       0.254   5.670  -6.658  0.00  0.00    +0.112 C 
ATOM      5 CL   UNL     1      -1.406   5.130  -6.921  0.00  0.00    -0.112 Cl
ENDBRANCH   3   4
ENDBRANCH   2   3
BRANCH   2   6
ATOM      6  C   UNL     1       2.773   3.832  -8.590  0.00  0.00    +0.090 C 
BRANCH   6   7
ATOM      7  C   UNL     1       3.866   4.596  -9.272  0.00  0.00    +0.112 C 
ATOM      8 CL   UNL     1       5.005   5.197  -8.041  0.00  0.00    -0.112 Cl
ENDBRANCH   6   7
ENDBRANCH   2   6
TORSDOF 4
ENDMDL
MODEL 3
REMARK VINA RESULT:      -3.2      6.192      7.418
REMARK  Name = 
REMARK  4 active torsions:
REMARK  status: ('A' for Active; 'I' for Inactive)
REMARK    1  A    between atoms: N_2  and  C_3
REMARK    2  A    between atoms: N_2  and  C_6
REMARK    3  A    between atoms: C_3  and  C_4
REMARK    4  A    between atoms: C_6  and  C_7
REMARK                            x       y       z     vdW  Elec       q    Type
REMARK                         _______ _______ _______ _____ _____    ______ ____
ROOT
ATOM      1  C   UNL     1       2.047   4.024  -6.315  0.00  0.00    +0.090 C 
ATOM      2  N   UNL     1       1.439   5.266  -6.038  0.00  0.00    -0.269 NA
ENDROOT
BRANCH   2   3
ATOM      3  C   UNL     1       2.237   6.254  -5.401  0.00  0.00    +0.090 C 
BRANCH   3   4
ATOM      4  C   UNL     1       3.066   6.926  -6.475  0.00  0.00    +0.112 C 
ATOM      5 CL   UNL     1       2.029   7.695  -7.678  0.00  0.00    -0.112 Cl
ENDBRANCH   3   4
ENDBRANCH   2   3
BRANCH   2   6
ATOM      6  C   UNL     1       0.055   5.272  -5.738  0.00  0.00    +0.090 C 
BRANCH   6   7
ATOM      7  C   UNL     1      -0.863   5.298  -6.921  0.00  0.00    +0.112 C 
ATOM      8 CL   UNL     1      -2.536   5.509  -6.349  0.00  0.00    -0.112 Cl
ENDBRANCH   6   7
ENDBRANCH   2   6
TORSDOF 4
ENDMDL
MODEL 4
REMARK VINA RESULT:      -3.1      1.358      3.846
REMARK  Name = 
REMARK  4 active torsions:
REMARK  status: ('A' for Active; 'I' for Inactive)
REMARK    1  A    between atoms: N_2  and  C_3
REMARK    2  A    between atoms: N_2  and  C_6
REMARK    3  A    between atoms: C_3  and  C_4
REMARK    4  A    between atoms: C_6  and  C_7
REMARK                            x       y       z     vdW  Elec       q    Type
REMARK                         _______ _______ _______ _____ _____    ______ ____
ROOT
ATOM      1  C   UNL     1       6.514   8.127 -11.362  0.00  0.00    +0.090 C 
ATOM      2  N   UNL     1       6.551   6.736 -11.129  0.00  0.00    -0.269 NA
ENDROOT
BRANCH   2   3
ATOM      3  C   UNL     1       5.513   6.182 -10.333  0.00  0.00    +0.090 C 
BRANCH   3   4
ATOM      4  C   UNL     1       6.163   5.520  -9.136  0.00  0.00    +0.112 C 
ATOM      5 CL   UNL     1       5.010   5.350  -7.811  0.00  0.00    -0.112 Cl
ENDBRANCH   3   4
ENDBRANCH   2   3
BRANCH   2   6
ATOM      6  C   UNL     1       7.820   6.113 -11.047  0.00  0.00    +0.090 C 
BRANCH   6   7
ATOM      7  C   UNL     1       8.550   5.962 -12.346  0.00  0.00    +0.112 C 
ATOM      8 CL   UNL     1       7.416   5.354 -13.579  0.00  0.00    -0.112 Cl
ENDBRANCH   6   7
ENDBRANCH   2   6
TORSDOF 4
ENDMDL
MODEL 5
REMARK VINA RESULT:      -3.1      1.720      3.632
REMARK  Name = 
REMARK  4 active torsions:
REMARK  status: ('A' for Active; 'I' for Inactive)
REMARK    1  A    between atoms: N_2  and  C_3
REMARK    2  A    between atoms: N_2  and  C_6
REMARK    3  A    between atoms: C_3  and  C_4
REMARK    4  A    between atoms: C_6  and  C_7
REMARK                            x       y       z     vdW  Elec       q    Type
REMARK                         _______ _______ _______ _____ _____    ______ ____
ROOT
ATOM      1  C   UNL     1       4.783   5.358 -12.276  0.00  0.00    +0.090 C 
ATOM      2  N   UNL     1       4.748   5.991 -11.015  0.00  0.00    -0.269 NA
ENDROOT
BRANCH   2   3
ATOM      3  C   UNL     1       3.666   5.664 -10.153  0.00  0.00    +0.090 C 
BRANCH   3   4
ATOM      4  C   UNL     1       4.165   4.619  -9.177  0.00  0.00    +0.112 C 
ATOM      5 CL   UNL     1       4.842   5.380  -7.736  0.00  0.00    -0.112 Cl
ENDBRANCH   3   4
ENDBRANCH   2   3
BRANCH   2   6
ATOM      6  C   UNL     1       5.267   7.304 -10.920  0.00  0.00    +0.090 C 
BRANCH   6   7
ATOM      7  C   UNL     1       6.758   7.417 -11.000  0.00  0.00    +0.112 C 
ATOM      8 CL   UNL     1       7.487   6.265  -9.854  0.00  0.00    -0.112 Cl
ENDBRANCH   6   7
ENDBRANCH   2   6
TORSDOF 4
ENDMDL
MODEL 6
REMARK VINA RESULT:      -3.1      6.175      8.116
REMARK  Name = 
REMARK  4 active torsions:
REMARK  status: ('A' for Active; 'I' for Inactive)
REMARK    1  A    between atoms: N_2  and  C_3
REMARK    2  A    between atoms: N_2  and  C_6
REMARK    3  A    between atoms: C_3  and  C_4
REMARK    4  A    between atoms: C_6  and  C_7
REMARK                            x       y       z     vdW  Elec       q    Type
REMARK                         _______ _______ _______ _____ _____    ______ ____
ROOT
ATOM      1  C   UNL     1       1.914   4.045  -6.272  0.00  0.00    +0.090 C 
ATOM      2  N   UNL     1       1.521   5.097  -5.418  0.00  0.00    -0.269 NA
ENDROOT
BRANCH   2   3
ATOM      3  C   UNL     1       0.127   5.289  -5.221  0.00  0.00    +0.090 C 
BRANCH   3   4
ATOM      4  C   UNL     1      -0.538   5.201  -6.579  0.00  0.00    +0.112 C 
ATOM      5 CL   UNL     1      -2.278   5.463  -6.441  0.00  0.00    -0.112 Cl
ENDBRANCH   3   4
ENDBRANCH   2   3
BRANCH   2   6
ATOM      6  C   UNL     1       2.338   6.252  -5.374  0.00  0.00    +0.090 C 
BRANCH   6   7
ATOM      7  C   UNL     1       3.034   6.601  -6.653  0.00  0.00    +0.112 C 
ATOM      8 CL   UNL     1       1.989   7.690  -7.601  0.00  0.00    -0.112 Cl
ENDBRANCH   6   7
ENDBRANCH   2   6
TORSDOF 4
ENDMDL
MODEL 7
REMARK VINA RESULT:      -3.1      3.925      5.944
REMARK  Name = 
REMARK  4 active torsions:
REMARK  status: ('A' for Active; 'I' for Inactive)
REMARK    1  A    between atoms: N_2  and  C_3
REMARK    2  A    between atoms: N_2  and  C_6
REMARK    3  A    between atoms: C_3  and  C_4
REMARK    4  A    between atoms: C_6  and  C_7
REMARK                            x       y       z     vdW  Elec       q    Type
REMARK                         _______ _______ _______ _____ _____    ______ ____
ROOT
ATOM      1  C   UNL     1       1.577   5.692  -7.839  0.00  0.00    +0.090 C 
ATOM      2  N   UNL     1       2.013   4.360  -7.683  0.00  0.00    -0.269 NA
ENDROOT
BRANCH   2   3
ATOM      3  C   UNL     1       2.095   3.853  -6.358  0.00  0.00    +0.090 C 
BRANCH   3   4
ATOM      4  C   UNL     1       2.465   5.010  -5.453  0.00  0.00    +0.112 C 
ATOM      5 CL   UNL     1       4.104   4.816  -4.827  0.00  0.00    -0.112 Cl
ENDBRANCH   3   4
ENDBRANCH   2   3
BRANCH   2   6
ATOM      6  C   UNL     1       2.948   3.857  -8.619  0.00  0.00    +0.090 C 
BRANCH   6   7
ATOM      7  C   UNL     1       3.835   4.879  -9.260  0.00  0.00    +0.112 C 
ATOM      8 CL   UNL     1       5.295   5.086  -8.260  0.00  0.00    -0.112 Cl
ENDBRANCH   6   7
ENDBRANCH   2   6
TORSDOF 4
ENDMDL
MODEL 8
REMARK VINA RESULT:      -3.1      9.327     10.365
REMARK  Name = 
REMARK  4 active torsions:
REMARK  status: ('A' for Active; 'I' for Inactive)
REMARK    1  A    between atoms: N_2  and  C_3
REMARK    2  A    between atoms: N_2  and  C_6
REMARK    3  A    between atoms: C_3  and  C_4
REMARK    4  A    between atoms: C_6  and  C_7
REMARK                            x       y       z     vdW  Elec       q    Type
REMARK                         _______ _______ _______ _____ _____    ______ ____
ROOT
ATOM      1  C   UNL     1       1.271   6.352  -3.680  0.00  0.00    +0.090 C 
ATOM      2  N   UNL     1      -0.125   6.348  -3.886  0.00  0.00    -0.269 NA
ENDROOT
BRANCH   2   3
ATOM      3  C   UNL     1      -0.610   6.968  -5.069  0.00  0.00    +0.090 C 
BRANCH   3   4
ATOM      4  C   UNL     1      -0.823   5.877  -6.098  0.00  0.00    +0.112 C 
ATOM      5 CL   UNL     1      -2.543   5.553  -6.319  0.00  0.00    -0.112 Cl
ENDBRANCH   3   4
ENDBRANCH   2   3
BRANCH   2   6
ATOM      6  C   UNL     1      -0.962   6.405  -2.746  0.00  0.00    +0.090 C 
BRANCH   6   7
ATOM      7  C   UNL     1      -2.152   7.306  -2.862  0.00  0.00    +0.112 C 
ATOM      8 CL   UNL     1      -3.632   6.314  -2.840  0.00  0.00    -0.112 Cl
ENDBRANCH   6   7
ENDBRANCH   2   6
TORSDOF 4
ENDMDL
MODEL 9
REMARK VINA RESULT:      -3.1      4.155      5.698
REMARK  Name = 
REMARK  4 active torsions:
REMARK  status: ('A' for Active; 'I' for Inactive)
REMARK    1  A    between atoms: N_2  and  C_3
REMARK    2  A    between atoms: N_2  and  C_6
REMARK    3  A    between atoms: C_3  and  C_4
REMARK    4  A    between atoms: C_6  and  C_7
REMARK                            x       y       z     vdW  Elec       q    Type
REMARK                         _______ _______ _______ _____ _____    ______ ____
ROOT
ATOM      1  C   UNL     1       2.151   3.857  -6.375  0.00  0.00    +0.090 C 
ATOM      2  N   UNL     1       1.957   4.277  -7.708  0.00  0.00    -0.269 NA
ENDROOT
BRANCH   2   3
ATOM      3  C   UNL     1       2.940   3.895  -8.660  0.00  0.00    +0.090 C 
BRANCH   3   4
ATOM      4  C   UNL     1       3.725   5.139  -9.024  0.00  0.00    +0.112 C 
ATOM      5 CL   UNL     1       5.305   5.133  -8.239  0.00  0.00    -0.112 Cl
ENDBRANCH   3   4
ENDBRANCH   2   3
BRANCH   2   6
ATOM      6  C   UNL     1       1.306   5.515  -7.923  0.00  0.00    +0.090 C 
BRANCH   6   7
ATOM      7  C   UNL     1       0.408   5.975  -6.815  0.00  0.00    +0.112 C 
ATOM      8 CL   UNL     1      -1.204   5.251  -7.040  0.00  0.00    -0.112 Cl
ENDBRANCH   6   7
ENDBRANCH   2   6
TORSDOF 4
ENDMDL
