MODEL 1
REMARK VINA RESULT:      -8.6      0.000      0.000
REMARK  Name = 
REMARK  0 active torsions:
REMARK  status: ('A' for Active; 'I' for Inactive)
REMARK                            x       y       z     vdW  Elec       q    Type
REMARK                         _______ _______ _______ _____ _____    ______ ____
ROOT
ATOM      1  O   UNL     1       2.295   2.944  -8.611  0.00  0.00    -0.245 OA
ATOM      2  C   UNL     1       2.560   3.874  -7.806  0.00  0.00    +0.342 C 
ATOM      3  C   UNL     1       2.938   5.252  -8.080  0.00  0.00    +0.076 A 
ATOM      4  C   UNL     1       2.664   6.051  -6.977  0.00  0.00    +0.028 A 
ATOM      5  C   UNL     1       2.367   7.387  -7.219  0.00  0.00    -0.000 A 
ATOM      6  C   UNL     1       2.616   7.940  -8.470  0.00  0.00    -0.000 A 
ATOM      7  C   UNL     1       3.527   7.246  -9.257  0.00  0.00    +0.000 A 
ATOM      8  C   UNL     1       2.145   5.132  -5.929  0.00  0.00    +0.198 C 
ATOM      9  C   UNL     1       2.908   5.215  -4.668  0.00  0.00    +0.056 A 
ATOM     10  C   UNL     1       2.287   5.543  -3.469  0.00  0.00    +0.148 A 
ATOM     11  C   UNL     1       2.992   6.161  -2.443  0.00  0.00    +0.079 A 
ATOM     12  C   UNL     1       4.339   6.421  -2.595  0.00  0.00    +0.199 A 
ATOM     13  C   UNL     1       5.008   5.709  -3.567  0.00  0.00    +0.042 A 
ATOM     14  O   UNL     1       4.889   7.546  -1.986  0.00  0.00    -0.286 OA
ATOM     15  O   UNL     1       0.936   5.230  -3.332  0.00  0.00    -0.454 OA
ATOM     16  C   UNL     1       0.104   5.295  -4.453  0.00  0.00    +0.148 A 
ATOM     17  C   UNL     1      -1.259   5.544  -4.338  0.00  0.00    +0.079 A 
ATOM     18  C   UNL     1      -1.992   6.049  -5.404  0.00  0.00    +0.199 A 
ATOM     19  O   UNL     1      -2.976   7.019  -5.188  0.00  0.00    -0.286 OA
ATOM     20  C   UNL     1      -1.430   5.875  -6.662  0.00  0.00    +0.042 A 
ATOM     21  C   UNL     1      -0.134   5.407  -6.783  0.00  0.00    +0.006 A 
ATOM     22  C   UNL     1       4.289   5.187  -4.636  0.00  0.00    +0.006 A 
ATOM     23  C   UNL     1       0.716   5.403  -5.683  0.00  0.00    +0.056 A 
ATOM     24  C   UNL     1       3.399   5.863  -9.235  0.00  0.00    +0.006 A 
ATOM     25  O   UNL     1       2.245   3.823  -6.447  0.00  0.00    -0.440 OA
ENDROOT
TORSDOF 0
ENDMDL
MODEL 2
REMARK VINA RESULT:      -8.3      2.169      5.859
REMARK  Name = 
REMARK  0 active torsions:
REMARK  status: ('A' for Active; 'I' for Inactive)
REMARK                            x       y       z     vdW  Elec       q    Type
REMARK                         _______ _______ _______ _____ _____    ______ ____
ROOT
ATOM      1  O   UNL     1       4.774   3.880  -0.708  0.00  0.00    -0.245 OA
ATOM      2  C   UNL     1       3.835   4.644  -1.054  0.00  0.00    +0.342 C 
ATOM      3  C   UNL     1       3.719   6.087  -0.906  0.00  0.00    +0.076 A 
ATOM      4  C   UNL     1       2.805   6.590  -1.823  0.00  0.00    +0.028 A 
ATOM      5  C   UNL     1       2.996   7.894  -2.261  0.00  0.00    -0.000 A 
ATOM      6  C   UNL     1       3.887   8.729  -1.596  0.00  0.00    -0.000 A 
ATOM      7  C   UNL     1       4.204   8.347  -0.298  0.00  0.00    +0.000 A 
ATOM      8  C   UNL     1       2.267   5.408  -2.548  0.00  0.00    +0.198 C 
ATOM      9  C   UNL     1       0.794   5.322  -2.486  0.00  0.00    +0.056 A 
ATOM     10  C   UNL     1       0.023   5.302  -3.643  0.00  0.00    +0.148 A 
ATOM     11  C   UNL     1      -1.283   5.776  -3.641  0.00  0.00    +0.079 A 
ATOM     12  C   UNL     1      -1.843   6.241  -2.469  0.00  0.00    +0.199 A 
ATOM     13  C   UNL     1      -1.246   5.849  -1.291  0.00  0.00    +0.042 A 
ATOM     14  O   UNL     1      -2.776   7.274  -2.522  0.00  0.00    -0.286 OA
ATOM     15  O   UNL     1       0.605   4.788  -4.800  0.00  0.00    -0.454 OA
ATOM     16  C   UNL     1       1.973   4.977  -5.017  0.00  0.00    +0.148 A 
ATOM     17  C   UNL     1       2.511   5.012  -6.299  0.00  0.00    +0.079 A 
ATOM     18  C   UNL     1       3.728   5.629  -6.553  0.00  0.00    +0.199 A 
ATOM     19  O   UNL     1       3.907   6.389  -7.713  0.00  0.00    -0.286 OA
ATOM     20  C   UNL     1       4.560   5.802  -5.454  0.00  0.00    +0.042 A 
ATOM     21  C   UNL     1       4.087   5.549  -4.180  0.00  0.00    +0.006 A 
ATOM     22  C   UNL     1       0.092   5.474  -1.305  0.00  0.00    +0.006 A 
ATOM     23  C   UNL     1       2.722   5.426  -3.951  0.00  0.00    +0.056 A 
ATOM     24  C   UNL     1       4.416   6.986  -0.115  0.00  0.00    +0.006 A 
ATOM     25  O   UNL     1       2.823   4.264  -1.937  0.00  0.00    -0.440 OA
ENDROOT
TORSDOF 0
ENDMDL
MODEL 3
REMARK VINA RESULT:      -8.1      3.620      6.877
REMARK  Name = 
REMARK  0 active torsions:
REMARK  status: ('A' for Active; 'I' for Inactive)
REMARK                            x       y       z     vdW  Elec       q    Type
REMARK                         _______ _______ _______ _____ _____    ______ ____
ROOT
ATOM      1  O   UNL     1       1.883   8.428  -7.872  0.00  0.00    -0.245 OA
ATOM      2  C   UNL     1       2.669   7.570  -8.352  0.00  0.00    +0.342 C 
ATOM      3  C   UNL     1       2.936   6.211  -7.904  0.00  0.00    +0.076 A 
ATOM      4  C   UNL     1       3.461   5.458  -8.947  0.00  0.00    +0.028 A 
ATOM      5  C   UNL     1       3.209   4.092  -8.932  0.00  0.00    -0.000 A 
ATOM      6  C   UNL     1       2.706   3.489  -7.786  0.00  0.00    -0.000 A 
ATOM      7  C   UNL     1       2.886   4.204  -6.608  0.00  0.00    +0.000 A 
ATOM      8  C   UNL     1       3.592   6.393 -10.096  0.00  0.00    +0.198 C 
ATOM      9  C   UNL     1       4.965   6.443 -10.637  0.00  0.00    +0.056 A 
ATOM     10  C   UNL     1       5.228   6.138 -11.967  0.00  0.00    +0.148 A 
ATOM     11  C   UNL     1       6.465   5.637 -12.356  0.00  0.00    +0.079 A 
ATOM     12  C   UNL     1       7.465   5.474 -11.419  0.00  0.00    +0.199 A 
ATOM     13  C   UNL     1       7.340   6.177 -10.241  0.00  0.00    +0.042 A 
ATOM     14  O   UNL     1       8.376   4.431 -11.570  0.00  0.00    -0.286 OA
ATOM     15  O   UNL     1       4.211   6.353 -12.895  0.00  0.00    -0.454 OA
ATOM     16  C   UNL     1       2.882   6.159 -12.506  0.00  0.00    +0.148 A 
ATOM     17  C   UNL     1       1.896   5.812 -13.423  0.00  0.00    +0.079 A 
ATOM     18  C   UNL     1       0.722   5.191 -13.018  0.00  0.00    +0.199 A 
ATOM     19  O   UNL     1       0.167   4.162 -13.785  0.00  0.00    -0.286 OA
ATOM     20  C   UNL     1       0.392   5.335 -11.677  0.00  0.00    +0.042 A 
ATOM     21  C   UNL     1       1.300   5.894 -10.796  0.00  0.00    +0.006 A 
ATOM     22  C   UNL     1       6.076   6.580  -9.826  0.00  0.00    +0.006 A 
ATOM     23  C   UNL     1       2.635   6.028 -11.157  0.00  0.00    +0.056 A 
ATOM     24  C   UNL     1       2.663   5.572  -6.705  0.00  0.00    +0.006 A 
ATOM     25  O   UNL     1       3.233   7.674  -9.625  0.00  0.00    -0.440 OA
ENDROOT
TORSDOF 0
ENDMDL
MODEL 4
REMARK VINA RESULT:      -8.1      3.247      7.335
REMARK  Name = 
REMARK  0 active torsions:
REMARK  status: ('A' for Active; 'I' for Inactive)
REMARK                            x       y       z     vdW  Elec       q    Type
REMARK                         _______ _______ _______ _____ _____    ______ ____
ROOT
ATOM      1  O   UNL     1       2.348   3.050  -6.994  0.00  0.00    -0.245 OA
ATOM      2  C   UNL     1       2.148   3.989  -7.808  0.00  0.00    +0.342 C 
ATOM      3  C   UNL     1       1.800   5.377  -7.547  0.00  0.00    +0.076 A 
ATOM      4  C   UNL     1       2.148   6.170  -8.633  0.00  0.00    +0.028 A 
ATOM      5  C   UNL     1       2.473   7.496  -8.374  0.00  0.00    -0.000 A 
ATOM      6  C   UNL     1       2.183   8.054  -7.134  0.00  0.00    -0.000 A 
ATOM      7  C   UNL     1       1.217   7.386  -6.392  0.00  0.00    +0.000 A 
ATOM      8  C   UNL     1       2.687   5.238  -9.659  0.00  0.00    +0.198 C 
ATOM      9  C   UNL     1       1.985   5.346 -10.954  0.00  0.00    +0.056 A 
ATOM     10  C   UNL     1       2.670   5.658 -12.122  0.00  0.00    +0.148 A 
ATOM     11  C   UNL     1       2.032   6.298 -13.178  0.00  0.00    +0.079 A 
ATOM     12  C   UNL     1       0.688   6.599 -13.086  0.00  0.00    +0.199 A 
ATOM     13  C   UNL     1      -0.046   5.906 -12.149  0.00  0.00    +0.042 A 
ATOM     14  O   UNL     1       0.201   7.741 -13.716  0.00  0.00    -0.286 OA
ATOM     15  O   UNL     1       4.016   5.305 -12.199  0.00  0.00    -0.454 OA
ATOM     16  C   UNL     1       4.797   5.342 -11.040  0.00  0.00    +0.148 A 
ATOM     17  C   UNL     1       6.171   5.550 -11.091  0.00  0.00    +0.079 A 
ATOM     18  C   UNL     1       6.869   6.031  -9.992  0.00  0.00    +0.199 A 
ATOM     19  O   UNL     1       7.890   6.971 -10.159  0.00  0.00    -0.286 OA
ATOM     20  C   UNL     1       6.245   5.871  -8.761  0.00  0.00    +0.042 A 
ATOM     21  C   UNL     1       4.931   5.442  -8.701  0.00  0.00    +0.006 A 
ATOM     22  C   UNL     1       0.606   5.360 -11.050  0.00  0.00    +0.006 A 
ATOM     23  C   UNL     1       4.133   5.466  -9.839  0.00  0.00    +0.056 A 
ATOM     24  C   UNL     1       1.305   5.999  -6.412  0.00  0.00    +0.006 A 
ATOM     25  O   UNL     1       2.524   3.932  -9.151  0.00  0.00    -0.440 OA
ENDROOT
TORSDOF 0
ENDMDL
MODEL 5
REMARK VINA RESULT:      -7.9      3.549      5.112
REMARK  Name = 
REMARK  0 active torsions:
REMARK  status: ('A' for Active; 'I' for Inactive)
REMARK                            x       y       z     vdW  Elec       q    Type
REMARK                         _______ _______ _______ _____ _____    ______ ____
ROOT
ATOM      1  O   UNL     1       3.656   3.311  -1.033  0.00  0.00    -0.245 OA
ATOM      2  C   UNL     1       3.529   4.559  -1.142  0.00  0.00    +0.342 C 
ATOM      3  C   UNL     1       3.862   5.426  -2.262  0.00  0.00    +0.076 A 
ATOM      4  C   UNL     1       3.138   6.609  -2.183  0.00  0.00    +0.028 A 
ATOM      5  C   UNL     1       2.839   7.250  -3.379  0.00  0.00    -0.000 A 
ATOM      6  C   UNL     1       3.480   6.870  -4.553  0.00  0.00    -0.000 A 
ATOM      7  C   UNL     1       4.670   6.175  -4.383  0.00  0.00    +0.000 A 
ATOM      8  C   UNL     1       2.352   6.520  -0.924  0.00  0.00    +0.198 C 
ATOM      9  C   UNL     1       2.592   7.661  -0.020  0.00  0.00    +0.056 A 
ATOM     10  C   UNL     1       1.550   8.479   0.402  0.00  0.00    +0.148 A 
ATOM     11  C   UNL     1       1.777   9.805   0.750  0.00  0.00    +0.079 A 
ATOM     12  C   UNL     1       3.059  10.315   0.715  0.00  0.00    +0.199 A 
ATOM     13  C   UNL     1       4.094   9.406   0.732  0.00  0.00    +0.042 A 
ATOM     14  O   UNL     1       3.251  11.655   0.388  0.00  0.00    -0.286 OA
ATOM     15  O   UNL     1       0.274   7.923   0.466  0.00  0.00    -0.454 OA
ATOM     16  C   UNL     1      -0.093   6.951  -0.470  0.00  0.00    +0.148 A 
ATOM     17  C   UNL     1      -1.420   6.754  -0.836  0.00  0.00    +0.079 A 
ATOM     18  C   UNL     1      -1.753   6.148  -2.040  0.00  0.00    +0.199 A 
ATOM     19  O   UNL     1      -2.826   6.626  -2.799  0.00  0.00    -0.286 OA
ATOM     20  C   UNL     1      -0.757   5.375  -2.624  0.00  0.00    +0.042 A 
ATOM     21  C   UNL     1       0.528   5.399  -2.114  0.00  0.00    +0.006 A 
ATOM     22  C   UNL     1       3.863   8.111   0.284  0.00  0.00    +0.006 A 
ATOM     23  C   UNL     1       0.914   6.403  -1.234  0.00  0.00    +0.056 A 
ATOM     24  C   UNL     1       4.660   5.217  -3.375  0.00  0.00    +0.006 A 
ATOM     25  O   UNL     1       2.744   5.327  -0.280  0.00  0.00    -0.440 OA
ENDROOT
TORSDOF 0
ENDMDL
MODEL 6
REMARK VINA RESULT:      -7.6      1.949      4.903
REMARK  Name = 
REMARK  0 active torsions:
REMARK  status: ('A' for Active; 'I' for Inactive)
REMARK                            x       y       z     vdW  Elec       q    Type
REMARK                         _______ _______ _______ _____ _____    ______ ____
ROOT
ATOM      1  O   UNL     1       2.531   8.467  -8.119  0.00  0.00    -0.245 OA
ATOM      2  C   UNL     1       1.881   7.601  -7.478  0.00  0.00    +0.342 C 
ATOM      3  C   UNL     1       1.725   6.179  -7.746  0.00  0.00    +0.076 A 
ATOM      4  C   UNL     1       1.367   5.509  -6.583  0.00  0.00    +0.028 A 
ATOM      5  C   UNL     1       1.760   4.182  -6.470  0.00  0.00    -0.000 A 
ATOM      6  C   UNL     1       2.232   3.497  -7.584  0.00  0.00    -0.000 A 
ATOM      7  C   UNL     1       1.884   4.046  -8.811  0.00  0.00    +0.000 A 
ATOM      8  C   UNL     1       1.229   6.558  -5.538  0.00  0.00    +0.198 C 
ATOM      9  C   UNL     1      -0.094   6.540  -4.883  0.00  0.00    +0.056 A 
ATOM     10  C   UNL     1      -0.216   6.371  -3.508  0.00  0.00    +0.148 A 
ATOM     11  C   UNL     1      -1.358   5.805  -2.955  0.00  0.00    +0.079 A 
ATOM     12  C   UNL     1      -2.406   5.435  -3.774  0.00  0.00    +0.199 A 
ATOM     13  C   UNL     1      -2.451   6.002  -5.028  0.00  0.00    +0.042 A 
ATOM     14  O   UNL     1      -3.188   4.336  -3.426  0.00  0.00    -0.286 OA
ATOM     15  O   UNL     1       0.843   6.792  -2.707  0.00  0.00    -0.454 OA
ATOM     16  C   UNL     1       2.150   6.682  -3.191  0.00  0.00    +0.148 A 
ATOM     17  C   UNL     1       3.237   6.542  -2.335  0.00  0.00    +0.079 A 
ATOM     18  C   UNL     1       4.434   5.993  -2.774  0.00  0.00    +0.199 A 
ATOM     19  O   UNL     1       5.154   5.121  -1.952  0.00  0.00    -0.286 OA
ATOM     20  C   UNL     1       4.639   6.008  -4.148  0.00  0.00    +0.042 A 
ATOM     21  C   UNL     1       3.610   6.368  -4.998  0.00  0.00    +0.006 A 
ATOM     22  C   UNL     1      -1.274   6.472  -5.599  0.00  0.00    +0.006 A 
ATOM     23  C   UNL     1       2.301   6.415  -4.535  0.00  0.00    +0.056 A 
ATOM     24  C   UNL     1       1.967   5.431  -8.887  0.00  0.00    +0.006 A 
ATOM     25  O   UNL     1       1.412   7.802  -6.178  0.00  0.00    -0.440 OA
ENDROOT
TORSDOF 0
ENDMDL
MODEL 7
REMARK VINA RESULT:      -7.6      3.272      5.570
REMARK  Name = 
REMARK  0 active torsions:
REMARK  status: ('A' for Active; 'I' for Inactive)
REMARK                            x       y       z     vdW  Elec       q    Type
REMARK                         _______ _______ _______ _____ _____    ______ ____
ROOT
ATOM      1  O   UNL     1       3.275   3.316  -0.925  0.00  0.00    -0.245 OA
ATOM      2  C   UNL     1       2.764   4.463  -0.847  0.00  0.00    +0.342 C 
ATOM      3  C   UNL     1       3.344   5.756  -1.179  0.00  0.00    +0.076 A 
ATOM      4  C   UNL     1       2.338   6.683  -1.422  0.00  0.00    +0.028 A 
ATOM      5  C   UNL     1       2.627   7.715  -2.306  0.00  0.00    -0.000 A 
ATOM      6  C   UNL     1       3.940   7.954  -2.693  0.00  0.00    -0.000 A 
ATOM      7  C   UNL     1       4.914   7.427  -1.853  0.00  0.00    +0.000 A 
ATOM      8  C   UNL     1       1.058   5.967  -1.174  0.00  0.00    +0.198 C 
ATOM      9  C   UNL     1       0.206   6.649  -0.180  0.00  0.00    +0.056 A 
ATOM     10  C   UNL     1      -1.083   7.060  -0.496  0.00  0.00    +0.148 A 
ATOM     11  C   UNL     1      -1.671   8.138   0.156  0.00  0.00    +0.079 A 
ATOM     12  C   UNL     1      -0.984   8.791   1.159  0.00  0.00    +0.199 A 
ATOM     13  C   UNL     1       0.064   8.114   1.744  0.00  0.00    +0.042 A 
ATOM     14  O   UNL     1      -1.181  10.158   1.342  0.00  0.00    -0.286 OA
ATOM     15  O   UNL     1      -1.765   6.355  -1.485  0.00  0.00    -0.454 OA
ATOM     16  C   UNL     1      -1.047   5.820  -2.559  0.00  0.00    +0.148 A 
ATOM     17  C   UNL     1      -1.637   5.610  -3.800  0.00  0.00    +0.079 A 
ATOM     18  C   UNL     1      -0.873   5.520  -4.955  0.00  0.00    +0.199 A 
ATOM     19  O   UNL     1      -1.314   6.114  -6.142  0.00  0.00    -0.286 OA
ATOM     20  C   UNL     1       0.469   5.210  -4.772  0.00  0.00    +0.042 A 
ATOM     21  C   UNL     1       1.009   5.200  -3.499  0.00  0.00    +0.006 A 
ATOM     22  C   UNL     1       0.698   7.105   1.028  0.00  0.00    +0.006 A 
ATOM     23  C   UNL     1       0.326   5.789  -2.442  0.00  0.00    +0.056 A 
ATOM     24  C   UNL     1       4.658   6.145  -1.380  0.00  0.00    +0.006 A 
ATOM     25  O   UNL     1       1.394   4.683  -0.695  0.00  0.00    -0.440 OA
ENDROOT
TORSDOF 0
ENDMDL
MODEL 8
REMARK VINA RESULT:      -7.5      3.795      7.485
REMARK  Name = 
REMARK  0 active torsions:
REMARK  status: ('A' for Active; 'I' for Inactive)
REMARK                            x       y       z     vdW  Elec       q    Type
REMARK                         _______ _______ _______ _____ _____    ______ ____
ROOT
ATOM      1  O   UNL     1       5.601   7.074   2.066  0.00  0.00    -0.245 OA
ATOM      2  C   UNL     1       4.546   7.417   1.471  0.00  0.00    +0.342 C 
ATOM      3  C   UNL     1       4.077   8.749   1.118  0.00  0.00    +0.076 A 
ATOM      4  C   UNL     1       3.164   8.674   0.074  0.00  0.00    +0.028 A 
ATOM      5  C   UNL     1       3.083   9.768  -0.778  0.00  0.00    -0.000 A 
ATOM      6  C   UNL     1       3.681  10.972  -0.424  0.00  0.00    -0.000 A 
ATOM      7  C   UNL     1       3.950  11.128   0.930  0.00  0.00    +0.000 A 
ATOM      8  C   UNL     1       2.995   7.225  -0.213  0.00  0.00    +0.198 C 
ATOM      9  C   UNL     1       1.586   6.789  -0.144  0.00  0.00    +0.056 A 
ATOM     10  C   UNL     1       0.960   6.197  -1.234  0.00  0.00    +0.148 A 
ATOM     11  C   UNL     1      -0.416   6.294  -1.409  0.00  0.00    +0.079 A 
ATOM     12  C   UNL     1      -1.182   6.955  -0.471  0.00  0.00    +0.199 A 
ATOM     13  C   UNL     1      -0.627   7.134   0.777  0.00  0.00    +0.042 A 
ATOM     14  O   UNL     1      -2.323   7.640  -0.883  0.00  0.00    -0.286 OA
ATOM     15  O   UNL     1       1.757   5.503  -2.141  0.00  0.00    -0.454 OA
ATOM     16  C   UNL     1       3.056   5.955  -2.393  0.00  0.00    +0.148 A 
ATOM     17  C   UNL     1       3.693   5.707  -3.604  0.00  0.00    +0.079 A 
ATOM     18  C   UNL     1       4.748   6.498  -4.037  0.00  0.00    +0.199 A 
ATOM     19  O   UNL     1       4.854   6.859  -5.384  0.00  0.00    -0.286 OA
ATOM     20  C   UNL     1       5.404   7.227  -3.053  0.00  0.00    +0.042 A 
ATOM     21  C   UNL     1       4.881   7.289  -1.774  0.00  0.00    +0.006 A 
ATOM     22  C   UNL     1       0.756   7.131   0.907  0.00  0.00    +0.006 A 
ATOM     23  C   UNL     1       3.568   6.901  -1.533  0.00  0.00    +0.056 A 
ATOM     24  C   UNL     1       4.460  10.003   1.567  0.00  0.00    +0.006 A 
ATOM     25  O   UNL     1       3.745   6.525   0.757  0.00  0.00    -0.440 OA
ENDROOT
TORSDOF 0
ENDMDL
MODEL 9
REMARK VINA RESULT:      -7.4      4.145      7.780
REMARK  Name = 
REMARK  0 active torsions:
REMARK  status: ('A' for Active; 'I' for Inactive)
REMARK                            x       y       z     vdW  Elec       q    Type
REMARK                         _______ _______ _______ _____ _____    ______ ____
ROOT
ATOM      1  O   UNL     1       5.944   7.279   1.936  0.00  0.00    -0.245 OA
ATOM      2  C   UNL     1       4.812   7.717   1.600  0.00  0.00    +0.342 C 
ATOM      3  C   UNL     1       4.374   9.092   1.410  0.00  0.00    +0.076 A 
ATOM      4  C   UNL     1       3.254   9.128   0.590  0.00  0.00    +0.028 A 
ATOM      5  C   UNL     1       3.068  10.268  -0.181  0.00  0.00    -0.000 A 
ATOM      6  C   UNL     1       3.812  11.413   0.079  0.00  0.00    -0.000 A 
ATOM      7  C   UNL     1       4.379  11.481   1.345  0.00  0.00    +0.000 A 
ATOM      8  C   UNL     1       2.924   7.709   0.291  0.00  0.00    +0.198 C 
ATOM      9  C   UNL     1       1.536   7.357   0.651  0.00  0.00    +0.056 A 
ATOM     10  C   UNL     1       0.648   6.863  -0.297  0.00  0.00    +0.148 A 
ATOM     11  C   UNL     1      -0.722   7.052  -0.162  0.00  0.00    +0.079 A 
ATOM     12  C   UNL     1      -1.219   7.709   0.946  0.00  0.00    +0.199 A 
ATOM     13  C   UNL     1      -0.396   7.787   2.048  0.00  0.00    +0.042 A 
ATOM     14  O   UNL     1      -2.370   8.482   0.820  0.00  0.00    -0.286 OA
ATOM     15  O   UNL     1       1.179   6.170  -1.383  0.00  0.00    -0.454 OA
ATOM     16  C   UNL     1       2.421   6.555  -1.896  0.00  0.00    +0.148 A 
ATOM     17  C   UNL     1       2.763   6.333  -3.225  0.00  0.00    +0.079 A 
ATOM     18  C   UNL     1       3.753   7.080  -3.849  0.00  0.00    +0.199 A 
ATOM     19  O   UNL     1       3.590   7.505  -5.172  0.00  0.00    -0.286 OA
ATOM     20  C   UNL     1       4.655   7.714  -3.005  0.00  0.00    +0.042 A 
ATOM     21  C   UNL     1       4.427   7.741  -1.641  0.00  0.00    +0.006 A 
ATOM     22  C   UNL     1       0.980   7.693   1.871  0.00  0.00    +0.006 A 
ATOM     23  C   UNL     1       3.174   7.421  -1.134  0.00  0.00    +0.056 A 
ATOM     24  C   UNL     1       4.933  10.294   1.811  0.00  0.00    +0.006 A 
ATOM     25  O   UNL     1       3.814   6.914   1.045  0.00  0.00    -0.440 OA
ENDROOT
TORSDOF 0
ENDMDL
