MODEL 1
REMARK VINA RESULT:      -7.2      0.000      0.000
REMARK  Name = 
REMARK  8 active torsions:
REMARK  status: ('A' for Active; 'I' for Inactive)
REMARK    1  A    between atoms: O_2  and  C_3
REMARK    2  A    between atoms: C_6  and  C_7
REMARK    3  A    between atoms: C_7  and  C_8
REMARK    4  A    between atoms: C_8  and  N_10
REMARK    5  A    between atoms: N_10  and  C_11
REMARK    6  A    between atoms: C_11  and  C_12
REMARK    7  A    between atoms: C_12  and  C_14
REMARK    8  A    between atoms: C_19  and  N_20
REMARK                            x       y       z     vdW  Elec       q    Type
REMARK                         _______ _______ _______ _____ _____    ______ ____
ROOT
ATOM      1  C   UNL     1       1.371   4.601  -6.923  0.00  0.00    +0.126 C 
ENDROOT
BRANCH   1   2
ATOM      2  C   UNL     1       0.498   6.004  -6.790  0.00  0.00    +0.192 C 
ATOM      3  O   UNL     1      -0.686   5.384  -7.533  0.00  0.00    -0.217 OA
BRANCH   2   4
ATOM      4  C   UNL     1      -0.098   5.554  -5.341  0.00  0.00    +0.011 A 
ATOM      5  C   UNL     1      -0.877   6.581  -4.819  0.00  0.00    +0.018 A 
ATOM      6  C   UNL     1      -1.072   6.634  -3.460  0.00  0.00    +0.112 A 
ATOM      7  C   UNL     1      -0.064   6.205  -2.608  0.00  0.00    +0.211 A 
ATOM      8  O   UNL     1      -0.032   6.558  -1.277  0.00  0.00    -0.285 OA
ATOM      9  C   UNL     1       0.889   5.336  -3.122  0.00  0.00    +0.043 A 
ATOM     10  C   UNL     1       0.924   5.168  -4.480  0.00  0.00    +0.002 A 
BRANCH   6  11
ATOM     11  N   UNL     1      -2.341   6.969  -2.885  0.00  0.00    -0.168 NA
ATOM     12  C   UNL     1      -3.329   5.947  -2.977  0.00  0.00    +0.325 C 
ATOM     13  O   UNL     1      -3.012   4.829  -2.522  0.00  0.00    -0.263 OA
ENDBRANCH   6  11
ENDBRANCH   2   4
ENDBRANCH   1   2
BRANCH   1  14
ATOM     14  N   UNL     1       2.463   4.888  -7.783  0.00  0.00    -0.216 NA
BRANCH  14  15
ATOM     15  C   UNL     1       2.999   6.332  -7.448  0.00  0.00    +0.077 C 
ATOM     16  C   UNL     1       3.575   6.587  -8.973  0.00  0.00    +0.019 C 
BRANCH  15  17
ATOM     17  C   UNL     1       4.451   5.739  -6.970  0.00  0.00    +0.044 C 
BRANCH  17  21
ATOM     18  C   UNL     1       4.254   6.529  -2.850  0.00  0.00    +0.139 A 
ATOM     19  C   UNL     1       4.095   7.521  -3.804  0.00  0.00    +0.037 A 
ATOM     20  C   UNL     1       4.034   7.098  -5.101  0.00  0.00    -0.001 A 
ATOM     21  C   UNL     1       4.574   5.887  -5.535  0.00  0.00    -0.021 A 
ATOM     22  C   UNL     1       4.711   4.935  -4.571  0.00  0.00    -0.001 A 
ATOM     23  C   UNL     1       4.431   5.206  -3.234  0.00  0.00    +0.037 A 
BRANCH  18  25
ATOM     24  C   UNL     1       3.729   6.266  -0.732  0.00  0.00    +0.252 C 
ATOM     25  O   UNL     1       3.830   6.850  -1.557  0.00  0.00    -0.471 OA
ENDBRANCH  18  25
ENDBRANCH  17  21
ENDBRANCH  15  17
ENDBRANCH  14  15
ENDBRANCH   1  14
TORSDOF 8
ENDMDL
MODEL 2
REMARK VINA RESULT:      -7.1      1.148      2.047
REMARK  Name = 
REMARK  8 active torsions:
REMARK  status: ('A' for Active; 'I' for Inactive)
REMARK    1  A    between atoms: O_2  and  C_3
REMARK    2  A    between atoms: C_6  and  C_7
REMARK    3  A    between atoms: C_7  and  C_8
REMARK    4  A    between atoms: C_8  and  N_10
REMARK    5  A    between atoms: N_10  and  C_11
REMARK    6  A    between atoms: C_11  and  C_12
REMARK    7  A    between atoms: C_12  and  C_14
REMARK    8  A    between atoms: C_19  and  N_20
REMARK                            x       y       z     vdW  Elec       q    Type
REMARK                         _______ _______ _______ _____ _____    ______ ____
ROOT
ATOM      1  C   UNL     1       1.195   4.967  -5.991  0.00  0.00    +0.126 C 
ENDROOT
BRANCH   1   2
ATOM      2  C   UNL     1       0.388   6.372  -6.344  0.00  0.00    +0.192 C 
ATOM      3  O   UNL     1      -0.896   5.603  -6.657  0.00  0.00    -0.217 OA
BRANCH   2   4
ATOM      4  C   UNL     1      -0.042   6.575  -4.785  0.00  0.00    +0.011 A 
ATOM      5  C   UNL     1       0.249   5.420  -4.068  0.00  0.00    +0.018 A 
ATOM      6  C   UNL     1      -0.438   5.176  -2.903  0.00  0.00    +0.112 A 
ATOM      7  C   UNL     1      -1.759   5.590  -2.790  0.00  0.00    +0.211 A 
ATOM      8  O   UNL     1      -2.607   5.077  -1.835  0.00  0.00    -0.285 OA
ATOM      9  C   UNL     1      -2.191   6.606  -3.633  0.00  0.00    +0.043 A 
ATOM     10  C   UNL     1      -1.378   6.948  -4.680  0.00  0.00    +0.002 A 
BRANCH   6  11
ATOM     11  N   UNL     1       0.202   4.649  -1.735  0.00  0.00    -0.168 NA
ATOM     12  C   UNL     1       1.155   5.518  -1.131  0.00  0.00    +0.325 C 
ATOM     13  O   UNL     1       0.751   6.661  -0.835  0.00  0.00    -0.263 OA
ENDBRANCH   6  11
ENDBRANCH   2   4
ENDBRANCH   1   2
BRANCH   1  14
ATOM     14  N   UNL     1       2.276   4.886  -6.907  0.00  0.00    -0.216 NA
BRANCH  14  15
ATOM     15  C   UNL     1       2.975   6.296  -6.985  0.00  0.00    +0.077 C 
ATOM     16  C   UNL     1       3.382   6.124  -8.575  0.00  0.00    +0.019 C 
BRANCH  15  17
ATOM     17  C   UNL     1       4.416   5.666  -6.520  0.00  0.00    +0.044 C 
BRANCH  17  21
ATOM     18  C   UNL     1       4.544   6.898  -2.507  0.00  0.00    +0.139 A 
ATOM     19  C   UNL     1       4.627   7.793  -3.561  0.00  0.00    +0.037 A 
ATOM     20  C   UNL     1       4.421   7.271  -4.806  0.00  0.00    -0.001 A 
ATOM     21  C   UNL     1       4.611   5.923  -5.109  0.00  0.00    -0.021 A 
ATOM     22  C   UNL     1       4.519   5.073  -4.049  0.00  0.00    -0.001 A 
ATOM     23  C   UNL     1       4.356   5.543  -2.749  0.00  0.00    +0.037 A 
BRANCH  18  25
ATOM     24  C   UNL     1       4.475   7.118  -0.322  0.00  0.00    +0.252 C 
ATOM     25  O   UNL     1       4.254   7.450  -1.256  0.00  0.00    -0.471 OA
ENDBRANCH  18  25
ENDBRANCH  17  21
ENDBRANCH  15  17
ENDBRANCH  14  15
ENDBRANCH   1  14
TORSDOF 8
ENDMDL
MODEL 3
REMARK VINA RESULT:      -7.1      4.514      9.112
REMARK  Name = 
REMARK  8 active torsions:
REMARK  status: ('A' for Active; 'I' for Inactive)
REMARK    1  A    between atoms: O_2  and  C_3
REMARK    2  A    between atoms: C_6  and  C_7
REMARK    3  A    between atoms: C_7  and  C_8
REMARK    4  A    between atoms: C_8  and  N_10
REMARK    5  A    between atoms: N_10  and  C_11
REMARK    6  A    between atoms: C_11  and  C_12
REMARK    7  A    between atoms: C_12  and  C_14
REMARK    8  A    between atoms: C_19  and  N_20
REMARK                            x       y       z     vdW  Elec       q    Type
REMARK                         _______ _______ _______ _____ _____    ______ ____
ROOT
ATOM      1  C   UNL     1       3.303   6.049  -8.148  0.00  0.00    +0.126 C 
ENDROOT
BRANCH   1   2
ATOM      2  C   UNL     1       4.407   4.814  -8.207  0.00  0.00    +0.192 C 
ATOM      3  O   UNL     1       3.373   3.865  -8.813  0.00  0.00    -0.217 OA
BRANCH   2   4
ATOM      4  C   UNL     1       4.927   5.284  -9.679  0.00  0.00    +0.011 A 
ATOM      5  C   UNL     1       6.261   5.669  -9.601  0.00  0.00    +0.018 A 
ATOM      6  C   UNL     1       6.757   6.527 -10.552  0.00  0.00    +0.112 A 
ATOM      7  C   UNL     1       5.924   7.495 -11.099  0.00  0.00    +0.211 A 
ATOM      8  O   UNL     1       6.419   8.595 -11.762  0.00  0.00    -0.285 OA
ATOM      9  C   UNL     1       4.554   7.284 -11.024  0.00  0.00    +0.043 A 
ATOM     10  C   UNL     1       4.112   6.284 -10.200  0.00  0.00    +0.002 A 
BRANCH   6  11
ATOM     11  N   UNL     1       8.061   6.364 -11.122  0.00  0.00    -0.168 NA
ATOM     12  C   UNL     1       8.284   5.109 -11.757  0.00  0.00    +0.325 C 
ATOM     13  O   UNL     1       7.464   4.781 -12.638  0.00  0.00    -0.263 OA
ENDBRANCH   6  11
ENDBRANCH   2   4
ENDBRANCH   1   2
BRANCH   1  14
ATOM     14  N   UNL     1       2.133   5.512  -7.548  0.00  0.00    -0.216 NA
BRANCH  14  15
ATOM     15  C   UNL     1       0.953   6.538  -7.744  0.00  0.00    +0.077 C 
ATOM     16  C   UNL     1       0.291   6.219  -6.266  0.00  0.00    +0.019 C 
BRANCH  15  17
ATOM     17  C   UNL     1       0.007   5.395  -8.444  0.00  0.00    +0.044 C 
BRANCH  17  21
ATOM     18  C   UNL     1       0.626   6.301 -12.498  0.00  0.00    +0.139 A 
ATOM     19  C   UNL     1       0.144   7.234 -11.594  0.00  0.00    +0.037 A 
ATOM     20  C   UNL     1       0.135   6.847 -10.284  0.00  0.00    -0.001 A 
ATOM     21  C   UNL     1       0.111   5.512  -9.883  0.00  0.00    -0.021 A 
ATOM     22  C   UNL     1       0.596   4.624 -10.795  0.00  0.00    -0.001 A 
ATOM     23  C   UNL     1       0.979   5.027 -12.072  0.00  0.00    +0.037 A 
BRANCH  18  25
ATOM     24  C   UNL     1       1.218   6.364 -14.613  0.00  0.00    +0.252 C 
ATOM     25  O   UNL     1       1.105   6.811 -13.708  0.00  0.00    -0.471 OA
ENDBRANCH  18  25
ENDBRANCH  17  21
ENDBRANCH  15  17
ENDBRANCH  14  15
ENDBRANCH   1  14
TORSDOF 8
ENDMDL
MODEL 4
REMARK VINA RESULT:      -7.0      5.257      9.937
REMARK  Name = 
REMARK  8 active torsions:
REMARK  status: ('A' for Active; 'I' for Inactive)
REMARK    1  A    between atoms: O_2  and  C_3
REMARK    2  A    between atoms: C_6  and  C_7
REMARK    3  A    between atoms: C_7  and  C_8
REMARK    4  A    between atoms: C_8  and  N_10
REMARK    5  A    between atoms: N_10  and  C_11
REMARK    6  A    between atoms: C_11  and  C_12
REMARK    7  A    between atoms: C_12  and  C_14
REMARK    8  A    between atoms: C_19  and  N_20
REMARK                            x       y       z     vdW  Elec       q    Type
REMARK                         _______ _______ _______ _____ _____    ______ ____
ROOT
ATOM      1  C   UNL     1       3.330   4.742  -9.484  0.00  0.00    +0.126 C 
ENDROOT
BRANCH   1   2
ATOM      2  C   UNL     1       3.995   6.153  -8.923  0.00  0.00    +0.192 C 
ATOM      3  O   UNL     1       5.191   5.402  -8.336  0.00  0.00    -0.217 OA
BRANCH   2   4
ATOM      4  C   UNL     1       4.770   6.407 -10.335  0.00  0.00    +0.011 A 
ATOM      5  C   UNL     1       4.466   5.382 -11.223  0.00  0.00    +0.018 A 
ATOM      6  C   UNL     1       5.338   5.121 -12.252  0.00  0.00    +0.112 A 
ATOM      7  C   UNL     1       6.700   5.309 -12.058  0.00  0.00    +0.211 A 
ATOM      8  O   UNL     1       7.643   4.738 -12.882  0.00  0.00    -0.285 OA
ATOM      9  C   UNL     1       7.093   6.162 -11.035  0.00  0.00    +0.043 A 
ATOM     10  C   UNL     1       6.139   6.551 -10.134  0.00  0.00    +0.002 A 
BRANCH   6  11
ATOM     11  N   UNL     1       4.886   4.810 -13.576  0.00  0.00    -0.168 NA
ATOM     12  C   UNL     1       4.572   5.941 -14.382  0.00  0.00    +0.325 C 
ATOM     13  O   UNL     1       5.468   6.801 -14.502  0.00  0.00    -0.263 OA
ENDBRANCH   6  11
ENDBRANCH   2   4
ENDBRANCH   1   2
BRANCH   1  14
ATOM     14  N   UNL     1       2.065   4.617  -8.854  0.00  0.00    -0.216 NA
BRANCH  14  15
ATOM     15  C   UNL     1       1.257   5.951  -9.082  0.00  0.00    +0.077 C 
ATOM     16  C   UNL     1       0.172   5.623  -7.882  0.00  0.00    +0.019 C 
BRANCH  15  17
ATOM     17  C   UNL     1       0.286   5.235 -10.192  0.00  0.00    +0.044 C 
BRANCH  17  21
ATOM     18  C   UNL     1       0.841   6.251 -14.230  0.00  0.00    +0.139 A 
ATOM     19  C   UNL     1       1.017   4.959 -13.758  0.00  0.00    +0.037 A 
ATOM     20  C   UNL     1       0.658   4.744 -12.458  0.00  0.00    -0.001 A 
ATOM     21  C   UNL     1       0.599   5.761 -11.504  0.00  0.00    -0.021 A 
ATOM     22  C   UNL     1       0.421   7.014 -12.004  0.00  0.00    -0.001 A 
ATOM     23  C   UNL     1       0.412   7.259 -13.375  0.00  0.00    +0.037 A 
BRANCH  18  25
ATOM     24  C   UNL     1       0.449   7.186 -16.179  0.00  0.00    +0.252 C 
ATOM     25  O   UNL     1       0.717   6.385 -15.615  0.00  0.00    -0.471 OA
ENDBRANCH  18  25
ENDBRANCH  17  21
ENDBRANCH  15  17
ENDBRANCH  14  15
ENDBRANCH   1  14
TORSDOF 8
ENDMDL
MODEL 5
REMARK VINA RESULT:      -6.9      3.017      5.076
REMARK  Name = 
REMARK  8 active torsions:
REMARK  status: ('A' for Active; 'I' for Inactive)
REMARK    1  A    between atoms: O_2  and  C_3
REMARK    2  A    between atoms: C_6  and  C_7
REMARK    3  A    between atoms: C_7  and  C_8
REMARK    4  A    between atoms: C_8  and  N_10
REMARK    5  A    between atoms: N_10  and  C_11
REMARK    6  A    between atoms: C_11  and  C_12
REMARK    7  A    between atoms: C_12  and  C_14
REMARK    8  A    between atoms: C_19  and  N_20
REMARK                            x       y       z     vdW  Elec       q    Type
REMARK                         _______ _______ _______ _____ _____    ______ ____
ROOT
ATOM      1  C   UNL     1       1.480   5.690  -6.151  0.00  0.00    +0.126 C 
ENDROOT
BRANCH   1   2
ATOM      2  C   UNL     1       0.068   6.491  -6.488  0.00  0.00    +0.192 C 
ATOM      3  O   UNL     1      -0.704   5.174  -6.573  0.00  0.00    -0.217 OA
BRANCH   2   4
ATOM      4  C   UNL     1      -0.273   6.658  -4.903  0.00  0.00    +0.011 A 
ATOM      5  C   UNL     1       0.104   5.507  -4.221  0.00  0.00    +0.018 A 
ATOM      6  C   UNL     1      -0.501   5.223  -3.020  0.00  0.00    +0.112 A 
ATOM      7  C   UNL     1      -1.827   5.585  -2.822  0.00  0.00    +0.211 A 
ATOM      8  O   UNL     1      -2.595   5.029  -1.824  0.00  0.00    -0.285 OA
ATOM      9  C   UNL     1      -2.347   6.594  -3.622  0.00  0.00    +0.043 A 
ATOM     10  C   UNL     1      -1.613   6.979  -4.711  0.00  0.00    +0.002 A 
BRANCH   6  11
ATOM     11  N   UNL     1       0.229   4.707  -1.901  0.00  0.00    -0.168 NA
ATOM     12  C   UNL     1       1.102   5.641  -1.273  0.00  0.00    +0.325 C 
ATOM     13  O   UNL     1       0.587   6.716  -0.902  0.00  0.00    -0.263 OA
ENDBRANCH   6  11
ENDBRANCH   2   4
ENDBRANCH   1   2
BRANCH   1  14
ATOM     14  N   UNL     1       1.978   5.216  -7.393  0.00  0.00    -0.216 NA
BRANCH  14  15
ATOM     15  C   UNL     1       3.552   5.170  -7.318  0.00  0.00    +0.077 C 
ATOM     16  C   UNL     1       3.647   6.472  -6.307  0.00  0.00    +0.019 C 
BRANCH  15  17
ATOM     17  C   UNL     1       3.695   6.145  -8.629  0.00  0.00    +0.044 C 
BRANCH  17  21
ATOM     18  C   UNL     1       7.269   5.933 -10.824  0.00  0.00    +0.139 A 
ATOM     19  C   UNL     1       6.075   6.351 -11.389  0.00  0.00    +0.037 A 
ATOM     20  C   UNL     1       5.030   6.514 -10.524  0.00  0.00    -0.001 A 
ATOM     21  C   UNL     1       4.951   5.865  -9.292  0.00  0.00    -0.021 A 
ATOM     22  C   UNL     1       6.144   5.473  -8.766  0.00  0.00    -0.001 A 
ATOM     23  C   UNL     1       7.335   5.618  -9.472  0.00  0.00    +0.037 A 
BRANCH  18  25
ATOM     24  C   UNL     1       8.739   5.903 -12.456  0.00  0.00    +0.252 C 
ATOM     25  O   UNL     1       8.427   6.233 -11.547  0.00  0.00    -0.471 OA
ENDBRANCH  18  25
ENDBRANCH  17  21
ENDBRANCH  15  17
ENDBRANCH  14  15
ENDBRANCH   1  14
TORSDOF 8
ENDMDL
MODEL 6
REMARK VINA RESULT:      -6.6      3.225      5.806
REMARK  Name = 
REMARK  8 active torsions:
REMARK  status: ('A' for Active; 'I' for Inactive)
REMARK    1  A    between atoms: O_2  and  C_3
REMARK    2  A    between atoms: C_6  and  C_7
REMARK    3  A    between atoms: C_7  and  C_8
REMARK    4  A    between atoms: C_8  and  N_10
REMARK    5  A    between atoms: N_10  and  C_11
REMARK    6  A    between atoms: C_11  and  C_12
REMARK    7  A    between atoms: C_12  and  C_14
REMARK    8  A    between atoms: C_19  and  N_20
REMARK                            x       y       z     vdW  Elec       q    Type
REMARK                         _______ _______ _______ _____ _____    ______ ____
ROOT
ATOM      1  C   UNL     1       3.013   6.738  -6.409  0.00  0.00    +0.126 C 
ENDROOT
BRANCH   1   2
ATOM      2  C   UNL     1       2.327   5.866  -5.177  0.00  0.00    +0.192 C 
ATOM      3  O   UNL     1       2.544   7.014  -4.191  0.00  0.00    -0.217 OA
BRANCH   2   4
ATOM      4  C   UNL     1       0.836   6.399  -5.564  0.00  0.00    +0.011 A 
ATOM      5  C   UNL     1      -0.046   6.109  -4.529  0.00  0.00    +0.018 A 
ATOM      6  C   UNL     1      -1.388   6.019  -4.812  0.00  0.00    +0.112 A 
ATOM      7  C   UNL     1      -1.794   5.536  -6.048  0.00  0.00    +0.211 A 
ATOM      8  O   UNL     1      -3.074   5.080  -6.271  0.00  0.00    -0.285 OA
ATOM      9  C   UNL     1      -0.883   5.594  -7.095  0.00  0.00    +0.043 A 
ATOM     10  C   UNL     1       0.420   5.876  -6.784  0.00  0.00    +0.002 A 
BRANCH   6  11
ATOM     11  N   UNL     1      -2.389   6.553  -3.937  0.00  0.00    -0.168 NA
ATOM     12  C   UNL     1      -3.170   5.578  -3.255  0.00  0.00    +0.325 C 
ATOM     13  O   UNL     1      -2.539   4.724  -2.599  0.00  0.00    -0.263 OA
ENDBRANCH   6  11
ENDBRANCH   2   4
ENDBRANCH   1   2
BRANCH   1  14
ATOM     14  N   UNL     1       4.075   5.946  -6.918  0.00  0.00    -0.216 NA
BRANCH  14  15
ATOM     15  C   UNL     1       3.914   5.837  -8.482  0.00  0.00    +0.077 C 
ATOM     16  C   UNL     1       3.307   4.304  -8.418  0.00  0.00    +0.019 C 
BRANCH  15  17
ATOM     17  C   UNL     1       5.438   5.255  -8.650  0.00  0.00    +0.044 C 
BRANCH  17  21
ATOM     18  C   UNL     1       6.425   6.736 -12.454  0.00  0.00    +0.139 A 
ATOM     19  C   UNL     1       5.474   5.745 -12.267  0.00  0.00    +0.037 A 
ATOM     20  C   UNL     1       5.148   5.468 -10.970  0.00  0.00    -0.001 A 
ATOM     21  C   UNL     1       5.995   5.739  -9.896  0.00  0.00    -0.021 A 
ATOM     22  C   UNL     1       6.913   6.720 -10.115  0.00  0.00    -0.001 A 
ATOM     23  C   UNL     1       7.054   7.321 -11.363  0.00  0.00    +0.037 A 
BRANCH  18  25
ATOM     24  C   UNL     1       6.543   6.993 -14.633  0.00  0.00    +0.252 C 
ATOM     25  O   UNL     1       6.410   7.371 -13.699  0.00  0.00    -0.471 OA
ENDBRANCH  18  25
ENDBRANCH  17  21
ENDBRANCH  15  17
ENDBRANCH  14  15
ENDBRANCH   1  14
TORSDOF 8
ENDMDL
MODEL 7
REMARK VINA RESULT:      -6.6      3.897      8.273
REMARK  Name = 
REMARK  8 active torsions:
REMARK  status: ('A' for Active; 'I' for Inactive)
REMARK    1  A    between atoms: O_2  and  C_3
REMARK    2  A    between atoms: C_6  and  C_7
REMARK    3  A    between atoms: C_7  and  C_8
REMARK    4  A    between atoms: C_8  and  N_10
REMARK    5  A    between atoms: N_10  and  C_11
REMARK    6  A    between atoms: C_11  and  C_12
REMARK    7  A    between atoms: C_12  and  C_14
REMARK    8  A    between atoms: C_19  and  N_20
REMARK                            x       y       z     vdW  Elec       q    Type
REMARK                         _______ _______ _______ _____ _____    ______ ____
ROOT
ATOM      1  C   UNL     1       2.687   6.379  -9.710  0.00  0.00    +0.126 C 
ENDROOT
BRANCH   1   2
ATOM      2  C   UNL     1       4.198   6.932  -9.311  0.00  0.00    +0.192 C 
ATOM      3  O   UNL     1       4.691   5.509  -9.043  0.00  0.00    -0.217 OA
BRANCH   2   4
ATOM      4  C   UNL     1       4.685   6.872 -10.865  0.00  0.00    +0.011 A 
ATOM      5  C   UNL     1       4.429   5.609 -11.385  0.00  0.00    +0.018 A 
ATOM      6  C   UNL     1       5.161   5.179 -12.466  0.00  0.00    +0.112 A 
ATOM      7  C   UNL     1       6.482   5.585 -12.601  0.00  0.00    +0.211 A 
ATOM      8  O   UNL     1       7.369   4.928 -13.424  0.00  0.00    -0.285 OA
ATOM      9  C   UNL     1       6.875   6.735 -11.928  0.00  0.00    +0.043 A 
ATOM     10  C   UNL     1       6.022   7.239 -10.985  0.00  0.00    +0.002 A 
BRANCH   6  11
ATOM     11  N   UNL     1       4.568   4.454 -13.550  0.00  0.00    -0.168 NA
ATOM     12  C   UNL     1       3.396   5.049 -14.099  0.00  0.00    +0.325 C 
ATOM     13  O   UNL     1       3.503   6.234 -14.476  0.00  0.00    -0.263 OA
ENDBRANCH   6  11
ENDBRANCH   2   4
ENDBRANCH   1   2
BRANCH   1  14
ATOM     14  N   UNL     1       1.868   6.595  -8.572  0.00  0.00    -0.216 NA
BRANCH  14  15
ATOM     15  C   UNL     1       1.400   5.195  -8.018  0.00  0.00    +0.077 C 
ATOM     16  C   UNL     1       1.361   4.498  -9.513  0.00  0.00    +0.019 C 
BRANCH  15  17
ATOM     17  C   UNL     1      -0.180   5.615  -8.142  0.00  0.00    +0.044 C 
BRANCH  17  21
ATOM     18  C   UNL     1      -1.617   5.621  -4.196  0.00  0.00    +0.139 A 
ATOM     19  C   UNL     1      -0.264   5.609  -4.493  0.00  0.00    +0.037 A 
ATOM     20  C   UNL     1       0.060   5.760  -5.811  0.00  0.00    -0.001 A 
ATOM     21  C   UNL     1      -0.816   5.451  -6.852  0.00  0.00    -0.021 A 
ATOM     22  C   UNL     1      -2.137   5.477  -6.524  0.00  0.00    -0.001 A 
ATOM     23  C   UNL     1      -2.560   5.689  -5.214  0.00  0.00    +0.037 A 
BRANCH  18  25
ATOM     24  C   UNL     1      -2.862   6.102  -2.450  0.00  0.00    +0.252 C 
ATOM     25  O   UNL     1      -1.953   5.966  -2.884  0.00  0.00    -0.471 OA
ENDBRANCH  18  25
ENDBRANCH  17  21
ENDBRANCH  15  17
ENDBRANCH  14  15
ENDBRANCH   1  14
TORSDOF 8
ENDMDL
MODEL 8
REMARK VINA RESULT:      -6.6      3.737      7.964
REMARK  Name = 
REMARK  8 active torsions:
REMARK  status: ('A' for Active; 'I' for Inactive)
REMARK    1  A    between atoms: O_2  and  C_3
REMARK    2  A    between atoms: C_6  and  C_7
REMARK    3  A    between atoms: C_7  and  C_8
REMARK    4  A    between atoms: C_8  and  N_10
REMARK    5  A    between atoms: N_10  and  C_11
REMARK    6  A    between atoms: C_11  and  C_12
REMARK    7  A    between atoms: C_12  and  C_14
REMARK    8  A    between atoms: C_19  and  N_20
REMARK                            x       y       z     vdW  Elec       q    Type
REMARK                         _______ _______ _______ _____ _____    ______ ____
ROOT
ATOM      1  C   UNL     1       3.572   5.963  -8.025  0.00  0.00    +0.126 C 
ENDROOT
BRANCH   1   2
ATOM      2  C   UNL     1       4.748   4.806  -8.192  0.00  0.00    +0.192 C 
ATOM      3  O   UNL     1       3.742   3.809  -8.767  0.00  0.00    -0.217 OA
BRANCH   2   4
ATOM      4  C   UNL     1       5.144   5.354  -9.676  0.00  0.00    +0.011 A 
ATOM      5  C   UNL     1       6.491   5.700  -9.700  0.00  0.00    +0.018 A 
ATOM      6  C   UNL     1       6.923   6.603 -10.641  0.00  0.00    +0.112 A 
ATOM      7  C   UNL     1       6.073   7.623 -11.050  0.00  0.00    +0.211 A 
ATOM      8  O   UNL     1       6.538   8.750 -11.689  0.00  0.00    -0.285 OA
ATOM      9  C   UNL     1       4.710   7.441 -10.858  0.00  0.00    +0.043 A 
ATOM     10  C   UNL     1       4.316   6.404 -10.058  0.00  0.00    +0.002 A 
BRANCH   6  11
ATOM     11  N   UNL     1       8.163   6.443 -11.339  0.00  0.00    -0.168 NA
ATOM     12  C   UNL     1       8.343   5.173 -11.959  0.00  0.00    +0.325 C 
ATOM     13  O   UNL     1       7.441   4.807 -12.740  0.00  0.00    -0.263 OA
ENDBRANCH   6  11
ENDBRANCH   2   4
ENDBRANCH   1   2
BRANCH   1  14
ATOM     14  N   UNL     1       2.484   5.335  -7.364  0.00  0.00    -0.216 NA
BRANCH  14  15
ATOM     15  C   UNL     1       1.327   6.390  -7.188  0.00  0.00    +0.077 C 
ATOM     16  C   UNL     1       2.236   7.640  -7.768  0.00  0.00    +0.019 C 
BRANCH  15  17
ATOM     17  C   UNL     1       1.797   6.726  -5.653  0.00  0.00    +0.044 C 
BRANCH  17  21
ATOM     18  C   UNL     1      -1.907   6.680  -3.673  0.00  0.00    +0.139 A 
ATOM     19  C   UNL     1      -1.561   7.671  -4.577  0.00  0.00    +0.037 A 
ATOM     20  C   UNL     1      -0.391   7.479  -5.256  0.00  0.00    -0.001 A 
ATOM     21  C   UNL     1       0.642   6.671  -4.782  0.00  0.00    -0.021 A 
ATOM     22  C   UNL     1       0.264   5.705  -3.899  0.00  0.00    -0.001 A 
ATOM     23  C   UNL     1      -1.044   5.618  -3.430  0.00  0.00    +0.037 A 
BRANCH  18  25
ATOM     24  C   UNL     1      -3.722   6.325  -2.487  0.00  0.00    +0.252 C 
ATOM     25  O   UNL     1      -3.265   6.588  -3.355  0.00  0.00    -0.471 OA
ENDBRANCH  18  25
ENDBRANCH  17  21
ENDBRANCH  15  17
ENDBRANCH  14  15
ENDBRANCH   1  14
TORSDOF 8
ENDMDL
MODEL 9
REMARK VINA RESULT:      -6.5      3.141      5.192
REMARK  Name = 
REMARK  8 active torsions:
REMARK  status: ('A' for Active; 'I' for Inactive)
REMARK    1  A    between atoms: O_2  and  C_3
REMARK    2  A    between atoms: C_6  and  C_7
REMARK    3  A    between atoms: C_7  and  C_8
REMARK    4  A    between atoms: C_8  and  N_10
REMARK    5  A    between atoms: N_10  and  C_11
REMARK    6  A    between atoms: C_11  and  C_12
REMARK    7  A    between atoms: C_12  and  C_14
REMARK    8  A    between atoms: C_19  and  N_20
REMARK                            x       y       z     vdW  Elec       q    Type
REMARK                         _______ _______ _______ _____ _____    ______ ____
ROOT
ATOM      1  C   UNL     1       1.496   5.263  -7.454  0.00  0.00    +0.126 C 
ENDROOT
BRANCH   1   2
ATOM      2  C   UNL     1       0.437   6.100  -6.491  0.00  0.00    +0.192 C 
ATOM      3  O   UNL     1      -0.613   4.996  -6.620  0.00  0.00    -0.217 OA
BRANCH   2   4
ATOM      4  C   UNL     1       1.061   5.434  -5.141  0.00  0.00    +0.011 A 
ATOM      5  C   UNL     1       0.979   6.343  -4.092  0.00  0.00    +0.018 A 
ATOM      6  C   UNL     1       1.842   6.207  -3.032  0.00  0.00    +0.112 A 
ATOM      7  C   UNL     1       3.122   5.718  -3.252  0.00  0.00    +0.211 A 
ATOM      8  O   UNL     1       4.139   5.892  -2.340  0.00  0.00    -0.285 OA
ATOM      9  C   UNL     1       3.339   4.972  -4.404  0.00  0.00    +0.043 A 
ATOM     10  C   UNL     1       2.360   4.986  -5.360  0.00  0.00    +0.002 A 
BRANCH   6  11
ATOM     11  N   UNL     1       1.421   6.400  -1.676  0.00  0.00    -0.168 NA
ATOM     12  C   UNL     1       0.289   5.630  -1.284  0.00  0.00    +0.325 C 
ATOM     13  O   UNL     1       0.371   4.398  -1.462  0.00  0.00    -0.263 OA
ENDBRANCH   6  11
ENDBRANCH   2   4
ENDBRANCH   1   2
BRANCH   1  14
ATOM     14  N   UNL     1       1.368   5.807  -8.759  0.00  0.00    -0.216 NA
BRANCH  14  15
ATOM     15  C   UNL     1       2.548   5.261  -9.649  0.00  0.00    +0.077 C 
ATOM     16  C   UNL     1       2.691   3.861  -8.786  0.00  0.00    +0.019 C 
BRANCH  15  17
ATOM     17  C   UNL     1       3.670   5.990  -8.701  0.00  0.00    +0.044 C 
BRANCH  17  21
ATOM     18  C   UNL     1       7.317   6.092 -10.781  0.00  0.00    +0.139 A 
ATOM     19  C   UNL     1       7.226   5.674  -9.463  0.00  0.00    +0.037 A 
ATOM     20  C   UNL     1       5.961   5.550  -8.962  0.00  0.00    -0.001 A 
ATOM     21  C   UNL     1       4.863   6.234  -9.483  0.00  0.00    -0.021 A 
ATOM     22  C   UNL     1       4.988   6.626 -10.782  0.00  0.00    -0.001 A 
ATOM     23  C   UNL     1       6.175   6.445 -11.487  0.00  0.00    +0.037 A 
BRANCH  18  25
ATOM     24  C   UNL     1       8.770   5.896 -12.417  0.00  0.00    +0.252 C 
ATOM     25  O   UNL     1       8.498   5.756 -11.449  0.00  0.00    -0.471 OA
ENDBRANCH  18  25
ENDBRANCH  17  21
ENDBRANCH  15  17
ENDBRANCH  14  15
ENDBRANCH   1  14
TORSDOF 8
ENDMDL
