MODEL 1
REMARK VINA RESULT:      -5.0      0.000      0.000
REMARK  Name = 
REMARK  3 active torsions:
REMARK  status: ('A' for Active; 'I' for Inactive)
REMARK    1  A    between atoms: C_5  and  N_6
REMARK    2  A    between atoms: N_9  and  C_10
REMARK    3  A    between atoms: C_10  and  C_11
REMARK                            x       y       z     vdW  Elec       q    Type
REMARK                         _______ _______ _______ _____ _____    ______ ____
ROOT
ATOM      1  C   UNL     1      -2.205   5.646  -6.327  0.00  0.00    +0.072 C 
ATOM      2  C   UNL     1      -0.873   5.627  -6.658  0.00  0.00    +0.125 A 
ATOM      3  N   UNL     1       0.201   6.213  -6.066  0.00  0.00    -0.255 N 
ATOM      4  C   UNL     1       1.109   6.558  -7.009  0.00  0.00    +0.378 A 
ATOM      5  C   UNL     1       0.820   5.731  -8.086  0.00  0.00    +0.195 A 
ATOM      6  N   UNL     1      -0.452   5.317  -7.910  0.00  0.00    -0.223 NA
ENDROOT
BRANCH   4   7
ATOM      7  N   UNL     1       2.077   7.609  -6.948  0.00  0.00    +0.101 N 
ATOM      8  O   UNL     1       3.252   7.321  -6.279  0.00  0.00    -0.575 OA
ATOM      9  O   UNL     1       2.184   8.339  -7.956  0.00  0.00    +0.043 OA
ENDBRANCH   4   7
BRANCH   3  10
ATOM     10  C   UNL     1       0.167   6.609  -4.706  0.00  0.00    +0.146 C 
BRANCH  10  11
ATOM     11  C   UNL     1       0.606   5.259  -3.810  0.00  0.00    +0.175 C 
ATOM     12  O   UNL     1      -0.651   5.333  -2.908  0.00  0.00    -0.221 OA
ATOM     13  C   UNL     1       1.469   6.225  -2.739  0.00  0.00    +0.038 C 
ENDBRANCH  10  11
ENDBRANCH   3  10
TORSDOF 3
ENDMDL
MODEL 2
REMARK VINA RESULT:      -5.0      2.221      2.822
REMARK  Name = 
REMARK  3 active torsions:
REMARK  status: ('A' for Active; 'I' for Inactive)
REMARK    1  A    between atoms: C_5  and  N_6
REMARK    2  A    between atoms: N_9  and  C_10
REMARK    3  A    between atoms: C_10  and  C_11
REMARK                            x       y       z     vdW  Elec       q    Type
REMARK                         _______ _______ _______ _____ _____    ______ ____
ROOT
ATOM      1  C   UNL     1      -2.036   5.789  -6.403  0.00  0.00    +0.072 C 
ATOM      2  C   UNL     1      -0.966   5.393  -5.641  0.00  0.00    +0.125 A 
ATOM      3  N   UNL     1      -0.522   5.828  -4.432  0.00  0.00    -0.255 N 
ATOM      4  C   UNL     1       0.829   5.743  -4.386  0.00  0.00    +0.378 A 
ATOM      5  C   UNL     1       1.148   4.792  -5.346  0.00  0.00    +0.195 A 
ATOM      6  N   UNL     1       0.090   4.732  -6.180  0.00  0.00    -0.223 NA
ENDROOT
BRANCH   4   7
ATOM      7  N   UNL     1       1.728   6.530  -3.600  0.00  0.00    +0.101 N 
ATOM      8  O   UNL     1       2.057   6.024  -2.356  0.00  0.00    -0.575 OA
ATOM      9  O   UNL     1       2.643   7.123  -4.211  0.00  0.00    +0.043 OA
ENDBRANCH   4   7
BRANCH   3  10
ATOM     10  C   UNL     1      -1.382   6.505  -3.533  0.00  0.00    +0.146 C 
BRANCH  10  11
ATOM     11  C   UNL     1      -1.445   5.565  -2.143  0.00  0.00    +0.175 C 
ATOM     12  O   UNL     1      -2.699   4.788  -2.614  0.00  0.00    -0.221 OA
ATOM     13  C   UNL     1      -2.406   6.717  -1.383  0.00  0.00    +0.038 C 
ENDBRANCH  10  11
ENDBRANCH   3  10
TORSDOF 3
ENDMDL
MODEL 3
REMARK VINA RESULT:      -5.0      2.837      4.524
REMARK  Name = 
REMARK  3 active torsions:
REMARK  status: ('A' for Active; 'I' for Inactive)
REMARK    1  A    between atoms: C_5  and  N_6
REMARK    2  A    between atoms: N_9  and  C_10
REMARK    3  A    between atoms: C_10  and  C_11
REMARK                            x       y       z     vdW  Elec       q    Type
REMARK                         _______ _______ _______ _____ _____    ______ ____
ROOT
ATOM      1  C   UNL     1      -0.187   5.663  -1.260  0.00  0.00    +0.072 C 
ATOM      2  C   UNL     1      -0.945   5.358  -2.363  0.00  0.00    +0.125 A 
ATOM      3  N   UNL     1      -0.758   5.642  -3.678  0.00  0.00    -0.255 N 
ATOM      4  C   UNL     1      -1.957   5.827  -4.279  0.00  0.00    +0.378 A 
ATOM      5  C   UNL     1      -2.859   5.158  -3.463  0.00  0.00    +0.195 A 
ATOM      6  N   UNL     1      -2.260   5.039  -2.261  0.00  0.00    -0.223 NA
ENDROOT
BRANCH   4   7
ATOM      7  N   UNL     1      -2.243   6.620  -5.434  0.00  0.00    +0.101 N 
ATOM      8  O   UNL     1      -2.609   5.930  -6.575  0.00  0.00    -0.575 OA
ATOM      9  O   UNL     1      -2.822   7.710  -5.242  0.00  0.00    +0.043 OA
ENDBRANCH   4   7
BRANCH   3  10
ATOM     10  C   UNL     1       0.527   5.948  -4.190  0.00  0.00    +0.146 C 
BRANCH  10  11
ATOM     11  C   UNL     1       0.852   4.800  -5.371  0.00  0.00    +0.175 C 
ATOM     12  O   UNL     1       2.362   4.745  -5.034  0.00  0.00    -0.221 OA
ATOM     13  C   UNL     1       1.117   6.013  -6.506  0.00  0.00    +0.038 C 
ENDBRANCH  10  11
ENDBRANCH   3  10
TORSDOF 3
ENDMDL
MODEL 4
REMARK VINA RESULT:      -4.9      2.163      4.291
REMARK  Name = 
REMARK  3 active torsions:
REMARK  status: ('A' for Active; 'I' for Inactive)
REMARK    1  A    between atoms: C_5  and  N_6
REMARK    2  A    between atoms: N_9  and  C_10
REMARK    3  A    between atoms: C_10  and  C_11
REMARK                            x       y       z     vdW  Elec       q    Type
REMARK                         _______ _______ _______ _____ _____    ______ ____
ROOT
ATOM      1  C   UNL     1      -1.119   5.333  -7.075  0.00  0.00    +0.072 C 
ATOM      2  C   UNL     1      -1.314   5.959  -5.870  0.00  0.00    +0.125 A 
ATOM      3  N   UNL     1      -0.694   5.800  -4.672  0.00  0.00    -0.255 N 
ATOM      4  C   UNL     1      -1.579   6.012  -3.669  0.00  0.00    +0.378 A 
ATOM      5  C   UNL     1      -2.574   6.790  -4.245  0.00  0.00    +0.195 A 
ATOM      6  N   UNL     1      -2.475   6.598  -5.576  0.00  0.00    -0.223 NA
ENDROOT
BRANCH   4   7
ATOM      7  N   UNL     1      -1.547   5.470  -2.346  0.00  0.00    +0.101 N 
ATOM      8  O   UNL     1      -0.846   6.199  -1.402  0.00  0.00    -0.575 OA
ATOM      9  O   UNL     1      -2.584   4.902  -1.942  0.00  0.00    +0.043 OA
ENDBRANCH   4   7
BRANCH   3  10
ATOM     10  C   UNL     1       0.601   5.230  -4.583  0.00  0.00    +0.146 C 
BRANCH  10  11
ATOM     11  C   UNL     1       1.619   6.453  -4.048  0.00  0.00    +0.175 C 
ATOM     12  O   UNL     1       2.025   6.870  -5.483  0.00  0.00    -0.221 OA
ATOM     13  C   UNL     1       2.905   5.374  -3.964  0.00  0.00    +0.038 C 
ENDBRANCH  10  11
ENDBRANCH   3  10
TORSDOF 3
ENDMDL
MODEL 5
REMARK VINA RESULT:      -4.8      2.495      5.153
REMARK  Name = 
REMARK  3 active torsions:
REMARK  status: ('A' for Active; 'I' for Inactive)
REMARK    1  A    between atoms: C_5  and  N_6
REMARK    2  A    between atoms: N_9  and  C_10
REMARK    3  A    between atoms: C_10  and  C_11
REMARK                            x       y       z     vdW  Elec       q    Type
REMARK                         _______ _______ _______ _____ _____    ______ ____
ROOT
ATOM      1  C   UNL     1       2.510   6.984  -4.012  0.00  0.00    +0.072 C 
ATOM      2  C   UNL     1       1.524   6.120  -3.606  0.00  0.00    +0.125 A 
ATOM      3  N   UNL     1       0.237   5.979  -4.019  0.00  0.00    -0.255 N 
ATOM      4  C   UNL     1      -0.538   5.600  -2.975  0.00  0.00    +0.378 A 
ATOM      5  C   UNL     1       0.351   5.022  -2.078  0.00  0.00    +0.195 A 
ATOM      6  N   UNL     1       1.571   5.496  -2.402  0.00  0.00    -0.223 NA
ENDROOT
BRANCH   4   7
ATOM      7  N   UNL     1      -1.936   5.836  -2.793  0.00  0.00    +0.101 N 
ATOM      8  O   UNL     1      -2.742   4.714  -2.721  0.00  0.00    -0.575 OA
ATOM      9  O   UNL     1      -2.257   6.791  -2.055  0.00  0.00    +0.043 OA
ENDBRANCH   4   7
BRANCH   3  10
ATOM     10  C   UNL     1      -0.183   6.445  -5.290  0.00  0.00    +0.146 C 
BRANCH  10  11
ATOM     11  C   UNL     1      -0.528   5.078  -6.203  0.00  0.00    +0.175 C 
ATOM     12  O   UNL     1      -0.083   5.739  -7.530  0.00  0.00    -0.221 OA
ATOM     13  C   UNL     1      -2.108   5.606  -6.434  0.00  0.00    +0.038 C 
ENDBRANCH  10  11
ENDBRANCH   3  10
TORSDOF 3
ENDMDL
MODEL 6
REMARK VINA RESULT:      -4.7      2.470      3.961
REMARK  Name = 
REMARK  3 active torsions:
REMARK  status: ('A' for Active; 'I' for Inactive)
REMARK    1  A    between atoms: C_5  and  N_6
REMARK    2  A    between atoms: N_9  and  C_10
REMARK    3  A    between atoms: C_10  and  C_11
REMARK                            x       y       z     vdW  Elec       q    Type
REMARK                         _______ _______ _______ _____ _____    ______ ____
ROOT
ATOM      1  C   UNL     1       0.511   5.231  -1.522  0.00  0.00    +0.072 C 
ATOM      2  C   UNL     1       1.039   5.505  -2.758  0.00  0.00    +0.125 A 
ATOM      3  N   UNL     1       0.485   5.444  -3.998  0.00  0.00    -0.255 N 
ATOM      4  C   UNL     1       1.427   5.082  -4.900  0.00  0.00    +0.378 A 
ATOM      5  C   UNL     1       2.630   5.425  -4.300  0.00  0.00    +0.195 A 
ATOM      6  N   UNL     1       2.378   5.513  -2.978  0.00  0.00    -0.223 NA
ENDROOT
BRANCH   4   7
ATOM      7  N   UNL     1       1.231   4.404  -6.144  0.00  0.00    +0.101 N 
ATOM      8  O   UNL     1       0.868   5.192  -7.220  0.00  0.00    -0.575 OA
ATOM      9  O   UNL     1       1.999   3.451  -6.396  0.00  0.00    +0.043 OA
ENDBRANCH   4   7
BRANCH   3  10
ATOM     10  C   UNL     1      -0.920   5.494  -4.179  0.00  0.00    +0.146 C 
BRANCH  10  11
ATOM     11  C   UNL     1      -1.239   6.928  -4.992  0.00  0.00    +0.175 C 
ATOM     12  O   UNL     1      -2.377   7.333  -4.023  0.00  0.00    -0.221 OA
ATOM     13  C   UNL     1      -2.332   6.139  -5.997  0.00  0.00    +0.038 C 
ENDBRANCH  10  11
ENDBRANCH   3  10
TORSDOF 3
ENDMDL
MODEL 7
REMARK VINA RESULT:      -4.6      2.087      2.423
REMARK  Name = 
REMARK  3 active torsions:
REMARK  status: ('A' for Active; 'I' for Inactive)
REMARK    1  A    between atoms: C_5  and  N_6
REMARK    2  A    between atoms: N_9  and  C_10
REMARK    3  A    between atoms: C_10  and  C_11
REMARK                            x       y       z     vdW  Elec       q    Type
REMARK                         _______ _______ _______ _____ _____    ______ ____
ROOT
ATOM      1  C   UNL     1      -2.352   7.771  -4.856  0.00  0.00    +0.072 C 
ATOM      2  C   UNL     1      -1.822   6.571  -5.258  0.00  0.00    +0.125 A 
ATOM      3  N   UNL     1      -0.671   5.941  -4.903  0.00  0.00    -0.255 N 
ATOM      4  C   UNL     1      -0.188   5.246  -5.961  0.00  0.00    +0.378 A 
ATOM      5  C   UNL     1      -1.295   5.041  -6.773  0.00  0.00    +0.195 A 
ATOM      6  N   UNL     1      -2.200   5.975  -6.417  0.00  0.00    -0.223 NA
ENDROOT
BRANCH   4   7
ATOM      7  N   UNL     1       1.172   4.895  -6.229  0.00  0.00    +0.101 N 
ATOM      8  O   UNL     1       1.490   3.554  -6.123  0.00  0.00    -0.575 OA
ATOM      9  O   UNL     1       1.750   5.527  -7.139  0.00  0.00    +0.043 OA
ENDBRANCH   4   7
BRANCH   3  10
ATOM     10  C   UNL     1      -0.010   6.245  -3.688  0.00  0.00    +0.146 C 
BRANCH  10  11
ATOM     11  C   UNL     1      -0.846   5.430  -2.480  0.00  0.00    +0.175 C 
ATOM     12  O   UNL     1      -0.989   6.695  -1.598  0.00  0.00    -0.221 OA
ATOM     13  C   UNL     1       0.600   5.028  -1.722  0.00  0.00    +0.038 C 
ENDBRANCH  10  11
ENDBRANCH   3  10
TORSDOF 3
ENDMDL
MODEL 8
REMARK VINA RESULT:      -4.6      2.041      4.035
REMARK  Name = 
REMARK  3 active torsions:
REMARK  status: ('A' for Active; 'I' for Inactive)
REMARK    1  A    between atoms: C_5  and  N_6
REMARK    2  A    between atoms: N_9  and  C_10
REMARK    3  A    between atoms: C_10  and  C_11
REMARK                            x       y       z     vdW  Elec       q    Type
REMARK                         _______ _______ _______ _____ _____    ______ ____
ROOT
ATOM      1  C   UNL     1      -0.515   5.442  -7.213  0.00  0.00    +0.072 C 
ATOM      2  C   UNL     1      -0.342   5.992  -5.968  0.00  0.00    +0.125 A 
ATOM      3  N   UNL     1       0.693   5.907  -5.092  0.00  0.00    -0.255 N 
ATOM      4  C   UNL     1       0.220   5.938  -3.823  0.00  0.00    +0.378 A 
ATOM      5  C   UNL     1      -1.021   6.551  -3.932  0.00  0.00    +0.195 A 
ATOM      6  N   UNL     1      -1.393   6.416  -5.222  0.00  0.00    -0.223 NA
ENDROOT
BRANCH   4   7
ATOM      7  N   UNL     1       0.817   5.372  -2.654  0.00  0.00    +0.101 N 
ATOM      8  O   UNL     1       1.732   6.167  -1.988  0.00  0.00    -0.575 OA
ATOM      9  O   UNL     1       0.087   4.656  -1.936  0.00  0.00    +0.043 OA
ENDBRANCH   4   7
BRANCH   3  10
ATOM     10  C   UNL     1       1.998   5.564  -5.525  0.00  0.00    +0.146 C 
BRANCH  10  11
ATOM     11  C   UNL     1       2.968   6.895  -5.203  0.00  0.00    +0.175 C 
ATOM     12  O   UNL     1       2.820   7.466  -6.635  0.00  0.00    -0.221 OA
ATOM     13  C   UNL     1       4.338   6.033  -5.655  0.00  0.00    +0.038 C 
ENDBRANCH  10  11
ENDBRANCH   3  10
TORSDOF 3
ENDMDL
MODEL 9
REMARK VINA RESULT:      -4.5      2.037      3.456
REMARK  Name = 
REMARK  3 active torsions:
REMARK  status: ('A' for Active; 'I' for Inactive)
REMARK    1  A    between atoms: C_5  and  N_6
REMARK    2  A    between atoms: N_9  and  C_10
REMARK    3  A    between atoms: C_10  and  C_11
REMARK                            x       y       z     vdW  Elec       q    Type
REMARK                         _______ _______ _______ _____ _____    ______ ____
ROOT
ATOM      1  C   UNL     1       1.222   5.419  -3.065  0.00  0.00    +0.072 C 
ATOM      2  C   UNL     1       1.852   6.306  -3.902  0.00  0.00    +0.125 A 
ATOM      3  N   UNL     1       1.472   6.827  -5.098  0.00  0.00    -0.255 N 
ATOM      4  C   UNL     1       2.563   7.027  -5.874  0.00  0.00    +0.378 A 
ATOM      5  C   UNL     1       3.616   7.113  -4.974  0.00  0.00    +0.195 A 
ATOM      6  N   UNL     1       3.191   6.517  -3.842  0.00  0.00    -0.223 NA
ENDROOT
BRANCH   4   7
ATOM      7  N   UNL     1       2.628   7.041  -7.303  0.00  0.00    +0.101 N 
ATOM      8  O   UNL     1       2.226   8.210  -7.922  0.00  0.00    -0.575 OA
ATOM      9  O   UNL     1       3.590   6.443  -7.831  0.00  0.00    +0.043 OA
ENDBRANCH   4   7
BRANCH   3  10
ATOM     10  C   UNL     1       0.110   6.860  -5.487  0.00  0.00    +0.146 C 
BRANCH  10  11
ATOM     11  C   UNL     1      -0.268   5.312  -6.017  0.00  0.00    +0.175 C 
ATOM     12  O   UNL     1      -0.297   5.730  -7.507  0.00  0.00    -0.221 OA
ATOM     13  C   UNL     1      -1.910   5.638  -5.861  0.00  0.00    +0.038 C 
ENDBRANCH  10  11
ENDBRANCH   3  10
TORSDOF 3
ENDMDL
