MODEL 1
REMARK VINA RESULT:      -6.6      0.000      0.000
REMARK  Name = 
REMARK  6 active torsions:
REMARK  status: ('A' for Active; 'I' for Inactive)
REMARK    1  A    between atoms: O_2  and  C_3
REMARK    2  A    between atoms: C_11  and  N_12
REMARK    3  A    between atoms: N_12  and  C_13
REMARK    4  A    between atoms: C_13  and  C_15
REMARK    5  A    between atoms: C_15  and  C_16
REMARK    6  A    between atoms: C_16  and  C_17
REMARK                            x       y       z     vdW  Elec       q    Type
REMARK                         _______ _______ _______ _____ _____    ______ ____
ROOT
ATOM      1  C   UNL     1       2.406   4.858  -7.913  0.00  0.00    +0.140 A 
ATOM      2  C   UNL     1       3.525   4.555  -8.670  0.00  0.00    +0.054 A 
ATOM      3  C   UNL     1       3.702   5.233  -9.837  0.00  0.00    +0.086 A 
ATOM      4  C   UNL     1       2.556   5.719 -10.459  0.00  0.00    +0.096 A 
ATOM      5  C   UNL     1       1.427   6.084  -9.733  0.00  0.00    +0.022 A 
ATOM      6  C   UNL     1       0.362   6.751 -10.324  0.00  0.00    +0.003 A 
ATOM      7  C   UNL     1       0.363   6.753 -11.714  0.00  0.00    +0.021 A 
ATOM      8  C   UNL     1       1.257   5.940 -12.403  0.00  0.00    +0.099 A 
ATOM      9  N   UNL     1       2.462   5.737 -11.815  0.00  0.00    -0.243 NA
ATOM     10  C   UNL     1       1.417   5.703  -8.400  0.00  0.00    +0.038 A 
ENDROOT
BRANCH   1  12
ATOM     11  C   UNL     1       1.979   3.764  -6.493  0.00  0.00    +0.252 C 
ATOM     12  O   UNL     1       2.097   4.012  -6.840  0.00  0.00    -0.471 OA
ENDBRANCH   1  12
BRANCH   3  13
ATOM     13  N   UNL     1       4.874   5.506 -10.527  0.00  0.00    -0.238 NA
BRANCH  13  14
ATOM     14  C   UNL     1       5.964   6.416  -9.867  0.00  0.00    +0.093 C 
ATOM     15  C   UNL     1       5.937   7.527 -11.075  0.00  0.00    +0.023 C 
BRANCH  14  16
ATOM     16  C   UNL     1       7.174   5.583 -10.605  0.00  0.00    +0.023 C 
BRANCH  16  17
ATOM     17  C   UNL     1       7.939   6.589 -11.415  0.00  0.00    +0.022 C 
BRANCH  17  18
ATOM     18  C   UNL     1       8.623   5.805 -12.529  0.00  0.00    +0.109 C 
ATOM     19  N   UNL     1       7.729   4.732 -12.890  0.00  0.00    -0.131 NA
ENDBRANCH  17  18
ENDBRANCH  16  17
ENDBRANCH  14  16
ENDBRANCH  13  14
ENDBRANCH   3  13
TORSDOF 6
ENDMDL
MODEL 2
REMARK VINA RESULT:      -6.6      5.017      8.456
REMARK  Name = 
REMARK  6 active torsions:
REMARK  status: ('A' for Active; 'I' for Inactive)
REMARK    1  A    between atoms: O_2  and  C_3
REMARK    2  A    between atoms: C_11  and  N_12
REMARK    3  A    between atoms: N_12  and  C_13
REMARK    4  A    between atoms: C_13  and  C_15
REMARK    5  A    between atoms: C_15  and  C_16
REMARK    6  A    between atoms: C_16  and  C_17
REMARK                            x       y       z     vdW  Elec       q    Type
REMARK                         _______ _______ _______ _____ _____    ______ ____
ROOT
ATOM      1  C   UNL     1       2.493   5.256  -7.519  0.00  0.00    +0.140 A 
ATOM      2  C   UNL     1       1.208   5.287  -7.003  0.00  0.00    +0.054 A 
ATOM      3  C   UNL     1       0.941   6.198  -6.027  0.00  0.00    +0.086 A 
ATOM      4  C   UNL     1       2.014   6.606  -5.241  0.00  0.00    +0.096 A 
ATOM      5  C   UNL     1       3.314   6.638  -5.734  0.00  0.00    +0.022 A 
ATOM      6  C   UNL     1       4.351   7.228  -5.025  0.00  0.00    +0.003 A 
ATOM      7  C   UNL     1       4.075   7.500  -3.690  0.00  0.00    +0.021 A 
ATOM      8  C   UNL     1       2.919   6.989  -3.108  0.00  0.00    +0.099 A 
ATOM      9  N   UNL     1       1.840   6.871  -3.919  0.00  0.00    -0.243 NA
ATOM     10  C   UNL     1       3.512   6.010  -6.954  0.00  0.00    +0.038 A 
ENDROOT
BRANCH   1  12
ATOM     11  C   UNL     1       2.933   3.856  -8.634  0.00  0.00    +0.252 C 
ATOM     12  O   UNL     1       2.834   4.179  -8.349  0.00  0.00    -0.471 OA
ENDBRANCH   1  12
BRANCH   3  13
ATOM     13  N   UNL     1      -0.266   6.783  -5.676  0.00  0.00    -0.238 NA
BRANCH  13  14
ATOM     14  C   UNL     1      -1.394   5.904  -5.040  0.00  0.00    +0.093 C 
ATOM     15  C   UNL     1      -2.255   5.789  -6.433  0.00  0.00    +0.023 C 
BRANCH  14  16
ATOM     16  C   UNL     1      -2.240   7.236  -4.580  0.00  0.00    +0.023 C 
BRANCH  16  17
ATOM     17  C   UNL     1      -2.520   7.068  -3.115  0.00  0.00    +0.022 C 
BRANCH  17  18
ATOM     18  C   UNL     1      -3.195   5.709  -2.966  0.00  0.00    +0.109 C 
ATOM     19  N   UNL     1      -2.565   5.053  -1.846  0.00  0.00    -0.131 NA
ENDBRANCH  17  18
ENDBRANCH  16  17
ENDBRANCH  14  16
ENDBRANCH  13  14
ENDBRANCH   3  13
TORSDOF 6
ENDMDL
MODEL 3
REMARK VINA RESULT:      -6.5      4.982      8.382
REMARK  Name = 
REMARK  6 active torsions:
REMARK  status: ('A' for Active; 'I' for Inactive)
REMARK    1  A    between atoms: O_2  and  C_3
REMARK    2  A    between atoms: C_11  and  N_12
REMARK    3  A    between atoms: N_12  and  C_13
REMARK    4  A    between atoms: C_13  and  C_15
REMARK    5  A    between atoms: C_15  and  C_16
REMARK    6  A    between atoms: C_16  and  C_17
REMARK                            x       y       z     vdW  Elec       q    Type
REMARK                         _______ _______ _______ _____ _____    ______ ____
ROOT
ATOM      1  C   UNL     1       0.193   5.785  -8.691  0.00  0.00    +0.140 A 
ATOM      2  C   UNL     1      -0.588   5.310  -7.650  0.00  0.00    +0.054 A 
ATOM      3  C   UNL     1      -0.297   5.744  -6.393  0.00  0.00    +0.086 A 
ATOM      4  C   UNL     1       1.018   6.130  -6.152  0.00  0.00    +0.096 A 
ATOM      5  C   UNL     1       1.822   6.659  -7.157  0.00  0.00    +0.022 A 
ATOM      6  C   UNL     1       3.058   7.226  -6.881  0.00  0.00    +0.003 A 
ATOM      7  C   UNL     1       3.563   6.958  -5.613  0.00  0.00    +0.021 A 
ATOM      8  C   UNL     1       2.943   6.004  -4.813  0.00  0.00    +0.099 A 
ATOM      9  N   UNL     1       1.599   5.887  -4.948  0.00  0.00    -0.243 NA
ATOM     10  C   UNL     1       1.329   6.545  -8.447  0.00  0.00    +0.038 A 
ENDROOT
BRANCH   1  12
ATOM     11  C   UNL     1       0.008   4.951 -10.324  0.00  0.00    +0.252 C 
ATOM     12  O   UNL     1       0.050   5.172  -9.943  0.00  0.00    -0.471 OA
ENDBRANCH   1  12
BRANCH   3  13
ATOM     13  N   UNL     1      -1.124   5.847  -5.284  0.00  0.00    -0.238 NA
BRANCH  13  14
ATOM     14  C   UNL     1      -2.391   6.764  -5.349  0.00  0.00    +0.093 C 
ATOM     15  C   UNL     1      -1.641   8.050  -4.654  0.00  0.00    +0.023 C 
BRANCH  14  16
ATOM     16  C   UNL     1      -2.913   6.227  -3.885  0.00  0.00    +0.023 C 
BRANCH  16  17
ATOM     17  C   UNL     1      -2.407   7.214  -2.874  0.00  0.00    +0.022 C 
BRANCH  17  18
ATOM     18  C   UNL     1      -2.201   6.431  -1.583  0.00  0.00    +0.109 C 
ATOM     19  N   UNL     1      -2.451   5.045  -1.894  0.00  0.00    -0.131 NA
ENDBRANCH  17  18
ENDBRANCH  16  17
ENDBRANCH  14  16
ENDBRANCH  13  14
ENDBRANCH   3  13
TORSDOF 6
ENDMDL
MODEL 4
REMARK VINA RESULT:      -6.4      1.692      4.884
REMARK  Name = 
REMARK  6 active torsions:
REMARK  status: ('A' for Active; 'I' for Inactive)
REMARK    1  A    between atoms: O_2  and  C_3
REMARK    2  A    between atoms: C_11  and  N_12
REMARK    3  A    between atoms: N_12  and  C_13
REMARK    4  A    between atoms: C_13  and  C_15
REMARK    5  A    between atoms: C_15  and  C_16
REMARK    6  A    between atoms: C_16  and  C_17
REMARK                            x       y       z     vdW  Elec       q    Type
REMARK                         _______ _______ _______ _____ _____    ______ ____
ROOT
ATOM      1  C   UNL     1       4.246   5.365  -7.664  0.00  0.00    +0.140 A 
ATOM      2  C   UNL     1       3.208   5.854  -8.439  0.00  0.00    +0.054 A 
ATOM      3  C   UNL     1       3.460   6.089  -9.757  0.00  0.00    +0.086 A 
ATOM      4  C   UNL     1       4.777   6.377 -10.101  0.00  0.00    +0.096 A 
ATOM      5  C   UNL     1       5.852   5.867  -9.379  0.00  0.00    +0.022 A 
ATOM      6  C   UNL     1       7.159   5.986  -9.832  0.00  0.00    +0.003 A 
ATOM      7  C   UNL     1       7.346   6.895 -10.867  0.00  0.00    +0.021 A 
ATOM      8  C   UNL     1       6.312   7.755 -11.223  0.00  0.00    +0.099 A 
ATOM      9  N   UNL     1       5.053   7.271 -11.086  0.00  0.00    -0.243 NA
ATOM     10  C   UNL     1       5.537   5.272  -8.167  0.00  0.00    +0.038 A 
ENDROOT
BRANCH   1  12
ATOM     11  C   UNL     1       4.010   5.363  -5.836  0.00  0.00    +0.252 C 
ATOM     12  O   UNL     1       4.063   5.341  -6.275  0.00  0.00    -0.471 OA
ENDBRANCH   1  12
BRANCH   3  13
ATOM     13  N   UNL     1       2.584   6.102 -10.831  0.00  0.00    -0.238 NA
BRANCH  13  14
ATOM     14  C   UNL     1       1.075   6.447 -10.593  0.00  0.00    +0.093 C 
ATOM     15  C   UNL     1       0.593   4.877 -10.606  0.00  0.00    +0.023 C 
BRANCH  14  16
ATOM     16  C   UNL     1       0.802   6.585 -12.208  0.00  0.00    +0.023 C 
BRANCH  16  17
ATOM     17  C   UNL     1       0.761   5.185 -12.746  0.00  0.00    +0.022 C 
BRANCH  17  18
ATOM     18  C   UNL     1       1.081   5.292 -14.233  0.00  0.00    +0.109 C 
ATOM     19  N   UNL     1       2.505   5.105 -14.365  0.00  0.00    -0.131 NA
ENDBRANCH  17  18
ENDBRANCH  16  17
ENDBRANCH  14  16
ENDBRANCH  13  14
ENDBRANCH   3  13
TORSDOF 6
ENDMDL
MODEL 5
REMARK VINA RESULT:      -6.3      4.422      7.566
REMARK  Name = 
REMARK  6 active torsions:
REMARK  status: ('A' for Active; 'I' for Inactive)
REMARK    1  A    between atoms: O_2  and  C_3
REMARK    2  A    between atoms: C_11  and  N_12
REMARK    3  A    between atoms: N_12  and  C_13
REMARK    4  A    between atoms: C_13  and  C_15
REMARK    5  A    between atoms: C_15  and  C_16
REMARK    6  A    between atoms: C_16  and  C_17
REMARK                            x       y       z     vdW  Elec       q    Type
REMARK                         _______ _______ _______ _____ _____    ______ ____
ROOT
ATOM      1  C   UNL     1       3.682   6.125  -4.499  0.00  0.00    +0.140 A 
ATOM      2  C   UNL     1       2.420   6.636  -4.754  0.00  0.00    +0.054 A 
ATOM      3  C   UNL     1       1.894   6.432  -5.994  0.00  0.00    +0.086 A 
ATOM      4  C   UNL     1       2.799   6.266  -7.038  0.00  0.00    +0.096 A 
ATOM      5  C   UNL     1       4.058   5.711  -6.835  0.00  0.00    +0.022 A 
ATOM      6  C   UNL     1       4.883   5.362  -7.896  0.00  0.00    +0.003 A 
ATOM      7  C   UNL     1       4.506   5.877  -9.132  0.00  0.00    +0.021 A 
ATOM      8  C   UNL     1       3.510   6.845  -9.200  0.00  0.00    +0.099 A 
ATOM      9  N   UNL     1       2.523   6.758  -8.275  0.00  0.00    -0.243 NA
ATOM     10  C   UNL     1       4.450   5.569  -5.513  0.00  0.00    +0.038 A 
ENDROOT
BRANCH   1  12
ATOM     11  C   UNL     1       4.530   6.625  -2.941  0.00  0.00    +0.252 C 
ATOM     12  O   UNL     1       4.318   6.526  -3.316  0.00  0.00    -0.471 OA
ENDBRANCH   1  12
BRANCH   3  13
ATOM     13  N   UNL     1       0.566   6.380  -6.388  0.00  0.00    -0.238 NA
BRANCH  13  14
ATOM     14  C   UNL     1      -0.436   5.465  -5.607  0.00  0.00    +0.093 C 
ATOM     15  C   UNL     1      -1.425   5.244  -6.899  0.00  0.00    +0.023 C 
BRANCH  14  16
ATOM     16  C   UNL     1      -1.310   6.765  -5.110  0.00  0.00    +0.023 C 
BRANCH  16  17
ATOM     17  C   UNL     1      -1.507   6.595  -3.632  0.00  0.00    +0.022 C 
BRANCH  17  18
ATOM     18  C   UNL     1      -2.631   5.578  -3.468  0.00  0.00    +0.109 C 
ATOM     19  N   UNL     1      -2.445   4.957  -2.179  0.00  0.00    -0.131 NA
ENDBRANCH  17  18
ENDBRANCH  16  17
ENDBRANCH  14  16
ENDBRANCH  13  14
ENDBRANCH   3  13
TORSDOF 6
ENDMDL
MODEL 6
REMARK VINA RESULT:      -6.2      1.782      5.305
REMARK  Name = 
REMARK  6 active torsions:
REMARK  status: ('A' for Active; 'I' for Inactive)
REMARK    1  A    between atoms: O_2  and  C_3
REMARK    2  A    between atoms: C_11  and  N_12
REMARK    3  A    between atoms: N_12  and  C_13
REMARK    4  A    between atoms: C_13  and  C_15
REMARK    5  A    between atoms: C_15  and  C_16
REMARK    6  A    between atoms: C_16  and  C_17
REMARK                            x       y       z     vdW  Elec       q    Type
REMARK                         _______ _______ _______ _____ _____    ______ ____
ROOT
ATOM      1  C   UNL     1       4.210   5.502  -7.908  0.00  0.00    +0.140 A 
ATOM      2  C   UNL     1       3.352   6.213  -8.730  0.00  0.00    +0.054 A 
ATOM      3  C   UNL     1       3.771   6.486  -9.996  0.00  0.00    +0.086 A 
ATOM      4  C   UNL     1       5.146   6.562 -10.198  0.00  0.00    +0.096 A 
ATOM      5  C   UNL     1       6.041   5.826  -9.429  0.00  0.00    +0.022 A 
ATOM      6  C   UNL     1       7.389   5.744  -9.752  0.00  0.00    +0.003 A 
ATOM      7  C   UNL     1       7.829   6.672 -10.689  0.00  0.00    +0.021 A 
ATOM      8  C   UNL     1       6.996   7.721 -11.064  0.00  0.00    +0.099 A 
ATOM      9  N   UNL     1       5.666   7.456 -11.079  0.00  0.00    -0.243 NA
ATOM     10  C   UNL     1       5.511   5.218  -8.302  0.00  0.00    +0.038 A 
ENDROOT
BRANCH   1  12
ATOM     11  C   UNL     1       3.787   5.364  -6.119  0.00  0.00    +0.252 C 
ATOM     12  O   UNL     1       3.886   5.420  -6.547  0.00  0.00    -0.471 OA
ENDBRANCH   1  12
BRANCH   3  13
ATOM     13  N   UNL     1       3.022   6.722 -11.140  0.00  0.00    -0.238 NA
BRANCH  13  14
ATOM     14  C   UNL     1       2.194   5.556 -11.774  0.00  0.00    +0.093 C 
ATOM     15  C   UNL     1       2.449   6.056 -13.317  0.00  0.00    +0.023 C 
BRANCH  14  16
ATOM     16  C   UNL     1       0.803   6.427 -11.679  0.00  0.00    +0.023 C 
BRANCH  16  17
ATOM     17  C   UNL     1      -0.280   5.449 -11.329  0.00  0.00    +0.022 C 
BRANCH  17  18
ATOM     18  C   UNL     1       0.197   4.717 -10.079  0.00  0.00    +0.109 C 
ATOM     19  N   UNL     1      -0.105   5.573  -8.958  0.00  0.00    -0.131 NA
ENDBRANCH  17  18
ENDBRANCH  16  17
ENDBRANCH  14  16
ENDBRANCH  13  14
ENDBRANCH   3  13
TORSDOF 6
ENDMDL
MODEL 7
REMARK VINA RESULT:      -6.2      1.970      3.240
REMARK  Name = 
REMARK  6 active torsions:
REMARK  status: ('A' for Active; 'I' for Inactive)
REMARK    1  A    between atoms: O_2  and  C_3
REMARK    2  A    between atoms: C_11  and  N_12
REMARK    3  A    between atoms: N_12  and  C_13
REMARK    4  A    between atoms: C_13  and  C_15
REMARK    5  A    between atoms: C_15  and  C_16
REMARK    6  A    between atoms: C_16  and  C_17
REMARK                            x       y       z     vdW  Elec       q    Type
REMARK                         _______ _______ _______ _____ _____    ______ ____
ROOT
ATOM      1  C   UNL     1       1.378   5.142 -11.253  0.00  0.00    +0.140 A 
ATOM      2  C   UNL     1       2.515   5.910 -11.440  0.00  0.00    +0.054 A 
ATOM      3  C   UNL     1       3.207   6.295 -10.332  0.00  0.00    +0.086 A 
ATOM      4  C   UNL     1       2.483   6.407  -9.149  0.00  0.00    +0.096 A 
ATOM      5  C   UNL     1       1.363   5.620  -8.898  0.00  0.00    +0.022 A 
ATOM      6  C   UNL     1       0.760   5.585  -7.649  0.00  0.00    +0.003 A 
ATOM      7  C   UNL     1       1.147   6.595  -6.776  0.00  0.00    +0.021 A 
ATOM      8  C   UNL     1       1.905   7.661  -7.249  0.00  0.00    +0.099 A 
ATOM      9  N   UNL     1       2.778   7.380  -8.248  0.00  0.00    -0.243 NA
ATOM     10  C   UNL     1       0.869   4.910  -9.981  0.00  0.00    +0.038 A 
ENDROOT
BRANCH   1  12
ATOM     11  C   UNL     1       0.281   4.904 -12.714  0.00  0.00    +0.252 C 
ATOM     12  O   UNL     1       0.542   4.939 -12.359  0.00  0.00    -0.471 OA
ENDBRANCH   1  12
BRANCH   3  13
ATOM     13  N   UNL     1       4.549   6.619 -10.201  0.00  0.00    -0.238 NA
BRANCH  13  14
ATOM     14  C   UNL     1       5.638   5.560 -10.577  0.00  0.00    +0.093 C 
ATOM     15  C   UNL     1       6.388   5.638  -9.118  0.00  0.00    +0.023 C 
BRANCH  14  16
ATOM     16  C   UNL     1       6.625   6.722 -11.191  0.00  0.00    +0.023 C 
BRANCH  16  17
ATOM     17  C   UNL     1       8.027   6.218 -11.010  0.00  0.00    +0.022 C 
BRANCH  17  18
ATOM     18  C   UNL     1       8.568   5.954 -12.410  0.00  0.00    +0.109 C 
ATOM     19  N   UNL     1       7.877   4.790 -12.909  0.00  0.00    -0.131 NA
ENDBRANCH  17  18
ENDBRANCH  16  17
ENDBRANCH  14  16
ENDBRANCH  13  14
ENDBRANCH   3  13
TORSDOF 6
ENDMDL
MODEL 8
REMARK VINA RESULT:      -6.1      4.506      6.440
REMARK  Name = 
REMARK  6 active torsions:
REMARK  status: ('A' for Active; 'I' for Inactive)
REMARK    1  A    between atoms: O_2  and  C_3
REMARK    2  A    between atoms: C_11  and  N_12
REMARK    3  A    between atoms: N_12  and  C_13
REMARK    4  A    between atoms: C_13  and  C_15
REMARK    5  A    between atoms: C_15  and  C_16
REMARK    6  A    between atoms: C_16  and  C_17
REMARK                            x       y       z     vdW  Elec       q    Type
REMARK                         _______ _______ _______ _____ _____    ______ ____
ROOT
ATOM      1  C   UNL     1       0.236   5.551  -8.573  0.00  0.00    +0.140 A 
ATOM      2  C   UNL     1       1.361   6.018  -7.916  0.00  0.00    +0.054 A 
ATOM      3  C   UNL     1       1.314   6.094  -6.557  0.00  0.00    +0.086 A 
ATOM      4  C   UNL     1       0.057   6.260  -5.983  0.00  0.00    +0.096 A 
ATOM      5  C   UNL     1      -1.095   5.763  -6.584  0.00  0.00    +0.022 A 
ATOM      6  C   UNL     1      -2.316   5.750  -5.925  0.00  0.00    +0.003 A 
ATOM      7  C   UNL     1      -2.376   6.530  -4.775  0.00  0.00    +0.021 A 
ATOM      8  C   UNL     1      -1.339   7.411  -4.486  0.00  0.00    +0.099 A 
ATOM      9  N   UNL     1      -0.097   7.025  -4.870  0.00  0.00    -0.243 NA
ATOM     10  C   UNL     1      -0.952   5.322  -7.891  0.00  0.00    +0.038 A 
ENDROOT
BRANCH   1  12
ATOM     11  C   UNL     1       0.152   5.736 -10.405  0.00  0.00    +0.252 C 
ATOM     12  O   UNL     1       0.194   5.686  -9.967  0.00  0.00    -0.471 OA
ENDBRANCH   1  12
BRANCH   3  13
ATOM     13  N   UNL     1       2.350   6.048  -5.637  0.00  0.00    -0.238 NA
BRANCH  13  14
ATOM     14  C   UNL     1       3.606   6.960  -5.842  0.00  0.00    +0.093 C 
ATOM     15  C   UNL     1       4.468   5.798  -6.620  0.00  0.00    +0.023 C 
BRANCH  14  16
ATOM     16  C   UNL     1       4.231   6.508  -4.390  0.00  0.00    +0.023 C 
BRANCH  16  17
ATOM     17  C   UNL     1       4.874   7.734  -3.812  0.00  0.00    +0.022 C 
BRANCH  17  18
ATOM     18  C   UNL     1       3.985   8.175  -2.655  0.00  0.00    +0.109 C 
ATOM     19  N   UNL     1       3.382   6.980  -2.117  0.00  0.00    -0.131 NA
ENDBRANCH  17  18
ENDBRANCH  16  17
ENDBRANCH  14  16
ENDBRANCH  13  14
ENDBRANCH   3  13
TORSDOF 6
ENDMDL
MODEL 9
REMARK VINA RESULT:      -6.0      2.660      6.050
REMARK  Name = 
REMARK  6 active torsions:
REMARK  status: ('A' for Active; 'I' for Inactive)
REMARK    1  A    between atoms: O_2  and  C_3
REMARK    2  A    between atoms: C_11  and  N_12
REMARK    3  A    between atoms: N_12  and  C_13
REMARK    4  A    between atoms: C_13  and  C_15
REMARK    5  A    between atoms: C_15  and  C_16
REMARK    6  A    between atoms: C_16  and  C_17
REMARK                            x       y       z     vdW  Elec       q    Type
REMARK                         _______ _______ _______ _____ _____    ______ ____
ROOT
ATOM      1  C   UNL     1       2.901   5.943 -10.861  0.00  0.00    +0.140 A 
ATOM      2  C   UNL     1       2.973   5.174  -9.711  0.00  0.00    +0.054 A 
ATOM      3  C   UNL     1       4.024   5.387  -8.872  0.00  0.00    +0.086 A 
ATOM      4  C   UNL     1       5.189   5.889  -9.443  0.00  0.00    +0.096 A 
ATOM      5  C   UNL     1       5.161   6.707 -10.568  0.00  0.00    +0.022 A 
ATOM      6  C   UNL     1       6.294   7.368 -11.021  0.00  0.00    +0.003 A 
ATOM      7  C   UNL     1       7.494   6.925 -10.475  0.00  0.00    +0.021 A 
ATOM      8  C   UNL     1       7.518   5.758  -9.718  0.00  0.00    +0.099 A 
ATOM      9  N   UNL     1       6.407   5.493  -8.988  0.00  0.00    -0.243 NA
ATOM     10  C   UNL     1       3.944   6.784 -11.228  0.00  0.00    +0.038 A 
ENDROOT
BRANCH   1  12
ATOM     11  C   UNL     1       1.643   5.464 -12.119  0.00  0.00    +0.252 C 
ATOM     12  O   UNL     1       1.961   5.573 -11.832  0.00  0.00    -0.471 OA
ENDBRANCH   1  12
BRANCH   3  13
ATOM     13  N   UNL     1       4.120   5.160  -7.507  0.00  0.00    -0.238 NA
BRANCH  13  14
ATOM     14  C   UNL     1       3.175   5.932  -6.527  0.00  0.00    +0.093 C 
ATOM     15  C   UNL     1       4.378   6.303  -5.473  0.00  0.00    +0.023 C 
BRANCH  14  16
ATOM     16  C   UNL     1       2.824   4.554  -5.704  0.00  0.00    +0.023 C 
BRANCH  16  17
ATOM     17  C   UNL     1       1.418   4.189  -6.082  0.00  0.00    +0.022 C 
BRANCH  17  18
ATOM     18  C   UNL     1       0.585   5.451  -5.888  0.00  0.00    +0.109 C 
ATOM     19  N   UNL     1      -0.018   5.353  -4.581  0.00  0.00    -0.131 NA
ENDBRANCH  17  18
ENDBRANCH  16  17
ENDBRANCH  14  16
ENDBRANCH  13  14
ENDBRANCH   3  13
TORSDOF 6
ENDMDL
