MODEL 1
REMARK VINA RESULT:      -4.9      0.000      0.000
REMARK  Name = 
REMARK  5 active torsions:
REMARK  status: ('A' for Active; 'I' for Inactive)
REMARK    1  A    between atoms: N_4  and  CA_5
REMARK    2  A    between atoms: CA_5  and  CB_6
REMARK    3  A    between atoms: CA_5  and  C_11
REMARK    4  A    between atoms: CB_6  and  CG_7
REMARK    5  A    between atoms: CG_7  and  CD_8
REMARK                            x       y       z     vdW  Elec       q    Type
REMARK                         _______ _______ _______ _____ _____    ______ ____
ROOT
ATOM      1  CA  GLU A   1      -0.753   6.189  -2.230  0.00  0.00    +0.200 C 
ENDROOT
BRANCH   1   4
ATOM      2  N   UNK A   0       2.339   4.698  -0.933  0.00  0.00    -0.068 NA
ATOM      3  C   UNK A   0       1.120   5.370  -0.877  0.00  0.00    +0.359 C 
ATOM      4  N   GLU A   1      -0.087   4.929  -1.492  0.00  0.00    -0.176 NA
ATOM      5  O   UNK A   0       0.913   6.122   0.097  0.00  0.00    -0.247 OA
ENDBRANCH   1   4
BRANCH   1   6
ATOM      6  C   GLU A   1      -2.275   5.677  -1.876  0.00  0.00    +0.384 C 
ATOM      7  OXT GLU A   1      -2.805   4.687  -2.654  0.00  0.00    -0.244 OA
ATOM      8  O   GLU A   1      -2.960   6.751  -1.951  0.00  0.00    -0.244 OA
ENDBRANCH   1   6
BRANCH   1   9
ATOM      9  CB  GLU A   1      -0.664   5.398  -3.709  0.00  0.00    +0.045 C 
BRANCH   9  10
ATOM     10  CG  GLU A   1      -0.631   6.507  -4.718  0.00  0.00    +0.116 C 
BRANCH  10  11
ATOM     11  CD  GLU A   1      -1.902   6.622  -5.494  0.00  0.00    +0.365 C 
ATOM     12  OE2 GLU A   1      -2.391   5.435  -6.021  0.00  0.00    -0.246 OA
ATOM     13  OE1 GLU A   1      -2.730   7.529  -5.227  0.00  0.00    -0.246 OA
ENDBRANCH  10  11
ENDBRANCH   9  10
ENDBRANCH   1   9
TORSDOF 5
ENDMDL
MODEL 2
REMARK VINA RESULT:      -4.7     11.327     12.951
REMARK  Name = 
REMARK  5 active torsions:
REMARK  status: ('A' for Active; 'I' for Inactive)
REMARK    1  A    between atoms: N_4  and  CA_5
REMARK    2  A    between atoms: CA_5  and  CB_6
REMARK    3  A    between atoms: CA_5  and  C_11
REMARK    4  A    between atoms: CB_6  and  CG_7
REMARK    5  A    between atoms: CG_7  and  CD_8
REMARK                            x       y       z     vdW  Elec       q    Type
REMARK                         _______ _______ _______ _____ _____    ______ ____
ROOT
ATOM      1  CA  GLU A   1       6.742   6.692 -12.677  0.00  0.00    +0.200 C 
ENDROOT
BRANCH   1   4
ATOM      2  N   UNK A   0       4.625   6.612 -15.674  0.00  0.00    -0.068 NA
ATOM      3  C   UNK A   0       5.720   6.966 -14.889  0.00  0.00    +0.359 C 
ATOM      4  N   GLU A   1       6.515   6.057 -14.134  0.00  0.00    -0.176 NA
ATOM      5  O   UNK A   0       6.338   8.008 -15.189  0.00  0.00    -0.247 OA
ENDBRANCH   1   4
BRANCH   1   6
ATOM      6  C   GLU A   1       7.914   5.600 -12.310  0.00  0.00    +0.384 C 
ATOM      7  OXT GLU A   1       9.213   5.975 -12.514  0.00  0.00    -0.244 OA
ATOM      8  O   GLU A   1       7.598   4.593 -13.026  0.00  0.00    -0.244 OA
ENDBRANCH   1   6
BRANCH   1   9
ATOM      9  CB  GLU A   1       5.478   5.777 -12.057  0.00  0.00    +0.045 C 
BRANCH   9  10
ATOM     10  CG  GLU A   1       5.084   6.497 -10.802  0.00  0.00    +0.116 C 
BRANCH  10  11
ATOM     11  CD  GLU A   1       5.192   5.640  -9.584  0.00  0.00    +0.365 C 
ATOM     12  OE2 GLU A   1       4.274   4.603  -9.498  0.00  0.00    -0.246 OA
ATOM     13  OE1 GLU A   1       6.298   5.491  -9.007  0.00  0.00    -0.246 OA
ENDBRANCH  10  11
ENDBRANCH   9  10
ENDBRANCH   1   9
TORSDOF 5
ENDMDL
MODEL 3
REMARK VINA RESULT:      -4.7      2.370      3.813
REMARK  Name = 
REMARK  5 active torsions:
REMARK  status: ('A' for Active; 'I' for Inactive)
REMARK    1  A    between atoms: N_4  and  CA_5
REMARK    2  A    between atoms: CA_5  and  CB_6
REMARK    3  A    between atoms: CA_5  and  C_11
REMARK    4  A    between atoms: CB_6  and  CG_7
REMARK    5  A    between atoms: CG_7  and  CD_8
REMARK                            x       y       z     vdW  Elec       q    Type
REMARK                         _______ _______ _______ _____ _____    ______ ____
ROOT
ATOM      1  CA  GLU A   1      -0.773   5.933  -4.643  0.00  0.00    +0.200 C 
ENDROOT
BRANCH   1   4
ATOM      2  N   UNK A   0       2.545   7.103  -3.599  0.00  0.00    -0.068 NA
ATOM      3  C   UNK A   0       1.621   6.309  -4.275  0.00  0.00    +0.359 C 
ATOM      4  N   GLU A   1       0.521   6.798  -5.035  0.00  0.00    -0.176 NA
ATOM      5  O   UNK A   0       1.988   5.173  -4.640  0.00  0.00    -0.247 OA
ENDBRANCH   1   4
BRANCH   1   6
ATOM      6  C   GLU A   1      -1.275   5.850  -6.206  0.00  0.00    +0.384 C 
ATOM      7  OXT GLU A   1      -2.611   5.674  -6.432  0.00  0.00    -0.244 OA
ATOM      8  O   GLU A   1      -0.587   4.882  -6.674  0.00  0.00    -0.244 OA
ENDBRANCH   1   6
BRANCH   1   9
ATOM      9  CB  GLU A   1      -1.627   7.332  -4.280  0.00  0.00    +0.045 C 
BRANCH   9  10
ATOM     10  CG  GLU A   1      -2.218   7.063  -2.929  0.00  0.00    +0.116 C 
BRANCH  10  11
ATOM     11  CD  GLU A   1      -2.632   5.639  -2.751  0.00  0.00    +0.365 C 
ATOM     12  OE2 GLU A   1      -2.221   5.039  -1.569  0.00  0.00    -0.246 OA
ATOM     13  OE1 GLU A   1      -3.683   5.211  -3.290  0.00  0.00    -0.246 OA
ENDBRANCH  10  11
ENDBRANCH   9  10
ENDBRANCH   1   9
TORSDOF 5
ENDMDL
MODEL 4
REMARK VINA RESULT:      -4.6      2.171      2.960
REMARK  Name = 
REMARK  5 active torsions:
REMARK  status: ('A' for Active; 'I' for Inactive)
REMARK    1  A    between atoms: N_4  and  CA_5
REMARK    2  A    between atoms: CA_5  and  CB_6
REMARK    3  A    between atoms: CA_5  and  C_11
REMARK    4  A    between atoms: CB_6  and  CG_7
REMARK    5  A    between atoms: CG_7  and  CD_8
REMARK                            x       y       z     vdW  Elec       q    Type
REMARK                         _______ _______ _______ _____ _____    ______ ____
ROOT
ATOM      1  CA  GLU A   1      -0.648   6.089  -2.744  0.00  0.00    +0.200 C 
ENDROOT
BRANCH   1   4
ATOM      2  N   UNK A   0       2.076   4.598  -0.789  0.00  0.00    -0.068 NA
ATOM      3  C   UNK A   0       0.909   5.324  -1.012  0.00  0.00    +0.359 C 
ATOM      4  N   GLU A   1      -0.197   4.879  -1.789  0.00  0.00    -0.176 NA
ATOM      5  O   UNK A   0       0.584   6.177  -0.161  0.00  0.00    -0.247 OA
ENDBRANCH   1   4
BRANCH   1   6
ATOM      6  C   GLU A   1      -2.062   5.345  -3.132  0.00  0.00    +0.384 C 
ATOM      7  OXT GLU A   1      -3.011   6.088  -3.775  0.00  0.00    -0.244 OA
ATOM      8  O   GLU A   1      -2.480   4.924  -2.002  0.00  0.00    -0.244 OA
ENDBRANCH   1   6
BRANCH   1   9
ATOM      9  CB  GLU A   1       0.225   5.435  -4.021  0.00  0.00    +0.045 C 
BRANCH   9  10
ATOM     10  CG  GLU A   1       1.052   6.580  -4.526  0.00  0.00    +0.116 C 
BRANCH  10  11
ATOM     11  CD  GLU A   1       2.498   6.450  -4.174  0.00  0.00    +0.365 C 
ATOM     12  OE2 GLU A   1       3.028   7.493  -3.428  0.00  0.00    -0.246 OA
ATOM     13  OE1 GLU A   1       3.022   5.315  -4.049  0.00  0.00    -0.246 OA
ENDBRANCH  10  11
ENDBRANCH   9  10
ENDBRANCH   1   9
TORSDOF 5
ENDMDL
MODEL 5
REMARK VINA RESULT:      -4.6      9.761     11.376
REMARK  Name = 
REMARK  5 active torsions:
REMARK  status: ('A' for Active; 'I' for Inactive)
REMARK    1  A    between atoms: N_4  and  CA_5
REMARK    2  A    between atoms: CA_5  and  CB_6
REMARK    3  A    between atoms: CA_5  and  C_11
REMARK    4  A    between atoms: CB_6  and  CG_7
REMARK    5  A    between atoms: CG_7  and  CD_8
REMARK                            x       y       z     vdW  Elec       q    Type
REMARK                         _______ _______ _______ _____ _____    ______ ____
ROOT
ATOM      1  CA  GLU A   1       5.302   5.467 -11.690  0.00  0.00    +0.200 C 
ENDROOT
BRANCH   1   4
ATOM      2  N   UNK A   0       8.935   5.933 -11.908  0.00  0.00    -0.068 NA
ATOM      3  C   UNK A   0       7.673   5.507 -12.313  0.00  0.00    +0.359 C 
ATOM      4  N   GLU A   1       6.502   6.318 -12.333  0.00  0.00    -0.176 NA
ATOM      5  O   UNK A   0       7.610   4.557 -13.120  0.00  0.00    -0.247 OA
ENDBRANCH   1   4
BRANCH   1   6
ATOM      6  C   GLU A   1       4.350   5.686 -13.013  0.00  0.00    +0.384 C 
ATOM      7  OXT GLU A   1       3.042   6.022 -12.801  0.00  0.00    -0.244 OA
ATOM      8  O   GLU A   1       4.456   4.572 -13.626  0.00  0.00    -0.244 OA
ENDBRANCH   1   6
BRANCH   1   9
ATOM      9  CB  GLU A   1       4.747   6.825 -10.874  0.00  0.00    +0.045 C 
BRANCH   9  10
ATOM     10  CG  GLU A   1       3.993   6.268  -9.703  0.00  0.00    +0.116 C 
BRANCH  10  11
ATOM     11  CD  GLU A   1       4.582   4.996  -9.187  0.00  0.00    +0.365 C 
ATOM     12  OE2 GLU A   1       5.698   5.141  -8.374  0.00  0.00    -0.246 OA
ATOM     13  OE1 GLU A   1       3.858   3.985  -9.012  0.00  0.00    -0.246 OA
ENDBRANCH  10  11
ENDBRANCH   9  10
ENDBRANCH   1   9
TORSDOF 5
ENDMDL
MODEL 6
REMARK VINA RESULT:      -4.5      4.012      5.103
REMARK  Name = 
REMARK  5 active torsions:
REMARK  status: ('A' for Active; 'I' for Inactive)
REMARK    1  A    between atoms: N_4  and  CA_5
REMARK    2  A    between atoms: CA_5  and  CB_6
REMARK    3  A    between atoms: CA_5  and  C_11
REMARK    4  A    between atoms: CB_6  and  CG_7
REMARK    5  A    between atoms: CG_7  and  CD_8
REMARK                            x       y       z     vdW  Elec       q    Type
REMARK                         _______ _______ _______ _____ _____    ______ ____
ROOT
ATOM      1  CA  GLU A   1       0.680   6.788  -5.890  0.00  0.00    +0.200 C 
ENDROOT
BRANCH   1   4
ATOM      2  N   UNK A   0       1.713   6.769  -9.411  0.00  0.00    -0.068 NA
ATOM      3  C   UNK A   0       1.722   7.167  -8.076  0.00  0.00    +0.359 C 
ATOM      4  N   GLU A   1       1.767   6.285  -6.959  0.00  0.00    -0.176 NA
ATOM      5  O   UNK A   0       2.173   8.300  -7.809  0.00  0.00    -0.247 OA
ENDBRANCH   1   4
BRANCH   1   6
ATOM      6  C   GLU A   1       1.661   6.425  -4.621  0.00  0.00    +0.384 C 
ATOM      7  OXT GLU A   1       2.420   5.292  -4.713  0.00  0.00    -0.244 OA
ATOM      8  O   GLU A   1       0.847   6.367  -3.640  0.00  0.00    -0.244 OA
ENDBRANCH   1   6
BRANCH   1   9
ATOM      9  CB  GLU A   1      -0.083   5.293  -5.928  0.00  0.00    +0.045 C 
BRANCH   9  10
ATOM     10  CG  GLU A   1      -1.465   5.597  -6.424  0.00  0.00    +0.116 C 
BRANCH  10  11
ATOM     11  CD  GLU A   1      -2.365   6.115  -5.351  0.00  0.00    +0.365 C 
ATOM     12  OE2 GLU A   1      -2.322   5.423  -4.148  0.00  0.00    -0.246 OA
ATOM     13  OE1 GLU A   1      -2.679   7.331  -5.315  0.00  0.00    -0.246 OA
ENDBRANCH  10  11
ENDBRANCH   9  10
ENDBRANCH   1   9
TORSDOF 5
ENDMDL
MODEL 7
REMARK VINA RESULT:      -4.4      2.710      3.737
REMARK  Name = 
REMARK  5 active torsions:
REMARK  status: ('A' for Active; 'I' for Inactive)
REMARK    1  A    between atoms: N_4  and  CA_5
REMARK    2  A    between atoms: CA_5  and  CB_6
REMARK    3  A    between atoms: CA_5  and  C_11
REMARK    4  A    between atoms: CB_6  and  CG_7
REMARK    5  A    between atoms: CG_7  and  CD_8
REMARK                            x       y       z     vdW  Elec       q    Type
REMARK                         _______ _______ _______ _____ _____    ______ ____
ROOT
ATOM      1  CA  GLU A   1       0.311   5.605  -4.253  0.00  0.00    +0.200 C 
ENDROOT
BRANCH   1   4
ATOM      2  N   UNK A   0       3.159   7.590  -3.064  0.00  0.00    -0.068 NA
ATOM      3  C   UNK A   0       2.512   6.534  -3.702  0.00  0.00    +0.359 C 
ATOM      4  N   GLU A   1       1.447   6.672  -4.638  0.00  0.00    -0.176 NA
ATOM      5  O   UNK A   0       3.143   5.467  -3.848  0.00  0.00    -0.247 OA
ENDBRANCH   1   4
BRANCH   1   6
ATOM      6  C   GLU A   1       0.320   4.951  -5.762  0.00  0.00    +0.384 C 
ATOM      7  OXT GLU A   1       1.105   3.853  -5.970  0.00  0.00    -0.244 OA
ATOM      8  O   GLU A   1       0.679   5.932  -6.494  0.00  0.00    -0.244 OA
ENDBRANCH   1   6
BRANCH   1   9
ATOM      9  CB  GLU A   1      -0.890   6.732  -4.580  0.00  0.00    +0.045 C 
BRANCH   9  10
ATOM     10  CG  GLU A   1      -2.151   5.923  -4.626  0.00  0.00    +0.116 C 
BRANCH  10  11
ATOM     11  CD  GLU A   1      -2.850   5.864  -3.308  0.00  0.00    +0.365 C 
ATOM     12  OE2 GLU A   1      -2.721   4.668  -2.615  0.00  0.00    -0.246 OA
ATOM     13  OE1 GLU A   1      -3.036   6.911  -2.638  0.00  0.00    -0.246 OA
ENDBRANCH  10  11
ENDBRANCH   9  10
ENDBRANCH   1   9
TORSDOF 5
ENDMDL
MODEL 8
REMARK VINA RESULT:      -4.4     12.052     13.660
REMARK  Name = 
REMARK  5 active torsions:
REMARK  status: ('A' for Active; 'I' for Inactive)
REMARK    1  A    between atoms: N_4  and  CA_5
REMARK    2  A    between atoms: CA_5  and  CB_6
REMARK    3  A    between atoms: CA_5  and  C_11
REMARK    4  A    between atoms: CB_6  and  CG_7
REMARK    5  A    between atoms: CG_7  and  CD_8
REMARK                            x       y       z     vdW  Elec       q    Type
REMARK                         _______ _______ _______ _____ _____    ______ ____
ROOT
ATOM      1  CA  GLU A   1       7.058   6.784 -13.669  0.00  0.00    +0.200 C 
ENDROOT
BRANCH   1   4
ATOM      2  N   UNK A   0       6.043   8.927 -16.470  0.00  0.00    -0.068 NA
ATOM      3  C   UNK A   0       6.593   7.809 -15.847  0.00  0.00    +0.359 C 
ATOM      4  N   GLU A   1       5.966   7.055 -14.815  0.00  0.00    -0.176 NA
ATOM      5  O   UNK A   0       7.432   7.141 -16.485  0.00  0.00    -0.247 OA
ENDBRANCH   1   4
BRANCH   1   6
ATOM      6  C   GLU A   1       6.788   5.162 -13.702  0.00  0.00    +0.384 C 
ATOM      7  OXT GLU A   1       5.595   4.710 -13.212  0.00  0.00    -0.244 OA
ATOM      8  O   GLU A   1       7.774   4.697 -13.041  0.00  0.00    -0.244 OA
ENDBRANCH   1   6
BRANCH   1   9
ATOM      9  CB  GLU A   1       5.920   7.106 -12.477  0.00  0.00    +0.045 C 
BRANCH   9  10
ATOM     10  CG  GLU A   1       6.738   7.383 -11.252  0.00  0.00    +0.116 C 
BRANCH  10  11
ATOM     11  CD  GLU A   1       6.573   6.339 -10.197  0.00  0.00    +0.365 C 
ATOM     12  OE2 GLU A   1       7.656   6.173  -9.345  0.00  0.00    -0.246 OA
ATOM     13  OE1 GLU A   1       5.432   6.057  -9.754  0.00  0.00    -0.246 OA
ENDBRANCH  10  11
ENDBRANCH   9  10
ENDBRANCH   1   9
TORSDOF 5
ENDMDL
MODEL 9
REMARK VINA RESULT:      -4.4      1.906      3.543
REMARK  Name = 
REMARK  5 active torsions:
REMARK  status: ('A' for Active; 'I' for Inactive)
REMARK    1  A    between atoms: N_4  and  CA_5
REMARK    2  A    between atoms: CA_5  and  CB_6
REMARK    3  A    between atoms: CA_5  and  C_11
REMARK    4  A    between atoms: CB_6  and  CG_7
REMARK    5  A    between atoms: CG_7  and  CD_8
REMARK                            x       y       z     vdW  Elec       q    Type
REMARK                         _______ _______ _______ _____ _____    ______ ____
ROOT
ATOM      1  CA  GLU A   1      -0.163   5.331  -3.475  0.00  0.00    +0.200 C 
ENDROOT
BRANCH   1   4
ATOM      2  N   UNK A   0      -3.355   6.752  -2.354  0.00  0.00    -0.068 NA
ATOM      3  C   UNK A   0      -2.413   5.756  -2.599  0.00  0.00    +0.359 C 
ATOM      4  N   GLU A   1      -1.041   5.815  -2.221  0.00  0.00    -0.176 NA
ATOM      5  O   UNK A   0      -2.824   4.584  -2.726  0.00  0.00    -0.247 OA
ENDBRANCH   1   4
BRANCH   1   6
ATOM      6  C   GLU A   1       1.249   5.666  -2.701  0.00  0.00    +0.384 C 
ATOM      7  OXT GLU A   1       2.412   5.370  -3.354  0.00  0.00    -0.244 OA
ATOM      8  O   GLU A   1       1.139   5.008  -1.614  0.00  0.00    -0.244 OA
ENDBRANCH   1   6
BRANCH   1   9
ATOM      9  CB  GLU A   1      -0.309   6.843  -4.190  0.00  0.00    +0.045 C 
BRANCH   9  10
ATOM     10  CG  GLU A   1      -0.191   6.568  -5.660  0.00  0.00    +0.116 C 
BRANCH  10  11
ATOM     11  CD  GLU A   1      -1.337   5.774  -6.195  0.00  0.00    +0.365 C 
ATOM     12  OE2 GLU A   1      -2.589   6.356  -6.047  0.00  0.00    -0.246 OA
ATOM     13  OE1 GLU A   1      -1.170   4.984  -7.157  0.00  0.00    -0.246 OA
ENDBRANCH  10  11
ENDBRANCH   9  10
ENDBRANCH   1   9
TORSDOF 5
ENDMDL
