MODEL 1
REMARK VINA RESULT:      -7.9      0.000      0.000
REMARK  Name = 
REMARK  6 active torsions:
REMARK  status: ('A' for Active; 'I' for Inactive)
REMARK    1  A    between atoms: C_5  and  C_6
REMARK    2  A    between atoms: C_6  and  O_7
REMARK    3  A    between atoms: O_7  and  C_8
REMARK    4  A    between atoms: C_8  and  C_9
REMARK    5  A    between atoms: C_8  and  C_15
REMARK    6  A    between atoms: C_9  and  N_10
REMARK                            x       y       z     vdW  Elec       q    Type
REMARK                         _______ _______ _______ _____ _____    ______ ____
ROOT
ATOM      1  C   UNL     1       1.397   5.355 -10.168  0.00  0.00    +0.161 C 
ENDROOT
BRANCH   1   2
ATOM      2  C   UNL     1       2.857   5.632  -9.525  0.00  0.00    +0.017 A 
ATOM      3  C   UNL     1       3.564   4.646  -8.990  0.00  0.00    +0.057 A 
ATOM      4 CL   UNL     1       2.616   3.593  -7.943  0.00  0.00    -0.082 Cl
ATOM      5  C   UNL     1       4.946   4.721  -8.914  0.00  0.00    +0.023 A 
ATOM      6  C   UNL     1       5.560   5.705  -9.679  0.00  0.00    +0.058 A 
ATOM      7 CL   UNL     1       7.296   5.854  -9.404  0.00  0.00    -0.082 Cl
ATOM      8  C   UNL     1       4.831   6.741 -10.244  0.00  0.00    +0.011 A 
ATOM      9  C   UNL     1       3.447   6.718 -10.149  0.00  0.00    -0.000 A 
ENDBRANCH   1   2
BRANCH   1  10
ATOM     10  O   UNL     1       0.638   6.318  -9.258  0.00  0.00    -0.345 OA
BRANCH  10  11
ATOM     11  C   UNL     1      -0.302   5.421  -8.821  0.00  0.00    +0.169 C 
BRANCH  11  16
ATOM     12 CL   UNL     1      -1.737   8.129  -4.609  0.00  0.00    -0.082 Cl
ATOM     13  C   UNL     1      -1.214   7.135  -5.224  0.00  0.00    +0.058 A 
ATOM     14  C   UNL     1      -2.056   6.175  -5.775  0.00  0.00    +0.011 A 
ATOM     15  C   UNL     1      -1.618   5.238  -6.704  0.00  0.00    -0.001 A 
ATOM     16  C   UNL     1      -0.416   5.497  -7.354  0.00  0.00    +0.007 A 
ATOM     17  C   UNL     1       0.550   6.067  -6.527  0.00  0.00    -0.001 A 
ATOM     18  C   UNL     1       0.124   6.973  -5.563  0.00  0.00    +0.011 A 
ENDBRANCH  11  16
ENDBRANCH  10  11
ENDBRANCH   1  10
BRANCH   1  19
ATOM     19  C   UNL     1       1.594   6.533 -11.314  0.00  0.00    +0.142 C 
BRANCH  19  20
ATOM     20  N   UNL     1       1.134   5.838 -12.481  0.00  0.00    -0.305 N 
ATOM     21  C   UNL     1       1.094   6.413 -13.703  0.00  0.00    +0.179 A 
ATOM     22  N   UNL     1       1.049   5.463 -14.656  0.00  0.00    -0.222 NA
ATOM     23  C   UNL     1       0.734   4.323 -14.007  0.00  0.00    +0.119 A 
ATOM     24  C   UNL     1       0.624   4.614 -12.653  0.00  0.00    +0.098 A 
ENDBRANCH  19  20
ENDBRANCH   1  19
TORSDOF 6
ENDMDL
MODEL 2
REMARK VINA RESULT:      -7.9      3.909      5.545
REMARK  Name = 
REMARK  6 active torsions:
REMARK  status: ('A' for Active; 'I' for Inactive)
REMARK    1  A    between atoms: C_5  and  C_6
REMARK    2  A    between atoms: C_6  and  O_7
REMARK    3  A    between atoms: O_7  and  C_8
REMARK    4  A    between atoms: C_8  and  C_9
REMARK    5  A    between atoms: C_8  and  C_15
REMARK    6  A    between atoms: C_9  and  N_10
REMARK                            x       y       z     vdW  Elec       q    Type
REMARK                         _______ _______ _______ _____ _____    ______ ____
ROOT
ATOM      1  C   UNL     1       1.677   5.744  -5.367  0.00  0.00    +0.161 C 
ENDROOT
BRANCH   1   2
ATOM      2  C   UNL     1       2.186   6.390  -3.972  0.00  0.00    +0.017 A 
ATOM      3  C   UNL     1       2.017   5.750  -2.823  0.00  0.00    +0.057 A 
ATOM      4 CL   UNL     1       0.406   5.063  -2.636  0.00  0.00    -0.082 Cl
ATOM      5  C   UNL     1       2.852   5.992  -1.744  0.00  0.00    +0.023 A 
ATOM      6  C   UNL     1       4.028   6.685  -2.008  0.00  0.00    +0.058 A 
ATOM      7 CL   UNL     1       4.955   7.106  -0.568  0.00  0.00    -0.082 Cl
ATOM      8  C   UNL     1       4.216   7.357  -3.206  0.00  0.00    +0.011 A 
ATOM      9  C   UNL     1       3.265   7.225  -4.207  0.00  0.00    -0.000 A 
ENDBRANCH   1   2
BRANCH   1  10
ATOM     10  O   UNL     1       0.707   6.870  -5.717  0.00  0.00    -0.345 OA
BRANCH  10  11
ATOM     11  C   UNL     1      -0.357   6.070  -6.049  0.00  0.00    +0.169 C 
BRANCH  11  16
ATOM     12 CL   UNL     1      -2.764   6.864  -1.499  0.00  0.00    -0.082 Cl
ATOM     13  C   UNL     1      -2.685   6.829  -2.777  0.00  0.00    +0.058 A 
ATOM     14  C   UNL     1      -2.039   7.871  -3.433  0.00  0.00    +0.011 A 
ATOM     15  C   UNL     1      -1.636   7.787  -4.761  0.00  0.00    -0.001 A 
ATOM     16  C   UNL     1      -1.558   6.517  -5.325  0.00  0.00    +0.007 A 
ATOM     17  C   UNL     1      -2.585   5.666  -4.919  0.00  0.00    -0.001 A 
ATOM     18  C   UNL     1      -3.030   5.768  -3.606  0.00  0.00    +0.011 A 
ENDBRANCH  11  16
ENDBRANCH  10  11
ENDBRANCH   1  10
BRANCH   1  19
ATOM     19  C   UNL     1       2.888   6.468  -6.232  0.00  0.00    +0.142 C 
BRANCH  19  20
ATOM     20  N   UNL     1       3.188   5.430  -7.176  0.00  0.00    -0.305 N 
ATOM     21  C   UNL     1       2.489   4.276  -7.236  0.00  0.00    +0.179 A 
ATOM     22  N   UNL     1       2.671   3.691  -8.435  0.00  0.00    -0.222 NA
ATOM     23  C   UNL     1       3.733   4.320  -8.979  0.00  0.00    +0.119 A 
ATOM     24  C   UNL     1       4.152   5.304  -8.093  0.00  0.00    +0.098 A 
ENDBRANCH  19  20
ENDBRANCH   1  19
TORSDOF 6
ENDMDL
MODEL 3
REMARK VINA RESULT:      -7.8      1.675      6.256
REMARK  Name = 
REMARK  6 active torsions:
REMARK  status: ('A' for Active; 'I' for Inactive)
REMARK    1  A    between atoms: C_5  and  C_6
REMARK    2  A    between atoms: C_6  and  O_7
REMARK    3  A    between atoms: O_7  and  C_8
REMARK    4  A    between atoms: C_8  and  C_9
REMARK    5  A    between atoms: C_8  and  C_15
REMARK    6  A    between atoms: C_9  and  N_10
REMARK                            x       y       z     vdW  Elec       q    Type
REMARK                         _______ _______ _______ _____ _____    ______ ____
ROOT
ATOM      1  C   UNL     1       1.687   6.453  -9.436  0.00  0.00    +0.161 C 
ENDROOT
BRANCH   1   2
ATOM      2  C   UNL     1       1.120   6.006  -7.987  0.00  0.00    +0.017 A 
ATOM      3  C   UNL     1       1.378   6.726  -6.903  0.00  0.00    +0.057 A 
ATOM      4 CL   UNL     1       3.062   7.229  -6.782  0.00  0.00    -0.082 Cl
ATOM      5  C   UNL     1       0.533   6.688  -5.805  0.00  0.00    +0.023 A 
ATOM      6  C   UNL     1      -0.720   6.120  -6.003  0.00  0.00    +0.058 A 
ATOM      7 CL   UNL     1      -1.674   5.951  -4.529  0.00  0.00    -0.082 Cl
ATOM      8  C   UNL     1      -1.002   5.366  -7.132  0.00  0.00    +0.011 A 
ATOM      9  C   UNL     1      -0.053   5.288  -8.141  0.00  0.00    -0.000 A 
ENDBRANCH   1   2
BRANCH   1  10
ATOM     10  O   UNL     1       2.933   5.572  -9.396  0.00  0.00    -0.345 OA
BRANCH  10  11
ATOM     11  C   UNL     1       3.531   6.086 -10.518  0.00  0.00    +0.169 C 
BRANCH  11  16
ATOM     12 CL   UNL     1       8.618   6.022 -11.635  0.00  0.00    -0.082 Cl
ATOM     13  C   UNL     1       7.590   6.332 -10.938  0.00  0.00    +0.058 A 
ATOM     14  C   UNL     1       6.776   7.371 -11.376  0.00  0.00    +0.011 A 
ATOM     15  C   UNL     1       5.498   7.586 -10.875  0.00  0.00    -0.001 A 
ATOM     16  C   UNL     1       4.895   6.535 -10.191  0.00  0.00    +0.007 A 
ATOM     17  C   UNL     1       5.779   5.819  -9.386  0.00  0.00    -0.001 A 
ATOM     18  C   UNL     1       7.075   5.632  -9.853  0.00  0.00    +0.011 A 
ENDBRANCH  11  16
ENDBRANCH  10  11
ENDBRANCH   1  10
BRANCH   1  19
ATOM     19  C   UNL     1       0.830   5.271 -10.218  0.00  0.00    +0.142 C 
BRANCH  19  20
ATOM     20  N   UNL     1       0.551   5.934 -11.459  0.00  0.00    -0.305 N 
ATOM     21  C   UNL     1      -0.057   7.138 -11.522  0.00  0.00    +0.179 A 
ATOM     22  N   UNL     1       0.186   7.714 -12.715  0.00  0.00    -0.222 NA
ATOM     23  C   UNL     1       0.666   6.724 -13.496  0.00  0.00    +0.119 A 
ATOM     24  C   UNL     1       0.729   5.565 -12.732  0.00  0.00    +0.098 A 
ENDBRANCH  19  20
ENDBRANCH   1  19
TORSDOF 6
ENDMDL
MODEL 4
REMARK VINA RESULT:      -7.6      2.706      6.471
REMARK  Name = 
REMARK  6 active torsions:
REMARK  status: ('A' for Active; 'I' for Inactive)
REMARK    1  A    between atoms: C_5  and  C_6
REMARK    2  A    between atoms: C_6  and  O_7
REMARK    3  A    between atoms: O_7  and  C_8
REMARK    4  A    between atoms: C_8  and  C_9
REMARK    5  A    between atoms: C_8  and  C_15
REMARK    6  A    between atoms: C_9  and  N_10
REMARK                            x       y       z     vdW  Elec       q    Type
REMARK                         _______ _______ _______ _____ _____    ______ ____
ROOT
ATOM      1  C   UNL     1       2.862   6.219  -8.284  0.00  0.00    +0.161 C 
ENDROOT
BRANCH   1   2
ATOM      2  C   UNL     1       3.160   6.303  -6.695  0.00  0.00    +0.017 A 
ATOM      3  C   UNL     1       2.170   6.267  -5.813  0.00  0.00    +0.057 A 
ATOM      4 CL   UNL     1       0.810   7.301  -6.245  0.00  0.00    -0.082 Cl
ATOM      5  C   UNL     1       2.386   5.826  -4.517  0.00  0.00    +0.023 A 
ATOM      6  C   UNL     1       3.579   5.153  -4.279  0.00  0.00    +0.058 A 
ATOM      7 CL   UNL     1       3.864   4.773  -2.580  0.00  0.00    -0.082 Cl
ATOM      8  C   UNL     1       4.621   5.183  -5.193  0.00  0.00    +0.011 A 
ATOM      9  C   UNL     1       4.416   5.790  -6.424  0.00  0.00    -0.000 A 
ENDBRANCH   1   2
BRANCH   1  10
ATOM     10  O   UNL     1       4.097   5.392  -8.633  0.00  0.00    -0.345 OA
BRANCH  10  11
ATOM     11  C   UNL     1       4.275   5.892  -9.897  0.00  0.00    +0.169 C 
BRANCH  11  16
ATOM     12 CL   UNL     1       8.785   5.868 -12.503  0.00  0.00    -0.082 Cl
ATOM     13  C   UNL     1       7.998   6.211 -11.552  0.00  0.00    +0.058 A 
ATOM     14  C   UNL     1       7.035   7.183 -11.802  0.00  0.00    +0.011 A 
ATOM     15  C   UNL     1       5.958   7.407 -10.954  0.00  0.00    -0.001 A 
ATOM     16  C   UNL     1       5.647   6.407 -10.037  0.00  0.00    +0.007 A 
ATOM     17  C   UNL     1       6.770   5.793  -9.486  0.00  0.00    -0.001 A 
ATOM     18  C   UNL     1       7.873   5.600 -10.310  0.00  0.00    +0.011 A 
ENDBRANCH  11  16
ENDBRANCH  10  11
ENDBRANCH   1  10
BRANCH   1  19
ATOM     19  C   UNL     1       1.946   4.850  -8.116  0.00  0.00    +0.142 C 
BRANCH  19  20
ATOM     20  N   UNL     1       1.075   4.980  -9.248  0.00  0.00    -0.305 N 
ATOM     21  C   UNL     1       0.213   6.010  -9.390  0.00  0.00    +0.179 A 
ATOM     22  N   UNL     1      -0.149   6.131 -10.681  0.00  0.00    -0.222 NA
ATOM     23  C   UNL     1       0.235   4.979 -11.268  0.00  0.00    +0.119 A 
ATOM     24  C   UNL     1       0.856   4.192 -10.306  0.00  0.00    +0.098 A 
ENDBRANCH  19  20
ENDBRANCH   1  19
TORSDOF 6
ENDMDL
MODEL 5
REMARK VINA RESULT:      -7.5      3.543      5.094
REMARK  Name = 
REMARK  6 active torsions:
REMARK  status: ('A' for Active; 'I' for Inactive)
REMARK    1  A    between atoms: C_5  and  C_6
REMARK    2  A    between atoms: C_6  and  O_7
REMARK    3  A    between atoms: O_7  and  C_8
REMARK    4  A    between atoms: C_8  and  C_9
REMARK    5  A    between atoms: C_8  and  C_15
REMARK    6  A    between atoms: C_9  and  N_10
REMARK                            x       y       z     vdW  Elec       q    Type
REMARK                         _______ _______ _______ _____ _____    ______ ____
ROOT
ATOM      1  C   UNL     1       3.374   6.247  -7.567  0.00  0.00    +0.161 C 
ENDROOT
BRANCH   1   2
ATOM      2  C   UNL     1       4.290   5.867  -8.847  0.00  0.00    +0.017 A 
ATOM      3  C   UNL     1       4.182   6.539  -9.985  0.00  0.00    +0.057 A 
ATOM      4 CL   UNL     1       2.514   6.818 -10.477  0.00  0.00    -0.082 Cl
ATOM      5  C   UNL     1       5.241   6.604 -10.877  0.00  0.00    +0.023 A 
ATOM      6  C   UNL     1       6.484   6.206 -10.399  0.00  0.00    +0.058 A 
ATOM      7 CL   UNL     1       7.746   6.151 -11.630  0.00  0.00    -0.082 Cl
ATOM      8  C   UNL     1       6.610   5.503  -9.210  0.00  0.00    +0.011 A 
ATOM      9  C   UNL     1       5.484   5.309  -8.422  0.00  0.00    -0.000 A 
ENDBRANCH   1   2
BRANCH   1  10
ATOM     10  O   UNL     1       2.487   5.006  -7.634  0.00  0.00    -0.345 OA
BRANCH  10  11
ATOM     11  C   UNL     1       1.301   5.666  -7.833  0.00  0.00    +0.169 C 
BRANCH  11  16
ATOM     12 CL   UNL     1      -2.279   6.797  -4.223  0.00  0.00    -0.082 Cl
ATOM     13  C   UNL     1      -1.551   6.013  -4.925  0.00  0.00    +0.058 A 
ATOM     14  C   UNL     1      -1.920   5.761  -6.242  0.00  0.00    +0.011 A 
ATOM     15  C   UNL     1      -1.058   5.182  -7.166  0.00  0.00    -0.001 A 
ATOM     16  C   UNL     1       0.300   5.189  -6.864  0.00  0.00    +0.007 A 
ATOM     17  C   UNL     1       0.569   4.958  -5.516  0.00  0.00    -0.001 A 
ATOM     18  C   UNL     1      -0.308   5.493  -4.580  0.00  0.00    +0.011 A 
ENDBRANCH  11  16
ENDBRANCH  10  11
ENDBRANCH   1  10
BRANCH   1  19
ATOM     19  C   UNL     1       4.406   5.498  -6.511  0.00  0.00    +0.142 C 
BRANCH  19  20
ATOM     20  N   UNL     1       3.937   6.033  -5.266  0.00  0.00    -0.305 N 
ATOM     21  C   UNL     1       3.972   5.333  -4.112  0.00  0.00    +0.179 A 
ATOM     22  N   UNL     1       3.893   6.173  -3.063  0.00  0.00    -0.222 NA
ATOM     23  C   UNL     1       3.482   7.349  -3.580  0.00  0.00    +0.119 A 
ATOM     24  C   UNL     1       3.351   7.193  -4.953  0.00  0.00    +0.098 A 
ENDBRANCH  19  20
ENDBRANCH   1  19
TORSDOF 6
ENDMDL
MODEL 6
REMARK VINA RESULT:      -7.5      4.206      8.149
REMARK  Name = 
REMARK  6 active torsions:
REMARK  status: ('A' for Active; 'I' for Inactive)
REMARK    1  A    between atoms: C_5  and  C_6
REMARK    2  A    between atoms: C_6  and  O_7
REMARK    3  A    between atoms: O_7  and  C_8
REMARK    4  A    between atoms: C_8  and  C_9
REMARK    5  A    between atoms: C_8  and  C_15
REMARK    6  A    between atoms: C_9  and  N_10
REMARK                            x       y       z     vdW  Elec       q    Type
REMARK                         _______ _______ _______ _____ _____    ______ ____
ROOT
ATOM      1  C   UNL     1       3.164   5.688  -4.931  0.00  0.00    +0.161 C 
ENDROOT
BRANCH   1   2
ATOM      2  C   UNL     1       1.732   5.814  -5.675  0.00  0.00    +0.017 A 
ATOM      3  C   UNL     1       1.030   4.734  -5.988  0.00  0.00    +0.057 A 
ATOM      4 CL   UNL     1       1.999   3.458  -6.721  0.00  0.00    -0.082 Cl
ATOM      5  C   UNL     1      -0.347   4.796  -6.131  0.00  0.00    +0.023 A 
ATOM      6  C   UNL     1      -0.974   5.937  -5.643  0.00  0.00    +0.058 A 
ATOM      7 CL   UNL     1      -2.697   6.026  -6.011  0.00  0.00    -0.082 Cl
ATOM      8  C   UNL     1      -0.250   7.073  -5.312  0.00  0.00    +0.011 A 
ATOM      9  C   UNL     1       1.136   7.020  -5.347  0.00  0.00    -0.000 A 
ENDBRANCH   1   2
BRANCH   1  10
ATOM     10  O   UNL     1       3.909   6.643  -5.860  0.00  0.00    -0.345 OA
BRANCH  10  11
ATOM     11  C   UNL     1       4.813   5.731  -6.340  0.00  0.00    +0.169 C 
BRANCH  11  16
ATOM     12 CL   UNL     1       5.747   7.625 -11.101  0.00  0.00    -0.082 Cl
ATOM     13  C   UNL     1       5.233   6.808 -10.260  0.00  0.00    +0.058 A 
ATOM     14  C   UNL     1       6.039   5.814  -9.717  0.00  0.00    +0.011 A 
ATOM     15  C   UNL     1       5.674   5.081  -8.594  0.00  0.00    -0.001 A 
ATOM     16  C   UNL     1       4.656   5.597  -7.798  0.00  0.00    +0.007 A 
ATOM     17  C   UNL     1       3.629   6.191  -8.528  0.00  0.00    -0.001 A 
ATOM     18  C   UNL     1       3.972   6.891  -9.679  0.00  0.00    +0.011 A 
ENDBRANCH  11  16
ENDBRANCH  10  11
ENDBRANCH   1  10
BRANCH   1  19
ATOM     19  C   UNL     1       2.813   6.921  -3.883  0.00  0.00    +0.142 C 
BRANCH  19  20
ATOM     20  N   UNL     1       3.287   6.357  -2.652  0.00  0.00    -0.305 N 
ATOM     21  C   UNL     1       3.164   6.990  -1.465  0.00  0.00    +0.179 A 
ATOM     22  N   UNL     1       3.278   6.103  -0.458  0.00  0.00    -0.222 NA
ATOM     23  C   UNL     1       3.794   4.991  -1.021  0.00  0.00    +0.119 A 
ATOM     24  C   UNL     1       3.952   5.229  -2.380  0.00  0.00    +0.098 A 
ENDBRANCH  19  20
ENDBRANCH   1  19
TORSDOF 6
ENDMDL
MODEL 7
REMARK VINA RESULT:      -7.5      2.460      3.622
REMARK  Name = 
REMARK  6 active torsions:
REMARK  status: ('A' for Active; 'I' for Inactive)
REMARK    1  A    between atoms: C_5  and  C_6
REMARK    2  A    between atoms: C_6  and  O_7
REMARK    3  A    between atoms: O_7  and  C_8
REMARK    4  A    between atoms: C_8  and  C_9
REMARK    5  A    between atoms: C_8  and  C_15
REMARK    6  A    between atoms: C_9  and  N_10
REMARK                            x       y       z     vdW  Elec       q    Type
REMARK                         _______ _______ _______ _____ _____    ______ ____
ROOT
ATOM      1  C   UNL     1       0.711   5.420  -7.077  0.00  0.00    +0.161 C 
ENDROOT
BRANCH   1   2
ATOM      2  C   UNL     1       2.071   5.505  -6.202  0.00  0.00    +0.017 A 
ATOM      3  C   UNL     1       3.260   5.438  -6.786  0.00  0.00    +0.057 A 
ATOM      4 CL   UNL     1       3.377   4.160  -7.992  0.00  0.00    -0.082 Cl
ATOM      5  C   UNL     1       4.377   6.004  -6.191  0.00  0.00    +0.023 A 
ATOM      6  C   UNL     1       4.146   6.884  -5.140  0.00  0.00    +0.058 A 
ATOM      7 CL   UNL     1       5.610   7.431  -4.323  0.00  0.00    -0.082 Cl
ATOM      8  C   UNL     1       2.906   6.963  -4.524  0.00  0.00    +0.011 A 
ATOM      9  C   UNL     1       1.846   6.241  -5.052  0.00  0.00    -0.000 A 
ENDBRANCH   1   2
BRANCH   1  10
ATOM     10  O   UNL     1      -0.098   6.375  -6.202  0.00  0.00    -0.345 OA
BRANCH  10  11
ATOM     11  C   UNL     1      -1.275   5.671  -6.239  0.00  0.00    +0.169 C 
BRANCH  11  16
ATOM     12 CL   UNL     1      -1.973   7.329  -1.351  0.00  0.00    -0.082 Cl
ATOM     13  C   UNL     1      -2.355   6.998  -2.527  0.00  0.00    +0.058 A 
ATOM     14  C   UNL     1      -2.169   7.903  -3.567  0.00  0.00    +0.011 A 
ATOM     15  C   UNL     1      -2.264   7.538  -4.905  0.00  0.00    -0.001 A 
ATOM     16  C   UNL     1      -2.190   6.181  -5.204  0.00  0.00    +0.007 A 
ATOM     17  C   UNL     1      -2.847   5.373  -4.278  0.00  0.00    -0.001 A 
ATOM     18  C   UNL     1      -2.798   5.747  -2.941  0.00  0.00    +0.011 A 
ENDBRANCH  11  16
ENDBRANCH  10  11
ENDBRANCH   1  10
BRANCH   1  19
ATOM     19  C   UNL     1       1.180   6.663  -8.065  0.00  0.00    +0.142 C 
BRANCH  19  20
ATOM     20  N   UNL     1       0.905   6.089  -9.350  0.00  0.00    -0.305 N 
ATOM     21  C   UNL     1       1.555   6.469 -10.472  0.00  0.00    +0.179 A 
ATOM     22  N   UNL     1       1.435   5.516 -11.416  0.00  0.00    -0.222 NA
ATOM     23  C   UNL     1       0.445   4.709 -10.984  0.00  0.00    +0.119 A 
ATOM     24  C   UNL     1       0.006   5.186  -9.756  0.00  0.00    +0.098 A 
ENDBRANCH  19  20
ENDBRANCH   1  19
TORSDOF 6
ENDMDL
MODEL 8
REMARK VINA RESULT:      -7.2      3.583      7.677
REMARK  Name = 
REMARK  6 active torsions:
REMARK  status: ('A' for Active; 'I' for Inactive)
REMARK    1  A    between atoms: C_5  and  C_6
REMARK    2  A    between atoms: C_6  and  O_7
REMARK    3  A    between atoms: O_7  and  C_8
REMARK    4  A    between atoms: C_8  and  C_9
REMARK    5  A    between atoms: C_8  and  C_15
REMARK    6  A    between atoms: C_9  and  N_10
REMARK                            x       y       z     vdW  Elec       q    Type
REMARK                         _______ _______ _______ _____ _____    ______ ____
ROOT
ATOM      1  C   UNL     1       3.920   5.387  -8.081  0.00  0.00    +0.161 C 
ENDROOT
BRANCH   1   2
ATOM      2  C   UNL     1       2.563   5.299  -8.960  0.00  0.00    +0.017 A 
ATOM      3  C   UNL     1       1.372   5.354  -8.379  0.00  0.00    +0.057 A 
ATOM      4 CL   UNL     1       1.246   4.343  -6.942  0.00  0.00    -0.082 Cl
ATOM      5  C   UNL     1       0.259   5.792  -9.079  0.00  0.00    +0.023 A 
ATOM      6  C   UNL     1       0.496   6.445 -10.283  0.00  0.00    +0.058 A 
ATOM      7 CL   UNL     1      -0.964   6.822 -11.198  0.00  0.00    -0.082 Cl
ATOM      8  C   UNL     1       1.738   6.395 -10.899  0.00  0.00    +0.011 A 
ATOM      9  C   UNL     1       2.794   5.790 -10.232  0.00  0.00    -0.000 A 
ENDBRANCH   1   2
BRANCH   1  10
ATOM     10  O   UNL     1       4.696   6.247  -9.075  0.00  0.00    -0.345 OA
BRANCH  10  11
ATOM     11  C   UNL     1       5.866   5.532  -9.030  0.00  0.00    +0.169 C 
BRANCH  11  16
ATOM     12 CL   UNL     1       7.373   6.043 -13.990  0.00  0.00    -0.082 Cl
ATOM     13  C   UNL     1       7.483   6.201 -12.724  0.00  0.00    +0.058 A 
ATOM     14  C   UNL     1       6.719   7.185 -12.106  0.00  0.00    +0.011 A 
ATOM     15  C   UNL     1       6.536   7.238 -10.729  0.00  0.00    -0.001 A 
ATOM     16  C   UNL     1       6.823   6.087 -10.001  0.00  0.00    +0.007 A 
ATOM     17  C   UNL     1       7.947   5.405 -10.465  0.00  0.00    -0.001 A 
ATOM     18  C   UNL     1       8.169   5.379 -11.837  0.00  0.00    +0.011 A 
ENDBRANCH  11  16
ENDBRANCH  10  11
ENDBRANCH   1  10
BRANCH   1  19
ATOM     19  C   UNL     1       3.397   6.731  -7.268  0.00  0.00    +0.142 C 
BRANCH  19  20
ATOM     20  N   UNL     1       3.711   6.357  -5.920  0.00  0.00    -0.305 N 
ATOM     21  C   UNL     1       3.135   6.943  -4.848  0.00  0.00    +0.179 A 
ATOM     22  N   UNL     1       3.262   6.149  -3.768  0.00  0.00    -0.222 NA
ATOM     23  C   UNL     1       4.196   5.235  -4.106  0.00  0.00    +0.119 A 
ATOM     24  C   UNL     1       4.592   5.488  -5.413  0.00  0.00    +0.098 A 
ENDBRANCH  19  20
ENDBRANCH   1  19
TORSDOF 6
ENDMDL
MODEL 9
REMARK VINA RESULT:      -7.1      2.536      6.288
REMARK  Name = 
REMARK  6 active torsions:
REMARK  status: ('A' for Active; 'I' for Inactive)
REMARK    1  A    between atoms: C_5  and  C_6
REMARK    2  A    between atoms: C_6  and  O_7
REMARK    3  A    between atoms: O_7  and  C_8
REMARK    4  A    between atoms: C_8  and  C_9
REMARK    5  A    between atoms: C_8  and  C_15
REMARK    6  A    between atoms: C_9  and  N_10
REMARK                            x       y       z     vdW  Elec       q    Type
REMARK                         _______ _______ _______ _____ _____    ______ ____
ROOT
ATOM      1  C   UNL     1       2.631   6.348 -12.230  0.00  0.00    +0.161 C 
ENDROOT
BRANCH   1   2
ATOM      2  C   UNL     1       2.065   5.754 -10.834  0.00  0.00    +0.017 A 
ATOM      3  C   UNL     1       2.269   6.392  -9.690  0.00  0.00    +0.057 A 
ATOM      4 CL   UNL     1       3.923   6.965  -9.494  0.00  0.00    -0.082 Cl
ATOM      5  C   UNL     1       1.410   6.221  -8.616  0.00  0.00    +0.023 A 
ATOM      6  C   UNL     1       0.190   5.611  -8.885  0.00  0.00    +0.058 A 
ATOM      7 CL   UNL     1      -0.778   5.272  -7.449  0.00  0.00    -0.082 Cl
ATOM      8  C   UNL     1      -0.036   4.941 -10.078  0.00  0.00    +0.011 A 
ATOM      9  C   UNL     1       0.932   4.995 -11.071  0.00  0.00    -0.000 A 
ENDBRANCH   1   2
BRANCH   1  10
ATOM     10  O   UNL     1       3.730   5.303 -12.411  0.00  0.00    -0.345 OA
BRANCH  10  11
ATOM     11  C   UNL     1       4.434   5.975 -13.378  0.00  0.00    +0.169 C 
BRANCH  11  16
ATOM     12 CL   UNL     1       7.747   6.265  -9.369  0.00  0.00    -0.082 Cl
ATOM     13  C   UNL     1       7.395   6.400 -10.593  0.00  0.00    +0.058 A 
ATOM     14  C   UNL     1       7.352   5.269 -11.402  0.00  0.00    +0.011 A 
ATOM     15  C   UNL     1       6.707   5.252 -12.633  0.00  0.00    -0.001 A 
ATOM     16  C   UNL     1       5.791   6.268 -12.889  0.00  0.00    +0.007 A 
ATOM     17  C   UNL     1       6.193   7.510 -12.402  0.00  0.00    -0.001 A 
ATOM     18  C   UNL     1       6.878   7.542 -11.193  0.00  0.00    +0.011 A 
ENDBRANCH  11  16
ENDBRANCH  10  11
ENDBRANCH   1  10
BRANCH   1  19
ATOM     19  C   UNL     1       1.573   5.445 -13.130  0.00  0.00    +0.142 C 
BRANCH  19  20
ATOM     20  N   UNL     1       1.029   6.461 -13.984  0.00  0.00    -0.305 N 
ATOM     21  C   UNL     1       0.783   7.718 -13.556  0.00  0.00    +0.179 A 
ATOM     22  N   UNL     1       0.698   8.552 -14.610  0.00  0.00    -0.222 NA
ATOM     23  C   UNL     1       0.569   7.752 -15.688  0.00  0.00    +0.119 A 
ATOM     24  C   UNL     1       0.609   6.434 -15.253  0.00  0.00    +0.098 A 
ENDBRANCH  19  20
ENDBRANCH   1  19
TORSDOF 6
ENDMDL
