MODEL 1
REMARK VINA RESULT:      -8.2      0.000      0.000
REMARK  Name = 
REMARK  23 active torsions:
REMARK  status: ('A' for Active; 'I' for Inactive)
REMARK    1  A    between atoms: C_2  and  C_4
REMARK    2  A    between atoms: C_4  and  N_5
REMARK    3  A    between atoms: N_5  and  C_6
REMARK    4  A    between atoms: N_5  and  C_48
REMARK    5  A    between atoms: C_6  and  C_7
REMARK    6  A    between atoms: C_7  and  N_8
REMARK    7  A    between atoms: N_8  and  C_9
REMARK    8  A    between atoms: N_8  and  C_13
REMARK    9  A    between atoms: C_9  and  C_10
REMARK   10  A    between atoms: C_13  and  C_14
REMARK   11  A    between atoms: C_14  and  C_15
REMARK   12  A    between atoms: C_14  and  N_39
REMARK   13  A    between atoms: C_15  and  O_16
REMARK   14  A    between atoms: O_16  and  P_17
REMARK   15  A    between atoms: P_17  and  O_20
REMARK   16  A    between atoms: O_20  and  C_21
REMARK   17  A    between atoms: C_24  and  C_25
REMARK   18  A    between atoms: C_24  and  C_31
REMARK   19  A    between atoms: N_39  and  C_40
REMARK   20  A    between atoms: N_39  and  C_44
REMARK   21  A    between atoms: C_40  and  C_41
REMARK   22  A    between atoms: C_44  and  C_45
REMARK   23  A    between atoms: C_48  and  C_49
REMARK                            x       y       z     vdW  Elec       q    Type
REMARK                         _______ _______ _______ _____ _____    ______ ____
ROOT
ATOM      1  C   UNL     1       3.398   6.754  -0.029  0.00  0.00    +0.105 C 
ENDROOT
BRANCH   1   2
ATOM      2  N   UNL     1       3.517   8.191   0.587  0.00  0.00    -0.251 NA
BRANCH   2   3
ATOM      3  C   UNL     1       3.606   9.132  -0.458  0.00  0.00    +0.188 C 
BRANCH   3   4
ATOM      4  C   UNL     1       3.166  10.461   0.008  0.00  0.00    +0.381 C 
ATOM      5  O   UNL     1       1.916  10.495   0.637  0.00  0.00    -0.244 OA
ATOM      6  O   UNL     1       3.459  11.429  -0.757  0.00  0.00    -0.244 OA
ENDBRANCH   3   4
ENDBRANCH   2   3
BRANCH   2   7
ATOM      7  C   UNL     1       4.533   8.174   1.569  0.00  0.00    +0.188 C 
BRANCH   7   8
ATOM      8  C   UNL     1       3.955   7.621   2.830  0.00  0.00    +0.381 C 
ATOM      9  O   UNL     1       2.889   8.299   3.381  0.00  0.00    -0.244 OA
ATOM     10  O   UNL     1       4.516   6.748   3.524  0.00  0.00    -0.244 OA
ENDBRANCH   7   8
ENDBRANCH   2   7
ENDBRANCH   1   2
BRANCH   1  11
ATOM     11  C   UNL     1       2.121   7.211  -0.955  0.00  0.00    +0.091 C 
BRANCH  11  12
ATOM     12  N   UNL     1       1.102   6.405  -0.372  0.00  0.00    -0.261 NA
BRANCH  12  13
ATOM     13  C   UNL     1       0.270   5.680  -1.258  0.00  0.00    +0.090 C 
BRANCH  13  14
ATOM     14  C   UNL     1       0.585   5.840  -2.716  0.00  0.00    +0.091 C 
BRANCH  14  15
ATOM     15  N   UNL     1      -0.662   5.896  -3.470  0.00  0.00    -0.252 NA
BRANCH  15  16
ATOM     16  C   UNL     1      -1.641   6.695  -2.737  0.00  0.00    +0.188 C 
BRANCH  16  17
ATOM     17  C   UNL     1      -2.891   5.936  -2.518  0.00  0.00    +0.381 C 
ATOM     18  O   UNL     1      -2.856   4.569  -2.780  0.00  0.00    -0.244 OA
ATOM     19  O   UNL     1      -3.973   6.526  -2.811  0.00  0.00    -0.244 OA
ENDBRANCH  16  17
ENDBRANCH  15  16
BRANCH  15  20
ATOM     20  C   UNL     1      -0.453   6.469  -4.769  0.00  0.00    +0.188 C 
BRANCH  20  22
ATOM     21  O   UNL     1      -0.442   5.195  -6.301  0.00  0.00    -0.244 OA
ATOM     22  C   UNL     1      -0.914   5.571  -5.878  0.00  0.00    +0.381 C 
ATOM     23  O   UNL     1      -2.298   5.409  -6.029  0.00  0.00    -0.244 OA
ENDBRANCH  20  22
ENDBRANCH  15  20
ENDBRANCH  14  15
ENDBRANCH  13  14
ENDBRANCH  12  13
BRANCH  12  24
ATOM     24  C   UNL     1       0.554   6.814   0.860  0.00  0.00    +0.188 C 
BRANCH  24  25
ATOM     25  C   UNL     1      -0.822   7.360   0.633  0.00  0.00    +0.381 C 
ATOM     26  O   UNL     1      -1.011   8.644   0.114  0.00  0.00    -0.244 OA
ATOM     27  O   UNL     1      -1.834   6.667   0.901  0.00  0.00    -0.244 OA
ENDBRANCH  24  25
ENDBRANCH  12  24
ENDBRANCH  11  12
ENDBRANCH   1  11
BRANCH   1  28
ATOM     28  C   UNL     1       4.488   7.047  -1.220  0.00  0.00    +0.166 C 
BRANCH  28  29
ATOM     29  O   UNL     1       4.302   6.066  -2.164  0.00  0.00    -0.313 OA
BRANCH  29  30
ATOM     30  P   UNL     1       4.353   6.565  -3.752  0.00  0.00    +0.214 P 
ATOM     31  O   UNL     1       3.203   7.729  -4.136  0.00  0.00    -0.437 OA
ATOM     32  O   UNL     1       5.717   7.198  -3.987  0.00  0.00    -0.517 OA
BRANCH  30  33
ATOM     33  O   UNL     1       4.097   5.235  -4.741  0.00  0.00    -0.317 OA
BRANCH  33  34
ATOM     34  C   UNL     1       3.347   5.459  -5.849  0.00  0.00    +0.122 C 
ATOM     35  C   UNL     1       2.782   4.306  -6.560  0.00  0.00    +0.031 C 
ATOM     36  C   UNL     1       2.899   4.307  -8.046  0.00  0.00    +0.011 C 
ATOM     37  C   UNL     1       2.854   5.654  -8.689  0.00  0.00    +0.038 C 
ATOM     38  C   UNL     1       2.591   6.784  -7.735  0.00  0.00    +0.011 C 
ATOM     39  C   UNL     1       3.647   6.675  -6.640  0.00  0.00    +0.031 C 
BRANCH  37  40
ATOM     40  C   UNL     1       1.802   5.705  -9.752  0.00  0.00    -0.019 A 
ATOM     41  C   UNL     1       1.249   4.515 -10.181  0.00  0.00    -0.004 A 
ATOM     42  C   UNL     1       0.276   4.568 -11.146  0.00  0.00    -0.000 A 
ATOM     43  C   UNL     1      -0.211   5.790 -11.552  0.00  0.00    -0.000 A 
ATOM     44  C   UNL     1      -0.015   6.868 -10.706  0.00  0.00    -0.000 A 
ATOM     45  C   UNL     1       0.987   6.812  -9.768  0.00  0.00    -0.004 A 
ENDBRANCH  37  40
BRANCH  37  46
ATOM     46  C   UNL     1       4.156   5.930  -9.373  0.00  0.00    -0.019 A 
ATOM     47  C   UNL     1       4.223   6.802 -10.451  0.00  0.00    -0.004 A 
ATOM     48  C   UNL     1       5.450   7.290 -10.857  0.00  0.00    -0.000 A 
ATOM     49  C   UNL     1       6.618   6.709 -10.381  0.00  0.00    -0.000 A 
ATOM     50  C   UNL     1       6.550   5.580  -9.580  0.00  0.00    -0.000 A 
ATOM     51  C   UNL     1       5.335   5.308  -8.982  0.00  0.00    -0.004 A 
ENDBRANCH  37  46
ENDBRANCH  33  34
ENDBRANCH  30  33
ENDBRANCH  29  30
ENDBRANCH  28  29
ENDBRANCH   1  28
TORSDOF 23
ENDMDL
MODEL 2
REMARK VINA RESULT:      -8.2      2.011      5.284
REMARK  Name = 
REMARK  23 active torsions:
REMARK  status: ('A' for Active; 'I' for Inactive)
REMARK    1  A    between atoms: C_2  and  C_4
REMARK    2  A    between atoms: C_4  and  N_5
REMARK    3  A    between atoms: N_5  and  C_6
REMARK    4  A    between atoms: N_5  and  C_48
REMARK    5  A    between atoms: C_6  and  C_7
REMARK    6  A    between atoms: C_7  and  N_8
REMARK    7  A    between atoms: N_8  and  C_9
REMARK    8  A    between atoms: N_8  and  C_13
REMARK    9  A    between atoms: C_9  and  C_10
REMARK   10  A    between atoms: C_13  and  C_14
REMARK   11  A    between atoms: C_14  and  C_15
REMARK   12  A    between atoms: C_14  and  N_39
REMARK   13  A    between atoms: C_15  and  O_16
REMARK   14  A    between atoms: O_16  and  P_17
REMARK   15  A    between atoms: P_17  and  O_20
REMARK   16  A    between atoms: O_20  and  C_21
REMARK   17  A    between atoms: C_24  and  C_25
REMARK   18  A    between atoms: C_24  and  C_31
REMARK   19  A    between atoms: N_39  and  C_40
REMARK   20  A    between atoms: N_39  and  C_44
REMARK   21  A    between atoms: C_40  and  C_41
REMARK   22  A    between atoms: C_44  and  C_45
REMARK   23  A    between atoms: C_48  and  C_49
REMARK                            x       y       z     vdW  Elec       q    Type
REMARK                         _______ _______ _______ _____ _____    ______ ____
ROOT
ATOM      1  C   UNL     1       1.789   5.675  -3.438  0.00  0.00    +0.105 C 
ENDROOT
BRANCH   1   2
ATOM      2  N   UNL     1       3.291   5.967  -3.099  0.00  0.00    -0.251 NA
BRANCH   2   3
ATOM      3  C   UNL     1       3.863   6.710  -4.150  0.00  0.00    +0.188 C 
BRANCH   3   4
ATOM      4  C   UNL     1       4.798   7.719  -3.617  0.00  0.00    +0.381 C 
ATOM      5  O   UNL     1       6.145   7.340  -3.594  0.00  0.00    -0.244 OA
ATOM      6  O   UNL     1       4.366   8.395  -2.634  0.00  0.00    -0.244 OA
ENDBRANCH   3   4
ENDBRANCH   2   3
BRANCH   2   7
ATOM      7  C   UNL     1       3.906   4.754  -2.715  0.00  0.00    +0.188 C 
BRANCH   7   8
ATOM      8  C   UNL     1       3.860   4.656  -1.226  0.00  0.00    +0.381 C 
ATOM      9  O   UNL     1       2.870   3.866  -0.681  0.00  0.00    -0.244 OA
ATOM     10  O   UNL     1       4.491   5.413  -0.462  0.00  0.00    -0.244 OA
ENDBRANCH   7   8
ENDBRANCH   2   7
ENDBRANCH   1   2
BRANCH   1  11
ATOM     11  C   UNL     1       1.295   6.972  -2.559  0.00  0.00    +0.091 C 
BRANCH  11  12
ATOM     12  N   UNL     1       0.267   6.361  -1.787  0.00  0.00    -0.261 NA
BRANCH  12  13
ATOM     13  C   UNL     1       0.387   6.438  -0.379  0.00  0.00    +0.090 C 
BRANCH  13  14
ATOM     14  C   UNL     1       1.561   7.222   0.126  0.00  0.00    +0.091 C 
BRANCH  14  15
ATOM     15  N   UNL     1       1.080   8.316   0.963  0.00  0.00    -0.252 NA
BRANCH  15  16
ATOM     16  C   UNL     1       0.004   7.834   1.825  0.00  0.00    +0.188 C 
BRANCH  16  17
ATOM     17  C   UNL     1      -1.221   8.644   1.653  0.00  0.00    +0.381 C 
ATOM     18  O   UNL     1      -2.387   7.966   1.311  0.00  0.00    -0.244 OA
ATOM     19  O   UNL     1      -1.075   9.789   1.130  0.00  0.00    -0.244 OA
ENDBRANCH  16  17
ENDBRANCH  15  16
BRANCH  15  20
ATOM     20  C   UNL     1       2.138   8.851   1.771  0.00  0.00    +0.188 C 
BRANCH  20  22
ATOM     21  O   UNL     1       2.415  10.605   0.867  0.00  0.00    -0.244 OA
ATOM     22  C   UNL     1       2.356  10.317   1.542  0.00  0.00    +0.381 C 
ATOM     23  O   UNL     1       2.361  11.141   2.676  0.00  0.00    -0.244 OA
ENDBRANCH  20  22
ENDBRANCH  15  20
ENDBRANCH  14  15
ENDBRANCH  13  14
ENDBRANCH  12  13
BRANCH  12  24
ATOM     24  C   UNL     1      -0.397   5.242  -2.331  0.00  0.00    +0.188 C 
BRANCH  24  25
ATOM     25  C   UNL     1      -1.846   5.570  -2.519  0.00  0.00    +0.381 C 
ATOM     26  O   UNL     1      -2.244   6.642  -3.324  0.00  0.00    -0.244 OA
ATOM     27  O   UNL     1      -2.733   4.878  -1.962  0.00  0.00    -0.244 OA
ENDBRANCH  24  25
ENDBRANCH  12  24
ENDBRANCH  11  12
ENDBRANCH   1  11
BRANCH   1  28
ATOM     28  C   UNL     1       1.821   6.521  -4.843  0.00  0.00    +0.166 C 
BRANCH  28  29
ATOM     29  O   UNL     1       0.528   6.546  -5.309  0.00  0.00    -0.313 OA
BRANCH  29  30
ATOM     30  P   UNL     1       0.083   5.277  -6.290  0.00  0.00    +0.214 P 
ATOM     31  O   UNL     1       0.958   3.868  -6.018  0.00  0.00    -0.437 OA
ATOM     32  O   UNL     1      -1.374   4.955  -5.989  0.00  0.00    -0.517 OA
BRANCH  30  33
ATOM     33  O   UNL     1       0.311   5.728  -7.889  0.00  0.00    -0.317 OA
BRANCH  33  34
ATOM     34  C   UNL     1       1.597   5.754  -8.319  0.00  0.00    +0.122 C 
ATOM     35  C   UNL     1       2.297   7.044  -8.362  0.00  0.00    +0.031 C 
ATOM     36  C   UNL     1       3.094   7.337  -9.587  0.00  0.00    +0.011 C 
ATOM     37  C   UNL     1       3.713   6.148 -10.246  0.00  0.00    +0.038 C 
ATOM     38  C   UNL     1       3.516   4.859  -9.501  0.00  0.00    +0.011 C 
ATOM     39  C   UNL     1       2.014   4.713  -9.286  0.00  0.00    +0.031 C 
BRANCH  37  40
ATOM     40  C   UNL     1       5.185   6.344 -10.431  0.00  0.00    -0.019 A 
ATOM     41  C   UNL     1       5.627   7.562 -10.907  0.00  0.00    -0.004 A 
ATOM     42  C   UNL     1       6.977   7.742 -11.062  0.00  0.00    -0.000 A 
ATOM     43  C   UNL     1       7.846   6.771 -10.617  0.00  0.00    -0.000 A 
ATOM     44  C   UNL     1       7.370   5.870  -9.680  0.00  0.00    -0.000 A 
ATOM     45  C   UNL     1       6.015   5.677  -9.562  0.00  0.00    -0.004 A 
ENDBRANCH  37  40
BRANCH  37  46
ATOM     46  C   UNL     1       3.137   5.975 -11.616  0.00  0.00    -0.019 A 
ATOM     47  C   UNL     1       1.878   6.471 -11.928  0.00  0.00    -0.004 A 
ATOM     48  C   UNL     1       1.503   6.589 -13.252  0.00  0.00    -0.000 A 
ATOM     49  C   UNL     1       2.252   5.969 -14.243  0.00  0.00    -0.000 A 
ATOM     50  C   UNL     1       3.315   5.152 -13.894  0.00  0.00    -0.000 A 
ATOM     51  C   UNL     1       3.817   5.289 -12.615  0.00  0.00    -0.004 A 
ENDBRANCH  37  46
ENDBRANCH  33  34
ENDBRANCH  30  33
ENDBRANCH  29  30
ENDBRANCH  28  29
ENDBRANCH   1  28
TORSDOF 23
ENDMDL
MODEL 3
REMARK VINA RESULT:      -8.1      1.540      5.546
REMARK  Name = 
REMARK  23 active torsions:
REMARK  status: ('A' for Active; 'I' for Inactive)
REMARK    1  A    between atoms: C_2  and  C_4
REMARK    2  A    between atoms: C_4  and  N_5
REMARK    3  A    between atoms: N_5  and  C_6
REMARK    4  A    between atoms: N_5  and  C_48
REMARK    5  A    between atoms: C_6  and  C_7
REMARK    6  A    between atoms: C_7  and  N_8
REMARK    7  A    between atoms: N_8  and  C_9
REMARK    8  A    between atoms: N_8  and  C_13
REMARK    9  A    between atoms: C_9  and  C_10
REMARK   10  A    between atoms: C_13  and  C_14
REMARK   11  A    between atoms: C_14  and  C_15
REMARK   12  A    between atoms: C_14  and  N_39
REMARK   13  A    between atoms: C_15  and  O_16
REMARK   14  A    between atoms: O_16  and  P_17
REMARK   15  A    between atoms: P_17  and  O_20
REMARK   16  A    between atoms: O_20  and  C_21
REMARK   17  A    between atoms: C_24  and  C_25
REMARK   18  A    between atoms: C_24  and  C_31
REMARK   19  A    between atoms: N_39  and  C_40
REMARK   20  A    between atoms: N_39  and  C_44
REMARK   21  A    between atoms: C_40  and  C_41
REMARK   22  A    between atoms: C_44  and  C_45
REMARK   23  A    between atoms: C_48  and  C_49
REMARK                            x       y       z     vdW  Elec       q    Type
REMARK                         _______ _______ _______ _____ _____    ______ ____
ROOT
ATOM      1  C   UNL     1       0.593   6.487  -3.388  0.00  0.00    +0.105 C 
ENDROOT
BRANCH   1   2
ATOM      2  N   UNL     1      -0.426   6.390  -4.575  0.00  0.00    -0.251 NA
BRANCH   2   3
ATOM      3  C   UNL     1      -0.075   5.299  -5.395  0.00  0.00    +0.188 C 
BRANCH   3   4
ATOM      4  C   UNL     1      -0.785   5.376  -6.685  0.00  0.00    +0.381 C 
ATOM      5  O   UNL     1      -2.103   4.907  -6.676  0.00  0.00    -0.244 OA
ATOM      6  O   UNL     1      -0.081   5.116  -7.709  0.00  0.00    -0.244 OA
ENDBRANCH   3   4
ENDBRANCH   2   3
BRANCH   2   7
ATOM      7  C   UNL     1      -0.549   7.667  -5.166  0.00  0.00    +0.188 C 
BRANCH   7   8
ATOM      8  C   UNL     1      -1.848   8.262  -4.731  0.00  0.00    +0.381 C 
ATOM      9  O   UNL     1      -2.996   7.711  -5.257  0.00  0.00    -0.244 OA
ATOM     10  O   UNL     1      -1.945   9.350  -4.128  0.00  0.00    -0.244 OA
ENDBRANCH   7   8
ENDBRANCH   2   7
ENDBRANCH   1   2
BRANCH   1  11
ATOM     11  C   UNL     1      -0.101   5.206  -2.631  0.00  0.00    +0.091 C 
BRANCH  11  12
ATOM     12  N   UNL     1      -0.350   5.788  -1.355  0.00  0.00    -0.261 NA
BRANCH  12  13
ATOM     13  C   UNL     1       0.714   5.775  -0.423  0.00  0.00    +0.090 C 
BRANCH  13  14
ATOM     14  C   UNL     1       0.728   6.911   0.555  0.00  0.00    +0.091 C 
BRANCH  14  15
ATOM     15  N   UNL     1       2.111   7.276   0.844  0.00  0.00    -0.252 NA
BRANCH  15  16
ATOM     16  C   UNL     1       2.751   7.765  -0.375  0.00  0.00    +0.188 C 
BRANCH  16  17
ATOM     17  C   UNL     1       3.957   6.972  -0.698  0.00  0.00    +0.381 C 
ATOM     18  O   UNL     1       4.290   5.941   0.175  0.00  0.00    -0.244 OA
ATOM     19  O   UNL     1       4.932   7.603  -1.205  0.00  0.00    -0.244 OA
ENDBRANCH  16  17
ENDBRANCH  15  16
BRANCH  15  20
ATOM     20  C   UNL     1       2.176   8.288   1.859  0.00  0.00    +0.188 C 
BRANCH  20  22
ATOM     21  O   UNL     1       3.385   7.436   3.194  0.00  0.00    -0.244 OA
ATOM     22  C   UNL     1       3.303   8.067   2.824  0.00  0.00    +0.381 C 
ATOM     23  O   UNL     1       4.254   9.091   2.933  0.00  0.00    -0.244 OA
ENDBRANCH  20  22
ENDBRANCH  15  20
ENDBRANCH  14  15
ENDBRANCH  13  14
ENDBRANCH  12  13
BRANCH  12  24
ATOM     24  C   UNL     1      -1.666   5.748  -0.853  0.00  0.00    +0.188 C 
BRANCH  24  25
ATOM     25  C   UNL     1      -2.426   6.936  -1.359  0.00  0.00    +0.381 C 
ATOM     26  O   UNL     1      -1.986   8.237  -1.097  0.00  0.00    -0.244 OA
ATOM     27  O   UNL     1      -3.471   6.782  -2.036  0.00  0.00    -0.244 OA
ENDBRANCH  24  25
ENDBRANCH  12  24
ENDBRANCH  11  12
ENDBRANCH   1  11
BRANCH   1  28
ATOM     28  C   UNL     1       1.723   5.557  -4.130  0.00  0.00    +0.166 C 
BRANCH  28  29
ATOM     29  O   UNL     1       2.794   6.379  -4.384  0.00  0.00    -0.313 OA
BRANCH  29  30
ATOM     30  P   UNL     1       4.289   5.646  -4.390  0.00  0.00    +0.214 P 
ATOM     31  O   UNL     1       5.575   6.723  -4.274  0.00  0.00    -0.437 OA
ATOM     32  O   UNL     1       4.361   4.743  -3.167  0.00  0.00    -0.517 OA
BRANCH  30  33
ATOM     33  O   UNL     1       4.461   4.786  -5.819  0.00  0.00    -0.317 OA
BRANCH  33  34
ATOM     34  C   UNL     1       3.763   5.259  -6.881  0.00  0.00    +0.122 C 
ATOM     35  C   UNL     1       3.165   4.297  -7.815  0.00  0.00    +0.031 C 
ATOM     36  C   UNL     1       3.335   4.576  -9.270  0.00  0.00    +0.011 C 
ATOM     37  C   UNL     1       3.381   6.021  -9.642  0.00  0.00    +0.038 C 
ATOM     38  C   UNL     1       3.142   6.961  -8.495  0.00  0.00    +0.011 C 
ATOM     39  C   UNL     1       4.152   6.585  -7.415  0.00  0.00    +0.031 C 
BRANCH  37  40
ATOM     40  C   UNL     1       2.371   6.334 -10.701  0.00  0.00    -0.019 A 
ATOM     41  C   UNL     1       2.438   5.639 -11.892  0.00  0.00    -0.004 A 
ATOM     42  C   UNL     1       1.503   5.920 -12.854  0.00  0.00    -0.000 A 
ATOM     43  C   UNL     1       0.461   6.771 -12.560  0.00  0.00    -0.000 A 
ATOM     44  C   UNL     1       0.163   6.977 -11.224  0.00  0.00    -0.000 A 
ATOM     45  C   UNL     1       1.124   6.724 -10.275  0.00  0.00    -0.004 A 
ENDBRANCH  37  40
BRANCH  37  46
ATOM     46  C   UNL     1       4.719   6.348 -10.227  0.00  0.00    -0.019 A 
ATOM     47  C   UNL     1       4.941   7.564 -10.859  0.00  0.00    -0.004 A 
ATOM     48  C   UNL     1       6.237   7.979 -11.101  0.00  0.00    -0.000 A 
ATOM     49  C   UNL     1       7.287   7.081 -10.969  0.00  0.00    -0.000 A 
ATOM     50  C   UNL     1       7.025   5.748 -10.693  0.00  0.00    -0.000 A 
ATOM     51  C   UNL     1       5.775   5.447 -10.190  0.00  0.00    -0.004 A 
ENDBRANCH  37  46
ENDBRANCH  33  34
ENDBRANCH  30  33
ENDBRANCH  29  30
ENDBRANCH  28  29
ENDBRANCH   1  28
TORSDOF 23
ENDMDL
MODEL 4
REMARK VINA RESULT:      -8.0      6.846     12.112
REMARK  Name = 
REMARK  23 active torsions:
REMARK  status: ('A' for Active; 'I' for Inactive)
REMARK    1  A    between atoms: C_2  and  C_4
REMARK    2  A    between atoms: C_4  and  N_5
REMARK    3  A    between atoms: N_5  and  C_6
REMARK    4  A    between atoms: N_5  and  C_48
REMARK    5  A    between atoms: C_6  and  C_7
REMARK    6  A    between atoms: C_7  and  N_8
REMARK    7  A    between atoms: N_8  and  C_9
REMARK    8  A    between atoms: N_8  and  C_13
REMARK    9  A    between atoms: C_9  and  C_10
REMARK   10  A    between atoms: C_13  and  C_14
REMARK   11  A    between atoms: C_14  and  C_15
REMARK   12  A    between atoms: C_14  and  N_39
REMARK   13  A    between atoms: C_15  and  O_16
REMARK   14  A    between atoms: O_16  and  P_17
REMARK   15  A    between atoms: P_17  and  O_20
REMARK   16  A    between atoms: O_20  and  C_21
REMARK   17  A    between atoms: C_24  and  C_25
REMARK   18  A    between atoms: C_24  and  C_31
REMARK   19  A    between atoms: N_39  and  C_40
REMARK   20  A    between atoms: N_39  and  C_44
REMARK   21  A    between atoms: C_40  and  C_41
REMARK   22  A    between atoms: C_44  and  C_45
REMARK   23  A    between atoms: C_48  and  C_49
REMARK                            x       y       z     vdW  Elec       q    Type
REMARK                         _______ _______ _______ _____ _____    ______ ____
ROOT
ATOM      1  C   UNL     1       4.999   6.755 -13.908  0.00  0.00    +0.105 C 
ENDROOT
BRANCH   1   2
ATOM      2  N   UNL     1       6.265   6.685 -12.986  0.00  0.00    -0.251 NA
BRANCH   2   3
ATOM      3  C   UNL     1       6.400   7.907 -12.299  0.00  0.00    +0.188 C 
BRANCH   3   4
ATOM      4  C   UNL     1       6.150   7.718 -10.857  0.00  0.00    +0.381 C 
ATOM      5  O   UNL     1       7.127   6.993 -10.167  0.00  0.00    -0.244 OA
ATOM      6  O   UNL     1       4.939   7.514 -10.538  0.00  0.00    -0.244 OA
ENDBRANCH   3   4
ENDBRANCH   2   3
BRANCH   2   7
ATOM      7  C   UNL     1       7.353   6.218 -13.756  0.00  0.00    +0.188 C 
BRANCH   7   8
ATOM      8  C   UNL     1       8.298   5.504 -12.846  0.00  0.00    +0.381 C 
ATOM      9  O   UNL     1       7.819   4.387 -12.197  0.00  0.00    -0.244 OA
ATOM     10  O   UNL     1       9.385   5.982 -12.463  0.00  0.00    -0.244 OA
ENDBRANCH   7   8
ENDBRANCH   2   7
ENDBRANCH   1   2
BRANCH   1  11
ATOM     11  C   UNL     1       5.838   6.138 -15.178  0.00  0.00    +0.091 C 
BRANCH  11  12
ATOM     12  N   UNL     1       5.449   7.060 -16.192  0.00  0.00    -0.261 NA
BRANCH  12  13
ATOM     13  C   UNL     1       4.133   7.574 -16.124  0.00  0.00    +0.090 C 
BRANCH  13  14
ATOM     14  C   UNL     1       3.917   8.884 -16.822  0.00  0.00    +0.091 C 
BRANCH  14  15
ATOM     15  N   UNL     1       2.484   9.134 -16.935  0.00  0.00    -0.252 NA
BRANCH  15  16
ATOM     16  C   UNL     1       2.210  10.543 -16.662  0.00  0.00    +0.188 C 
BRANCH  16  17
ATOM     17  C   UNL     1       1.223  10.692 -15.572  0.00  0.00    +0.381 C 
ATOM     18  O   UNL     1       1.267  11.873 -14.835  0.00  0.00    -0.244 OA
ATOM     19  O   UNL     1       0.935   9.645 -14.919  0.00  0.00    -0.244 OA
ENDBRANCH  16  17
ENDBRANCH  15  16
BRANCH  15  20
ATOM     20  C   UNL     1       2.003   8.797 -18.245  0.00  0.00    +0.188 C 
BRANCH  20  22
ATOM     21  O   UNL     1       1.092   7.057 -18.578  0.00  0.00    -0.244 OA
ATOM     22  C   UNL     1       0.988   7.694 -18.222  0.00  0.00    +0.381 C 
ATOM     23  O   UNL     1      -0.145   7.891 -17.421  0.00  0.00    -0.244 OA
ENDBRANCH  20  22
ENDBRANCH  15  20
ENDBRANCH  14  15
ENDBRANCH  13  14
ENDBRANCH  12  13
BRANCH  12  24
ATOM     24  C   UNL     1       6.044   6.937 -17.464  0.00  0.00    +0.188 C 
BRANCH  24  25
ATOM     25  C   UNL     1       7.407   7.556 -17.436  0.00  0.00    +0.381 C 
ATOM     26  O   UNL     1       8.535   6.834 -17.837  0.00  0.00    -0.244 OA
ATOM     27  O   UNL     1       7.560   8.743 -17.057  0.00  0.00    -0.244 OA
ENDBRANCH  24  25
ENDBRANCH  12  24
ENDBRANCH  11  12
ENDBRANCH   1  11
BRANCH   1  28
ATOM     28  C   UNL     1       4.436   5.285 -13.444  0.00  0.00    +0.166 C 
BRANCH  28  29
ATOM     29  O   UNL     1       3.669   5.500 -12.325  0.00  0.00    -0.313 OA
BRANCH  29  30
ATOM     30  P   UNL     1       2.028   5.624 -12.579  0.00  0.00    +0.214 P 
ATOM     31  O   UNL     1       1.506   7.189 -12.900  0.00  0.00    -0.437 OA
ATOM     32  O   UNL     1       1.691   4.788 -13.806  0.00  0.00    -0.517 OA
BRANCH  30  33
ATOM     33  O   UNL     1       1.229   5.082 -11.208  0.00  0.00    -0.317 OA
BRANCH  33  34
ATOM     34  C   UNL     1       1.815   5.387 -10.023  0.00  0.00    +0.122 C 
ATOM     35  C   UNL     1       2.307   4.291  -9.179  0.00  0.00    +0.031 C 
ATOM     36  C   UNL     1       1.988   4.364  -7.725  0.00  0.00    +0.011 C 
ATOM     37  C   UNL     1       1.909   5.743  -7.158  0.00  0.00    +0.038 C 
ATOM     38  C   UNL     1       2.271   6.831  -8.129  0.00  0.00    +0.011 C 
ATOM     39  C   UNL     1       1.377   6.631  -9.348  0.00  0.00    +0.031 C 
BRANCH  37  40
ATOM     40  C   UNL     1       2.804   5.884  -5.967  0.00  0.00    -0.019 A 
ATOM     41  C   UNL     1       3.158   4.742  -5.277  0.00  0.00    -0.004 A 
ATOM     42  C   UNL     1       3.988   4.874  -4.194  0.00  0.00    -0.000 A 
ATOM     43  C   UNL     1       4.547   6.101  -3.914  0.00  0.00    -0.000 A 
ATOM     44  C   UNL     1       4.591   7.031  -4.939  0.00  0.00    -0.000 A 
ATOM     45  C   UNL     1       3.727   6.903  -5.999  0.00  0.00    -0.004 A 
ENDBRANCH  37  40
BRANCH  37  46
ATOM     46  C   UNL     1       0.519   6.010  -6.673  0.00  0.00    -0.019 A 
ATOM     47  C   UNL     1      -0.567   5.340  -7.220  0.00  0.00    -0.004 A 
ATOM     48  C   UNL     1      -1.779   5.353  -6.556  0.00  0.00    -0.000 A 
ATOM     49  C   UNL     1      -1.987   6.244  -5.512  0.00  0.00    -0.000 A 
ATOM     50  C   UNL     1      -1.017   7.183  -5.202  0.00  0.00    -0.000 A 
ATOM     51  C   UNL     1       0.256   6.952  -5.686  0.00  0.00    -0.004 A 
ENDBRANCH  37  46
ENDBRANCH  33  34
ENDBRANCH  30  33
ENDBRANCH  29  30
ENDBRANCH  28  29
ENDBRANCH   1  28
TORSDOF 23
ENDMDL
MODEL 5
REMARK VINA RESULT:      -8.0      1.088      5.422
REMARK  Name = 
REMARK  23 active torsions:
REMARK  status: ('A' for Active; 'I' for Inactive)
REMARK    1  A    between atoms: C_2  and  C_4
REMARK    2  A    between atoms: C_4  and  N_5
REMARK    3  A    between atoms: N_5  and  C_6
REMARK    4  A    between atoms: N_5  and  C_48
REMARK    5  A    between atoms: C_6  and  C_7
REMARK    6  A    between atoms: C_7  and  N_8
REMARK    7  A    between atoms: N_8  and  C_9
REMARK    8  A    between atoms: N_8  and  C_13
REMARK    9  A    between atoms: C_9  and  C_10
REMARK   10  A    between atoms: C_13  and  C_14
REMARK   11  A    between atoms: C_14  and  C_15
REMARK   12  A    between atoms: C_14  and  N_39
REMARK   13  A    between atoms: C_15  and  O_16
REMARK   14  A    between atoms: O_16  and  P_17
REMARK   15  A    between atoms: P_17  and  O_20
REMARK   16  A    between atoms: O_20  and  C_21
REMARK   17  A    between atoms: C_24  and  C_25
REMARK   18  A    between atoms: C_24  and  C_31
REMARK   19  A    between atoms: N_39  and  C_40
REMARK   20  A    between atoms: N_39  and  C_44
REMARK   21  A    between atoms: C_40  and  C_41
REMARK   22  A    between atoms: C_44  and  C_45
REMARK   23  A    between atoms: C_48  and  C_49
REMARK                            x       y       z     vdW  Elec       q    Type
REMARK                         _______ _______ _______ _____ _____    ______ ____
ROOT
ATOM      1  C   UNL     1       0.613   6.486  -2.795  0.00  0.00    +0.105 C 
ENDROOT
BRANCH   1   2
ATOM      2  N   UNL     1      -0.492   5.597  -3.460  0.00  0.00    -0.251 NA
BRANCH   2   3
ATOM      3  C   UNL     1      -0.008   5.105  -4.688  0.00  0.00    +0.188 C 
BRANCH   3   4
ATOM      4  C   UNL     1      -0.583   5.867  -5.812  0.00  0.00    +0.381 C 
ATOM      5  O   UNL     1      -1.407   5.137  -6.676  0.00  0.00    -0.244 OA
ATOM      6  O   UNL     1       0.185   6.732  -6.332  0.00  0.00    -0.244 OA
ENDBRANCH   3   4
ENDBRANCH   2   3
BRANCH   2   7
ATOM      7  C   UNL     1      -1.709   6.315  -3.453  0.00  0.00    +0.188 C 
BRANCH   7   8
ATOM      8  C   UNL     1      -2.784   5.410  -2.948  0.00  0.00    +0.381 C 
ATOM      9  O   UNL     1      -2.673   4.972  -1.645  0.00  0.00    -0.244 OA
ATOM     10  O   UNL     1      -3.621   4.850  -3.684  0.00  0.00    -0.244 OA
ENDBRANCH   7   8
ENDBRANCH   2   7
ENDBRANCH   1   2
BRANCH   1  11
ATOM     11  C   UNL     1       0.485   5.661  -1.380  0.00  0.00    +0.091 C 
BRANCH  11  12
ATOM     12  N   UNL     1       0.659   6.733  -0.460  0.00  0.00    -0.261 NA
BRANCH  12  13
ATOM     13  C   UNL     1       1.945   7.319  -0.390  0.00  0.00    +0.090 C 
BRANCH  13  14
ATOM     14  C   UNL     1       2.189   8.198   0.801  0.00  0.00    +0.091 C 
BRANCH  14  15
ATOM     15  N   UNL     1       3.502   8.822   0.673  0.00  0.00    -0.252 NA
BRANCH  15  16
ATOM     16  C   UNL     1       4.531   7.786   0.613  0.00  0.00    +0.188 C 
BRANCH  16  17
ATOM     17  C   UNL     1       5.251   7.676   1.899  0.00  0.00    +0.381 C 
ATOM     18  O   UNL     1       4.698   6.841   2.866  0.00  0.00    -0.244 OA
ATOM     19  O   UNL     1       5.805   8.730   2.332  0.00  0.00    -0.244 OA
ENDBRANCH  16  17
ENDBRANCH  15  16
BRANCH  15  20
ATOM     20  C   UNL     1       3.572   9.636  -0.506  0.00  0.00    +0.188 C 
BRANCH  20  22
ATOM     21  O   UNL     1       3.377  11.609  -0.706  0.00  0.00    -0.244 OA
ATOM     22  C   UNL     1       3.547  11.104  -0.198  0.00  0.00    +0.381 C 
ATOM     23  O   UNL     1       3.781  11.476   1.133  0.00  0.00    -0.244 OA
ENDBRANCH  20  22
ENDBRANCH  15  20
ENDBRANCH  14  15
ENDBRANCH  13  14
ENDBRANCH  12  13
BRANCH  12  24
ATOM     24  C   UNL     1      -0.133   6.743   0.705  0.00  0.00    +0.188 C 
BRANCH  24  25
ATOM     25  C   UNL     1      -1.416   7.465   0.426  0.00  0.00    +0.381 C 
ATOM     26  O   UNL     1      -1.515   8.374  -0.633  0.00  0.00    -0.244 OA
ATOM     27  O   UNL     1      -2.430   7.260   1.137  0.00  0.00    -0.244 OA
ENDBRANCH  24  25
ENDBRANCH  12  24
ENDBRANCH  11  12
ENDBRANCH   1  11
BRANCH   1  28
ATOM     28  C   UNL     1       1.852   5.557  -3.335  0.00  0.00    +0.166 C 
BRANCH  28  29
ATOM     29  O   UNL     1       2.778   6.419  -3.871  0.00  0.00    -0.313 OA
BRANCH  29  30
ATOM     30  P   UNL     1       4.315   5.810  -4.063  0.00  0.00    +0.214 P 
ATOM     31  O   UNL     1       5.500   6.992  -4.220  0.00  0.00    -0.437 OA
ATOM     32  O   UNL     1       4.651   5.014  -2.810  0.00  0.00    -0.517 OA
BRANCH  30  33
ATOM     33  O   UNL     1       4.347   4.857  -5.442  0.00  0.00    -0.317 OA
BRANCH  33  34
ATOM     34  C   UNL     1       3.648   5.330  -6.504  0.00  0.00    +0.122 C 
ATOM     35  C   UNL     1       3.008   4.369  -7.410  0.00  0.00    +0.031 C 
ATOM     36  C   UNL     1       3.164   4.612  -8.872  0.00  0.00    +0.011 C 
ATOM     37  C   UNL     1       3.250   6.048  -9.274  0.00  0.00    +0.038 C 
ATOM     38  C   UNL     1       3.057   7.017  -8.144  0.00  0.00    +0.011 C 
ATOM     39  C   UNL     1       4.070   6.632  -7.071  0.00  0.00    +0.031 C 
BRANCH  37  40
ATOM     40  C   UNL     1       2.235   6.371 -10.326  0.00  0.00    -0.019 A 
ATOM     41  C   UNL     1       2.356   5.762 -11.559  0.00  0.00    -0.004 A 
ATOM     42  C   UNL     1       1.416   6.051 -12.515  0.00  0.00    -0.000 A 
ATOM     43  C   UNL     1       0.322   6.817 -12.180  0.00  0.00    -0.000 A 
ATOM     44  C   UNL     1      -0.002   6.914 -10.838  0.00  0.00    -0.000 A 
ATOM     45  C   UNL     1       0.961   6.656  -9.894  0.00  0.00    -0.004 A 
ENDBRANCH  37  40
BRANCH  37  46
ATOM     46  C   UNL     1       4.588   6.321  -9.885  0.00  0.00    -0.019 A 
ATOM     47  C   UNL     1       4.764   7.375 -10.773  0.00  0.00    -0.004 A 
ATOM     48  C   UNL     1       6.042   7.808 -11.070  0.00  0.00    -0.000 A 
ATOM     49  C   UNL     1       7.137   7.034 -10.710  0.00  0.00    -0.000 A 
ATOM     50  C   UNL     1       6.942   5.784 -10.144  0.00  0.00    -0.000 A 
ATOM     51  C   UNL     1       5.693   5.523  -9.617  0.00  0.00    -0.004 A 
ENDBRANCH  37  46
ENDBRANCH  33  34
ENDBRANCH  30  33
ENDBRANCH  29  30
ENDBRANCH  28  29
ENDBRANCH   1  28
TORSDOF 23
ENDMDL
MODEL 6
REMARK VINA RESULT:      -8.0      1.181      5.431
REMARK  Name = 
REMARK  23 active torsions:
REMARK  status: ('A' for Active; 'I' for Inactive)
REMARK    1  A    between atoms: C_2  and  C_4
REMARK    2  A    between atoms: C_4  and  N_5
REMARK    3  A    between atoms: N_5  and  C_6
REMARK    4  A    between atoms: N_5  and  C_48
REMARK    5  A    between atoms: C_6  and  C_7
REMARK    6  A    between atoms: C_7  and  N_8
REMARK    7  A    between atoms: N_8  and  C_9
REMARK    8  A    between atoms: N_8  and  C_13
REMARK    9  A    between atoms: C_9  and  C_10
REMARK   10  A    between atoms: C_13  and  C_14
REMARK   11  A    between atoms: C_14  and  C_15
REMARK   12  A    between atoms: C_14  and  N_39
REMARK   13  A    between atoms: C_15  and  O_16
REMARK   14  A    between atoms: O_16  and  P_17
REMARK   15  A    between atoms: P_17  and  O_20
REMARK   16  A    between atoms: O_20  and  C_21
REMARK   17  A    between atoms: C_24  and  C_25
REMARK   18  A    between atoms: C_24  and  C_31
REMARK   19  A    between atoms: N_39  and  C_40
REMARK   20  A    between atoms: N_39  and  C_44
REMARK   21  A    between atoms: C_40  and  C_41
REMARK   22  A    between atoms: C_44  and  C_45
REMARK   23  A    between atoms: C_48  and  C_49
REMARK                            x       y       z     vdW  Elec       q    Type
REMARK                         _______ _______ _______ _____ _____    ______ ____
ROOT
ATOM      1  C   UNL     1       0.430   6.551  -2.794  0.00  0.00    +0.105 C 
ENDROOT
BRANCH   1   2
ATOM      2  N   UNL     1      -0.684   5.740  -3.541  0.00  0.00    -0.251 NA
BRANCH   2   3
ATOM      3  C   UNL     1      -0.133   5.168  -4.705  0.00  0.00    +0.188 C 
BRANCH   3   4
ATOM      4  C   UNL     1      -0.639   5.858  -5.906  0.00  0.00    +0.381 C 
ATOM      5  O   UNL     1      -1.373   5.062  -6.793  0.00  0.00    -0.244 OA
ATOM      6  O   UNL     1       0.145   6.719  -6.409  0.00  0.00    -0.244 OA
ENDBRANCH   3   4
ENDBRANCH   2   3
BRANCH   2   7
ATOM      7  C   UNL     1      -1.827   6.561  -3.667  0.00  0.00    +0.188 C 
BRANCH   7   8
ATOM      8  C   UNL     1      -2.954   5.910  -2.936  0.00  0.00    +0.381 C 
ATOM      9  O   UNL     1      -3.002   4.532  -2.958  0.00  0.00    -0.244 OA
ATOM     10  O   UNL     1      -3.959   6.523  -2.523  0.00  0.00    -0.244 OA
ENDBRANCH   7   8
ENDBRANCH   2   7
ENDBRANCH   1   2
BRANCH   1  11
ATOM     11  C   UNL     1       0.259   5.627  -1.446  0.00  0.00    +0.091 C 
BRANCH  11  12
ATOM     12  N   UNL     1       0.281   6.646  -0.452  0.00  0.00    -0.261 NA
BRANCH  12  13
ATOM     13  C   UNL     1       1.548   7.154  -0.079  0.00  0.00    +0.090 C 
BRANCH  13  14
ATOM     14  C   UNL     1       1.545   8.104   1.081  0.00  0.00    +0.091 C 
BRANCH  14  15
ATOM     15  N   UNL     1       2.858   8.732   1.187  0.00  0.00    -0.252 NA
BRANCH  15  16
ATOM     16  C   UNL     1       2.697  10.174   1.354  0.00  0.00    +0.188 C 
BRANCH  16  17
ATOM     17  C   UNL     1       3.403  10.916   0.288  0.00  0.00    +0.381 C 
ATOM     18  O   UNL     1       3.563  10.269  -0.935  0.00  0.00    -0.244 OA
ATOM     19  O   UNL     1       4.366  11.654   0.652  0.00  0.00    -0.244 OA
ENDBRANCH  16  17
ENDBRANCH  15  16
BRANCH  15  20
ATOM     20  C   UNL     1       3.596   8.200   2.297  0.00  0.00    +0.188 C 
BRANCH  20  22
ATOM     21  O   UNL     1       5.186   7.000   2.342  0.00  0.00    -0.244 OA
ATOM     22  C   UNL     1       4.787   7.396   1.867  0.00  0.00    +0.381 C 
ATOM     23  O   UNL     1       5.067   7.363   0.493  0.00  0.00    -0.244 OA
ENDBRANCH  20  22
ENDBRANCH  15  20
ENDBRANCH  14  15
ENDBRANCH  13  14
ENDBRANCH  12  13
BRANCH  12  24
ATOM     24  C   UNL     1      -0.742   6.650   0.518  0.00  0.00    +0.188 C 
BRANCH  24  25
ATOM     25  C   UNL     1      -1.607   7.856   0.320  0.00  0.00    +0.381 C 
ATOM     26  O   UNL     1      -2.331   8.405   1.383  0.00  0.00    -0.244 OA
ATOM     27  O   UNL     1      -1.692   8.402  -0.807  0.00  0.00    -0.244 OA
ENDBRANCH  24  25
ENDBRANCH  12  24
ENDBRANCH  11  12
ENDBRANCH   1  11
BRANCH   1  28
ATOM     28  C   UNL     1       1.656   5.634  -3.382  0.00  0.00    +0.166 C 
BRANCH  28  29
ATOM     29  O   UNL     1       2.608   6.511  -3.843  0.00  0.00    -0.313 OA
BRANCH  29  30
ATOM     30  P   UNL     1       4.156   5.910  -3.961  0.00  0.00    +0.214 P 
ATOM     31  O   UNL     1       5.338   7.098  -4.100  0.00  0.00    -0.437 OA
ATOM     32  O   UNL     1       4.449   5.146  -2.677  0.00  0.00    -0.517 OA
BRANCH  30  33
ATOM     33  O   UNL     1       4.249   4.925  -5.315  0.00  0.00    -0.317 OA
BRANCH  33  34
ATOM     34  C   UNL     1       3.569   5.356  -6.407  0.00  0.00    +0.122 C 
ATOM     35  C   UNL     1       2.961   4.358  -7.296  0.00  0.00    +0.031 C 
ATOM     36  C   UNL     1       3.148   4.557  -8.761  0.00  0.00    +0.011 C 
ATOM     37  C   UNL     1       3.225   5.980  -9.206  0.00  0.00    +0.038 C 
ATOM     38  C   UNL     1       2.994   6.983  -8.112  0.00  0.00    +0.011 C 
ATOM     39  C   UNL     1       3.988   6.645  -7.005  0.00  0.00    +0.031 C 
BRANCH  37  40
ATOM     40  C   UNL     1       2.230   6.257 -10.290  0.00  0.00    -0.019 A 
ATOM     41  C   UNL     1       2.253   5.459 -11.416  0.00  0.00    -0.004 A 
ATOM     42  C   UNL     1       1.331   5.708 -12.400  0.00  0.00    -0.000 A 
ATOM     43  C   UNL     1       0.339   6.637 -12.181  0.00  0.00    -0.000 A 
ATOM     44  C   UNL     1       0.058   6.973 -10.868  0.00  0.00    -0.000 A 
ATOM     45  C   UNL     1       1.007   6.750  -9.900  0.00  0.00    -0.004 A 
ENDBRANCH  37  40
BRANCH  37  46
ATOM     46  C   UNL     1       4.573   6.253  -9.795  0.00  0.00    -0.019 A 
ATOM     47  C   UNL     1       4.756   7.282 -10.709  0.00  0.00    -0.004 A 
ATOM     48  C   UNL     1       6.036   7.722 -10.990  0.00  0.00    -0.000 A 
ATOM     49  C   UNL     1       7.131   6.972 -10.584  0.00  0.00    -0.000 A 
ATOM     50  C   UNL     1       6.938   5.736  -9.988  0.00  0.00    -0.000 A 
ATOM     51  C   UNL     1       5.680   5.475  -9.481  0.00  0.00    -0.004 A 
ENDBRANCH  37  46
ENDBRANCH  33  34
ENDBRANCH  30  33
ENDBRANCH  29  30
ENDBRANCH  28  29
ENDBRANCH   1  28
TORSDOF 23
ENDMDL
MODEL 7
REMARK VINA RESULT:      -7.4      6.124     11.563
REMARK  Name = 
REMARK  23 active torsions:
REMARK  status: ('A' for Active; 'I' for Inactive)
REMARK    1  A    between atoms: C_2  and  C_4
REMARK    2  A    between atoms: C_4  and  N_5
REMARK    3  A    between atoms: N_5  and  C_6
REMARK    4  A    between atoms: N_5  and  C_48
REMARK    5  A    between atoms: C_6  and  C_7
REMARK    6  A    between atoms: C_7  and  N_8
REMARK    7  A    between atoms: N_8  and  C_9
REMARK    8  A    between atoms: N_8  and  C_13
REMARK    9  A    between atoms: C_9  and  C_10
REMARK   10  A    between atoms: C_13  and  C_14
REMARK   11  A    between atoms: C_14  and  C_15
REMARK   12  A    between atoms: C_14  and  N_39
REMARK   13  A    between atoms: C_15  and  O_16
REMARK   14  A    between atoms: O_16  and  P_17
REMARK   15  A    between atoms: P_17  and  O_20
REMARK   16  A    between atoms: O_20  and  C_21
REMARK   17  A    between atoms: C_24  and  C_25
REMARK   18  A    between atoms: C_24  and  C_31
REMARK   19  A    between atoms: N_39  and  C_40
REMARK   20  A    between atoms: N_39  and  C_44
REMARK   21  A    between atoms: C_40  and  C_41
REMARK   22  A    between atoms: C_44  and  C_45
REMARK   23  A    between atoms: C_48  and  C_49
REMARK                            x       y       z     vdW  Elec       q    Type
REMARK                         _______ _______ _______ _____ _____    ______ ____
ROOT
ATOM      1  C   UNL     1       4.190   6.430 -12.613  0.00  0.00    +0.105 C 
ENDROOT
BRANCH   1   2
ATOM      2  N   UNL     1       5.414   6.151 -13.549  0.00  0.00    -0.251 NA
BRANCH   2   3
ATOM      3  C   UNL     1       6.565   6.743 -12.991  0.00  0.00    +0.188 C 
BRANCH   3   4
ATOM      4  C   UNL     1       7.594   5.720 -12.727  0.00  0.00    +0.381 C 
ATOM      5  O   UNL     1       8.916   6.176 -12.749  0.00  0.00    -0.244 OA
ATOM      6  O   UNL     1       7.364   4.576 -13.225  0.00  0.00    -0.244 OA
ENDBRANCH   3   4
ENDBRANCH   2   3
BRANCH   2   7
ATOM      7  C   UNL     1       5.053   6.492 -14.872  0.00  0.00    +0.188 C 
BRANCH   7   8
ATOM      8  C   UNL     1       6.257   7.051 -15.557  0.00  0.00    +0.381 C 
ATOM      9  O   UNL     1       6.288   8.415 -15.754  0.00  0.00    -0.244 OA
ATOM     10  O   UNL     1       7.098   6.353 -16.159  0.00  0.00    -0.244 OA
ENDBRANCH   7   8
ENDBRANCH   2   7
ENDBRANCH   1   2
BRANCH   1  11
ATOM     11  C   UNL     1       3.280   5.309 -13.396  0.00  0.00    +0.091 C 
BRANCH  11  12
ATOM     12  N   UNL     1       1.997   5.913 -13.275  0.00  0.00    -0.261 NA
BRANCH  12  13
ATOM     13  C   UNL     1       1.394   6.387 -14.464  0.00  0.00    +0.090 C 
BRANCH  13  14
ATOM     14  C   UNL     1       0.819   7.770 -14.388  0.00  0.00    +0.091 C 
BRANCH  14  15
ATOM     15  N   UNL     1       0.939   8.410 -15.694  0.00  0.00    -0.252 NA
BRANCH  15  16
ATOM     16  C   UNL     1      -0.264   8.146 -16.479  0.00  0.00    +0.188 C 
BRANCH  16  17
ATOM     17  C   UNL     1       0.065   7.447 -17.740  0.00  0.00    +0.381 C 
ATOM     18  O   UNL     1       1.411   7.200 -17.994  0.00  0.00    -0.244 OA
ATOM     19  O   UNL     1      -0.644   7.734 -18.750  0.00  0.00    -0.244 OA
ENDBRANCH  16  17
ENDBRANCH  15  16
BRANCH  15  20
ATOM     20  C   UNL     1       1.122   9.826 -15.559  0.00  0.00    +0.188 C 
BRANCH  20  22
ATOM     21  O   UNL     1       2.870  10.225 -16.429  0.00  0.00    -0.244 OA
ATOM     22  C   UNL     1       2.152  10.369 -16.505  0.00  0.00    +0.381 C 
ATOM     23  O   UNL     1       1.680  11.103 -17.603  0.00  0.00    -0.244 OA
ENDBRANCH  20  22
ENDBRANCH  15  20
ENDBRANCH  14  15
ENDBRANCH  13  14
ENDBRANCH  12  13
BRANCH  12  24
ATOM     24  C   UNL     1       1.685   6.574 -12.070  0.00  0.00    +0.188 C 
BRANCH  24  25
ATOM     25  C   UNL     1       0.586   5.835 -11.370  0.00  0.00    +0.381 C 
ATOM     26  O   UNL     1       0.769   4.521 -10.927  0.00  0.00    -0.244 OA
ATOM     27  O   UNL     1      -0.521   6.388 -11.161  0.00  0.00    -0.244 OA
ENDBRANCH  24  25
ENDBRANCH  12  24
ENDBRANCH  11  12
ENDBRANCH   1  11
BRANCH   1  28
ATOM     28  C   UNL     1       4.679   5.368 -11.462  0.00  0.00    +0.166 C 
BRANCH  28  29
ATOM     29  O   UNL     1       4.702   6.065 -10.278  0.00  0.00    -0.313 OA
BRANCH  29  30
ATOM     30  P   UNL     1       4.149   5.244  -8.939  0.00  0.00    +0.214 P 
ATOM     31  O   UNL     1       3.930   3.597  -9.194  0.00  0.00    -0.437 OA
ATOM     32  O   UNL     1       5.203   5.385  -7.849  0.00  0.00    -0.517 OA
BRANCH  30  33
ATOM     33  O   UNL     1       2.676   5.898  -8.477  0.00  0.00    -0.317 OA
BRANCH  33  34
ATOM     34  C   UNL     1       2.492   6.059  -7.143  0.00  0.00    +0.122 C 
ATOM     35  C   UNL     1       2.506   4.870  -6.283  0.00  0.00    +0.031 C 
ATOM     36  C   UNL     1       1.436   4.772  -5.250  0.00  0.00    +0.011 C 
ATOM     37  C   UNL     1       0.973   6.075  -4.686  0.00  0.00    +0.038 C 
ATOM     38  C   UNL     1       1.740   7.268  -5.179  0.00  0.00    +0.011 C 
ATOM     39  C   UNL     1       1.680   7.217  -6.702  0.00  0.00    +0.031 C 
BRANCH  37  40
ATOM     40  C   UNL     1       1.054   6.071  -3.192  0.00  0.00    -0.019 A 
ATOM     41  C   UNL     1       0.370   5.090  -2.503  0.00  0.00    -0.004 A 
ATOM     42  C   UNL     1       0.457   5.083  -1.135  0.00  0.00    -0.000 A 
ATOM     43  C   UNL     1       1.320   5.952  -0.506  0.00  0.00    -0.000 A 
ATOM     44  C   UNL     1       2.345   6.493  -1.263  0.00  0.00    -0.000 A 
ATOM     45  C   UNL     1       2.225   6.524  -2.631  0.00  0.00    -0.004 A 
ENDBRANCH  37  40
BRANCH  37  46
ATOM     46  C   UNL     1      -0.468   6.288  -5.027  0.00  0.00    -0.019 A 
ATOM     47  C   UNL     1      -1.184   7.340  -4.471  0.00  0.00    -0.004 A 
ATOM     48  C   UNL     1      -2.391   7.713  -5.031  0.00  0.00    -0.000 A 
ATOM     49  C   UNL     1      -3.013   6.882  -5.953  0.00  0.00    -0.000 A 
ATOM     50  C   UNL     1      -2.473   5.638  -6.235  0.00  0.00    -0.000 A 
ATOM     51  C   UNL     1      -1.153   5.433  -5.882  0.00  0.00    -0.004 A 
ENDBRANCH  37  46
ENDBRANCH  33  34
ENDBRANCH  30  33
ENDBRANCH  29  30
ENDBRANCH  28  29
ENDBRANCH   1  28
TORSDOF 23
ENDMDL
MODEL 8
REMARK VINA RESULT:      -7.4      6.221     11.649
REMARK  Name = 
REMARK  23 active torsions:
REMARK  status: ('A' for Active; 'I' for Inactive)
REMARK    1  A    between atoms: C_2  and  C_4
REMARK    2  A    between atoms: C_4  and  N_5
REMARK    3  A    between atoms: N_5  and  C_6
REMARK    4  A    between atoms: N_5  and  C_48
REMARK    5  A    between atoms: C_6  and  C_7
REMARK    6  A    between atoms: C_7  and  N_8
REMARK    7  A    between atoms: N_8  and  C_9
REMARK    8  A    between atoms: N_8  and  C_13
REMARK    9  A    between atoms: C_9  and  C_10
REMARK   10  A    between atoms: C_13  and  C_14
REMARK   11  A    between atoms: C_14  and  C_15
REMARK   12  A    between atoms: C_14  and  N_39
REMARK   13  A    between atoms: C_15  and  O_16
REMARK   14  A    between atoms: O_16  and  P_17
REMARK   15  A    between atoms: P_17  and  O_20
REMARK   16  A    between atoms: O_20  and  C_21
REMARK   17  A    between atoms: C_24  and  C_25
REMARK   18  A    between atoms: C_24  and  C_31
REMARK   19  A    between atoms: N_39  and  C_40
REMARK   20  A    between atoms: N_39  and  C_44
REMARK   21  A    between atoms: C_40  and  C_41
REMARK   22  A    between atoms: C_44  and  C_45
REMARK   23  A    between atoms: C_48  and  C_49
REMARK                            x       y       z     vdW  Elec       q    Type
REMARK                         _______ _______ _______ _____ _____    ______ ____
ROOT
ATOM      1  C   UNL     1       3.815   6.303 -12.364  0.00  0.00    +0.105 C 
ENDROOT
BRANCH   1   2
ATOM      2  N   UNL     1       5.383   6.321 -12.368  0.00  0.00    -0.251 NA
BRANCH   2   3
ATOM      3  C   UNL     1       5.854   5.182 -13.051  0.00  0.00    +0.188 C 
BRANCH   3   4
ATOM      4  C   UNL     1       7.164   5.458 -13.670  0.00  0.00    +0.381 C 
ATOM      5  O   UNL     1       8.279   5.092 -12.909  0.00  0.00    -0.244 OA
ATOM      6  O   UNL     1       7.237   6.540 -14.327  0.00  0.00    -0.244 OA
ENDBRANCH   3   4
ENDBRANCH   2   3
BRANCH   2   7
ATOM      7  C   UNL     1       5.831   6.552 -11.048  0.00  0.00    +0.188 C 
BRANCH   7   8
ATOM      8  C   UNL     1       6.764   7.717 -11.067  0.00  0.00    +0.381 C 
ATOM      9  O   UNL     1       7.828   7.682 -10.192  0.00  0.00    -0.244 OA
ATOM     10  O   UNL     1       6.511   8.798 -11.638  0.00  0.00    -0.244 OA
ENDBRANCH   7   8
ENDBRANCH   2   7
ENDBRANCH   1   2
BRANCH   1  11
ATOM     11  C   UNL     1       3.783   5.180 -13.563  0.00  0.00    +0.091 C 
BRANCH  11  12
ATOM     12  N   UNL     1       2.958   5.857 -14.504  0.00  0.00    -0.261 NA
BRANCH  12  13
ATOM     13  C   UNL     1       3.603   6.716 -15.425  0.00  0.00    +0.090 C 
BRANCH  13  14
ATOM     14  C   UNL     1       2.767   7.848 -15.945  0.00  0.00    +0.091 C 
BRANCH  14  15
ATOM     15  N   UNL     1       3.322   8.308 -17.213  0.00  0.00    -0.252 NA
BRANCH  15  16
ATOM     16  C   UNL     1       2.329   8.139 -18.271  0.00  0.00    +0.188 C 
BRANCH  16  17
ATOM     17  C   UNL     1       0.959   8.110 -17.716  0.00  0.00    +0.381 C 
ATOM     18  O   UNL     1       0.231   6.936 -17.886  0.00  0.00    -0.244 OA
ATOM     19  O   UNL     1       0.295   9.187 -17.788  0.00  0.00    -0.244 OA
ENDBRANCH  16  17
ENDBRANCH  15  16
BRANCH  15  20
ATOM     20  C   UNL     1       3.710   9.687 -17.136  0.00  0.00    +0.188 C 
BRANCH  20  22
ATOM     21  O   UNL     1       5.459  10.397 -17.775  0.00  0.00    -0.244 OA
ATOM     22  C   UNL     1       5.186   9.884 -17.323  0.00  0.00    +0.381 C 
ATOM     23  O   UNL     1       6.035   9.098 -16.532  0.00  0.00    -0.244 OA
ENDBRANCH  20  22
ENDBRANCH  15  20
ENDBRANCH  14  15
ENDBRANCH  13  14
ENDBRANCH  12  13
BRANCH  12  24
ATOM     24  C   UNL     1       1.637   6.170 -14.125  0.00  0.00    +0.188 C 
BRANCH  24  25
ATOM     25  C   UNL     1       0.846   4.905 -13.993  0.00  0.00    +0.381 C 
ATOM     26  O   UNL     1       0.252   4.550 -12.778  0.00  0.00    -0.244 OA
ATOM     27  O   UNL     1       0.696   4.142 -14.979  0.00  0.00    -0.244 OA
ENDBRANCH  24  25
ENDBRANCH  12  24
ENDBRANCH  11  12
ENDBRANCH   1  11
BRANCH   1  28
ATOM     28  C   UNL     1       3.715   5.176 -11.176  0.00  0.00    +0.166 C 
BRANCH  28  29
ATOM     29  O   UNL     1       2.382   5.059 -10.866  0.00  0.00    -0.313 OA
BRANCH  29  30
ATOM     30  P   UNL     1       1.896   5.784  -9.449  0.00  0.00    +0.214 P 
ATOM     31  O   UNL     1       1.235   7.315  -9.661  0.00  0.00    -0.437 OA
ATOM     32  O   UNL     1       0.806   4.914  -8.840  0.00  0.00    -0.517 OA
BRANCH  30  33
ATOM     33  O   UNL     1       3.225   5.929  -8.437  0.00  0.00    -0.317 OA
BRANCH  33  34
ATOM     34  C   UNL     1       2.950   6.071  -7.116  0.00  0.00    +0.122 C 
ATOM     35  C   UNL     1       2.842   4.864  -6.287  0.00  0.00    +0.031 C 
ATOM     36  C   UNL     1       1.694   4.798  -5.339  0.00  0.00    +0.011 C 
ATOM     37  C   UNL     1       1.252   6.110  -4.779  0.00  0.00    +0.038 C 
ATOM     38  C   UNL     1       2.111   7.274  -5.184  0.00  0.00    +0.011 C 
ATOM     39  C   UNL     1       2.163   7.258  -6.708  0.00  0.00    +0.031 C 
BRANCH  37  40
ATOM     40  C   UNL     1       1.220   6.070  -3.283  0.00  0.00    -0.019 A 
ATOM     41  C   UNL     1       0.470   5.086  -2.672  0.00  0.00    -0.004 A 
ATOM     42  C   UNL     1       0.454   5.046  -1.302  0.00  0.00    -0.000 A 
ATOM     43  C   UNL     1       1.281   5.884  -0.589  0.00  0.00    -0.000 A 
ATOM     44  C   UNL     1       2.369   6.423  -1.254  0.00  0.00    -0.000 A 
ATOM     45  C   UNL     1       2.353   6.488  -2.626  0.00  0.00    -0.004 A 
ENDBRANCH  37  40
BRANCH  37  46
ATOM     46  C   UNL     1      -0.147   6.401  -5.221  0.00  0.00    -0.019 A 
ATOM     47  C   UNL     1      -0.792   5.577  -6.133  0.00  0.00    -0.004 A 
ATOM     48  C   UNL     1      -2.163   5.667  -6.281  0.00  0.00    -0.000 A 
ATOM     49  C   UNL     1      -2.849   6.745  -5.738  0.00  0.00    -0.000 A 
ATOM     50  C   UNL     1      -2.147   7.778  -5.137  0.00  0.00    -0.000 A 
ATOM     51  C   UNL     1      -0.842   7.515  -4.766  0.00  0.00    -0.004 A 
ENDBRANCH  37  46
ENDBRANCH  33  34
ENDBRANCH  30  33
ENDBRANCH  29  30
ENDBRANCH  28  29
ENDBRANCH   1  28
TORSDOF 23
ENDMDL
MODEL 9
REMARK VINA RESULT:      -7.4      2.467      9.364
REMARK  Name = 
REMARK  23 active torsions:
REMARK  status: ('A' for Active; 'I' for Inactive)
REMARK    1  A    between atoms: C_2  and  C_4
REMARK    2  A    between atoms: C_4  and  N_5
REMARK    3  A    between atoms: N_5  and  C_6
REMARK    4  A    between atoms: N_5  and  C_48
REMARK    5  A    between atoms: C_6  and  C_7
REMARK    6  A    between atoms: C_7  and  N_8
REMARK    7  A    between atoms: N_8  and  C_9
REMARK    8  A    between atoms: N_8  and  C_13
REMARK    9  A    between atoms: C_9  and  C_10
REMARK   10  A    between atoms: C_13  and  C_14
REMARK   11  A    between atoms: C_14  and  C_15
REMARK   12  A    between atoms: C_14  and  N_39
REMARK   13  A    between atoms: C_15  and  O_16
REMARK   14  A    between atoms: O_16  and  P_17
REMARK   15  A    between atoms: P_17  and  O_20
REMARK   16  A    between atoms: O_20  and  C_21
REMARK   17  A    between atoms: C_24  and  C_25
REMARK   18  A    between atoms: C_24  and  C_31
REMARK   19  A    between atoms: N_39  and  C_40
REMARK   20  A    between atoms: N_39  and  C_44
REMARK   21  A    between atoms: C_40  and  C_41
REMARK   22  A    between atoms: C_44  and  C_45
REMARK   23  A    between atoms: C_48  and  C_49
REMARK                            x       y       z     vdW  Elec       q    Type
REMARK                         _______ _______ _______ _____ _____    ______ ____
ROOT
ATOM      1  C   UNL     1       1.013   5.228  -4.481  0.00  0.00    +0.105 C 
ENDROOT
BRANCH   1   2
ATOM      2  N   UNL     1      -0.511   5.522  -4.260  0.00  0.00    -0.251 NA
BRANCH   2   3
ATOM      3  C   UNL     1      -0.969   6.370  -5.288  0.00  0.00    +0.188 C 
BRANCH   3   4
ATOM      4  C   UNL     1      -1.937   5.662  -6.147  0.00  0.00    +0.381 C 
ATOM      5  O   UNL     1      -1.379   4.835  -7.128  0.00  0.00    -0.244 OA
ATOM      6  O   UNL     1      -2.970   6.327  -6.464  0.00  0.00    -0.244 OA
ENDBRANCH   3   4
ENDBRANCH   2   3
BRANCH   2   7
ATOM      7  C   UNL     1      -0.700   5.922  -2.919  0.00  0.00    +0.188 C 
BRANCH   7   8
ATOM      8  C   UNL     1      -2.161   5.875  -2.617  0.00  0.00    +0.381 C 
ATOM      9  O   UNL     1      -2.769   4.638  -2.655  0.00  0.00    -0.244 OA
ATOM     10  O   UNL     1      -2.893   6.884  -2.571  0.00  0.00    -0.244 OA
ENDBRANCH   7   8
ENDBRANCH   2   7
ENDBRANCH   1   2
BRANCH   1  11
ATOM     11  C   UNL     1       1.234   6.689  -5.199  0.00  0.00    +0.091 C 
BRANCH  11  12
ATOM     12  N   UNL     1       2.108   6.307  -6.256  0.00  0.00    -0.261 NA
BRANCH  12  13
ATOM     13  C   UNL     1       2.125   4.939  -6.615  0.00  0.00    +0.090 C 
BRANCH  13  14
ATOM     14  C   UNL     1       3.067   4.575  -7.724  0.00  0.00    +0.091 C 
BRANCH  14  15
ATOM     15  N   UNL     1       2.622   5.215  -8.957  0.00  0.00    -0.252 NA
BRANCH  15  16
ATOM     16  C   UNL     1       3.675   5.121  -9.965  0.00  0.00    +0.188 C 
BRANCH  16  17
ATOM     17  C   UNL     1       4.733   6.125  -9.725  0.00  0.00    +0.381 C 
ATOM     18  O   UNL     1       4.690   7.287 -10.492  0.00  0.00    -0.244 OA
ATOM     19  O   UNL     1       5.890   5.681  -9.463  0.00  0.00    -0.244 OA
ENDBRANCH  16  17
ENDBRANCH  15  16
BRANCH  15  20
ATOM     20  C   UNL     1       1.426   4.599  -9.456  0.00  0.00    +0.188 C 
BRANCH  20  22
ATOM     21  O   UNL     1       0.245   6.187  -9.690  0.00  0.00    -0.244 OA
ATOM     22  C   UNL     1       0.472   5.589 -10.055  0.00  0.00    +0.381 C 
ATOM     23  O   UNL     1       0.087   5.373 -11.386  0.00  0.00    -0.244 OA
ENDBRANCH  20  22
ENDBRANCH  15  20
ENDBRANCH  14  15
ENDBRANCH  13  14
ENDBRANCH  12  13
BRANCH  12  24
ATOM     24  C   UNL     1       3.291   7.051  -6.441  0.00  0.00    +0.188 C 
BRANCH  24  25
ATOM     25  C   UNL     1       4.149   6.930  -5.219  0.00  0.00    +0.381 C 
ATOM     26  O   UNL     1       4.264   7.988  -4.311  0.00  0.00    -0.244 OA
ATOM     27  O   UNL     1       4.776   5.869  -4.984  0.00  0.00    -0.244 OA
ENDBRANCH  24  25
ENDBRANCH  12  24
ENDBRANCH  11  12
ENDBRANCH   1  11
BRANCH   1  28
ATOM     28  C   UNL     1       1.454   5.782  -3.002  0.00  0.00    +0.166 C 
BRANCH  28  29
ATOM     29  O   UNL     1       2.657   5.187  -2.709  0.00  0.00    -0.313 OA
BRANCH  29  30
ATOM     30  P   UNL     1       3.101   5.193  -1.104  0.00  0.00    +0.214 P 
ATOM     31  O   UNL     1       2.005   5.976  -0.099  0.00  0.00    -0.437 OA
ATOM     32  O   UNL     1       3.165   3.743  -0.643  0.00  0.00    -0.517 OA
BRANCH  30  33
ATOM     33  O   UNL     1       4.582   5.965  -0.959  0.00  0.00    -0.317 OA
BRANCH  33  34
ATOM     34  C   UNL     1       4.536   7.262  -0.563  0.00  0.00    +0.122 C 
ATOM     35  C   UNL     1       5.273   7.656   0.644  0.00  0.00    +0.031 C 
ATOM     36  C   UNL     1       4.560   8.537   1.611  0.00  0.00    +0.011 C 
ATOM     37  C   UNL     1       3.588   9.495   1.005  0.00  0.00    +0.038 C 
ATOM     38  C   UNL     1       3.566   9.484  -0.497  0.00  0.00    +0.011 C 
ATOM     39  C   UNL     1       3.323   8.037  -0.911  0.00  0.00    +0.031 C 
BRANCH  37  40
ATOM     40  C   UNL     1       3.873  10.897   1.443  0.00  0.00    -0.019 A 
ATOM     41  C   UNL     1       4.229  11.110   2.760  0.00  0.00    -0.004 A 
ATOM     42  C   UNL     1       4.502  12.394   3.154  0.00  0.00    -0.000 A 
ATOM     43  C   UNL     1       4.549  13.397   2.212  0.00  0.00    -0.000 A 
ATOM     44  C   UNL     1       4.730  13.024   0.891  0.00  0.00    -0.000 A 
ATOM     45  C   UNL     1       4.417  11.743   0.506  0.00  0.00    -0.004 A 
ENDBRANCH  37  40
BRANCH  37  46
ATOM     46  C   UNL     1       2.205   9.179   1.482  0.00  0.00    -0.019 A 
ATOM     47  C   UNL     1       1.111   9.900   1.021  0.00  0.00    -0.004 A 
ATOM     48  C   UNL     1      -0.163   9.399   1.212  0.00  0.00    -0.000 A 
ATOM     49  C   UNL     1      -0.367   8.342   2.088  0.00  0.00    -0.000 A 
ATOM     50  C   UNL     1       0.689   7.857   2.843  0.00  0.00    -0.000 A 
ATOM     51  C   UNL     1       1.963   8.184   2.420  0.00  0.00    -0.004 A 
ENDBRANCH  37  46
ENDBRANCH  33  34
ENDBRANCH  30  33
ENDBRANCH  29  30
ENDBRANCH  28  29
ENDBRANCH   1  28
TORSDOF 23
ENDMDL
