MODEL 1
REMARK VINA RESULT:      -4.1      0.000      0.000
REMARK  Name = 
REMARK  0 active torsions:
REMARK  status: ('A' for Active; 'I' for Inactive)
REMARK                            x       y       z     vdW  Elec       q    Type
REMARK                         _______ _______ _______ _____ _____    ______ ____
ROOT
ATOM      1  C   UNL     1       5.124   7.417 -10.845  0.00  0.00    +0.154 C 
ATOM      2  N   UNL     1       6.354   7.758 -11.517  0.00  0.00    -0.230 NA
ATOM      3  C   UNL     1       6.523   7.088 -12.781  0.00  0.00    +0.154 C 
ATOM      4  N   UNL     1       6.509   5.659 -12.511  0.00  0.00    -0.230 NA
ATOM      5  C   UNL     1       7.617   5.268 -11.650  0.00  0.00    +0.154 C 
ATOM      6  N   UNL     1       7.518   5.979 -10.382  0.00  0.00    -0.230 NA
ATOM      7  C   UNL     1       6.280   5.650  -9.683  0.00  0.00    +0.154 C 
ATOM      8  C   UNL     1       5.268   5.325 -11.845  0.00  0.00    +0.154 C 
ATOM      9  C   UNL     1       7.464   7.396 -10.672  0.00  0.00    +0.154 C 
ATOM     10  N   UNL     1       5.178   6.000 -10.553  0.00  0.00    -0.230 NA
ENDROOT
TORSDOF 0
ENDMDL
MODEL 2
REMARK VINA RESULT:      -4.1      0.053      2.636
REMARK  Name = 
REMARK  0 active torsions:
REMARK  status: ('A' for Active; 'I' for Inactive)
REMARK                            x       y       z     vdW  Elec       q    Type
REMARK                         _______ _______ _______ _____ _____    ______ ____
ROOT
ATOM      1  C   UNL     1       7.635   5.303 -11.669  0.00  0.00    +0.154 C 
ATOM      2  N   UNL     1       7.500   5.985 -10.405  0.00  0.00    -0.230 NA
ATOM      3  C   UNL     1       6.301   5.634  -9.688  0.00  0.00    +0.154 C 
ATOM      4  N   UNL     1       5.176   5.986 -10.540  0.00  0.00    -0.230 NA
ATOM      5  C   UNL     1       5.133   7.418 -10.803  0.00  0.00    +0.154 C 
ATOM      6  N   UNL     1       6.364   7.825 -11.469  0.00  0.00    -0.230 NA
ATOM      7  C   UNL     1       6.523   7.147 -12.752  0.00  0.00    +0.154 C 
ATOM      8  C   UNL     1       5.315   5.291 -11.802  0.00  0.00    +0.154 C 
ATOM      9  C   UNL     1       7.475   7.407 -10.641  0.00  0.00    +0.154 C 
ATOM     10  N   UNL     1       6.524   5.722 -12.498  0.00  0.00    -0.230 NA
ENDROOT
TORSDOF 0
ENDMDL
MODEL 3
REMARK VINA RESULT:      -4.1      0.090      2.565
REMARK  Name = 
REMARK  0 active torsions:
REMARK  status: ('A' for Active; 'I' for Inactive)
REMARK                            x       y       z     vdW  Elec       q    Type
REMARK                         _______ _______ _______ _____ _____    ______ ____
ROOT
ATOM      1  C   UNL     1       7.719   5.368 -11.582  0.00  0.00    +0.154 C 
ATOM      2  N   UNL     1       6.602   5.681 -12.439  0.00  0.00    -0.230 NA
ATOM      3  C   UNL     1       6.499   7.080 -12.762  0.00  0.00    +0.154 C 
ATOM      4  N   UNL     1       6.348   7.797 -11.506  0.00  0.00    -0.230 NA
ATOM      5  C   UNL     1       5.127   7.410 -10.814  0.00  0.00    +0.154 C 
ATOM      6  N   UNL     1       5.163   5.982 -10.529  0.00  0.00    -0.230 NA
ATOM      7  C   UNL     1       6.287   5.641  -9.662  0.00  0.00    +0.154 C 
ATOM      8  C   UNL     1       7.477   7.485 -10.655  0.00  0.00    +0.154 C 
ATOM      9  C   UNL     1       5.382   5.287 -11.781  0.00  0.00    +0.154 C 
ATOM     10  N   UNL     1       7.500   6.062 -10.330  0.00  0.00    -0.230 NA
ENDROOT
TORSDOF 0
ENDMDL
MODEL 4
REMARK VINA RESULT:      -4.0      0.096      2.245
REMARK  Name = 
REMARK  0 active torsions:
REMARK  status: ('A' for Active; 'I' for Inactive)
REMARK                            x       y       z     vdW  Elec       q    Type
REMARK                         _______ _______ _______ _____ _____    ______ ____
ROOT
ATOM      1  C   UNL     1       7.523   7.439 -10.531  0.00  0.00    +0.154 C 
ATOM      2  N   UNL     1       6.404   7.792 -11.371  0.00  0.00    -0.230 NA
ATOM      3  C   UNL     1       5.127   7.446 -10.803  0.00  0.00    +0.154 C 
ATOM      4  N   UNL     1       5.129   6.006 -10.594  0.00  0.00    -0.230 NA
ATOM      5  C   UNL     1       5.265   5.285 -11.852  0.00  0.00    +0.154 C 
ATOM      6  N   UNL     1       6.519   5.661 -12.492  0.00  0.00    -0.230 NA
ATOM      7  C   UNL     1       7.666   5.314 -11.660  0.00  0.00    +0.154 C 
ATOM      8  C   UNL     1       6.249   5.663  -9.743  0.00  0.00    +0.154 C 
ATOM      9  C   UNL     1       6.530   7.102 -12.631  0.00  0.00    +0.154 C 
ATOM     10  N   UNL     1       7.512   5.998 -10.394  0.00  0.00    -0.230 NA
ENDROOT
TORSDOF 0
ENDMDL
MODEL 5
REMARK VINA RESULT:      -4.0      0.104      2.262
REMARK  Name = 
REMARK  0 active torsions:
REMARK  status: ('A' for Active; 'I' for Inactive)
REMARK                            x       y       z     vdW  Elec       q    Type
REMARK                         _______ _______ _______ _____ _____    ______ ____
ROOT
ATOM      1  C   UNL     1       5.271   5.306 -11.970  0.00  0.00    +0.154 C 
ATOM      2  N   UNL     1       5.142   5.987 -10.706  0.00  0.00    -0.230 NA
ATOM      3  C   UNL     1       5.138   7.423 -10.823  0.00  0.00    +0.154 C 
ATOM      4  N   UNL     1       6.398   7.803 -11.441  0.00  0.00    -0.230 NA
ATOM      5  C   UNL     1       7.534   7.429 -10.610  0.00  0.00    +0.154 C 
ATOM      6  N   UNL     1       7.534   5.986 -10.410  0.00  0.00    -0.230 NA
ATOM      7  C   UNL     1       7.664   5.274 -11.677  0.00  0.00    +0.154 C 
ATOM      8  C   UNL     1       6.516   7.122 -12.713  0.00  0.00    +0.154 C 
ATOM      9  C   UNL     1       6.247   5.616  -9.858  0.00  0.00    +0.154 C 
ATOM     10  N   UNL     1       6.558   5.675 -12.521  0.00  0.00    -0.230 NA
ENDROOT
TORSDOF 0
ENDMDL
MODEL 6
REMARK VINA RESULT:      -4.0      0.049      2.580
REMARK  Name = 
REMARK  0 active torsions:
REMARK  status: ('A' for Active; 'I' for Inactive)
REMARK                            x       y       z     vdW  Elec       q    Type
REMARK                         _______ _______ _______ _____ _____    ______ ____
ROOT
ATOM      1  C   UNL     1       5.179   7.466 -10.833  0.00  0.00    +0.154 C 
ATOM      2  N   UNL     1       5.172   6.050 -10.557  0.00  0.00    -0.230 NA
ATOM      3  C   UNL     1       6.255   5.625  -9.708  0.00  0.00    +0.154 C 
ATOM      4  N   UNL     1       7.492   5.970 -10.389  0.00  0.00    -0.230 NA
ATOM      5  C   UNL     1       7.618   5.263 -11.657  0.00  0.00    +0.154 C 
ATOM      6  N   UNL     1       6.500   5.616 -12.521  0.00  0.00    -0.230 NA
ATOM      7  C   UNL     1       6.486   7.046 -12.815  0.00  0.00    +0.154 C 
ATOM      8  C   UNL     1       7.495   7.393 -10.654  0.00  0.00    +0.154 C 
ATOM      9  C   UNL     1       5.277   5.330 -11.801  0.00  0.00    +0.154 C 
ATOM     10  N   UNL     1       6.402   7.752 -11.554  0.00  0.00    -0.230 NA
ENDROOT
TORSDOF 0
ENDMDL
MODEL 7
REMARK VINA RESULT:      -4.0      0.103      2.230
REMARK  Name = 
REMARK  0 active torsions:
REMARK  status: ('A' for Active; 'I' for Inactive)
REMARK                            x       y       z     vdW  Elec       q    Type
REMARK                         _______ _______ _______ _____ _____    ______ ____
ROOT
ATOM      1  C   UNL     1       6.197   5.638  -9.727  0.00  0.00    +0.154 C 
ATOM      2  N   UNL     1       5.105   6.004 -10.596  0.00  0.00    -0.230 NA
ATOM      3  C   UNL     1       5.124   5.321 -11.863  0.00  0.00    +0.154 C 
ATOM      4  N   UNL     1       6.381   5.660 -12.512  0.00  0.00    -0.230 NA
ATOM      5  C   UNL     1       6.476   7.089 -12.777  0.00  0.00    +0.154 C 
ATOM      6  N   UNL     1       6.392   7.821 -11.520  0.00  0.00    -0.230 NA
ATOM      7  C   UNL     1       7.487   7.466 -10.623  0.00  0.00    +0.154 C 
ATOM      8  C   UNL     1       7.471   5.281 -11.637  0.00  0.00    +0.154 C 
ATOM      9  C   UNL     1       5.169   7.421 -10.856  0.00  0.00    +0.154 C 
ATOM     10  N   UNL     1       7.420   6.039 -10.391  0.00  0.00    -0.230 NA
ENDROOT
TORSDOF 0
ENDMDL
MODEL 8
REMARK VINA RESULT:      -4.0      0.106      2.239
REMARK  Name = 
REMARK  0 active torsions:
REMARK  status: ('A' for Active; 'I' for Inactive)
REMARK                            x       y       z     vdW  Elec       q    Type
REMARK                         _______ _______ _______ _____ _____    ______ ____
ROOT
ATOM      1  C   UNL     1       7.469   7.477 -10.564  0.00  0.00    +0.154 C 
ATOM      2  N   UNL     1       7.486   6.045 -10.394  0.00  0.00    -0.230 NA
ATOM      3  C   UNL     1       7.648   5.321 -11.628  0.00  0.00    +0.154 C 
ATOM      4  N   UNL     1       6.531   5.684 -12.485  0.00  0.00    -0.230 NA
ATOM      5  C   UNL     1       5.258   5.285 -11.901  0.00  0.00    +0.154 C 
ATOM      6  N   UNL     1       5.088   5.947 -10.613  0.00  0.00    -0.230 NA
ATOM      7  C   UNL     1       5.068   7.399 -10.761  0.00  0.00    +0.154 C 
ATOM      8  C   UNL     1       6.527   7.121 -12.658  0.00  0.00    +0.154 C 
ATOM      9  C   UNL     1       6.241   5.630  -9.797  0.00  0.00    +0.154 C 
ATOM     10  N   UNL     1       6.315   7.794 -11.379  0.00  0.00    -0.230 NA
ENDROOT
TORSDOF 0
ENDMDL
MODEL 9
REMARK VINA RESULT:      -4.0      0.167      2.285
REMARK  Name = 
REMARK  0 active torsions:
REMARK  status: ('A' for Active; 'I' for Inactive)
REMARK                            x       y       z     vdW  Elec       q    Type
REMARK                         _______ _______ _______ _____ _____    ______ ____
ROOT
ATOM      1  C   UNL     1       6.061   5.593  -9.795  0.00  0.00    +0.154 C 
ATOM      2  N   UNL     1       7.327   5.932 -10.397  0.00  0.00    -0.230 NA
ATOM      3  C   UNL     1       7.501   7.345 -10.612  0.00  0.00    +0.154 C 
ATOM      4  N   UNL     1       6.426   7.778 -11.491  0.00  0.00    -0.230 NA
ATOM      5  C   UNL     1       6.499   7.120 -12.788  0.00  0.00    +0.154 C 
ATOM      6  N   UNL     1       6.395   5.678 -12.605  0.00  0.00    -0.230 NA
ATOM      7  C   UNL     1       5.120   5.310 -11.997  0.00  0.00    +0.154 C 
ATOM      8  C   UNL     1       5.160   7.442 -10.875  0.00  0.00    +0.154 C 
ATOM      9  C   UNL     1       7.428   5.273 -11.676  0.00  0.00    +0.154 C 
ATOM     10  N   UNL     1       5.027   5.996 -10.725  0.00  0.00    -0.230 NA
ENDROOT
TORSDOF 0
ENDMDL
