MODEL 1
REMARK VINA RESULT:      -6.5      0.000      0.000
REMARK  Name = 
REMARK  8 active torsions:
REMARK  status: ('A' for Active; 'I' for Inactive)
REMARK    1  A    between atoms: C_2  and  N_3
REMARK    2  A    between atoms: N_3  and  C_4
REMARK    3  A    between atoms: N_3  and  C_6
REMARK    4  A    between atoms: C_6  and  C_7
REMARK    5  A    between atoms: C_7  and  C_8
REMARK    6  A    between atoms: C_8  and  C_9
REMARK    7  A    between atoms: C_9  and  N_11
REMARK    8  A    between atoms: N_11  and  C_12
REMARK                            x       y       z     vdW  Elec       q    Type
REMARK                         _______ _______ _______ _____ _____    ______ ____
ROOT
ATOM      1  N   UNL     1       3.200   6.697  -3.551  0.00  0.00    -0.239 NA
ENDROOT
BRANCH   1   2
ATOM      2  C   UNL     1       2.087   5.942  -3.056  0.00  0.00    +0.068 A 
ATOM      3  C   UNL     1       0.841   6.255  -3.587  0.00  0.00    +0.033 A 
ATOM      4  C   UNL     1      -0.258   5.598  -3.051  0.00  0.00    +0.083 A 
ATOM      5  C   UNL     1      -1.374   5.421  -3.860  0.00  0.00    +0.031 A 
ATOM      6  C   UNL     1      -1.397   5.837  -5.173  0.00  0.00    +0.059 A 
ATOM      7  C   UNL     1      -0.422   6.750  -5.546  0.00  0.00    +0.012 A 
ATOM      8 CL   UNL     1      -2.683   5.350  -6.251  0.00  0.00    -0.082 Cl
ATOM      9  N   UNL     1      -0.226   5.084  -1.797  0.00  0.00    -0.244 NA
ATOM     10  C   UNL     1       0.963   4.886  -1.189  0.00  0.00    +0.100 A 
ATOM     11  C   UNL     1       0.692   6.930  -4.775  0.00  0.00    +0.004 A 
ATOM     12  C   UNL     1       2.113   5.331  -1.809  0.00  0.00    +0.037 A 
ENDBRANCH   1   2
BRANCH   1  13
ATOM     13  C   UNL     1       4.592   6.099  -3.039  0.00  0.00    +0.093 C 
ATOM     14  C   UNL     1       5.450   7.313  -3.800  0.00  0.00    +0.023 C 
BRANCH  13  15
ATOM     15  C   UNL     1       4.709   5.111  -4.379  0.00  0.00    +0.023 C 
BRANCH  15  16
ATOM     16  C   UNL     1       4.633   6.183  -5.462  0.00  0.00    +0.019 C 
BRANCH  16  17
ATOM     17  C   UNL     1       4.436   5.539  -6.806  0.00  0.00    +0.072 C 
BRANCH  17  18
ATOM     18  N   UNL     1       3.038   5.677  -7.153  0.00  0.00    -0.273 NA
BRANCH  18  19
ATOM     19  C   UNL     1       2.533   4.361  -7.461  0.00  0.00    +0.072 C 
ATOM     20  C   UNL     1       1.827   3.745  -6.273  0.00  0.00    +0.019 C 
ENDBRANCH  18  19
BRANCH  18  22
ATOM     21  C   UNL     1       2.213   7.819  -8.052  0.00  0.00    +0.019 C 
ATOM     22  C   UNL     1       2.891   6.505  -8.335  0.00  0.00    +0.072 C 
ENDBRANCH  18  22
ENDBRANCH  17  18
ENDBRANCH  16  17
ENDBRANCH  15  16
ENDBRANCH  13  15
ENDBRANCH   1  13
TORSDOF 8
ENDMDL
MODEL 2
REMARK VINA RESULT:      -6.4      3.868      7.341
REMARK  Name = 
REMARK  8 active torsions:
REMARK  status: ('A' for Active; 'I' for Inactive)
REMARK    1  A    between atoms: C_2  and  N_3
REMARK    2  A    between atoms: N_3  and  C_4
REMARK    3  A    between atoms: N_3  and  C_6
REMARK    4  A    between atoms: C_6  and  C_7
REMARK    5  A    between atoms: C_7  and  C_8
REMARK    6  A    between atoms: C_8  and  C_9
REMARK    7  A    between atoms: C_9  and  N_11
REMARK    8  A    between atoms: N_11  and  C_12
REMARK                            x       y       z     vdW  Elec       q    Type
REMARK                         _______ _______ _______ _____ _____    ______ ____
ROOT
ATOM      1  N   UNL     1       3.899   4.636  -7.809  0.00  0.00    -0.239 NA
ENDROOT
BRANCH   1   2
ATOM      2  C   UNL     1       3.891   5.036  -9.185  0.00  0.00    +0.068 A 
ATOM      3  C   UNL     1       5.034   5.673  -9.652  0.00  0.00    +0.033 A 
ATOM      4  C   UNL     1       5.006   6.149 -10.955  0.00  0.00    +0.083 A 
ATOM      5  C   UNL     1       6.211   6.255 -11.640  0.00  0.00    +0.031 A 
ATOM      6  C   UNL     1       7.407   5.864 -11.079  0.00  0.00    +0.059 A 
ATOM      7  C   UNL     1       7.417   5.706  -9.702  0.00  0.00    +0.012 A 
ATOM      8 CL   UNL     1       8.856   5.728 -12.046  0.00  0.00    -0.082 Cl
ATOM      9  N   UNL     1       3.835   6.442 -11.571  0.00  0.00    -0.244 NA
ATOM     10  C   UNL     1       2.680   5.950 -11.072  0.00  0.00    +0.100 A 
ATOM     11  C   UNL     1       6.245   5.584  -9.008  0.00  0.00    +0.004 A 
ATOM     12  C   UNL     1       2.707   5.266  -9.874  0.00  0.00    +0.037 A 
ENDBRANCH   1   2
BRANCH   1  13
ATOM     13  C   UNL     1       3.060   5.647  -6.897  0.00  0.00    +0.093 C 
ATOM     14  C   UNL     1       4.356   5.874  -5.870  0.00  0.00    +0.023 C 
BRANCH  13  15
ATOM     15  C   UNL     1       2.479   4.390  -5.964  0.00  0.00    +0.023 C 
BRANCH  15  16
ATOM     16  C   UNL     1       1.750   5.211  -4.904  0.00  0.00    +0.019 C 
BRANCH  16  17
ATOM     17  C   UNL     1       0.670   6.035  -5.550  0.00  0.00    +0.072 C 
BRANCH  17  18
ATOM     18  N   UNL     1      -0.601   5.532  -5.077  0.00  0.00    -0.273 NA
BRANCH  18  19
ATOM     19  C   UNL     1      -1.500   5.490  -6.204  0.00  0.00    +0.072 C 
ATOM     20  C   UNL     1      -0.746   5.412  -7.513  0.00  0.00    +0.019 C 
ENDBRANCH  18  19
BRANCH  18  22
ATOM     21  C   UNL     1      -1.584   7.756  -4.665  0.00  0.00    +0.019 C 
ATOM     22  C   UNL     1      -1.162   6.431  -4.086  0.00  0.00    +0.072 C 
ENDBRANCH  18  22
ENDBRANCH  17  18
ENDBRANCH  16  17
ENDBRANCH  15  16
ENDBRANCH  13  15
ENDBRANCH   1  13
TORSDOF 8
ENDMDL
MODEL 3
REMARK VINA RESULT:      -6.3      2.696      4.939
REMARK  Name = 
REMARK  8 active torsions:
REMARK  status: ('A' for Active; 'I' for Inactive)
REMARK    1  A    between atoms: C_2  and  N_3
REMARK    2  A    between atoms: N_3  and  C_4
REMARK    3  A    between atoms: N_3  and  C_6
REMARK    4  A    between atoms: C_6  and  C_7
REMARK    5  A    between atoms: C_7  and  C_8
REMARK    6  A    between atoms: C_8  and  C_9
REMARK    7  A    between atoms: C_9  and  N_11
REMARK    8  A    between atoms: N_11  and  C_12
REMARK                            x       y       z     vdW  Elec       q    Type
REMARK                         _______ _______ _______ _____ _____    ______ ____
ROOT
ATOM      1  N   UNL     1       0.565   5.387  -8.622  0.00  0.00    -0.239 NA
ENDROOT
BRANCH   1   2
ATOM      2  C   UNL     1       0.856   5.675  -7.248  0.00  0.00    +0.068 A 
ATOM      3  C   UNL     1      -0.222   6.029  -6.447  0.00  0.00    +0.033 A 
ATOM      4  C   UNL     1       0.056   6.402  -5.140  0.00  0.00    +0.083 A 
ATOM      5  C   UNL     1      -0.930   6.207  -4.179  0.00  0.00    +0.031 A 
ATOM      6  C   UNL     1      -2.140   5.624  -4.483  0.00  0.00    +0.059 A 
ATOM      7  C   UNL     1      -2.477   5.571  -5.827  0.00  0.00    +0.012 A 
ATOM      8 CL   UNL     1      -3.242   5.123  -3.223  0.00  0.00    -0.082 Cl
ATOM      9  N   UNL     1       1.275   6.880  -4.790  0.00  0.00    -0.244 NA
ATOM     10  C   UNL     1       2.331   6.673  -5.606  0.00  0.00    +0.100 A 
ATOM     11  C   UNL     1      -1.522   5.743  -6.790  0.00  0.00    +0.004 A 
ATOM     12  C   UNL     1       2.117   6.089  -6.839  0.00  0.00    +0.037 A 
ENDBRANCH   1   2
BRANCH   1  13
ATOM     13  C   UNL     1       1.224   6.464  -9.603  0.00  0.00    +0.093 C 
ATOM     14  C   UNL     1      -0.107   6.431 -10.612  0.00  0.00    +0.023 C 
BRANCH  13  15
ATOM     15  C   UNL     1       1.981   5.264 -10.482  0.00  0.00    +0.023 C 
BRANCH  15  16
ATOM     16  C   UNL     1       2.852   6.147 -11.370  0.00  0.00    +0.019 C 
BRANCH  16  17
ATOM     17  C   UNL     1       4.278   5.671 -11.323  0.00  0.00    +0.072 C 
BRANCH  17  18
ATOM     18  N   UNL     1       4.991   6.526 -10.400  0.00  0.00    -0.273 NA
BRANCH  18  19
ATOM     19  C   UNL     1       5.755   7.468 -11.179  0.00  0.00    +0.072 C 
ATOM     20  C   UNL     1       7.218   7.453 -10.792  0.00  0.00    +0.019 C 
ENDBRANCH  18  19
BRANCH  18  22
ATOM     21  C   UNL     1       5.263   5.088  -8.415  0.00  0.00    +0.019 C 
ATOM     22  C   UNL     1       5.918   5.744  -9.602  0.00  0.00    +0.072 C 
ENDBRANCH  18  22
ENDBRANCH  17  18
ENDBRANCH  16  17
ENDBRANCH  15  16
ENDBRANCH  13  15
ENDBRANCH   1  13
TORSDOF 8
ENDMDL
MODEL 4
REMARK VINA RESULT:      -6.2      3.085      4.322
REMARK  Name = 
REMARK  8 active torsions:
REMARK  status: ('A' for Active; 'I' for Inactive)
REMARK    1  A    between atoms: C_2  and  N_3
REMARK    2  A    between atoms: N_3  and  C_4
REMARK    3  A    between atoms: N_3  and  C_6
REMARK    4  A    between atoms: C_6  and  C_7
REMARK    5  A    between atoms: C_7  and  C_8
REMARK    6  A    between atoms: C_8  and  C_9
REMARK    7  A    between atoms: C_9  and  N_11
REMARK    8  A    between atoms: N_11  and  C_12
REMARK                            x       y       z     vdW  Elec       q    Type
REMARK                         _______ _______ _______ _____ _____    ______ ____
ROOT
ATOM      1  N   UNL     1       2.337   5.080  -7.160  0.00  0.00    -0.239 NA
ENDROOT
BRANCH   1   2
ATOM      2  C   UNL     1       2.146   5.041  -5.740  0.00  0.00    +0.068 A 
ATOM      3  C   UNL     1       0.971   5.602  -5.257  0.00  0.00    +0.033 A 
ATOM      4  C   UNL     1       0.815   5.656  -3.878  0.00  0.00    +0.083 A 
ATOM      5  C   UNL     1      -0.477   5.651  -3.365  0.00  0.00    +0.031 A 
ATOM      6  C   UNL     1      -1.586   5.554  -4.177  0.00  0.00    +0.059 A 
ATOM      7  C   UNL     1      -1.387   5.823  -5.522  0.00  0.00    +0.012 A 
ATOM      8 CL   UNL     1      -3.172   5.256  -3.507  0.00  0.00    -0.082 Cl
ATOM      9  N   UNL     1       1.886   5.646  -3.049  0.00  0.00    -0.244 NA
ATOM     10  C   UNL     1       3.084   5.231  -3.515  0.00  0.00    +0.100 A 
ATOM     11  C   UNL     1      -0.128   5.817  -6.054  0.00  0.00    +0.004 A 
ATOM     12  C   UNL     1       3.217   4.948  -4.860  0.00  0.00    +0.037 A 
ENDBRANCH   1   2
BRANCH   1  13
ATOM     13  C   UNL     1       3.564   6.022  -7.564  0.00  0.00    +0.093 C 
ATOM     14  C   UNL     1       2.637   6.828  -8.695  0.00  0.00    +0.023 C 
BRANCH  13  15
ATOM     15  C   UNL     1       4.088   4.922  -8.705  0.00  0.00    +0.023 C 
BRANCH  15  16
ATOM     16  C   UNL     1       5.501   5.460  -8.908  0.00  0.00    +0.019 C 
BRANCH  16  17
ATOM     17  C   UNL     1       5.752   5.696 -10.372  0.00  0.00    +0.072 C 
BRANCH  17  18
ATOM     18  N   UNL     1       7.174   5.899 -10.542  0.00  0.00    -0.273 NA
BRANCH  18  19
ATOM     19  C   UNL     1       7.408   7.321 -10.598  0.00  0.00    +0.072 C 
ATOM     20  C   UNL     1       6.316   8.034 -11.365  0.00  0.00    +0.019 C 
ENDBRANCH  18  19
BRANCH  18  22
ATOM     21  C   UNL     1       8.999   5.775 -12.196  0.00  0.00    +0.019 C 
ATOM     22  C   UNL     1       7.620   5.319 -11.795  0.00  0.00    +0.072 C 
ENDBRANCH  18  22
ENDBRANCH  17  18
ENDBRANCH  16  17
ENDBRANCH  15  16
ENDBRANCH  13  15
ENDBRANCH   1  13
TORSDOF 8
ENDMDL
MODEL 5
REMARK VINA RESULT:      -6.1      2.407      5.984
REMARK  Name = 
REMARK  8 active torsions:
REMARK  status: ('A' for Active; 'I' for Inactive)
REMARK    1  A    between atoms: C_2  and  N_3
REMARK    2  A    between atoms: N_3  and  C_4
REMARK    3  A    between atoms: N_3  and  C_6
REMARK    4  A    between atoms: C_6  and  C_7
REMARK    5  A    between atoms: C_7  and  C_8
REMARK    6  A    between atoms: C_8  and  C_9
REMARK    7  A    between atoms: C_9  and  N_11
REMARK    8  A    between atoms: N_11  and  C_12
REMARK                            x       y       z     vdW  Elec       q    Type
REMARK                         _______ _______ _______ _____ _____    ______ ____
ROOT
ATOM      1  N   UNL     1       3.140   4.955  -6.515  0.00  0.00    -0.239 NA
ENDROOT
BRANCH   1   2
ATOM      2  C   UNL     1       3.489   5.404  -7.831  0.00  0.00    +0.068 A 
ATOM      3  C   UNL     1       2.481   5.368  -8.786  0.00  0.00    +0.033 A 
ATOM      4  C   UNL     1       2.828   5.711 -10.086  0.00  0.00    +0.083 A 
ATOM      5  C   UNL     1       1.839   6.237 -10.910  0.00  0.00    +0.031 A 
ATOM      6  C   UNL     1       0.557   6.462 -10.460  0.00  0.00    +0.059 A 
ATOM      7  C   UNL     1       0.195   5.817  -9.288  0.00  0.00    +0.012 A 
ATOM      8 CL   UNL     1      -0.583   7.386 -11.409  0.00  0.00    -0.082 Cl
ATOM      9  N   UNL     1       4.105   5.601 -10.524  0.00  0.00    -0.244 NA
ATOM     10  C   UNL     1       5.110   5.500  -9.628  0.00  0.00    +0.100 A 
ATOM     11  C   UNL     1       1.149   5.306  -8.453  0.00  0.00    +0.004 A 
ATOM     12  C   UNL     1       4.801   5.383  -8.288  0.00  0.00    +0.037 A 
ENDBRANCH   1   2
BRANCH   1  13
ATOM     13  C   UNL     1       2.993   6.176  -5.494  0.00  0.00    +0.093 C 
ATOM     14  C   UNL     1       4.209   5.573  -4.521  0.00  0.00    +0.023 C 
BRANCH  13  15
ATOM     15  C   UNL     1       1.825   5.363  -4.623  0.00  0.00    +0.023 C 
BRANCH  15  16
ATOM     16  C   UNL     1       0.846   6.516  -4.422  0.00  0.00    +0.019 C 
BRANCH  16  17
ATOM     17  C   UNL     1      -0.343   6.045  -3.630  0.00  0.00    +0.072 C 
BRANCH  17  18
ATOM     18  N   UNL     1      -1.516   6.679  -4.190  0.00  0.00    -0.273 NA
BRANCH  18  19
ATOM     19  C   UNL     1      -2.236   7.301  -3.106  0.00  0.00    +0.072 C 
ATOM     20  C   UNL     1      -3.367   6.424  -2.615  0.00  0.00    +0.019 C 
ENDBRANCH  18  19
BRANCH  18  22
ATOM     21  C   UNL     1      -2.366   5.732  -6.303  0.00  0.00    +0.019 C 
ATOM     22  C   UNL     1      -2.385   5.688  -4.798  0.00  0.00    +0.072 C 
ENDBRANCH  18  22
ENDBRANCH  17  18
ENDBRANCH  16  17
ENDBRANCH  15  16
ENDBRANCH  13  15
ENDBRANCH   1  13
TORSDOF 8
ENDMDL
MODEL 6
REMARK VINA RESULT:      -6.0      4.518      8.230
REMARK  Name = 
REMARK  8 active torsions:
REMARK  status: ('A' for Active; 'I' for Inactive)
REMARK    1  A    between atoms: C_2  and  N_3
REMARK    2  A    between atoms: N_3  and  C_4
REMARK    3  A    between atoms: N_3  and  C_6
REMARK    4  A    between atoms: C_6  and  C_7
REMARK    5  A    between atoms: C_7  and  C_8
REMARK    6  A    between atoms: C_8  and  C_9
REMARK    7  A    between atoms: C_9  and  N_11
REMARK    8  A    between atoms: N_11  and  C_12
REMARK                            x       y       z     vdW  Elec       q    Type
REMARK                         _______ _______ _______ _____ _____    ______ ____
ROOT
ATOM      1  N   UNL     1       3.588   6.998  -9.489  0.00  0.00    -0.239 NA
ENDROOT
BRANCH   1   2
ATOM      2  C   UNL     1       3.933   6.389 -10.740  0.00  0.00    +0.068 A 
ATOM      3  C   UNL     1       5.164   6.738 -11.281  0.00  0.00    +0.033 A 
ATOM      4  C   UNL     1       5.471   6.229 -12.536  0.00  0.00    +0.083 A 
ATOM      5  C   UNL     1       6.811   6.052 -12.861  0.00  0.00    +0.031 A 
ATOM      6  C   UNL     1       7.822   6.324 -11.965  0.00  0.00    +0.059 A 
ATOM      7  C   UNL     1       7.483   7.112 -10.877  0.00  0.00    +0.012 A 
ATOM      8 CL   UNL     1       9.466   5.823 -12.281  0.00  0.00    -0.082 Cl
ATOM      9  N   UNL     1       4.496   5.853 -13.399  0.00  0.00    -0.244 NA
ATOM     10  C   UNL     1       3.247   5.631 -12.936  0.00  0.00    +0.100 A 
ATOM     11  C   UNL     1       6.173   7.289 -10.527  0.00  0.00    +0.004 A 
ATOM     12  C   UNL     1       2.963   5.917 -11.616  0.00  0.00    +0.037 A 
ENDBRANCH   1   2
BRANCH   1  13
ATOM     13  C   UNL     1       2.224   6.407  -8.902  0.00  0.00    +0.093 C 
ATOM     14  C   UNL     1       2.099   7.657  -7.801  0.00  0.00    +0.023 C 
BRANCH  13  15
ATOM     15  C   UNL     1       3.055   5.461  -7.807  0.00  0.00    +0.023 C 
BRANCH  15  16
ATOM     16  C   UNL     1       1.883   4.640  -7.278  0.00  0.00    +0.019 C 
BRANCH  16  17
ATOM     17  C   UNL     1       1.925   4.598  -5.776  0.00  0.00    +0.072 C 
BRANCH  17  18
ATOM     18  N   UNL     1       0.606   4.950  -5.295  0.00  0.00    -0.273 NA
BRANCH  18  19
ATOM     19  C   UNL     1      -0.280   4.975  -6.432  0.00  0.00    +0.072 C 
ATOM     20  C   UNL     1      -1.529   5.779  -6.144  0.00  0.00    +0.019 C 
ENDBRANCH  18  19
BRANCH  18  22
ATOM     21  C   UNL     1       1.936   6.615  -4.054  0.00  0.00    +0.019 C 
ATOM     22  C   UNL     1       0.621   6.276  -4.705  0.00  0.00    +0.072 C 
ENDBRANCH  18  22
ENDBRANCH  17  18
ENDBRANCH  16  17
ENDBRANCH  15  16
ENDBRANCH  13  15
ENDBRANCH   1  13
TORSDOF 8
ENDMDL
MODEL 7
REMARK VINA RESULT:      -6.0      3.807      7.472
REMARK  Name = 
REMARK  8 active torsions:
REMARK  status: ('A' for Active; 'I' for Inactive)
REMARK    1  A    between atoms: C_2  and  N_3
REMARK    2  A    between atoms: N_3  and  C_4
REMARK    3  A    between atoms: N_3  and  C_6
REMARK    4  A    between atoms: C_6  and  C_7
REMARK    5  A    between atoms: C_7  and  C_8
REMARK    6  A    between atoms: C_8  and  C_9
REMARK    7  A    between atoms: C_9  and  N_11
REMARK    8  A    between atoms: N_11  and  C_12
REMARK                            x       y       z     vdW  Elec       q    Type
REMARK                         _______ _______ _______ _____ _____    ______ ____
ROOT
ATOM      1  N   UNL     1       3.737   4.857  -7.886  0.00  0.00    -0.239 NA
ENDROOT
BRANCH   1   2
ATOM      2  C   UNL     1       3.803   5.110  -9.295  0.00  0.00    +0.068 A 
ATOM      3  C   UNL     1       4.962   5.717  -9.762  0.00  0.00    +0.033 A 
ATOM      4  C   UNL     1       5.002   6.053 -11.108  0.00  0.00    +0.083 A 
ATOM      5  C   UNL     1       6.243   6.109 -11.733  0.00  0.00    +0.031 A 
ATOM      6  C   UNL     1       7.409   5.801 -11.068  0.00  0.00    +0.059 A 
ATOM      7  C   UNL     1       7.343   5.789  -9.683  0.00  0.00    +0.012 A 
ATOM      8 CL   UNL     1       8.913   5.593 -11.934  0.00  0.00    -0.082 Cl
ATOM      9  N   UNL     1       3.864   6.257 -11.815  0.00  0.00    -0.244 NA
ATOM     10  C   UNL     1       2.689   5.798 -11.332  0.00  0.00    +0.100 A 
ATOM     11  C   UNL     1       6.136   5.718  -9.046  0.00  0.00    +0.004 A 
ATOM     12  C   UNL     1       2.657   5.244 -10.068  0.00  0.00    +0.037 A 
ENDBRANCH   1   2
BRANCH   1  13
ATOM     13  C   UNL     1       2.352   5.352  -7.261  0.00  0.00    +0.093 C 
ATOM     14  C   UNL     1       2.994   6.850  -6.898  0.00  0.00    +0.023 C 
BRANCH  13  15
ATOM     15  C   UNL     1       2.766   4.756  -5.758  0.00  0.00    +0.023 C 
BRANCH  15  16
ATOM     16  C   UNL     1       1.659   5.414  -4.939  0.00  0.00    +0.019 C 
BRANCH  16  17
ATOM     17  C   UNL     1       2.097   5.549  -3.506  0.00  0.00    +0.072 C 
BRANCH  17  18
ATOM     18  N   UNL     1       3.509   5.862  -3.511  0.00  0.00    -0.273 NA
BRANCH  18  19
ATOM     19  C   UNL     1       4.132   5.082  -2.471  0.00  0.00    +0.072 C 
ATOM     20  C   UNL     1       3.235   4.954  -1.259  0.00  0.00    +0.019 C 
ENDBRANCH  18  19
BRANCH  18  22
ATOM     21  C   UNL     1       4.957   7.830  -3.845  0.00  0.00    +0.019 C 
ATOM     22  C   UNL     1       3.715   7.266  -3.207  0.00  0.00    +0.072 C 
ENDBRANCH  18  22
ENDBRANCH  17  18
ENDBRANCH  16  17
ENDBRANCH  15  16
ENDBRANCH  13  15
ENDBRANCH   1  13
TORSDOF 8
ENDMDL
MODEL 8
REMARK VINA RESULT:      -5.9      3.148      6.574
REMARK  Name = 
REMARK  8 active torsions:
REMARK  status: ('A' for Active; 'I' for Inactive)
REMARK    1  A    between atoms: C_2  and  N_3
REMARK    2  A    between atoms: N_3  and  C_4
REMARK    3  A    between atoms: N_3  and  C_6
REMARK    4  A    between atoms: C_6  and  C_7
REMARK    5  A    between atoms: C_7  and  C_8
REMARK    6  A    between atoms: C_8  and  C_9
REMARK    7  A    between atoms: C_9  and  N_11
REMARK    8  A    between atoms: N_11  and  C_12
REMARK                            x       y       z     vdW  Elec       q    Type
REMARK                         _______ _______ _______ _____ _____    ______ ____
ROOT
ATOM      1  N   UNL     1       2.432   5.210  -6.973  0.00  0.00    -0.239 NA
ENDROOT
BRANCH   1   2
ATOM      2  C   UNL     1       1.964   5.397  -8.314  0.00  0.00    +0.068 A 
ATOM      3  C   UNL     1       2.893   5.866  -9.235  0.00  0.00    +0.033 A 
ATOM      4  C   UNL     1       2.432   6.141 -10.515  0.00  0.00    +0.083 A 
ATOM      5  C   UNL     1       3.333   6.047 -11.570  0.00  0.00    +0.031 A 
ATOM      6  C   UNL     1       4.639   5.652 -11.381  0.00  0.00    +0.059 A 
ATOM      7  C   UNL     1       5.116   5.704 -10.080  0.00  0.00    +0.012 A 
ATOM      8 CL   UNL     1       5.668   5.260 -12.738  0.00  0.00    -0.082 Cl
ATOM      9  N   UNL     1       1.128   6.429 -10.746  0.00  0.00    -0.244 NA
ATOM     10  C   UNL     1       0.202   6.109  -9.816  0.00  0.00    +0.100 A 
ATOM     11  C   UNL     1       4.249   5.780  -9.026  0.00  0.00    +0.004 A 
ATOM     12  C   UNL     1       0.621   5.614  -8.598  0.00  0.00    +0.037 A 
ENDBRANCH   1   2
BRANCH   1  13
ATOM     13  C   UNL     1       1.811   6.295  -5.975  0.00  0.00    +0.093 C 
ATOM     14  C   UNL     1       3.321   6.929  -5.647  0.00  0.00    +0.023 C 
BRANCH  13  15
ATOM     15  C   UNL     1       1.922   5.237  -4.688  0.00  0.00    +0.023 C 
BRANCH  15  16
ATOM     16  C   UNL     1       0.564   5.511  -4.050  0.00  0.00    +0.019 C 
BRANCH  16  17
ATOM     17  C   UNL     1      -0.099   6.672  -4.739  0.00  0.00    +0.072 C 
BRANCH  17  18
ATOM     18  N   UNL     1      -1.450   6.766  -4.229  0.00  0.00    -0.273 NA
BRANCH  18  19
ATOM     19  C   UNL     1      -1.744   5.531  -3.544  0.00  0.00    +0.072 C 
ATOM     20  C   UNL     1      -2.937   5.677  -2.624  0.00  0.00    +0.019 C 
ENDBRANCH  18  19
BRANCH  18  22
ATOM     21  C   UNL     1      -2.326   5.777  -6.311  0.00  0.00    +0.019 C 
ATOM     22  C   UNL     1      -2.393   6.911  -5.322  0.00  0.00    +0.072 C 
ENDBRANCH  18  22
ENDBRANCH  17  18
ENDBRANCH  16  17
ENDBRANCH  15  16
ENDBRANCH  13  15
ENDBRANCH   1  13
TORSDOF 8
ENDMDL
MODEL 9
REMARK VINA RESULT:      -5.8      3.709      7.257
REMARK  Name = 
REMARK  8 active torsions:
REMARK  status: ('A' for Active; 'I' for Inactive)
REMARK    1  A    between atoms: C_2  and  N_3
REMARK    2  A    between atoms: N_3  and  C_4
REMARK    3  A    between atoms: N_3  and  C_6
REMARK    4  A    between atoms: C_6  and  C_7
REMARK    5  A    between atoms: C_7  and  C_8
REMARK    6  A    between atoms: C_8  and  C_9
REMARK    7  A    between atoms: C_9  and  N_11
REMARK    8  A    between atoms: N_11  and  C_12
REMARK                            x       y       z     vdW  Elec       q    Type
REMARK                         _______ _______ _______ _____ _____    ______ ____
ROOT
ATOM      1  N   UNL     1       1.981   6.153  -9.594  0.00  0.00    -0.239 NA
ENDROOT
BRANCH   1   2
ATOM      2  C   UNL     1       3.254   6.098  -8.938  0.00  0.00    +0.068 A 
ATOM      3  C   UNL     1       4.321   5.630  -9.694  0.00  0.00    +0.033 A 
ATOM      4  C   UNL     1       5.540   5.482  -9.045  0.00  0.00    +0.083 A 
ATOM      5  C   UNL     1       6.701   5.585  -9.802  0.00  0.00    +0.031 A 
ATOM      6  C   UNL     1       6.672   5.868 -11.150  0.00  0.00    +0.059 A 
ATOM      7  C   UNL     1       5.455   5.688 -11.789  0.00  0.00    +0.012 A 
ATOM      8 CL   UNL     1       8.131   6.281 -12.018  0.00  0.00    -0.082 Cl
ATOM      9  N   UNL     1       5.605   5.309  -7.703  0.00  0.00    -0.244 NA
ATOM     10  C   UNL     1       4.538   5.627  -6.938  0.00  0.00    +0.100 A 
ATOM     11  C   UNL     1       4.297   5.600 -11.068  0.00  0.00    +0.004 A 
ATOM     12  C   UNL     1       3.362   6.002  -7.556  0.00  0.00    +0.037 A 
ENDBRANCH   1   2
BRANCH   1  13
ATOM     13  C   UNL     1       1.044   4.929  -9.167  0.00  0.00    +0.093 C 
ATOM     14  C   UNL     1       0.383   4.837 -10.698  0.00  0.00    +0.023 C 
BRANCH  13  15
ATOM     15  C   UNL     1      -0.157   5.971  -8.658  0.00  0.00    +0.023 C 
BRANCH  15  16
ATOM     16  C   UNL     1      -0.765   5.100  -7.563  0.00  0.00    +0.019 C 
BRANCH  16  17
ATOM     17  C   UNL     1       0.088   5.164  -6.326  0.00  0.00    +0.072 C 
BRANCH  17  18
ATOM     18  N   UNL     1      -0.307   6.344  -5.588  0.00  0.00    -0.273 NA
BRANCH  18  19
ATOM     19  C   UNL     1       0.645   6.529  -4.520  0.00  0.00    +0.072 C 
ATOM     20  C   UNL     1       0.609   5.377  -3.539  0.00  0.00    +0.019 C 
ENDBRANCH  18  19
BRANCH  18  22
ATOM     21  C   UNL     1      -2.469   7.395  -5.039  0.00  0.00    +0.019 C 
ATOM     22  C   UNL     1      -1.618   6.153  -4.995  0.00  0.00    +0.072 C 
ENDBRANCH  18  22
ENDBRANCH  17  18
ENDBRANCH  16  17
ENDBRANCH  15  16
ENDBRANCH  13  15
ENDBRANCH   1  13
TORSDOF 8
ENDMDL
