MODEL 1
REMARK VINA RESULT:      -6.6      0.000      0.000
REMARK  Name = 
REMARK  2 active torsions:
REMARK  status: ('A' for Active; 'I' for Inactive)
REMARK    1  A    between atoms: N_10  and  C_11
REMARK    2  A    between atoms: C_14  and  C_15
REMARK                            x       y       z     vdW  Elec       q    Type
REMARK                         _______ _______ _______ _____ _____    ______ ____
ROOT
ATOM      1  O   UNL     1       3.048   3.842  -8.276  0.00  0.00    -0.263 OA
ATOM      2  C   UNL     1       2.182   4.234  -8.282  0.00  0.00    +0.301 A 
ATOM      3  C   UNL     1       1.502   4.553  -7.113  0.00  0.00    +0.175 A 
ATOM      4  N   UNL     1       1.674   4.138  -5.841  0.00  0.00    -0.217 NA
ATOM      5  C   UNL     1       0.960   4.985  -5.072  0.00  0.00    +0.182 A 
ATOM      6  N   UNL     1       0.060   5.581  -5.826  0.00  0.00    -0.271 N 
ATOM      7  C   UNL     1       0.428   5.436  -7.098  0.00  0.00    +0.171 A 
ATOM      8  N   UNL     1      -0.081   5.892  -8.249  0.00  0.00    -0.205 NA
ATOM      9  C   UNL     1       0.404   5.362  -9.382  0.00  0.00    +0.203 A 
ATOM     10  N   UNL     1       1.602   4.728  -9.404  0.00  0.00    -0.184 NA
ENDROOT
BRANCH   6  11
ATOM     11  C   UNL     1      -0.771   6.858  -5.381  0.00  0.00    +0.207 C 
ATOM     12  O   UNL     1      -0.743   6.463  -3.913  0.00  0.00    -0.335 OA
ATOM     13  C   UNL     1      -2.196   6.717  -3.609  0.00  0.00    +0.150 C 
ATOM     14  C   UNL     1      -2.560   5.399  -4.527  0.00  0.00    +0.037 C 
ATOM     15  C   UNL     1      -2.198   6.109  -5.742  0.00  0.00    +0.057 C 
BRANCH  13  16
ATOM     16  C   UNL     1      -2.120   5.792  -2.243  0.00  0.00    +0.211 C 
ATOM     17  O   UNL     1      -2.799   4.652  -2.703  0.00  0.00    -0.218 OA
ENDBRANCH  13  16
ENDBRANCH   6  11
TORSDOF 2
ENDMDL
MODEL 2
REMARK VINA RESULT:      -6.3      2.762      5.401
REMARK  Name = 
REMARK  2 active torsions:
REMARK  status: ('A' for Active; 'I' for Inactive)
REMARK    1  A    between atoms: N_10  and  C_11
REMARK    2  A    between atoms: C_14  and  C_15
REMARK                            x       y       z     vdW  Elec       q    Type
REMARK                         _______ _______ _______ _____ _____    ______ ____
ROOT
ATOM      1  O   UNL     1      -2.690   4.983  -2.232  0.00  0.00    -0.263 OA
ATOM      2  C   UNL     1      -2.314   5.265  -3.059  0.00  0.00    +0.301 A 
ATOM      3  C   UNL     1      -0.944   5.416  -3.240  0.00  0.00    +0.175 A 
ATOM      4  N   UNL     1       0.063   5.547  -2.351  0.00  0.00    -0.217 NA
ATOM      5  C   UNL     1       1.202   5.347  -3.046  0.00  0.00    +0.182 A 
ATOM      6  N   UNL     1       0.954   5.538  -4.325  0.00  0.00    -0.271 N 
ATOM      7  C   UNL     1      -0.365   5.469  -4.503  0.00  0.00    +0.171 A 
ATOM      8  N   UNL     1      -1.139   5.525  -5.593  0.00  0.00    -0.205 NA
ATOM      9  C   UNL     1      -2.459   5.658  -5.398  0.00  0.00    +0.203 A 
ATOM     10  N   UNL     1      -3.028   5.339  -4.209  0.00  0.00    -0.184 NA
ENDROOT
BRANCH   6  11
ATOM     11  C   UNL     1       1.936   5.112  -5.496  0.00  0.00    +0.207 C 
ATOM     12  O   UNL     1       3.133   5.010  -4.564  0.00  0.00    -0.335 OA
ATOM     13  C   UNL     1       4.122   5.750  -5.425  0.00  0.00    +0.150 C 
ATOM     14  C   UNL     1       3.287   7.132  -5.101  0.00  0.00    +0.037 C 
ATOM     15  C   UNL     1       2.176   6.688  -5.927  0.00  0.00    +0.057 C 
BRANCH  13  16
ATOM     16  C   UNL     1       5.122   6.007  -4.136  0.00  0.00    +0.211 C 
ATOM     17  O   UNL     1       4.713   4.943  -3.315  0.00  0.00    -0.218 OA
ENDBRANCH  13  16
ENDBRANCH   6  11
TORSDOF 2
ENDMDL
MODEL 3
REMARK VINA RESULT:      -6.2      2.138      2.321
REMARK  Name = 
REMARK  2 active torsions:
REMARK  status: ('A' for Active; 'I' for Inactive)
REMARK    1  A    between atoms: N_10  and  C_11
REMARK    2  A    between atoms: C_14  and  C_15
REMARK                            x       y       z     vdW  Elec       q    Type
REMARK                         _______ _______ _______ _____ _____    ______ ____
ROOT
ATOM      1  O   UNL     1       4.631   5.498  -4.831  0.00  0.00    -0.263 OA
ATOM      2  C   UNL     1       3.859   5.693  -5.350  0.00  0.00    +0.301 A 
ATOM      3  C   UNL     1       2.585   5.753  -4.797  0.00  0.00    +0.175 A 
ATOM      4  N   UNL     1       2.096   5.272  -3.636  0.00  0.00    -0.217 NA
ATOM      5  C   UNL     1       0.901   5.874  -3.458  0.00  0.00    +0.182 A 
ATOM      6  N   UNL     1       0.480   6.326  -4.621  0.00  0.00    -0.271 N 
ATOM      7  C   UNL     1       1.525   6.378  -5.445  0.00  0.00    +0.171 A 
ATOM      8  N   UNL     1       1.671   6.814  -6.702  0.00  0.00    -0.205 NA
ATOM      9  C   UNL     1       2.818   6.505  -7.326  0.00  0.00    +0.203 A 
ATOM     10  N   UNL     1       3.923   6.148  -6.626  0.00  0.00    -0.184 NA
ENDROOT
BRANCH   6  11
ATOM     11  C   UNL     1      -0.720   7.349  -4.797  0.00  0.00    +0.207 C 
ATOM     12  O   UNL     1      -1.300   7.027  -3.428  0.00  0.00    -0.335 OA
ATOM     13  C   UNL     1      -2.741   6.894  -3.847  0.00  0.00    +0.150 C 
ATOM     14  C   UNL     1      -2.330   5.495  -4.614  0.00  0.00    +0.037 C 
ATOM     15  C   UNL     1      -1.605   6.234  -5.635  0.00  0.00    +0.057 C 
BRANCH  13  16
ATOM     16  C   UNL     1      -3.115   6.070  -2.465  0.00  0.00    +0.211 C 
ATOM     17  O   UNL     1      -2.734   4.777  -2.862  0.00  0.00    -0.218 OA
ENDBRANCH  13  16
ENDBRANCH   6  11
TORSDOF 2
ENDMDL
MODEL 4
REMARK VINA RESULT:      -6.2      1.976      5.828
REMARK  Name = 
REMARK  2 active torsions:
REMARK  status: ('A' for Active; 'I' for Inactive)
REMARK    1  A    between atoms: N_10  and  C_11
REMARK    2  A    between atoms: C_14  and  C_15
REMARK                            x       y       z     vdW  Elec       q    Type
REMARK                         _______ _______ _______ _____ _____    ______ ____
ROOT
ATOM      1  O   UNL     1      -3.859   5.543  -3.000  0.00  0.00    -0.263 OA
ATOM      2  C   UNL     1      -2.922   5.386  -2.970  0.00  0.00    +0.301 A 
ATOM      3  C   UNL     1      -2.124   5.421  -4.108  0.00  0.00    +0.175 A 
ATOM      4  N   UNL     1      -2.437   5.338  -5.417  0.00  0.00    -0.217 NA
ATOM      5  C   UNL     1      -1.338   5.738  -6.090  0.00  0.00    +0.182 A 
ATOM      6  N   UNL     1      -0.295   5.633  -5.292  0.00  0.00    -0.271 N 
ATOM      7  C   UNL     1      -0.742   5.554  -4.039  0.00  0.00    +0.171 A 
ATOM      8  N   UNL     1      -0.121   5.500  -2.855  0.00  0.00    -0.205 NA
ATOM      9  C   UNL     1      -0.870   5.188  -1.787  0.00  0.00    +0.203 A 
ATOM     10  N   UNL     1      -2.219   5.327  -1.812  0.00  0.00    -0.184 NA
ENDROOT
BRANCH   6  11
ATOM     11  C   UNL     1       1.123   6.280  -5.589  0.00  0.00    +0.207 C 
ATOM     12  O   UNL     1       1.012   6.030  -7.086  0.00  0.00    -0.335 OA
ATOM     13  C   UNL     1       2.396   5.475  -7.299  0.00  0.00    +0.150 C 
ATOM     14  C   UNL     1       1.922   4.128  -6.478  0.00  0.00    +0.037 C 
ATOM     15  C   UNL     1       1.894   4.865  -5.226  0.00  0.00    +0.057 C 
BRANCH  13  16
ATOM     16  C   UNL     1       1.953   4.799  -8.740  0.00  0.00    +0.211 C 
ATOM     17  O   UNL     1       2.597   3.557  -8.615  0.00  0.00    -0.218 OA
ENDBRANCH  13  16
ENDBRANCH   6  11
TORSDOF 2
ENDMDL
MODEL 5
REMARK VINA RESULT:      -6.2      4.865      6.789
REMARK  Name = 
REMARK  2 active torsions:
REMARK  status: ('A' for Active; 'I' for Inactive)
REMARK    1  A    between atoms: N_10  and  C_11
REMARK    2  A    between atoms: C_14  and  C_15
REMARK                            x       y       z     vdW  Elec       q    Type
REMARK                         _______ _______ _______ _____ _____    ______ ____
ROOT
ATOM      1  O   UNL     1       7.453   4.957 -13.004  0.00  0.00    -0.263 OA
ATOM      2  C   UNL     1       7.234   5.254 -12.128  0.00  0.00    +0.301 A 
ATOM      3  C   UNL     1       5.920   5.398 -11.699  0.00  0.00    +0.175 A 
ATOM      4  N   UNL     1       4.764   5.501 -12.387  0.00  0.00    -0.217 NA
ATOM      5  C   UNL     1       3.776   5.307 -11.489  0.00  0.00    +0.182 A 
ATOM      6  N   UNL     1       4.255   5.529 -10.282  0.00  0.00    -0.271 N 
ATOM      7  C   UNL     1       5.585   5.473 -10.351  0.00  0.00    +0.171 A 
ATOM      8  N   UNL     1       6.547   5.560  -9.425  0.00  0.00    -0.205 NA
ATOM      9  C   UNL     1       7.807   5.700  -9.865  0.00  0.00    +0.203 A 
ATOM     10  N   UNL     1       8.148   5.359 -11.132  0.00  0.00    -0.184 NA
ENDROOT
BRANCH   6  11
ATOM     11  C   UNL     1       3.513   5.120  -8.940  0.00  0.00    +0.207 C 
ATOM     12  O   UNL     1       2.198   4.853  -9.655  0.00  0.00    -0.335 OA
ATOM     13  C   UNL     1       1.295   5.578  -8.693  0.00  0.00    +0.150 C 
ATOM     14  C   UNL     1       1.941   6.992  -9.238  0.00  0.00    +0.037 C 
ATOM     15  C   UNL     1       3.204   6.702  -8.578  0.00  0.00    +0.057 C 
BRANCH  13  16
ATOM     16  C   UNL     1       0.084   5.655  -9.813  0.00  0.00    +0.211 C 
ATOM     17  O   UNL     1       0.332   4.453 -10.497  0.00  0.00    -0.218 OA
ENDBRANCH  13  16
ENDBRANCH   6  11
TORSDOF 2
ENDMDL
MODEL 6
REMARK VINA RESULT:      -6.1      5.163      7.215
REMARK  Name = 
REMARK  2 active torsions:
REMARK  status: ('A' for Active; 'I' for Inactive)
REMARK    1  A    between atoms: N_10  and  C_11
REMARK    2  A    between atoms: C_14  and  C_15
REMARK                            x       y       z     vdW  Elec       q    Type
REMARK                         _______ _______ _______ _____ _____    ______ ____
ROOT
ATOM      1  O   UNL     1       9.314   5.749 -12.081  0.00  0.00    -0.263 OA
ATOM      2  C   UNL     1       8.381   5.609 -12.202  0.00  0.00    +0.301 A 
ATOM      3  C   UNL     1       7.491   5.563 -11.135  0.00  0.00    +0.175 A 
ATOM      4  N   UNL     1       7.692   5.368  -9.815  0.00  0.00    -0.217 NA
ATOM      5  C   UNL     1       6.544   5.728  -9.206  0.00  0.00    +0.182 A 
ATOM      6  N   UNL     1       5.571   5.704 -10.093  0.00  0.00    -0.271 N 
ATOM      7  C   UNL     1       6.120   5.721 -11.307  0.00  0.00    +0.171 A 
ATOM      8  N   UNL     1       5.601   5.773 -12.539  0.00  0.00    -0.205 NA
ATOM      9  C   UNL     1       6.435   5.538 -13.563  0.00  0.00    +0.203 A 
ATOM     10  N   UNL     1       7.777   5.654 -13.415  0.00  0.00    -0.184 NA
ENDROOT
BRANCH   6  11
ATOM     11  C   UNL     1       4.138   6.346  -9.862  0.00  0.00    +0.207 C 
ATOM     12  O   UNL     1       4.238   6.221  -8.350  0.00  0.00    -0.335 OA
ATOM     13  C   UNL     1       2.863   5.658  -8.103  0.00  0.00    +0.150 C 
ATOM     14  C   UNL     1       3.371   4.258  -8.806  0.00  0.00    +0.037 C 
ATOM     15  C   UNL     1       3.397   4.891 -10.114  0.00  0.00    +0.057 C 
BRANCH  13  16
ATOM     16  C   UNL     1       3.304   5.111  -6.608  0.00  0.00    +0.211 C 
ATOM     17  O   UNL     1       4.374   5.986  -6.354  0.00  0.00    -0.218 OA
ENDBRANCH  13  16
ENDBRANCH   6  11
TORSDOF 2
ENDMDL
MODEL 7
REMARK VINA RESULT:      -5.9      5.762      9.124
REMARK  Name = 
REMARK  2 active torsions:
REMARK  status: ('A' for Active; 'I' for Inactive)
REMARK    1  A    between atoms: N_10  and  C_11
REMARK    2  A    between atoms: C_14  and  C_15
REMARK                            x       y       z     vdW  Elec       q    Type
REMARK                         _______ _______ _______ _____ _____    ______ ____
ROOT
ATOM      1  O   UNL     1       0.658   6.289 -10.033  0.00  0.00    -0.263 OA
ATOM      2  C   UNL     1       1.023   6.378 -10.906  0.00  0.00    +0.301 A 
ATOM      3  C   UNL     1       2.378   6.213 -11.167  0.00  0.00    +0.175 A 
ATOM      4  N   UNL     1       3.451   6.240 -10.351  0.00  0.00    -0.217 NA
ATOM      5  C   UNL     1       4.473   5.719 -11.060  0.00  0.00    +0.182 A 
ATOM      6  N   UNL     1       4.178   5.794 -12.342  0.00  0.00    -0.271 N 
ATOM      7  C   UNL     1       2.863   5.982 -12.450  0.00  0.00    +0.171 A 
ATOM      8  N   UNL     1       2.040   6.062 -13.502  0.00  0.00    -0.205 NA
ATOM      9  C   UNL     1       0.791   6.494 -13.269  0.00  0.00    +0.203 A 
ATOM     10  N   UNL     1       0.257   6.455 -12.023  0.00  0.00    -0.184 NA
ENDROOT
BRANCH   6  11
ATOM     11  C   UNL     1       4.965   5.026 -13.485  0.00  0.00    +0.207 C 
ATOM     12  O   UNL     1       6.255   4.988 -12.680  0.00  0.00    -0.335 OA
ATOM     13  C   UNL     1       7.191   5.415 -13.780  0.00  0.00    +0.150 C 
ATOM     14  C   UNL     1       6.526   6.919 -13.684  0.00  0.00    +0.037 C 
ATOM     15  C   UNL     1       5.287   6.440 -14.274  0.00  0.00    +0.057 C 
BRANCH  13  16
ATOM     16  C   UNL     1       8.362   5.822 -12.689  0.00  0.00    +0.211 C 
ATOM     17  O   UNL     1       8.001   4.964 -11.637  0.00  0.00    -0.218 OA
ENDBRANCH  13  16
ENDBRANCH   6  11
TORSDOF 2
ENDMDL
MODEL 8
REMARK VINA RESULT:      -5.9      2.650      5.931
REMARK  Name = 
REMARK  2 active torsions:
REMARK  status: ('A' for Active; 'I' for Inactive)
REMARK    1  A    between atoms: N_10  and  C_11
REMARK    2  A    between atoms: C_14  and  C_15
REMARK                            x       y       z     vdW  Elec       q    Type
REMARK                         _______ _______ _______ _____ _____    ______ ____
ROOT
ATOM      1  O   UNL     1      -3.285   5.392  -3.702  0.00  0.00    -0.263 OA
ATOM      2  C   UNL     1      -2.442   5.356  -3.264  0.00  0.00    +0.301 A 
ATOM      3  C   UNL     1      -1.242   5.516  -3.947  0.00  0.00    +0.175 A 
ATOM      4  N   UNL     1      -0.944   5.417  -5.258  0.00  0.00    -0.217 NA
ATOM      5  C   UNL     1       0.279   5.968  -5.406  0.00  0.00    +0.182 A 
ATOM      6  N   UNL     1       0.878   5.983  -4.233  0.00  0.00    -0.271 N 
ATOM      7  C   UNL     1      -0.053   5.825  -3.294  0.00  0.00    +0.171 A 
ATOM      8  N   UNL     1      -0.005   5.828  -1.956  0.00  0.00    -0.205 NA
ATOM      9  C   UNL     1      -1.097   5.402  -1.305  0.00  0.00    +0.203 A 
ATOM     10  N   UNL     1      -2.308   5.366  -1.914  0.00  0.00    -0.184 NA
ENDROOT
BRANCH   6  11
ATOM     11  C   UNL     1       2.192   6.814  -3.915  0.00  0.00    +0.207 C 
ATOM     12  O   UNL     1       2.672   6.760  -5.357  0.00  0.00    -0.335 OA
ATOM     13  C   UNL     1       4.105   6.391  -5.079  0.00  0.00    +0.150 C 
ATOM     14  C   UNL     1       3.573   4.901  -4.618  0.00  0.00    +0.037 C 
ATOM     15  C   UNL     1       2.982   5.454  -3.411  0.00  0.00    +0.057 C 
BRANCH  13  16
ATOM     16  C   UNL     1       4.323   5.875  -6.632  0.00  0.00    +0.211 C 
ATOM     17  O   UNL     1       3.344   6.656  -7.269  0.00  0.00    -0.218 OA
ENDBRANCH  13  16
ENDBRANCH   6  11
TORSDOF 2
ENDMDL
MODEL 9
REMARK VINA RESULT:      -5.9      2.003      5.655
REMARK  Name = 
REMARK  2 active torsions:
REMARK  status: ('A' for Active; 'I' for Inactive)
REMARK    1  A    between atoms: N_10  and  C_11
REMARK    2  A    between atoms: C_14  and  C_15
REMARK                            x       y       z     vdW  Elec       q    Type
REMARK                         _______ _______ _______ _____ _____    ______ ____
ROOT
ATOM      1  O   UNL     1      -1.062   5.067  -1.877  0.00  0.00    -0.263 OA
ATOM      2  C   UNL     1      -1.142   5.388  -2.769  0.00  0.00    +0.301 A 
ATOM      3  C   UNL     1      -0.054   5.469  -3.631  0.00  0.00    +0.175 A 
ATOM      4  N   UNL     1       1.273   5.468  -3.393  0.00  0.00    -0.217 NA
ATOM      5  C   UNL     1       1.866   5.253  -4.585  0.00  0.00    +0.182 A 
ATOM      6  N   UNL     1       1.013   5.558  -5.541  0.00  0.00    -0.271 N 
ATOM      7  C   UNL     1      -0.209   5.583  -5.009  0.00  0.00    +0.171 A 
ATOM      8  N   UNL     1      -1.425   5.772  -5.533  0.00  0.00    -0.205 NA
ATOM      9  C   UNL     1      -2.436   5.971  -4.675  0.00  0.00    +0.203 A 
ATOM     10  N   UNL     1      -2.337   5.596  -3.376  0.00  0.00    -0.184 NA
ENDROOT
BRANCH   6  11
ATOM     11  C   UNL     1       1.205   5.164  -7.066  0.00  0.00    +0.207 C 
ATOM     12  O   UNL     1       2.668   4.800  -6.870  0.00  0.00    -0.335 OA
ATOM     13  C   UNL     1       3.216   5.514  -8.077  0.00  0.00    +0.150 C 
ATOM     14  C   UNL     1       2.896   6.937  -7.313  0.00  0.00    +0.037 C 
ATOM     15  C   UNL     1       1.466   6.740  -7.485  0.00  0.00    +0.057 C 
BRANCH  13  16
ATOM     16  C   UNL     1       4.747   5.482  -7.459  0.00  0.00    +0.211 C 
ATOM     17  O   UNL     1       5.471   5.338  -8.654  0.00  0.00    -0.218 OA
ENDBRANCH  13  16
ENDBRANCH   6  11
TORSDOF 2
ENDMDL
