MODEL 1
REMARK VINA RESULT:      -6.3      0.000      0.000
REMARK  Name = 
REMARK  5 active torsions:
REMARK  status: ('A' for Active; 'I' for Inactive)
REMARK    1  A    between atoms: C_2  and  C_3
REMARK    2  A    between atoms: C_5  and  C_6
REMARK    3  A    between atoms: C_5  and  O_8
REMARK    4  A    between atoms: O_8  and  C_9
REMARK    5  A    between atoms: C_11  and  C_12
REMARK                            x       y       z     vdW  Elec       q    Type
REMARK                         _______ _______ _______ _____ _____    ______ ____
ROOT
ATOM      1  O   UNL     1       0.973   6.274  -4.523  0.00  0.00    -0.303 OA
ENDROOT
BRANCH   1   2
ATOM      2  C   UNL     1      -0.417   5.792  -4.108  0.00  0.00    +0.271 C 
ATOM      3  C   UNL     1      -1.131   6.955  -5.208  0.00  0.00    +0.241 C 
ATOM      4  O   UNL     1      -1.257   8.119  -4.274  0.00  0.00    -0.215 OA
ATOM      5  C   UNL     1      -2.732   6.376  -4.960  0.00  0.00    +0.220 C 
ATOM      6  O   UNL     1      -2.507   5.288  -5.985  0.00  0.00    -0.217 OA
ATOM      7  C   UNL     1      -2.336   5.333  -3.658  0.00  0.00    +0.214 C 
ATOM      8  O   UNL     1      -3.770   5.264  -3.221  0.00  0.00    -0.218 OA
ATOM      9  C   UNL     1      -2.005   6.674  -2.614  0.00  0.00    +0.183 C 
ATOM     10  O   UNL     1      -0.495   6.673  -2.847  0.00  0.00    -0.326 OA
BRANCH   9  11
ATOM     11  C   UNL     1      -1.910   5.681  -1.298  0.00  0.00    +0.214 C 
ATOM     12  O   UNL     1      -0.837   6.289  -0.636  0.00  0.00    -0.218 OA
ENDBRANCH   9  11
ENDBRANCH   1   2
BRANCH   1  18
ATOM     13  C   UNL     1       3.633   5.700  -3.830  0.00  0.00    +0.183 C 
ATOM     14  C   UNL     1       3.224   7.062  -4.806  0.00  0.00    +0.217 C 
ATOM     15  O   UNL     1       4.661   7.215  -5.224  0.00  0.00    -0.218 OA
ATOM     16  C   UNL     1       2.884   5.991  -6.110  0.00  0.00    +0.238 C 
ATOM     17  O   UNL     1       1.983   7.010  -6.797  0.00  0.00    -0.215 OA
ATOM     18  C   UNL     1       1.694   5.407  -5.139  0.00  0.00    +0.252 C 
ATOM     19  O   UNL     1       2.537   4.815  -4.350  0.00  0.00    -0.327 OA
BRANCH  13  21
ATOM     20  O   UNL     1       2.584   5.131  -1.730  0.00  0.00    -0.218 OA
ATOM     21  C   UNL     1       2.697   6.241  -2.568  0.00  0.00    +0.214 C 
ENDBRANCH  13  21
BRANCH  18  22
ATOM     22  C   UNL     1       1.122   4.320  -5.989  0.00  0.00    +0.241 C 
ATOM     23  O   UNL     1       2.200   3.531  -6.424  0.00  0.00    -0.215 OA
ENDBRANCH  18  22
ENDBRANCH   1  18
TORSDOF 5
ENDMDL
MODEL 2
REMARK VINA RESULT:      -6.2      2.375      5.067
REMARK  Name = 
REMARK  5 active torsions:
REMARK  status: ('A' for Active; 'I' for Inactive)
REMARK    1  A    between atoms: C_2  and  C_3
REMARK    2  A    between atoms: C_5  and  C_6
REMARK    3  A    between atoms: C_5  and  O_8
REMARK    4  A    between atoms: O_8  and  C_9
REMARK    5  A    between atoms: C_11  and  C_12
REMARK                            x       y       z     vdW  Elec       q    Type
REMARK                         _______ _______ _______ _____ _____    ______ ____
ROOT
ATOM      1  O   UNL     1       2.645   6.239  -6.147  0.00  0.00    -0.303 OA
ENDROOT
BRANCH   1   2
ATOM      2  C   UNL     1       2.984   6.753  -4.747  0.00  0.00    +0.271 C 
ATOM      3  C   UNL     1       4.676   6.408  -5.049  0.00  0.00    +0.241 C 
ATOM      4  O   UNL     1       4.725   4.999  -4.544  0.00  0.00    -0.215 OA
ATOM      5  C   UNL     1       5.201   7.126  -3.577  0.00  0.00    +0.220 C 
ATOM      6  O   UNL     1       5.185   8.491  -4.226  0.00  0.00    -0.217 OA
ATOM      7  C   UNL     1       3.630   7.338  -2.922  0.00  0.00    +0.214 C 
ATOM      8  O   UNL     1       4.183   7.495  -1.535  0.00  0.00    -0.218 OA
ATOM      9  C   UNL     1       3.422   5.631  -2.726  0.00  0.00    +0.183 C 
ATOM     10  O   UNL     1       2.660   5.425  -4.035  0.00  0.00    -0.326 OA
BRANCH   9  11
ATOM     11  C   UNL     1       2.047   5.858  -1.838  0.00  0.00    +0.214 C 
ATOM     12  O   UNL     1       2.253   4.882  -0.856  0.00  0.00    -0.218 OA
ENDBRANCH   9  11
ENDBRANCH   1   2
BRANCH   1  18
ATOM     13  C   UNL     1       1.394   4.733  -8.161  0.00  0.00    +0.183 C 
ATOM     14  C   UNL     1       2.435   6.058  -8.533  0.00  0.00    +0.217 C 
ATOM     15  O   UNL     1       1.920   6.087  -9.946  0.00  0.00    -0.218 OA
ATOM     16  C   UNL     1       1.211   7.138  -7.987  0.00  0.00    +0.238 C 
ATOM     17  O   UNL     1       2.219   8.252  -7.729  0.00  0.00    -0.215 OA
ATOM     18  C   UNL     1       1.430   6.428  -6.523  0.00  0.00    +0.252 C 
ATOM     19  O   UNL     1       0.851   5.329  -6.894  0.00  0.00    -0.327 OA
BRANCH  13  21
ATOM     20  O   UNL     1       1.923   3.195  -6.376  0.00  0.00    -0.218 OA
ATOM     21  C   UNL     1       2.601   3.928  -7.351  0.00  0.00    +0.214 C 
ENDBRANCH  13  21
BRANCH  18  22
ATOM     22  C   UNL     1       0.418   7.144  -5.690  0.00  0.00    +0.241 C 
ATOM     23  O   UNL     1      -0.500   6.178  -5.242  0.00  0.00    -0.215 OA
ENDBRANCH  18  22
ENDBRANCH   1  18
TORSDOF 5
ENDMDL
MODEL 3
REMARK VINA RESULT:      -6.2      1.416      5.296
REMARK  Name = 
REMARK  5 active torsions:
REMARK  status: ('A' for Active; 'I' for Inactive)
REMARK    1  A    between atoms: C_2  and  C_3
REMARK    2  A    between atoms: C_5  and  C_6
REMARK    3  A    between atoms: C_5  and  O_8
REMARK    4  A    between atoms: O_8  and  C_9
REMARK    5  A    between atoms: C_11  and  C_12
REMARK                            x       y       z     vdW  Elec       q    Type
REMARK                         _______ _______ _______ _____ _____    ______ ____
ROOT
ATOM      1  O   UNL     1      -0.152   5.856  -4.473  0.00  0.00    -0.303 OA
ENDROOT
BRANCH   1   2
ATOM      2  C   UNL     1       0.810   6.232  -5.600  0.00  0.00    +0.271 C 
ATOM      3  C   UNL     1       0.453   4.708  -6.390  0.00  0.00    +0.241 C 
ATOM      4  O   UNL     1       1.518   3.861  -5.764  0.00  0.00    -0.215 OA
ATOM      5  C   UNL     1       1.362   5.096  -7.798  0.00  0.00    +0.220 C 
ATOM      6  O   UNL     1       0.185   5.860  -8.359  0.00  0.00    -0.217 OA
ATOM      7  C   UNL     1       2.073   6.519  -7.155  0.00  0.00    +0.214 C 
ATOM      8  O   UNL     1       3.151   6.504  -8.199  0.00  0.00    -0.218 OA
ATOM      9  C   UNL     1       3.033   5.602  -6.043  0.00  0.00    +0.183 C 
ATOM     10  O   UNL     1       2.075   5.754  -4.862  0.00  0.00    -0.326 OA
BRANCH   9  11
ATOM     11  C   UNL     1       3.914   6.939  -5.637  0.00  0.00    +0.214 C 
ATOM     12  O   UNL     1       4.894   6.327  -4.846  0.00  0.00    -0.218 OA
ENDBRANCH   9  11
ENDBRANCH   1   2
BRANCH   1  18
ATOM     13  C   UNL     1      -0.897   6.218  -1.789  0.00  0.00    +0.183 C 
ATOM     14  C   UNL     1      -1.691   5.071  -2.803  0.00  0.00    +0.217 C 
ATOM     15  O   UNL     1      -2.821   4.956  -1.818  0.00  0.00    -0.218 OA
ATOM     16  C   UNL     1      -2.451   6.371  -3.635  0.00  0.00    +0.238 C 
ATOM     17  O   UNL     1      -2.694   5.521  -4.876  0.00  0.00    -0.215 OA
ATOM     18  C   UNL     1      -0.927   6.800  -4.074  0.00  0.00    +0.252 C 
ATOM     19  O   UNL     1      -0.629   7.214  -2.881  0.00  0.00    -0.327 OA
BRANCH  13  21
ATOM     20  O   UNL     1       1.086   5.369  -0.704  0.00  0.00    -0.218 OA
ATOM     21  C   UNL     1       0.578   5.482  -1.999  0.00  0.00    +0.214 C 
ENDBRANCH  13  21
BRANCH  18  22
ATOM     22  C   UNL     1      -1.183   8.040  -4.867  0.00  0.00    +0.241 C 
ATOM     23  O   UNL     1      -2.061   8.835  -4.111  0.00  0.00    -0.215 OA
ENDBRANCH  18  22
ENDBRANCH   1  18
TORSDOF 5
ENDMDL
MODEL 4
REMARK VINA RESULT:      -6.2      1.589      3.991
REMARK  Name = 
REMARK  5 active torsions:
REMARK  status: ('A' for Active; 'I' for Inactive)
REMARK    1  A    between atoms: C_2  and  C_3
REMARK    2  A    between atoms: C_5  and  C_6
REMARK    3  A    between atoms: C_5  and  O_8
REMARK    4  A    between atoms: O_8  and  C_9
REMARK    5  A    between atoms: C_11  and  C_12
REMARK                            x       y       z     vdW  Elec       q    Type
REMARK                         _______ _______ _______ _____ _____    ______ ____
ROOT
ATOM      1  O   UNL     1       1.252   5.304  -4.001  0.00  0.00    -0.303 OA
ENDROOT
BRANCH   1   2
ATOM      2  C   UNL     1       0.554   6.068  -2.876  0.00  0.00    +0.271 C 
ATOM      3  C   UNL     1       1.572   5.246  -1.710  0.00  0.00    +0.241 C 
ATOM      4  O   UNL     1       0.707   4.054  -1.436  0.00  0.00    -0.215 OA
ATOM      5  C   UNL     1       0.993   6.174  -0.381  0.00  0.00    +0.220 C 
ATOM      6  O   UNL     1       1.970   7.278  -0.714  0.00  0.00    -0.217 OA
ATOM      7  C   UNL     1      -0.276   6.936  -1.247  0.00  0.00    +0.214 C 
ATOM      8  O   UNL     1      -0.978   7.310   0.026  0.00  0.00    -0.218 OA
ATOM      9  C   UNL     1      -1.152   5.448  -1.379  0.00  0.00    +0.183 C 
ATOM     10  O   UNL     1      -0.641   5.100  -2.777  0.00  0.00    -0.326 OA
BRANCH   9  11
ATOM     11  C   UNL     1      -2.488   6.236  -1.949  0.00  0.00    +0.214 C 
ATOM     12  O   UNL     1      -3.102   5.175  -2.624  0.00  0.00    -0.218 OA
ENDBRANCH   9  11
ENDBRANCH   1   2
BRANCH   1  18
ATOM     13  C   UNL     1       0.986   5.463  -6.793  0.00  0.00    +0.183 C 
ATOM     14  C   UNL     1       1.795   4.142  -6.033  0.00  0.00    +0.217 C 
ATOM     15  O   UNL     1       2.400   3.734  -7.347  0.00  0.00    -0.218 OA
ATOM     16  C   UNL     1       3.110   5.192  -5.670  0.00  0.00    +0.238 C 
ATOM     17  O   UNL     1       3.588   4.304  -4.527  0.00  0.00    -0.215 OA
ATOM     18  C   UNL     1       2.024   6.009  -4.748  0.00  0.00    +0.252 C 
ATOM     19  O   UNL     1       1.407   6.491  -5.783  0.00  0.00    -0.327 OA
BRANCH  13  21
ATOM     20  O   UNL     1      -1.409   5.217  -6.979  0.00  0.00    -0.218 OA
ATOM     21  C   UNL     1      -0.431   5.144  -5.986  0.00  0.00    +0.214 C 
ENDBRANCH  13  21
BRANCH  18  22
ATOM     22  C   UNL     1       2.859   7.134  -4.230  0.00  0.00    +0.241 C 
ATOM     23  O   UNL     1       3.712   7.526  -5.277  0.00  0.00    -0.215 OA
ENDBRANCH  18  22
ENDBRANCH   1  18
TORSDOF 5
ENDMDL
MODEL 5
REMARK VINA RESULT:      -6.1      5.522      8.398
REMARK  Name = 
REMARK  5 active torsions:
REMARK  status: ('A' for Active; 'I' for Inactive)
REMARK    1  A    between atoms: C_2  and  C_3
REMARK    2  A    between atoms: C_5  and  C_6
REMARK    3  A    between atoms: C_5  and  O_8
REMARK    4  A    between atoms: O_8  and  C_9
REMARK    5  A    between atoms: C_11  and  C_12
REMARK                            x       y       z     vdW  Elec       q    Type
REMARK                         _______ _______ _______ _____ _____    ______ ____
ROOT
ATOM      1  O   UNL     1       5.127   5.761 -10.813  0.00  0.00    -0.303 OA
ENDROOT
BRANCH   1   2
ATOM      2  C   UNL     1       4.149   6.176  -9.713  0.00  0.00    +0.271 C 
ATOM      3  C   UNL     1       4.611   4.759  -8.791  0.00  0.00    +0.241 C 
ATOM      4  O   UNL     1       3.600   3.789  -9.323  0.00  0.00    -0.215 OA
ATOM      5  C   UNL     1       3.687   5.215  -7.413  0.00  0.00    +0.220 C 
ATOM      6  O   UNL     1       4.815   6.103  -6.940  0.00  0.00    -0.217 OA
ATOM      7  C   UNL     1       2.880   6.522  -8.176  0.00  0.00    +0.214 C 
ATOM      8  O   UNL     1       1.812   6.534  -7.121  0.00  0.00    -0.218 OA
ATOM      9  C   UNL     1       1.976   5.446  -9.186  0.00  0.00    +0.183 C 
ATOM     10  O   UNL     1       2.913   5.550 -10.388  0.00  0.00    -0.326 OA
BRANCH   9  11
ATOM     11  C   UNL     1       1.004   6.678  -9.702  0.00  0.00    +0.214 C 
ATOM     12  O   UNL     1      -0.129   5.936 -10.054  0.00  0.00    -0.218 OA
ENDBRANCH   9  11
ENDBRANCH   1   2
BRANCH   1  18
ATOM     13  C   UNL     1       5.926   5.716 -13.505  0.00  0.00    +0.183 C 
ATOM     14  C   UNL     1       6.846   4.936 -12.273  0.00  0.00    +0.217 C 
ATOM     15  O   UNL     1       8.025   4.823 -13.200  0.00  0.00    -0.218 OA
ATOM     16  C   UNL     1       7.348   6.481 -11.705  0.00  0.00    +0.238 C 
ATOM     17  O   UNL     1       7.667   5.940 -10.317  0.00  0.00    -0.215 OA
ATOM     18  C   UNL     1       5.756   6.726 -11.381  0.00  0.00    +0.252 C 
ATOM     19  O   UNL     1       5.451   6.845 -12.636  0.00  0.00    -0.327 OA
BRANCH  13  21
ATOM     20  O   UNL     1       3.591   5.341 -13.992  0.00  0.00    -0.218 OA
ATOM     21  C   UNL     1       4.581   4.798 -13.173  0.00  0.00    +0.214 C 
ENDBRANCH  13  21
BRANCH  18  22
ATOM     22  C   UNL     1       5.772   8.121 -10.847  0.00  0.00    +0.241 C 
ATOM     23  O   UNL     1       6.598   8.876 -11.698  0.00  0.00    -0.215 OA
ENDBRANCH  18  22
ENDBRANCH   1  18
TORSDOF 5
ENDMDL
MODEL 6
REMARK VINA RESULT:      -6.1      1.915      4.123
REMARK  Name = 
REMARK  5 active torsions:
REMARK  status: ('A' for Active; 'I' for Inactive)
REMARK    1  A    between atoms: C_2  and  C_3
REMARK    2  A    between atoms: C_5  and  C_6
REMARK    3  A    between atoms: C_5  and  O_8
REMARK    4  A    between atoms: O_8  and  C_9
REMARK    5  A    between atoms: C_11  and  C_12
REMARK                            x       y       z     vdW  Elec       q    Type
REMARK                         _______ _______ _______ _____ _____    ______ ____
ROOT
ATOM      1  O   UNL     1       2.423   6.543  -2.912  0.00  0.00    -0.303 OA
ENDROOT
BRANCH   1   2
ATOM      2  C   UNL     1       1.626   6.501  -4.217  0.00  0.00    +0.271 C 
ATOM      3  C   UNL     1       0.150   6.317  -3.290  0.00  0.00    +0.241 C 
ATOM      4  O   UNL     1       0.102   4.822  -3.213  0.00  0.00    -0.215 OA
ATOM      5  C   UNL     1      -0.867   6.440  -4.672  0.00  0.00    +0.220 C 
ATOM      6  O   UNL     1      -0.803   7.948  -4.596  0.00  0.00    -0.217 OA
ATOM      7  C   UNL     1       0.403   6.371  -5.823  0.00  0.00    +0.214 C 
ATOM      8  O   UNL     1      -0.554   6.006  -6.920  0.00  0.00    -0.218 OA
ATOM      9  C   UNL     1       0.725   4.712  -5.449  0.00  0.00    +0.183 C 
ATOM     10  O   UNL     1       1.862   4.999  -4.470  0.00  0.00    -0.326 OA
BRANCH   9  11
ATOM     11  C   UNL     1       1.736   4.572  -6.748  0.00  0.00    +0.214 C 
ATOM     12  O   UNL     1       2.247   3.293  -6.495  0.00  0.00    -0.218 OA
ENDBRANCH   9  11
ENDBRANCH   1   2
BRANCH   1  18
ATOM     13  C   UNL     1       4.278   5.410  -1.134  0.00  0.00    +0.183 C 
ATOM     14  C   UNL     1       3.495   6.909  -0.794  0.00  0.00    +0.217 C 
ATOM     15  O   UNL     1       4.496   7.207   0.287  0.00  0.00    -0.218 OA
ATOM     16  C   UNL     1       4.466   7.659  -2.001  0.00  0.00    +0.238 C 
ATOM     17  O   UNL     1       3.473   8.801  -2.182  0.00  0.00    -0.215 OA
ATOM     18  C   UNL     1       3.695   6.656  -3.049  0.00  0.00    +0.252 C 
ATOM     19  O   UNL     1       4.334   5.610  -2.621  0.00  0.00    -0.327 OA
BRANCH  13  21
ATOM     20  O   UNL     1       3.049   3.434  -0.489  0.00  0.00    -0.218 OA
ATOM     21  C   UNL     1       2.830   4.599  -1.224  0.00  0.00    +0.214 C 
ENDBRANCH  13  21
BRANCH  18  22
ATOM     22  C   UNL     1       4.352   7.014  -4.342  0.00  0.00    +0.241 C 
ATOM     23  O   UNL     1       5.711   7.238  -4.063  0.00  0.00    -0.215 OA
ENDBRANCH  18  22
ENDBRANCH   1  18
TORSDOF 5
ENDMDL
MODEL 7
REMARK VINA RESULT:      -6.0      6.076     10.036
REMARK  Name = 
REMARK  5 active torsions:
REMARK  status: ('A' for Active; 'I' for Inactive)
REMARK    1  A    between atoms: C_2  and  C_3
REMARK    2  A    between atoms: C_5  and  C_6
REMARK    3  A    between atoms: C_5  and  O_8
REMARK    4  A    between atoms: O_8  and  C_9
REMARK    5  A    between atoms: C_11  and  C_12
REMARK                            x       y       z     vdW  Elec       q    Type
REMARK                         _______ _______ _______ _____ _____    ______ ____
ROOT
ATOM      1  O   UNL     1       4.016   6.268 -10.941  0.00  0.00    -0.303 OA
ENDROOT
BRANCH   1   2
ATOM      2  C   UNL     1       5.412   5.796 -11.350  0.00  0.00    +0.271 C 
ATOM      3  C   UNL     1       6.111   7.085 -10.390  0.00  0.00    +0.241 C 
ATOM      4  O   UNL     1       6.167   8.157 -11.436  0.00  0.00    -0.215 OA
ATOM      5  C   UNL     1       7.725   6.541 -10.629  0.00  0.00    +0.220 C 
ATOM      6  O   UNL     1       7.569   5.551  -9.498  0.00  0.00    -0.217 OA
ATOM      7  C   UNL     1       7.333   5.364 -11.813  0.00  0.00    +0.214 C 
ATOM      8  O   UNL     1       8.757   5.302 -12.285  0.00  0.00    -0.218 OA
ATOM      9  C   UNL     1       6.924   6.584 -12.971  0.00  0.00    +0.183 C 
ATOM     10  O   UNL     1       5.421   6.553 -12.692  0.00  0.00    -0.326 OA
BRANCH   9  11
ATOM     11  C   UNL     1       6.830   5.464 -14.181  0.00  0.00    +0.214 C 
ATOM     12  O   UNL     1       6.894   6.323 -15.285  0.00  0.00    -0.218 OA
ENDBRANCH   9  11
ENDBRANCH   1   2
BRANCH   1  18
ATOM     13  C   UNL     1       1.355   5.513 -11.425  0.00  0.00    +0.183 C 
ATOM     14  C   UNL     1       1.747   7.001 -10.645  0.00  0.00    +0.217 C 
ATOM     15  O   UNL     1       0.326   7.151 -10.179  0.00  0.00    -0.218 OA
ATOM     16  C   UNL     1       2.192   6.114  -9.238  0.00  0.00    +0.238 C 
ATOM     17  O   UNL     1       3.078   7.244  -8.727  0.00  0.00    -0.215 OA
ATOM     18  C   UNL     1       3.361   5.459 -10.188  0.00  0.00    +0.252 C 
ATOM     19  O   UNL     1       2.510   4.742 -10.855  0.00  0.00    -0.327 OA
BRANCH  13  21
ATOM     20  O   UNL     1       1.727   5.057 -13.767  0.00  0.00    -0.218 OA
ATOM     21  C   UNL     1       2.209   5.927 -12.789  0.00  0.00    +0.214 C 
ENDBRANCH  13  21
BRANCH  18  22
ATOM     22  C   UNL     1       4.017   4.509  -9.241  0.00  0.00    +0.241 C 
ATOM     23  O   UNL     1       3.003   3.690  -8.714  0.00  0.00    -0.215 OA
ENDBRANCH  18  22
ENDBRANCH   1  18
TORSDOF 5
ENDMDL
MODEL 8
REMARK VINA RESULT:      -5.9      2.555      5.088
REMARK  Name = 
REMARK  5 active torsions:
REMARK  status: ('A' for Active; 'I' for Inactive)
REMARK    1  A    between atoms: C_2  and  C_3
REMARK    2  A    between atoms: C_5  and  C_6
REMARK    3  A    between atoms: C_5  and  O_8
REMARK    4  A    between atoms: O_8  and  C_9
REMARK    5  A    between atoms: C_11  and  C_12
REMARK                            x       y       z     vdW  Elec       q    Type
REMARK                         _______ _______ _______ _____ _____    ______ ____
ROOT
ATOM      1  O   UNL     1       2.872   5.619  -5.726  0.00  0.00    -0.303 OA
ENDROOT
BRANCH   1   2
ATOM      2  C   UNL     1       3.058   6.499  -4.490  0.00  0.00    +0.271 C 
ATOM      3  C   UNL     1       4.762   6.088  -4.475  0.00  0.00    +0.241 C 
ATOM      4  O   UNL     1       4.705   4.873  -3.600  0.00  0.00    -0.215 OA
ATOM      5  C   UNL     1       5.131   7.186  -3.203  0.00  0.00    +0.220 C 
ATOM      6  O   UNL     1       5.237   8.318  -4.198  0.00  0.00    -0.217 OA
ATOM      7  C   UNL     1       3.501   7.568  -2.830  0.00  0.00    +0.214 C 
ATOM      8  O   UNL     1       3.889   8.102  -1.483  0.00  0.00    -0.218 OA
ATOM      9  C   UNL     1       3.215   5.980  -2.201  0.00  0.00    +0.183 C 
ATOM     10  O   UNL     1       2.608   5.419  -3.487  0.00  0.00    -0.326 OA
BRANCH   9  11
ATOM     11  C   UNL     1       1.753   6.441  -1.586  0.00  0.00    +0.214 C 
ATOM     12  O   UNL     1       1.734   5.643  -0.436  0.00  0.00    -0.218 OA
ENDBRANCH   9  11
ENDBRANCH   1   2
BRANCH   1  18
ATOM     13  C   UNL     1       0.906   4.808  -7.562  0.00  0.00    +0.183 C 
ATOM     14  C   UNL     1       2.476   4.093  -7.539  0.00  0.00    +0.217 C 
ATOM     15  O   UNL     1       2.240   3.490  -8.896  0.00  0.00    -0.218 OA
ATOM     16  C   UNL     1       3.117   5.541  -8.213  0.00  0.00    +0.238 C 
ATOM     17  O   UNL     1       4.518   5.239  -7.696  0.00  0.00    -0.215 OA
ATOM     18  C   UNL     1       2.618   6.248  -6.817  0.00  0.00    +0.252 C 
ATOM     19  O   UNL     1       1.366   6.177  -7.150  0.00  0.00    -0.327 OA
BRANCH  13  21
ATOM     20  O   UNL     1      -0.450   5.179  -5.599  0.00  0.00    -0.218 OA
ATOM     21  C   UNL     1       0.606   4.356  -5.991  0.00  0.00    +0.214 C 
ENDBRANCH  13  21
BRANCH  18  22
ATOM     22  C   UNL     1       3.005   7.673  -7.049  0.00  0.00    +0.241 C 
ATOM     23  O   UNL     1       2.022   8.233  -7.883  0.00  0.00    -0.215 OA
ENDBRANCH  18  22
ENDBRANCH   1  18
TORSDOF 5
ENDMDL
MODEL 9
REMARK VINA RESULT:      -5.9      2.623      5.915
REMARK  Name = 
REMARK  5 active torsions:
REMARK  status: ('A' for Active; 'I' for Inactive)
REMARK    1  A    between atoms: C_2  and  C_3
REMARK    2  A    between atoms: C_5  and  C_6
REMARK    3  A    between atoms: C_5  and  O_8
REMARK    4  A    between atoms: O_8  and  C_9
REMARK    5  A    between atoms: C_11  and  C_12
REMARK                            x       y       z     vdW  Elec       q    Type
REMARK                         _______ _______ _______ _____ _____    ______ ____
ROOT
ATOM      1  O   UNL     1       1.370   6.219  -6.368  0.00  0.00    -0.303 OA
ENDROOT
BRANCH   1   2
ATOM      2  C   UNL     1       1.810   5.895  -7.796  0.00  0.00    +0.271 C 
ATOM      3  C   UNL     1       2.974   7.203  -7.717  0.00  0.00    +0.241 C 
ATOM      4  O   UNL     1       2.115   8.317  -8.234  0.00  0.00    -0.215 OA
ATOM      5  C   UNL     1       3.677   6.821  -9.239  0.00  0.00    +0.220 C 
ATOM      6  O   UNL     1       4.550   5.776  -8.583  0.00  0.00    -0.217 OA
ATOM      7  C   UNL     1       2.496   5.661  -9.685  0.00  0.00    +0.214 C 
ATOM      8  O   UNL     1       2.892   5.750 -11.130  0.00  0.00    -0.218 OA
ATOM      9  C   UNL     1       1.284   6.884  -9.865  0.00  0.00    +0.183 C 
ATOM     10  O   UNL     1       0.684   6.703  -8.471  0.00  0.00    -0.326 OA
BRANCH   9  11
ATOM     11  C   UNL     1       0.244   5.810 -10.567  0.00  0.00    +0.214 C 
ATOM     12  O   UNL     1      -0.597   6.713 -11.228  0.00  0.00    -0.218 OA
ENDBRANCH   9  11
ENDBRANCH   1   2
BRANCH   1  18
ATOM     13  C   UNL     1      -0.653   5.372  -4.614  0.00  0.00    +0.183 C 
ATOM     14  C   UNL     1       0.322   6.753  -4.273  0.00  0.00    +0.217 C 
ATOM     15  O   UNL     1      -0.132   6.743  -2.840  0.00  0.00    -0.218 OA
ATOM     16  C   UNL     1       1.645   5.704  -3.937  0.00  0.00    +0.238 C 
ATOM     17  O   UNL     1       2.667   6.803  -4.198  0.00  0.00    -0.215 OA
ATOM     18  C   UNL     1       1.522   5.269  -5.517  0.00  0.00    +0.252 C 
ATOM     19  O   UNL     1       0.427   4.603  -5.317  0.00  0.00    -0.327 OA
BRANCH  13  21
ATOM     20  O   UNL     1      -1.724   4.943  -6.734  0.00  0.00    -0.218 OA
ATOM     21  C   UNL     1      -1.209   6.033  -6.033  0.00  0.00    +0.214 C 
ENDBRANCH  13  21
BRANCH  18  22
ATOM     22  C   UNL     1       2.596   4.237  -5.626  0.00  0.00    +0.241 C 
ATOM     23  O   UNL     1       2.033   3.129  -6.282  0.00  0.00    -0.215 OA
ENDBRANCH  18  22
ENDBRANCH   1  18
TORSDOF 5
ENDMDL
