MODEL 1
REMARK VINA RESULT:      -7.5      0.000      0.000
REMARK  Name = 
REMARK  3 active torsions:
REMARK  status: ('A' for Active; 'I' for Inactive)
REMARK    1  A    between atoms: N_5  and  C_6
REMARK    2  A    between atoms: C_6  and  C_7
REMARK    3  A    between atoms: C_6  and  C_13
REMARK                            x       y       z     vdW  Elec       q    Type
REMARK                         _______ _______ _______ _____ _____    ______ ____
ROOT
ATOM      1  C   UNL     1       0.895   5.275  -5.290  0.00  0.00    +0.103 C 
ENDROOT
BRANCH   1   6
ATOM      2  C   UNL     1      -2.679   7.001  -2.046  0.00  0.00    +0.090 C 
ATOM      3  N   UNL     1      -1.779   6.850  -2.537  0.00  0.00    -0.269 NA
ATOM      4  C   UNL     1      -1.804   7.412  -3.861  0.00  0.00    +0.090 C 
ATOM      5  C   UNL     1      -0.887   6.758  -4.833  0.00  0.00    +0.090 C 
ATOM      6  N   UNL     1       0.349   6.355  -4.227  0.00  0.00    -0.264 NA
ATOM      7  C   UNL     1       0.123   5.438  -3.108  0.00  0.00    +0.090 C 
ATOM      8  C   UNL     1      -1.310   5.476  -2.630  0.00  0.00    +0.090 C 
ENDBRANCH   1   6
BRANCH   1   9
ATOM      9  C   UNL     1       0.564   6.267  -6.573  0.00  0.00    -0.004 A 
ATOM     10  C   UNL     1       1.732   6.784  -7.132  0.00  0.00    -0.002 A 
ATOM     11  C   UNL     1       1.948   6.886  -8.488  0.00  0.00    +0.011 A 
ATOM     12  C   UNL     1       0.966   6.428  -9.359  0.00  0.00    +0.058 A 
ATOM     13 CL   UNL     1       1.164   6.563 -11.104  0.00  0.00    -0.082 Cl
ATOM     14  C   UNL     1       0.110   5.490  -8.845  0.00  0.00    +0.011 A 
ATOM     15  C   UNL     1      -0.170   5.536  -7.507  0.00  0.00    -0.002 A 
ENDBRANCH   1   9
BRANCH   1  16
ATOM     16  C   UNL     1       2.446   5.805  -5.130  0.00  0.00    -0.004 A 
ATOM     17  C   UNL     1       2.621   6.892  -4.347  0.00  0.00    -0.003 A 
ATOM     18  C   UNL     1       3.932   7.306  -4.137  0.00  0.00    -0.000 A 
ATOM     19  C   UNL     1       4.907   6.327  -4.144  0.00  0.00    -0.000 A 
ATOM     20  C   UNL     1       4.639   5.048  -4.611  0.00  0.00    -0.000 A 
ATOM     21  C   UNL     1       3.360   4.779  -5.062  0.00  0.00    -0.003 A 
ENDBRANCH   1  16
TORSDOF 3
ENDMDL
MODEL 2
REMARK VINA RESULT:      -7.4      2.445      3.568
REMARK  Name = 
REMARK  3 active torsions:
REMARK  status: ('A' for Active; 'I' for Inactive)
REMARK    1  A    between atoms: N_5  and  C_6
REMARK    2  A    between atoms: C_6  and  C_7
REMARK    3  A    between atoms: C_6  and  C_13
REMARK                            x       y       z     vdW  Elec       q    Type
REMARK                         _______ _______ _______ _____ _____    ______ ____
ROOT
ATOM      1  C   UNL     1       3.259   4.946  -6.902  0.00  0.00    +0.103 C 
ENDROOT
BRANCH   1   6
ATOM      2  C   UNL     1      -1.821   5.561  -6.603  0.00  0.00    +0.090 C 
ATOM      3  N   UNL     1      -0.803   5.749  -6.650  0.00  0.00    -0.269 NA
ATOM      4  C   UNL     1      -0.278   5.463  -7.959  0.00  0.00    +0.090 C 
ATOM      5  C   UNL     1       1.164   5.100  -7.985  0.00  0.00    +0.090 C 
ATOM      6  N   UNL     1       1.930   5.848  -7.031  0.00  0.00    -0.264 NA
ATOM      7  C   UNL     1       1.426   5.656  -5.670  0.00  0.00    +0.090 C 
ATOM      8  C   UNL     1       0.029   5.078  -5.664  0.00  0.00    +0.090 C 
ENDBRANCH   1   6
BRANCH   1   9
ATOM      9  C   UNL     1       4.164   6.031  -7.763  0.00  0.00    -0.004 A 
ATOM     10  C   UNL     1       5.351   5.458  -8.219  0.00  0.00    -0.002 A 
ATOM     11  C   UNL     1       5.860   5.662  -9.481  0.00  0.00    +0.011 A 
ATOM     12  C   UNL     1       5.148   6.460 -10.370  0.00  0.00    +0.058 A 
ATOM     13 CL   UNL     1       5.762   6.791 -11.987  0.00  0.00    -0.082 Cl
ATOM     14  C   UNL     1       3.807   6.575 -10.118  0.00  0.00    +0.011 A 
ATOM     15  C   UNL     1       3.385   6.502  -8.819  0.00  0.00    -0.002 A 
ENDBRANCH   1   9
BRANCH   1  16
ATOM     16  C   UNL     1       3.643   5.605  -5.442  0.00  0.00    -0.004 A 
ATOM     17  C   UNL     1       4.325   4.805  -4.594  0.00  0.00    -0.003 A 
ATOM     18  C   UNL     1       4.727   5.370  -3.389  0.00  0.00    -0.000 A 
ATOM     19  C   UNL     1       5.002   6.725  -3.393  0.00  0.00    -0.000 A 
ATOM     20  C   UNL     1       4.631   7.531  -4.460  0.00  0.00    -0.000 A 
ATOM     21  C   UNL     1       3.985   6.935  -5.527  0.00  0.00    -0.003 A 
ENDBRANCH   1  16
TORSDOF 3
ENDMDL
MODEL 3
REMARK VINA RESULT:      -7.3      2.130      4.284
REMARK  Name = 
REMARK  3 active torsions:
REMARK  status: ('A' for Active; 'I' for Inactive)
REMARK    1  A    between atoms: N_5  and  C_6
REMARK    2  A    between atoms: C_6  and  C_7
REMARK    3  A    between atoms: C_6  and  C_13
REMARK                            x       y       z     vdW  Elec       q    Type
REMARK                         _______ _______ _______ _____ _____    ______ ____
ROOT
ATOM      1  C   UNL     1       1.803   6.893  -5.549  0.00  0.00    +0.103 C 
ENDROOT
BRANCH   1   6
ATOM      2  C   UNL     1       3.468   4.769  -1.191  0.00  0.00    +0.090 C 
ATOM      3  N   UNL     1       3.082   4.898  -2.144  0.00  0.00    -0.269 NA
ATOM      4  C   UNL     1       4.099   5.322  -3.068  0.00  0.00    +0.090 C 
ATOM      5  C   UNL     1       3.599   6.105  -4.229  0.00  0.00    +0.090 C 
ATOM      6  N   UNL     1       2.329   5.630  -4.698  0.00  0.00    -0.264 NA
ATOM      7  C   UNL     1       1.319   5.668  -3.639  0.00  0.00    +0.090 C 
ATOM      8  C   UNL     1       1.944   5.796  -2.269  0.00  0.00    +0.090 C 
ENDBRANCH   1   6
BRANCH   1   9
ATOM      9  C   UNL     1       2.137   6.150  -6.990  0.00  0.00    -0.004 A 
ATOM     10  C   UNL     1       2.244   7.075  -8.028  0.00  0.00    -0.002 A 
ATOM     11  C   UNL     1       3.215   7.019  -9.002  0.00  0.00    +0.011 A 
ATOM     12  C   UNL     1       4.164   6.004  -8.945  0.00  0.00    +0.058 A 
ATOM     13 CL   UNL     1       5.410   5.853 -10.179  0.00  0.00    -0.082 Cl
ATOM     14  C   UNL     1       4.366   5.453  -7.707  0.00  0.00    +0.011 A 
ATOM     15  C   UNL     1       3.312   5.416  -6.836  0.00  0.00    -0.002 A 
ENDBRANCH   1   9
BRANCH   1  16
ATOM     16  C   UNL     1       0.245   6.360  -5.501  0.00  0.00    -0.004 A 
ATOM     17  C   UNL     1      -0.684   7.279  -5.161  0.00  0.00    -0.003 A 
ATOM     18  C   UNL     1      -2.011   6.867  -5.191  0.00  0.00    -0.000 A 
ATOM     19  C   UNL     1      -2.344   5.894  -6.115  0.00  0.00    -0.000 A 
ATOM     20  C   UNL     1      -1.366   5.169  -6.779  0.00  0.00    -0.000 A 
ATOM     21  C   UNL     1      -0.043   5.455  -6.496  0.00  0.00    -0.003 A 
ENDBRANCH   1  16
TORSDOF 3
ENDMDL
MODEL 4
REMARK VINA RESULT:      -7.3      4.676      8.255
REMARK  Name = 
REMARK  3 active torsions:
REMARK  status: ('A' for Active; 'I' for Inactive)
REMARK    1  A    between atoms: N_5  and  C_6
REMARK    2  A    between atoms: C_6  and  C_7
REMARK    3  A    between atoms: C_6  and  C_13
REMARK                            x       y       z     vdW  Elec       q    Type
REMARK                         _______ _______ _______ _____ _____    ______ ____
ROOT
ATOM      1  C   UNL     1       3.793   5.221 -10.283  0.00  0.00    +0.103 C 
ENDROOT
BRANCH   1   6
ATOM      2  C   UNL     1       6.919   6.800 -14.027  0.00  0.00    +0.090 C 
ATOM      3  N   UNL     1       6.100   6.695 -13.400  0.00  0.00    -0.269 NA
ATOM      4  C   UNL     1       6.376   7.213 -12.087  0.00  0.00    +0.090 C 
ATOM      5  C   UNL     1       5.582   6.594 -10.993  0.00  0.00    +0.090 C 
ATOM      6  N   UNL     1       4.239   6.294 -11.400  0.00  0.00    -0.264 NA
ATOM      7  C   UNL     1       4.218   5.398 -12.557  0.00  0.00    +0.090 C 
ATOM      8  C   UNL     1       5.555   5.354 -13.260  0.00  0.00    +0.090 C 
ENDBRANCH   1   6
BRANCH   1   9
ATOM      9  C   UNL     1       4.142   6.262  -9.044  0.00  0.00    -0.004 A 
ATOM     10  C   UNL     1       3.031   7.027  -8.693  0.00  0.00    -0.002 A 
ATOM     11  C   UNL     1       2.672   7.298  -7.392  0.00  0.00    +0.011 A 
ATOM     12  C   UNL     1       3.436   6.763  -6.361  0.00  0.00    +0.058 A 
ATOM     13 CL   UNL     1       3.053   7.102  -4.676  0.00  0.00    -0.082 Cl
ATOM     14  C   UNL     1       4.159   5.645  -6.680  0.00  0.00    +0.011 A 
ATOM     15  C   UNL     1       4.606   5.509  -7.966  0.00  0.00    -0.002 A 
ENDBRANCH   1   9
BRANCH   1  16
ATOM     16  C   UNL     1       2.214   5.679 -10.380  0.00  0.00    -0.004 A 
ATOM     17  C   UNL     1       1.895   6.484 -11.417  0.00  0.00    -0.003 A 
ATOM     18  C   UNL     1       0.553   6.817 -11.560  0.00  0.00    -0.000 A 
ATOM     19  C   UNL     1      -0.374   5.884 -11.130  0.00  0.00    -0.000 A 
ATOM     20  C   UNL     1       0.005   4.803 -10.348  0.00  0.00    -0.000 A 
ATOM     21  C   UNL     1       1.342   4.680 -10.016  0.00  0.00    -0.003 A 
ENDBRANCH   1  16
TORSDOF 3
ENDMDL
MODEL 5
REMARK VINA RESULT:      -7.2      2.890      5.336
REMARK  Name = 
REMARK  3 active torsions:
REMARK  status: ('A' for Active; 'I' for Inactive)
REMARK    1  A    between atoms: N_5  and  C_6
REMARK    2  A    between atoms: C_6  and  C_7
REMARK    3  A    between atoms: C_6  and  C_13
REMARK                            x       y       z     vdW  Elec       q    Type
REMARK                         _______ _______ _______ _____ _____    ______ ____
ROOT
ATOM      1  C   UNL     1       2.519   6.867  -7.022  0.00  0.00    +0.103 C 
ENDROOT
BRANCH   1   6
ATOM      2  C   UNL     1       4.604   5.322 -11.442  0.00  0.00    +0.090 C 
ATOM      3  N   UNL     1       4.193   5.327 -10.491  0.00  0.00    -0.269 NA
ATOM      4  C   UNL     1       2.789   5.635 -10.530  0.00  0.00    +0.090 C 
ATOM      5  C   UNL     1       2.254   6.262  -9.291  0.00  0.00    +0.090 C 
ATOM      6  N   UNL     1       2.858   5.725  -8.107  0.00  0.00    -0.264 NA
ATOM      7  C   UNL     1       4.312   5.891  -8.124  0.00  0.00    +0.090 C 
ATOM      8  C   UNL     1       4.828   6.195  -9.512  0.00  0.00    +0.090 C 
ENDBRANCH   1   6
BRANCH   1   9
ATOM      9  C   UNL     1       1.332   5.949  -6.322  0.00  0.00    -0.004 A 
ATOM     10  C   UNL     1       0.532   6.711  -5.473  0.00  0.00    -0.002 A 
ATOM     11  C   UNL     1      -0.839   6.600  -5.414  0.00  0.00    +0.011 A 
ATOM     12  C   UNL     1      -1.476   5.700  -6.262  0.00  0.00    +0.058 A 
ATOM     13 CL   UNL     1      -3.222   5.483  -6.212  0.00  0.00    -0.082 Cl
ATOM     14  C   UNL     1      -0.783   5.366  -7.396  0.00  0.00    +0.011 A 
ATOM     15  C   UNL     1       0.583   5.362  -7.342  0.00  0.00    -0.002 A 
ENDBRANCH   1   9
BRANCH   1  16
ATOM     16  C   UNL     1       3.695   6.336  -5.999  0.00  0.00    -0.004 A 
ATOM     17  C   UNL     1       4.212   7.262  -5.161  0.00  0.00    -0.003 A 
ATOM     18  C   UNL     1       5.150   6.814  -4.237  0.00  0.00    -0.000 A 
ATOM     19  C   UNL     1       5.019   5.512  -3.792  0.00  0.00    -0.000 A 
ATOM     20  C   UNL     1       4.178   4.614  -4.432  0.00  0.00    -0.000 A 
ATOM     21  C   UNL     1       3.464   5.064  -5.528  0.00  0.00    -0.003 A 
ENDBRANCH   1  16
TORSDOF 3
ENDMDL
MODEL 6
REMARK VINA RESULT:      -7.1      4.358      7.021
REMARK  Name = 
REMARK  3 active torsions:
REMARK  status: ('A' for Active; 'I' for Inactive)
REMARK    1  A    between atoms: N_5  and  C_6
REMARK    2  A    between atoms: C_6  and  C_7
REMARK    3  A    between atoms: C_6  and  C_13
REMARK                            x       y       z     vdW  Elec       q    Type
REMARK                         _______ _______ _______ _____ _____    ______ ____
ROOT
ATOM      1  C   UNL     1       3.257   6.895  -9.940  0.00  0.00    +0.103 C 
ENDROOT
BRANCH   1   6
ATOM      2  C   UNL     1       1.058   4.759 -14.048  0.00  0.00    +0.090 C 
ATOM      3  N   UNL     1       1.603   4.897 -13.177  0.00  0.00    -0.269 NA
ATOM      4  C   UNL     1       0.739   5.136 -12.052  0.00  0.00    +0.090 C 
ATOM      5  C   UNL     1       1.353   5.928 -10.953  0.00  0.00    +0.090 C 
ATOM      6  N   UNL     1       2.739   5.611 -10.763  0.00  0.00    -0.264 NA
ATOM      7  C   UNL     1       3.512   5.834 -11.987  0.00  0.00    +0.090 C 
ATOM      8  C   UNL     1       2.621   5.935 -13.204  0.00  0.00    +0.090 C 
ENDBRANCH   1   6
BRANCH   1   9
ATOM      9  C   UNL     1       3.340   6.040  -8.524  0.00  0.00    -0.004 A 
ATOM     10  C   UNL     1       3.259   6.881  -7.415  0.00  0.00    -0.002 A 
ATOM     11  C   UNL     1       2.513   6.595  -6.294  0.00  0.00    +0.011 A 
ATOM     12  C   UNL     1       1.775   5.417  -6.263  0.00  0.00    +0.058 A 
ATOM     13 CL   UNL     1       0.830   4.973  -4.846  0.00  0.00    -0.082 Cl
ATOM     14  C   UNL     1       1.452   4.890  -7.486  0.00  0.00    +0.011 A 
ATOM     15  C   UNL     1       2.313   5.097  -8.528  0.00  0.00    -0.002 A 
ENDBRANCH   1   9
BRANCH   1  16
ATOM     16  C   UNL     1       4.827   6.603 -10.344  0.00  0.00    -0.004 A 
ATOM     17  C   UNL     1       5.508   7.649 -10.861  0.00  0.00    -0.003 A 
ATOM     18  C   UNL     1       6.855   7.443 -11.136  0.00  0.00    -0.000 A 
ATOM     19  C   UNL     1       7.528   6.542 -10.331  0.00  0.00    -0.000 A 
ATOM     20  C   UNL     1       6.843   5.684  -9.483  0.00  0.00    -0.000 A 
ATOM     21  C   UNL     1       5.462   5.763  -9.460  0.00  0.00    -0.003 A 
ENDBRANCH   1  16
TORSDOF 3
ENDMDL
MODEL 7
REMARK VINA RESULT:      -7.1      1.605      4.366
REMARK  Name = 
REMARK  3 active torsions:
REMARK  status: ('A' for Active; 'I' for Inactive)
REMARK    1  A    between atoms: N_5  and  C_6
REMARK    2  A    between atoms: C_6  and  C_7
REMARK    3  A    between atoms: C_6  and  C_13
REMARK                            x       y       z     vdW  Elec       q    Type
REMARK                         _______ _______ _______ _____ _____    ______ ____
ROOT
ATOM      1  C   UNL     1       1.195   6.882  -5.009  0.00  0.00    +0.103 C 
ENDROOT
BRANCH   1   6
ATOM      2  C   UNL     1       4.255   4.890  -1.411  0.00  0.00    +0.090 C 
ATOM      3  N   UNL     1       3.447   5.066  -2.036  0.00  0.00    -0.269 NA
ATOM      4  C   UNL     1       3.746   4.696  -3.393  0.00  0.00    +0.090 C 
ATOM      5  C   UNL     1       2.971   5.435  -4.425  0.00  0.00    +0.090 C 
ATOM      6  N   UNL     1       1.621   5.691  -4.011  0.00  0.00    -0.264 NA
ATOM      7  C   UNL     1       1.580   6.453  -2.762  0.00  0.00    +0.090 C 
ATOM      8  C   UNL     1       2.905   6.416  -2.036  0.00  0.00    +0.090 C 
ENDBRANCH   1   6
BRANCH   1   9
ATOM      9  C   UNL     1       1.300   5.900  -6.338  0.00  0.00    -0.004 A 
ATOM     10  C   UNL     1       0.042   5.461  -6.748  0.00  0.00    -0.002 A 
ATOM     11  C   UNL     1      -0.352   5.400  -8.066  0.00  0.00    +0.011 A 
ATOM     12  C   UNL     1       0.536   5.821  -9.051  0.00  0.00    +0.058 A 
ATOM     13 CL   UNL     1       0.108   5.734 -10.757  0.00  0.00    -0.082 Cl
ATOM     14  C   UNL     1       1.503   6.698  -8.638  0.00  0.00    +0.011 A 
ATOM     15  C   UNL     1       1.950   6.609  -7.349  0.00  0.00    -0.002 A 
ENDBRANCH   1   9
BRANCH   1  16
ATOM     16  C   UNL     1      -0.409   6.591  -4.776  0.00  0.00    -0.004 A 
ATOM     17  C   UNL     1      -0.710   5.610  -3.897  0.00  0.00    -0.003 A 
ATOM     18  C   UNL     1      -2.059   5.404  -3.629  0.00  0.00    -0.000 A 
ATOM     19  C   UNL     1      -2.889   6.507  -3.706  0.00  0.00    -0.000 A 
ATOM     20  C   UNL     1      -2.460   7.690  -4.289  0.00  0.00    -0.000 A 
ATOM     21  C   UNL     1      -1.169   7.737  -4.784  0.00  0.00    -0.003 A 
ENDBRANCH   1  16
TORSDOF 3
ENDMDL
MODEL 8
REMARK VINA RESULT:      -7.0      3.108      5.643
REMARK  Name = 
REMARK  3 active torsions:
REMARK  status: ('A' for Active; 'I' for Inactive)
REMARK    1  A    between atoms: N_5  and  C_6
REMARK    2  A    between atoms: C_6  and  C_7
REMARK    3  A    between atoms: C_6  and  C_13
REMARK                            x       y       z     vdW  Elec       q    Type
REMARK                         _______ _______ _______ _____ _____    ______ ____
ROOT
ATOM      1  C   UNL     1       2.988   6.719  -8.614  0.00  0.00    +0.103 C 
ENDROOT
BRANCH   1   6
ATOM      2  C   UNL     1       2.365   5.411  -3.698  0.00  0.00    +0.090 C 
ATOM      3  N   UNL     1       2.446   5.368  -4.730  0.00  0.00    -0.269 NA
ATOM      4  C   UNL     1       3.802   5.587  -5.157  0.00  0.00    +0.090 C 
ATOM      5  C   UNL     1       3.940   6.150  -6.527  0.00  0.00    +0.090 C 
ATOM      6  N   UNL     1       2.958   5.626  -7.431  0.00  0.00    -0.264 NA
ATOM      7  C   UNL     1       1.598   5.885  -6.955  0.00  0.00    +0.090 C 
ATOM      8  C   UNL     1       1.576   6.253  -5.489  0.00  0.00    +0.090 C 
ENDBRANCH   1   6
BRANCH   1   9
ATOM      9  C   UNL     1       3.997   5.790  -9.542  0.00  0.00    -0.004 A 
ATOM     10  C   UNL     1       4.331   6.433 -10.733  0.00  0.00    -0.002 A 
ATOM     11  C   UNL     1       5.601   6.438 -11.265  0.00  0.00    +0.011 A 
ATOM     12  C   UNL     1       6.620   5.791 -10.575  0.00  0.00    +0.058 A 
ATOM     13 CL   UNL     1       8.258   5.728 -11.220  0.00  0.00    -0.082 Cl
ATOM     14  C   UNL     1       6.415   5.633  -9.230  0.00  0.00    +0.011 A 
ATOM     15  C   UNL     1       5.129   5.493  -8.784  0.00  0.00    -0.002 A 
ENDBRANCH   1   9
BRANCH   1  16
ATOM     16  C   UNL     1       1.615   6.116  -9.295  0.00  0.00    -0.004 A 
ATOM     17  C   UNL     1       0.948   6.953 -10.120  0.00  0.00    -0.003 A 
ATOM     18  C   UNL     1      -0.170   6.435 -10.765  0.00  0.00    -0.000 A 
ATOM     19  C   UNL     1      -0.155   5.084 -11.056  0.00  0.00    -0.000 A 
ATOM     20  C   UNL     1       0.788   4.237 -10.493  0.00  0.00    -0.000 A 
ATOM     21  C   UNL     1       1.723   4.788  -9.636  0.00  0.00    -0.003 A 
ENDBRANCH   1  16
TORSDOF 3
ENDMDL
MODEL 9
REMARK VINA RESULT:      -7.0      3.033      5.319
REMARK  Name = 
REMARK  3 active torsions:
REMARK  status: ('A' for Active; 'I' for Inactive)
REMARK    1  A    between atoms: N_5  and  C_6
REMARK    2  A    between atoms: C_6  and  C_7
REMARK    3  A    between atoms: C_6  and  C_13
REMARK                            x       y       z     vdW  Elec       q    Type
REMARK                         _______ _______ _______ _____ _____    ______ ____
ROOT
ATOM      1  C   UNL     1       2.139   6.829  -4.836  0.00  0.00    +0.103 C 
ENDROOT
BRANCH   1   6
ATOM      2  C   UNL     1       3.711   4.259  -8.982  0.00  0.00    +0.090 C 
ATOM      3  N   UNL     1       3.570   4.563  -8.001  0.00  0.00    -0.269 NA
ATOM      4  C   UNL     1       2.232   4.281  -7.554  0.00  0.00    +0.090 C 
ATOM      5  C   UNL     1       1.735   5.175  -6.475  0.00  0.00    +0.090 C 
ATOM      6  N   UNL     1       2.766   5.523  -5.540  0.00  0.00    -0.264 NA
ATOM      7  C   UNL     1       3.893   6.178  -6.207  0.00  0.00    +0.090 C 
ATOM      8  C   UNL     1       3.872   5.953  -7.701  0.00  0.00    +0.090 C 
ENDBRANCH   1   6
BRANCH   1   9
ATOM      9  C   UNL     1       0.668   6.098  -4.629  0.00  0.00    -0.004 A 
ATOM     10  C   UNL     1       0.479   5.697  -3.308  0.00  0.00    -0.002 A 
ATOM     11  C   UNL     1      -0.707   5.854  -2.626  0.00  0.00    +0.011 A 
ATOM     12  C   UNL     1      -1.775   6.468  -3.272  0.00  0.00    +0.058 A 
ATOM     13 CL   UNL     1      -3.330   6.666  -2.470  0.00  0.00    -0.082 Cl
ATOM     14  C   UNL     1      -1.441   7.290  -4.315  0.00  0.00    +0.011 A 
ATOM     15  C   UNL     1      -0.320   6.992  -5.040  0.00  0.00    -0.002 A 
ENDBRANCH   1   9
BRANCH   1  16
ATOM     16  C   UNL     1       2.701   6.380  -3.354  0.00  0.00    -0.004 A 
ATOM     17  C   UNL     1       3.368   5.206  -3.306  0.00  0.00    -0.003 A 
ATOM     18  C   UNL     1       3.918   4.849  -2.080  0.00  0.00    -0.000 A 
ATOM     19  C   UNL     1       4.321   5.879  -1.251  0.00  0.00    -0.000 A 
ATOM     20  C   UNL     1       3.947   7.191  -1.499  0.00  0.00    -0.000 A 
ATOM     21  C   UNL     1       3.162   7.441  -2.610  0.00  0.00    -0.003 A 
ENDBRANCH   1  16
TORSDOF 3
ENDMDL
