MODEL 1
REMARK VINA RESULT:      -7.9      0.000      0.000
REMARK  Name = 
REMARK  12 active torsions:
REMARK  status: ('A' for Active; 'I' for Inactive)
REMARK    1  A    between atoms: C_13  and  C_15
REMARK    2  A    between atoms: C_15  and  C_16
REMARK    3  A    between atoms: C_16  and  C_17
REMARK    4  A    between atoms: C_17  and  C_18
REMARK    5  A    between atoms: C_18  and  C_20
REMARK    6  A    between atoms: C_20  and  C_21
REMARK    7  A    between atoms: C_21  and  C_22
REMARK    8  A    between atoms: C_22  and  C_23
REMARK    9  A    between atoms: C_23  and  C_25
REMARK   10  A    between atoms: C_25  and  C_26
REMARK   11  A    between atoms: C_26  and  C_27
REMARK   12  A    between atoms: C_27  and  C_28
REMARK                            x       y       z     vdW  Elec       q    Type
REMARK                         _______ _______ _______ _____ _____    ______ ____
ROOT
ATOM      1  C   UNL     1       4.596   6.421  -4.511  0.00  0.00    +0.040 C 
ENDROOT
BRANCH   1  11
ATOM      2  C   UNL     1       4.028   6.295 -11.305  0.00  0.00    +0.034 C 
ATOM      3  C   UNL     1       3.621   5.828 -10.256  0.00  0.00    +0.016 A 
ATOM      4  C   UNL     1       2.263   5.935  -9.974  0.00  0.00    +0.187 A 
ATOM      5  O   UNL     1       1.453   6.797 -10.720  0.00  0.00    -0.287 OA
ATOM      6  C   UNL     1       1.718   5.404  -8.809  0.00  0.00    +0.016 A 
ATOM      7  C   UNL     1       0.241   5.343  -8.593  0.00  0.00    +0.034 C 
ATOM      8  C   UNL     1       2.557   5.128  -7.738  0.00  0.00    +0.011 A 
ATOM      9  C   UNL     1       2.003   4.535  -6.496  0.00  0.00    +0.033 C 
ATOM     10  C   UNL     1       2.995   4.666  -5.348  0.00  0.00    +0.045 C 
ATOM     11  C   UNL     1       3.846   5.863  -5.665  0.00  0.00    +0.133 C 
ATOM     12  O   UNL     1       4.666   5.510  -6.778  0.00  0.00    -0.483 OA
ATOM     13  C   UNL     1       2.927   6.976  -6.156  0.00  0.00    +0.044 C 
ATOM     14  C   UNL     1       3.933   5.192  -7.929  0.00  0.00    +0.130 A 
ATOM     15  C   UNL     1       4.420   5.361  -9.217  0.00  0.00    +0.011 A 
ATOM     16  C   UNL     1       5.881   5.625  -9.387  0.00  0.00    +0.034 C 
ENDBRANCH   1  11
BRANCH   1  17
ATOM     17  C   UNL     1       3.930   5.979  -3.246  0.00  0.00    +0.004 C 
BRANCH  17  18
ATOM     18  C   UNL     1       3.303   7.117  -2.452  0.00  0.00    +0.000 C 
BRANCH  18  19
ATOM     19  C   UNL     1       2.456   6.302  -1.302  0.00  0.00    +0.000 C 
ATOM     20  C   UNL     1       3.567   5.092  -1.218  0.00  0.00    +0.000 C 
BRANCH  19  21
ATOM     21  C   UNL     1       1.582   5.480  -2.422  0.00  0.00    +0.000 C 
BRANCH  21  22
ATOM     22  C   UNL     1       0.305   5.152  -1.714  0.00  0.00    +0.000 C 
BRANCH  22  23
ATOM     23  C   UNL     1       0.049   6.228  -0.705  0.00  0.00    +0.000 C 
BRANCH  23  24
ATOM     24  C   UNL     1      -1.299   7.025  -1.208  0.00  0.00    +0.000 C 
ATOM     25  C   UNL     1      -1.983   6.958   0.286  0.00  0.00    +0.000 C 
BRANCH  24  26
ATOM     26  C   UNL     1      -2.086   5.673  -1.704  0.00  0.00    +0.000 C 
BRANCH  26  27
ATOM     27  C   UNL     1      -3.119   5.993  -2.671  0.00  0.00    +0.000 C 
BRANCH  27  28
ATOM     28  C   UNL     1      -2.759   6.804  -3.863  0.00  0.00    +0.000 C 
BRANCH  28  29
ATOM     29  C   UNL     1      -1.799   6.073  -4.756  0.00  0.00    +0.000 C 
ATOM     30  C   UNL     1      -2.405   5.610  -6.047  0.00  0.00    +0.000 C 
ATOM     31  C   UNL     1      -0.624   6.978  -5.037  0.00  0.00    +0.000 C 
ENDBRANCH  28  29
ENDBRANCH  27  28
ENDBRANCH  26  27
ENDBRANCH  24  26
ENDBRANCH  23  24
ENDBRANCH  22  23
ENDBRANCH  21  22
ENDBRANCH  19  21
ENDBRANCH  18  19
ENDBRANCH  17  18
ENDBRANCH   1  17
TORSDOF 12
ENDMDL
MODEL 2
REMARK VINA RESULT:      -7.8      2.530      9.597
REMARK  Name = 
REMARK  12 active torsions:
REMARK  status: ('A' for Active; 'I' for Inactive)
REMARK    1  A    between atoms: C_13  and  C_15
REMARK    2  A    between atoms: C_15  and  C_16
REMARK    3  A    between atoms: C_16  and  C_17
REMARK    4  A    between atoms: C_17  and  C_18
REMARK    5  A    between atoms: C_18  and  C_20
REMARK    6  A    between atoms: C_20  and  C_21
REMARK    7  A    between atoms: C_21  and  C_22
REMARK    8  A    between atoms: C_22  and  C_23
REMARK    9  A    between atoms: C_23  and  C_25
REMARK   10  A    between atoms: C_25  and  C_26
REMARK   11  A    between atoms: C_26  and  C_27
REMARK   12  A    between atoms: C_27  and  C_28
REMARK                            x       y       z     vdW  Elec       q    Type
REMARK                         _______ _______ _______ _____ _____    ______ ____
ROOT
ATOM      1  C   UNL     1      -0.048   6.317 -10.933  0.00  0.00    +0.040 C 
ENDROOT
BRANCH   1  11
ATOM      2  C   UNL     1      -0.143   6.530  -4.118  0.00  0.00    +0.034 C 
ATOM      3  C   UNL     1       0.368   6.018  -5.098  0.00  0.00    +0.016 A 
ATOM      4  C   UNL     1       1.746   6.127  -5.253  0.00  0.00    +0.187 A 
ATOM      5  O   UNL     1       2.473   7.035  -4.475  0.00  0.00    -0.287 OA
ATOM      6  C   UNL     1       2.405   5.546  -6.331  0.00  0.00    +0.016 A 
ATOM      7  C   UNL     1       3.897   5.493  -6.400  0.00  0.00    +0.034 C 
ATOM      8  C   UNL     1       1.677   5.208  -7.463  0.00  0.00    +0.011 A 
ATOM      9  C   UNL     1       2.354   4.561  -8.615  0.00  0.00    +0.033 C 
ATOM     10  C   UNL     1       1.477   4.625  -9.859  0.00  0.00    +0.045 C 
ATOM     11  C   UNL     1       0.590   5.825  -9.686  0.00  0.00    +0.133 C 
ATOM     12  O   UNL     1      -0.331   5.517  -8.641  0.00  0.00    -0.483 OA
ATOM     13  C   UNL     1       1.449   6.971  -9.164  0.00  0.00    +0.044 C 
ATOM     14  C   UNL     1       0.289   5.265  -7.410  0.00  0.00    +0.130 A 
ATOM     15  C   UNL     1      -0.323   5.490  -6.185  0.00  0.00    +0.011 A 
ATOM     16  C   UNL     1      -1.796   5.745  -6.171  0.00  0.00    +0.034 C 
ENDBRANCH   1  11
BRANCH   1  17
ATOM     17  C   UNL     1       0.737   5.814 -12.104  0.00  0.00    +0.004 C 
BRANCH  17  18
ATOM     18  C   UNL     1       0.991   6.869 -13.173  0.00  0.00    +0.000 C 
BRANCH  18  19
ATOM     19  C   UNL     1       2.047   6.097 -14.169  0.00  0.00    +0.000 C 
ATOM     20  C   UNL     1       1.317   4.639 -13.954  0.00  0.00    +0.000 C 
BRANCH  19  21
ATOM     21  C   UNL     1       3.099   5.799 -12.945  0.00  0.00    +0.000 C 
BRANCH  21  22
ATOM     22  C   UNL     1       4.263   5.145 -13.621  0.00  0.00    +0.000 C 
BRANCH  22  23
ATOM     23  C   UNL     1       4.793   6.096 -14.648  0.00  0.00    +0.000 C 
BRANCH  23  24
ATOM     24  C   UNL     1       6.054   6.883 -13.944  0.00  0.00    +0.000 C 
ATOM     25  C   UNL     1       6.881   6.975 -15.363  0.00  0.00    +0.000 C 
BRANCH  24  26
ATOM     26  C   UNL     1       6.841   5.515 -13.495  0.00  0.00    +0.000 C 
BRANCH  26  27
ATOM     27  C   UNL     1       7.637   5.736 -12.303  0.00  0.00    +0.000 C 
BRANCH  27  28
ATOM     28  C   UNL     1       7.123   6.659 -11.258  0.00  0.00    +0.000 C 
BRANCH  28  29
ATOM     29  C   UNL     1       6.023   6.024 -10.457  0.00  0.00    +0.000 C 
ATOM     30  C   UNL     1       6.462   5.532  -9.109  0.00  0.00    +0.000 C 
ATOM     31  C   UNL     1       4.907   7.027 -10.298  0.00  0.00    +0.000 C 
ENDBRANCH  28  29
ENDBRANCH  27  28
ENDBRANCH  26  27
ENDBRANCH  24  26
ENDBRANCH  23  24
ENDBRANCH  22  23
ENDBRANCH  21  22
ENDBRANCH  19  21
ENDBRANCH  18  19
ENDBRANCH  17  18
ENDBRANCH   1  17
TORSDOF 12
ENDMDL
MODEL 3
REMARK VINA RESULT:      -7.5      1.552      4.247
REMARK  Name = 
REMARK  12 active torsions:
REMARK  status: ('A' for Active; 'I' for Inactive)
REMARK    1  A    between atoms: C_13  and  C_15
REMARK    2  A    between atoms: C_15  and  C_16
REMARK    3  A    between atoms: C_16  and  C_17
REMARK    4  A    between atoms: C_17  and  C_18
REMARK    5  A    between atoms: C_18  and  C_20
REMARK    6  A    between atoms: C_20  and  C_21
REMARK    7  A    between atoms: C_21  and  C_22
REMARK    8  A    between atoms: C_22  and  C_23
REMARK    9  A    between atoms: C_23  and  C_25
REMARK   10  A    between atoms: C_25  and  C_26
REMARK   11  A    between atoms: C_26  and  C_27
REMARK   12  A    between atoms: C_27  and  C_28
REMARK                            x       y       z     vdW  Elec       q    Type
REMARK                         _______ _______ _______ _____ _____    ______ ____
ROOT
ATOM      1  C   UNL     1      -0.044   5.025  -6.242  0.00  0.00    +0.040 C 
ENDROOT
BRANCH   1  11
ATOM      2  C   UNL     1       1.844   5.915 -12.734  0.00  0.00    +0.034 C 
ATOM      3  C   UNL     1       2.059   6.225 -11.576  0.00  0.00    +0.016 A 
ATOM      4  C   UNL     1       3.329   5.993 -11.060  0.00  0.00    +0.187 A 
ATOM      5  O   UNL     1       4.230   5.171 -11.746  0.00  0.00    -0.287 OA
ATOM      6  C   UNL     1       3.659   6.344  -9.755  0.00  0.00    +0.016 A 
ATOM      7  C   UNL     1       5.067   6.277  -9.258  0.00  0.00    +0.034 C 
ATOM      8  C   UNL     1       2.641   6.548  -8.834  0.00  0.00    +0.011 A 
ATOM      9  C   UNL     1       2.969   6.951  -7.443  0.00  0.00    +0.033 C 
ATOM     10  C   UNL     1       1.767   6.753  -6.529  0.00  0.00    +0.045 C 
ATOM     11  C   UNL     1       0.941   5.663  -7.153  0.00  0.00    +0.133 C 
ATOM     12  O   UNL     1       0.371   6.201  -8.345  0.00  0.00    -0.483 OA
ATOM     13  C   UNL     1       1.887   4.556  -7.602  0.00  0.00    +0.044 C 
ATOM     14  C   UNL     1       1.328   6.602  -9.287  0.00  0.00    +0.130 A 
ATOM     15  C   UNL     1       1.094   6.620 -10.654  0.00  0.00    +0.011 A 
ATOM     16  C   UNL     1      -0.316   6.479 -11.128  0.00  0.00    +0.034 C 
ENDBRANCH   1  11
BRANCH   1  17
ATOM     17  C   UNL     1      -1.420   5.274  -6.774  0.00  0.00    +0.004 C 
BRANCH  17  18
ATOM     18  C   UNL     1      -2.250   6.217  -5.913  0.00  0.00    +0.000 C 
BRANCH  18  19
ATOM     19  C   UNL     1      -1.700   5.871  -4.402  0.00  0.00    +0.000 C 
ATOM     20  C   UNL     1      -3.096   5.115  -3.973  0.00  0.00    +0.000 C 
BRANCH  19  21
ATOM     21  C   UNL     1      -2.239   7.299  -3.798  0.00  0.00    +0.000 C 
BRANCH  21  22
ATOM     22  C   UNL     1      -2.801   6.936  -2.460  0.00  0.00    +0.000 C 
BRANCH  22  23
ATOM     23  C   UNL     1      -1.832   7.392  -1.413  0.00  0.00    +0.000 C 
BRANCH  23  24
ATOM     24  C   UNL     1      -1.392   6.049  -0.573  0.00  0.00    +0.000 C 
ATOM     25  C   UNL     1      -1.554   6.814   0.874  0.00  0.00    +0.000 C 
BRANCH  24  26
ATOM     26  C   UNL     1       0.217   6.363  -0.637  0.00  0.00    +0.000 C 
BRANCH  26  27
ATOM     27  C   UNL     1       0.890   5.463  -1.555  0.00  0.00    +0.000 C 
BRANCH  27  28
ATOM     28  C   UNL     1       1.385   5.998  -2.850  0.00  0.00    +0.000 C 
BRANCH  28  29
ATOM     29  C   UNL     1       2.873   5.840  -2.978  0.00  0.00    +0.000 C 
ATOM     30  C   UNL     1       3.613   7.139  -3.086  0.00  0.00    +0.000 C 
ATOM     31  C   UNL     1       3.375   5.061  -1.786  0.00  0.00    +0.000 C 
ENDBRANCH  28  29
ENDBRANCH  27  28
ENDBRANCH  26  27
ENDBRANCH  24  26
ENDBRANCH  23  24
ENDBRANCH  22  23
ENDBRANCH  21  22
ENDBRANCH  19  21
ENDBRANCH  18  19
ENDBRANCH  17  18
ENDBRANCH   1  17
TORSDOF 12
ENDMDL
MODEL 4
REMARK VINA RESULT:      -7.4      1.684      3.201
REMARK  Name = 
REMARK  12 active torsions:
REMARK  status: ('A' for Active; 'I' for Inactive)
REMARK    1  A    between atoms: C_13  and  C_15
REMARK    2  A    between atoms: C_15  and  C_16
REMARK    3  A    between atoms: C_16  and  C_17
REMARK    4  A    between atoms: C_17  and  C_18
REMARK    5  A    between atoms: C_18  and  C_20
REMARK    6  A    between atoms: C_20  and  C_21
REMARK    7  A    between atoms: C_21  and  C_22
REMARK    8  A    between atoms: C_22  and  C_23
REMARK    9  A    between atoms: C_23  and  C_25
REMARK   10  A    between atoms: C_25  and  C_26
REMARK   11  A    between atoms: C_26  and  C_27
REMARK   12  A    between atoms: C_27  and  C_28
REMARK                            x       y       z     vdW  Elec       q    Type
REMARK                         _______ _______ _______ _____ _____    ______ ____
ROOT
ATOM      1  C   UNL     1       3.073   6.826  -6.907  0.00  0.00    +0.040 C 
ENDROOT
BRANCH   1  11
ATOM      2  C   UNL     1       7.782   6.394 -11.821  0.00  0.00    +0.034 C 
ATOM      3  C   UNL     1       6.712   5.975 -11.418  0.00  0.00    +0.016 A 
ATOM      4  C   UNL     1       5.605   6.092 -12.253  0.00  0.00    +0.187 A 
ATOM      5  O   UNL     1       5.656   6.918 -13.380  0.00  0.00    -0.287 OA
ATOM      6  C   UNL     1       4.355   5.612 -11.875  0.00  0.00    +0.016 A 
ATOM      7  C   UNL     1       3.213   5.559 -12.838  0.00  0.00    +0.034 C 
ATOM      8  C   UNL     1       4.099   5.387 -10.530  0.00  0.00    +0.011 A 
ATOM      9  C   UNL     1       2.782   4.849 -10.106  0.00  0.00    +0.033 C 
ATOM     10  C   UNL     1       2.583   5.033  -8.607  0.00  0.00    +0.045 C 
ATOM     11  C   UNL     1       3.423   6.216  -8.215  0.00  0.00    +0.133 C 
ATOM     12  O   UNL     1       4.787   5.814  -8.326  0.00  0.00    -0.483 OA
ATOM     13  C   UNL     1       3.219   7.304  -9.263  0.00  0.00    +0.044 C 
ATOM     14  C   UNL     1       5.155   5.444  -9.627  0.00  0.00    +0.130 A 
ATOM     15  C   UNL     1       6.447   5.556 -10.118  0.00  0.00    +0.011 A 
ATOM     16  C   UNL     1       7.550   5.814  -9.143  0.00  0.00    +0.034 C 
ENDBRANCH   1  11
BRANCH   1  17
ATOM     17  C   UNL     1       4.059   6.363  -5.882  0.00  0.00    +0.004 C 
BRANCH  17  18
ATOM     18  C   UNL     1       4.200   7.306  -4.694  0.00  0.00    +0.000 C 
BRANCH  18  19
ATOM     19  C   UNL     1       5.283   6.504  -3.751  0.00  0.00    +0.000 C 
ATOM     20  C   UNL     1       4.729   5.028  -4.220  0.00  0.00    +0.000 C 
BRANCH  19  21
ATOM     21  C   UNL     1       4.276   6.518  -2.455  0.00  0.00    +0.000 C 
BRANCH  21  22
ATOM     22  C   UNL     1       3.917   5.078  -2.262  0.00  0.00    +0.000 C 
BRANCH  22  23
ATOM     23  C   UNL     1       2.647   5.022  -1.471  0.00  0.00    +0.000 C 
BRANCH  23  24
ATOM     24  C   UNL     1       1.724   6.281  -1.987  0.00  0.00    +0.000 C 
ATOM     25  C   UNL     1       0.807   6.261  -0.622  0.00  0.00    +0.000 C 
BRANCH  24  26
ATOM     26  C   UNL     1       0.651   5.346  -2.804  0.00  0.00    +0.000 C 
BRANCH  26  27
ATOM     27  C   UNL     1       0.868   5.429  -4.236  0.00  0.00    +0.000 C 
BRANCH  27  28
ATOM     28  C   UNL     1       0.047   6.378  -5.032  0.00  0.00    +0.000 C 
BRANCH  28  29
ATOM     29  C   UNL     1      -1.180   5.713  -5.586  0.00  0.00    +0.000 C 
ATOM     30  C   UNL     1      -2.414   6.561  -5.512  0.00  0.00    +0.000 C 
ATOM     31  C   UNL     1      -0.908   5.327  -7.020  0.00  0.00    +0.000 C 
ENDBRANCH  28  29
ENDBRANCH  27  28
ENDBRANCH  26  27
ENDBRANCH  24  26
ENDBRANCH  23  24
ENDBRANCH  22  23
ENDBRANCH  21  22
ENDBRANCH  19  21
ENDBRANCH  18  19
ENDBRANCH  17  18
ENDBRANCH   1  17
TORSDOF 12
ENDMDL
MODEL 5
REMARK VINA RESULT:      -7.4      2.183      8.779
REMARK  Name = 
REMARK  12 active torsions:
REMARK  status: ('A' for Active; 'I' for Inactive)
REMARK    1  A    between atoms: C_13  and  C_15
REMARK    2  A    between atoms: C_15  and  C_16
REMARK    3  A    between atoms: C_16  and  C_17
REMARK    4  A    between atoms: C_17  and  C_18
REMARK    5  A    between atoms: C_18  and  C_20
REMARK    6  A    between atoms: C_20  and  C_21
REMARK    7  A    between atoms: C_21  and  C_22
REMARK    8  A    between atoms: C_22  and  C_23
REMARK    9  A    between atoms: C_23  and  C_25
REMARK   10  A    between atoms: C_25  and  C_26
REMARK   11  A    between atoms: C_26  and  C_27
REMARK   12  A    between atoms: C_27  and  C_28
REMARK                            x       y       z     vdW  Elec       q    Type
REMARK                         _______ _______ _______ _____ _____    ______ ____
ROOT
ATOM      1  C   UNL     1      -0.302   5.743  -7.713  0.00  0.00    +0.040 C 
ENDROOT
BRANCH   1  11
ATOM      2  C   UNL     1       0.961   6.552  -1.060  0.00  0.00    +0.034 C 
ATOM      3  C   UNL     1       1.307   5.993  -2.086  0.00  0.00    +0.016 A 
ATOM      4  C   UNL     1       2.610   6.187  -2.531  0.00  0.00    +0.187 A 
ATOM      5  O   UNL     1       3.395   7.210  -1.990  0.00  0.00    -0.287 OA
ATOM      6  C   UNL     1       3.087   5.561  -3.679  0.00  0.00    +0.016 A 
ATOM      7  C   UNL     1       4.533   5.610  -4.053  0.00  0.00    +0.034 C 
ATOM      8  C   UNL     1       2.179   5.073  -4.607  0.00  0.00    +0.011 A 
ATOM      9  C   UNL     1       2.664   4.377  -5.825  0.00  0.00    +0.033 C 
ATOM     10  C   UNL     1       1.552   4.267  -6.860  0.00  0.00    +0.045 C 
ATOM     11  C   UNL     1       0.615   5.410  -6.593  0.00  0.00    +0.133 C 
ATOM     12  O   UNL     1      -0.045   5.131  -5.360  0.00  0.00    -0.483 OA
ATOM     13  C   UNL     1       1.457   6.658  -6.346  0.00  0.00    +0.044 C 
ATOM     14  C   UNL     1       0.830   5.034  -4.270  0.00  0.00    +0.130 A 
ATOM     15  C   UNL     1       0.460   5.323  -2.964  0.00  0.00    +0.011 A 
ATOM     16  C   UNL     1      -0.996   5.471  -2.662  0.00  0.00    +0.034 C 
ENDBRANCH   1  11
BRANCH   1  17
ATOM     17  C   UNL     1       0.399   5.468  -9.006  0.00  0.00    +0.004 C 
BRANCH  17  18
ATOM     18  C   UNL     1       0.389   6.645  -9.973  0.00  0.00    +0.000 C 
BRANCH  18  19
ATOM     19  C   UNL     1       1.229   6.041 -11.251  0.00  0.00    +0.000 C 
ATOM     20  C   UNL     1       0.539   4.554 -11.113  0.00  0.00    +0.000 C 
BRANCH  19  21
ATOM     21  C   UNL     1       2.492   5.591 -10.304  0.00  0.00    +0.000 C 
BRANCH  21  22
ATOM     22  C   UNL     1       3.680   6.212 -10.968  0.00  0.00    +0.000 C 
BRANCH  22  23
ATOM     23  C   UNL     1       4.658   6.593  -9.900  0.00  0.00    +0.000 C 
BRANCH  23  24
ATOM     24  C   UNL     1       5.597   5.269  -9.639  0.00  0.00    +0.000 C 
ATOM     25  C   UNL     1       5.226   5.234  -8.037  0.00  0.00    +0.000 C 
BRANCH  24  26
ATOM     26  C   UNL     1       6.973   6.122  -9.371  0.00  0.00    +0.000 C 
BRANCH  26  27
ATOM     27  C   UNL     1       7.418   6.791 -10.579  0.00  0.00    +0.000 C 
BRANCH  27  28
ATOM     28  C   UNL     1       8.054   5.984 -11.653  0.00  0.00    +0.000 C 
BRANCH  28  29
ATOM     29  C   UNL     1       7.558   6.387 -13.011  0.00  0.00    +0.000 C 
ATOM     30  C   UNL     1       6.911   5.271 -13.775  0.00  0.00    +0.000 C 
ATOM     31  C   UNL     1       6.582   7.527 -12.844  0.00  0.00    +0.000 C 
ENDBRANCH  28  29
ENDBRANCH  27  28
ENDBRANCH  26  27
ENDBRANCH  24  26
ENDBRANCH  23  24
ENDBRANCH  22  23
ENDBRANCH  21  22
ENDBRANCH  19  21
ENDBRANCH  18  19
ENDBRANCH  17  18
ENDBRANCH   1  17
TORSDOF 12
ENDMDL
MODEL 6
REMARK VINA RESULT:      -7.2      1.411      2.726
REMARK  Name = 
REMARK  12 active torsions:
REMARK  status: ('A' for Active; 'I' for Inactive)
REMARK    1  A    between atoms: C_13  and  C_15
REMARK    2  A    between atoms: C_15  and  C_16
REMARK    3  A    between atoms: C_16  and  C_17
REMARK    4  A    between atoms: C_17  and  C_18
REMARK    5  A    between atoms: C_18  and  C_20
REMARK    6  A    between atoms: C_20  and  C_21
REMARK    7  A    between atoms: C_21  and  C_22
REMARK    8  A    between atoms: C_22  and  C_23
REMARK    9  A    between atoms: C_23  and  C_25
REMARK   10  A    between atoms: C_25  and  C_26
REMARK   11  A    between atoms: C_26  and  C_27
REMARK   12  A    between atoms: C_27  and  C_28
REMARK                            x       y       z     vdW  Elec       q    Type
REMARK                         _______ _______ _______ _____ _____    ______ ____
ROOT
ATOM      1  C   UNL     1       0.604   6.436  -7.143  0.00  0.00    +0.040 C 
ENDROOT
BRANCH   1  11
ATOM      2  C   UNL     1       6.857   5.962  -9.821  0.00  0.00    +0.034 C 
ATOM      3  C   UNL     1       5.683   5.668  -9.957  0.00  0.00    +0.016 A 
ATOM      4  C   UNL     1       5.033   6.080 -11.115  0.00  0.00    +0.187 A 
ATOM      5  O   UNL     1       5.616   7.041 -11.947  0.00  0.00    -0.287 OA
ATOM      6  C   UNL     1       3.701   5.759 -11.355  0.00  0.00    +0.016 A 
ATOM      7  C   UNL     1       3.056   6.029 -12.676  0.00  0.00    +0.034 C 
ATOM      8  C   UNL     1       2.895   5.386 -10.289  0.00  0.00    +0.011 A 
ATOM      9  C   UNL     1       1.478   5.012 -10.524  0.00  0.00    +0.033 C 
ATOM     10  C   UNL     1       0.698   5.009  -9.216  0.00  0.00    +0.045 C 
ATOM     11  C   UNL     1       1.404   5.971  -8.304  0.00  0.00    +0.133 C 
ATOM     12  O   UNL     1       2.652   5.376  -7.953  0.00  0.00    -0.483 OA
ATOM     13  C   UNL     1       1.747   7.218  -9.113  0.00  0.00    +0.044 C 
ATOM     14  C   UNL     1       3.487   5.142  -9.054  0.00  0.00    +0.130 A 
ATOM     15  C   UNL     1       4.871   5.114  -8.972  0.00  0.00    +0.011 A 
ATOM     16  C   UNL     1       5.494   5.048  -7.615  0.00  0.00    +0.034 C 
ENDBRANCH   1  11
BRANCH   1  17
ATOM     17  C   UNL     1       1.537   6.935  -6.085  0.00  0.00    +0.004 C 
BRANCH  17  18
ATOM     18  C   UNL     1       1.353   6.258  -4.734  0.00  0.00    +0.000 C 
BRANCH  18  19
ATOM     19  C   UNL     1       2.727   6.696  -3.944  0.00  0.00    +0.000 C 
ATOM     20  C   UNL     1       3.325   5.164  -3.955  0.00  0.00    +0.000 C 
BRANCH  19  21
ATOM     21  C   UNL     1       2.043   6.464  -2.470  0.00  0.00    +0.000 C 
BRANCH  21  22
ATOM     22  C   UNL     1       0.993   5.429  -2.719  0.00  0.00    +0.000 C 
BRANCH  22  23
ATOM     23  C   UNL     1       0.174   5.294  -1.472  0.00  0.00    +0.000 C 
BRANCH  23  24
ATOM     24  C   UNL     1      -0.819   6.604  -1.426  0.00  0.00    +0.000 C 
ATOM     25  C   UNL     1      -0.777   6.666   0.217  0.00  0.00    +0.000 C 
BRANCH  24  26
ATOM     26  C   UNL     1      -2.207   5.729  -1.426  0.00  0.00    +0.000 C 
BRANCH  26  27
ATOM     27  C   UNL     1      -3.073   6.121  -2.521  0.00  0.00    +0.000 C 
BRANCH  27  28
ATOM     28  C   UNL     1      -3.081   5.299  -3.759  0.00  0.00    +0.000 C 
BRANCH  28  29
ATOM     29  C   UNL     1      -2.235   5.917  -4.835  0.00  0.00    +0.000 C 
ATOM     30  C   UNL     1      -2.595   5.470  -6.220  0.00  0.00    +0.000 C 
ATOM     31  C   UNL     1      -2.353   7.418  -4.733  0.00  0.00    +0.000 C 
ENDBRANCH  28  29
ENDBRANCH  27  28
ENDBRANCH  26  27
ENDBRANCH  24  26
ENDBRANCH  23  24
ENDBRANCH  22  23
ENDBRANCH  21  22
ENDBRANCH  19  21
ENDBRANCH  18  19
ENDBRANCH  17  18
ENDBRANCH   1  17
TORSDOF 12
ENDMDL
MODEL 7
REMARK VINA RESULT:      -7.1      2.236      5.467
REMARK  Name = 
REMARK  12 active torsions:
REMARK  status: ('A' for Active; 'I' for Inactive)
REMARK    1  A    between atoms: C_13  and  C_15
REMARK    2  A    between atoms: C_15  and  C_16
REMARK    3  A    between atoms: C_16  and  C_17
REMARK    4  A    between atoms: C_17  and  C_18
REMARK    5  A    between atoms: C_18  and  C_20
REMARK    6  A    between atoms: C_20  and  C_21
REMARK    7  A    between atoms: C_21  and  C_22
REMARK    8  A    between atoms: C_22  and  C_23
REMARK    9  A    between atoms: C_23  and  C_25
REMARK   10  A    between atoms: C_25  and  C_26
REMARK   11  A    between atoms: C_26  and  C_27
REMARK   12  A    between atoms: C_27  and  C_28
REMARK                            x       y       z     vdW  Elec       q    Type
REMARK                         _______ _______ _______ _____ _____    ______ ____
ROOT
ATOM      1  C   UNL     1      -0.133   5.300  -8.270  0.00  0.00    +0.040 C 
ENDROOT
BRANCH   1  11
ATOM      2  C   UNL     1       3.285   5.188 -14.169  0.00  0.00    +0.034 C 
ATOM      3  C   UNL     1       3.205   5.698 -13.067  0.00  0.00    +0.016 A 
ATOM      4  C   UNL     1       4.312   5.624 -12.227  0.00  0.00    +0.187 A 
ATOM      5  O   UNL     1       5.362   4.748 -12.521  0.00  0.00    -0.287 OA
ATOM      6  C   UNL     1       4.307   6.206 -10.964  0.00  0.00    +0.016 A 
ATOM      7  C   UNL     1       5.550   6.298 -10.139  0.00  0.00    +0.034 C 
ATOM      8  C   UNL     1       3.092   6.507 -10.365  0.00  0.00    +0.011 A 
ATOM      9  C   UNL     1       3.062   7.154  -9.030  0.00  0.00    +0.033 C 
ATOM     10  C   UNL     1       1.674   7.049  -8.412  0.00  0.00    +0.045 C 
ATOM     11  C   UNL     1       1.039   5.828  -9.014  0.00  0.00    +0.133 C 
ATOM     12  O   UNL     1       0.774   6.127 -10.384  0.00  0.00    -0.483 OA
ATOM     13  C   UNL     1       2.078   4.713  -9.020  0.00  0.00    +0.044 C 
ATOM     14  C   UNL     1       1.929   6.414 -11.123  0.00  0.00    +0.130 A 
ATOM     15  C   UNL     1       2.039   6.190 -12.488  0.00  0.00    +0.011 A 
ATOM     16  C   UNL     1       0.791   5.897 -13.255  0.00  0.00    +0.034 C 
ENDBRANCH   1  11
BRANCH   1  17
ATOM     17  C   UNL     1      -0.137   5.894  -6.897  0.00  0.00    +0.004 C 
BRANCH  17  18
ATOM     18  C   UNL     1       0.259   4.914  -5.801  0.00  0.00    +0.000 C 
BRANCH  18  19
ATOM     19  C   UNL     1      -0.142   5.745  -4.440  0.00  0.00    +0.000 C 
ATOM     20  C   UNL     1      -0.193   7.186  -5.231  0.00  0.00    +0.000 C 
BRANCH  19  21
ATOM     21  C   UNL     1       1.430   5.977  -4.029  0.00  0.00    +0.000 C 
BRANCH  21  22
ATOM     22  C   UNL     1       2.128   4.771  -4.574  0.00  0.00    +0.000 C 
BRANCH  22  23
ATOM     23  C   UNL     1       3.600   5.044  -4.560  0.00  0.00    +0.000 C 
BRANCH  23  24
ATOM     24  C   UNL     1       3.828   6.396  -5.467  0.00  0.00    +0.000 C 
ATOM     25  C   UNL     1       4.755   5.591  -6.562  0.00  0.00    +0.000 C 
BRANCH  24  26
ATOM     26  C   UNL     1       5.143   6.909  -4.629  0.00  0.00    +0.000 C 
BRANCH  26  27
ATOM     27  C   UNL     1       4.775   7.888  -3.624  0.00  0.00    +0.000 C 
BRANCH  27  28
ATOM     28  C   UNL     1       4.792   7.488  -2.193  0.00  0.00    +0.000 C 
BRANCH  28  29
ATOM     29  C   UNL     1       3.476   7.771  -1.527  0.00  0.00    +0.000 C 
ATOM     30  C   UNL     1       2.959   6.631  -0.701  0.00  0.00    +0.000 C 
ATOM     31  C   UNL     1       3.632   9.000  -0.665  0.00  0.00    +0.000 C 
ENDBRANCH  28  29
ENDBRANCH  27  28
ENDBRANCH  26  27
ENDBRANCH  24  26
ENDBRANCH  23  24
ENDBRANCH  22  23
ENDBRANCH  21  22
ENDBRANCH  19  21
ENDBRANCH  18  19
ENDBRANCH  17  18
ENDBRANCH   1  17
TORSDOF 12
ENDMDL
MODEL 8
REMARK VINA RESULT:      -7.0      1.893      3.555
REMARK  Name = 
REMARK  12 active torsions:
REMARK  status: ('A' for Active; 'I' for Inactive)
REMARK    1  A    between atoms: C_13  and  C_15
REMARK    2  A    between atoms: C_15  and  C_16
REMARK    3  A    between atoms: C_16  and  C_17
REMARK    4  A    between atoms: C_17  and  C_18
REMARK    5  A    between atoms: C_18  and  C_20
REMARK    6  A    between atoms: C_20  and  C_21
REMARK    7  A    between atoms: C_21  and  C_22
REMARK    8  A    between atoms: C_22  and  C_23
REMARK    9  A    between atoms: C_23  and  C_25
REMARK   10  A    between atoms: C_25  and  C_26
REMARK   11  A    between atoms: C_26  and  C_27
REMARK   12  A    between atoms: C_27  and  C_28
REMARK                            x       y       z     vdW  Elec       q    Type
REMARK                         _______ _______ _______ _____ _____    ______ ____
ROOT
ATOM      1  C   UNL     1       0.784   5.848  -7.617  0.00  0.00    +0.040 C 
ENDROOT
BRANCH   1  11
ATOM      2  C   UNL     1       0.947   6.019 -14.432  0.00  0.00    +0.034 C 
ATOM      3  C   UNL     1       1.565   6.249 -13.408  0.00  0.00    +0.016 A 
ATOM      4  C   UNL     1       2.789   5.614 -13.225  0.00  0.00    +0.187 A 
ATOM      5  O   UNL     1       3.155   4.537 -14.039  0.00  0.00    -0.287 OA
ATOM      6  C   UNL     1       3.567   5.847 -12.095  0.00  0.00    +0.016 A 
ATOM      7  C   UNL     1       4.962   5.323 -11.983  0.00  0.00    +0.034 C 
ATOM      8  C   UNL     1       2.967   6.381 -10.963  0.00  0.00    +0.011 A 
ATOM      9  C   UNL     1       3.782   6.664  -9.755  0.00  0.00    +0.033 C 
ATOM     10  C   UNL     1       2.888   6.880  -8.541  0.00  0.00    +0.045 C 
ATOM     11  C   UNL     1       1.621   6.119  -8.814  0.00  0.00    +0.133 C 
ATOM     12  O   UNL     1       0.938   6.806  -9.861  0.00  0.00    -0.483 OA
ATOM     13  C   UNL     1       2.005   4.758  -9.384  0.00  0.00    +0.044 C 
ATOM     14  C   UNL     1       1.666   6.862 -11.057  0.00  0.00    +0.130 A 
ATOM     15  C   UNL     1       1.074   6.946 -12.309  0.00  0.00    +0.011 A 
ATOM     16  C   UNL     1      -0.382   7.274 -12.378  0.00  0.00    +0.034 C 
ENDBRANCH   1  11
BRANCH   1  17
ATOM     17  C   UNL     1       1.351   6.599  -6.454  0.00  0.00    +0.004 C 
BRANCH  17  18
ATOM     18  C   UNL     1       1.441   5.776  -5.175  0.00  0.00    +0.000 C 
BRANCH  18  19
ATOM     19  C   UNL     1       2.617   6.568  -4.343  0.00  0.00    +0.000 C 
ATOM     20  C   UNL     1       3.391   5.173  -3.941  0.00  0.00    +0.000 C 
BRANCH  19  21
ATOM     21  C   UNL     1       1.753   6.541  -2.948  0.00  0.00    +0.000 C 
BRANCH  21  22
ATOM     22  C   UNL     1       0.844   5.363  -3.110  0.00  0.00    +0.000 C 
BRANCH  22  23
ATOM     23  C   UNL     1       0.105   5.172  -1.822  0.00  0.00    +0.000 C 
BRANCH  23  24
ATOM     24  C   UNL     1      -0.787   6.534  -1.592  0.00  0.00    +0.000 C 
ATOM     25  C   UNL     1      -0.589   6.475   0.039  0.00  0.00    +0.000 C 
BRANCH  24  26
ATOM     26  C   UNL     1      -2.226   5.751  -1.515  0.00  0.00    +0.000 C 
BRANCH  26  27
ATOM     27  C   UNL     1      -3.083   6.119  -2.626  0.00  0.00    +0.000 C 
BRANCH  27  28
ATOM     28  C   UNL     1      -3.049   5.296  -3.863  0.00  0.00    +0.000 C 
BRANCH  28  29
ATOM     29  C   UNL     1      -2.229   5.949  -4.937  0.00  0.00    +0.000 C 
ATOM     30  C   UNL     1      -2.633   5.561  -6.328  0.00  0.00    +0.000 C 
ATOM     31  C   UNL     1      -2.332   7.446  -4.772  0.00  0.00    +0.000 C 
ENDBRANCH  28  29
ENDBRANCH  27  28
ENDBRANCH  26  27
ENDBRANCH  24  26
ENDBRANCH  23  24
ENDBRANCH  22  23
ENDBRANCH  21  22
ENDBRANCH  19  21
ENDBRANCH  18  19
ENDBRANCH  17  18
ENDBRANCH   1  17
TORSDOF 12
ENDMDL
MODEL 9
REMARK VINA RESULT:      -6.9      2.202      9.060
REMARK  Name = 
REMARK  12 active torsions:
REMARK  status: ('A' for Active; 'I' for Inactive)
REMARK    1  A    between atoms: C_13  and  C_15
REMARK    2  A    between atoms: C_15  and  C_16
REMARK    3  A    between atoms: C_16  and  C_17
REMARK    4  A    between atoms: C_17  and  C_18
REMARK    5  A    between atoms: C_18  and  C_20
REMARK    6  A    between atoms: C_20  and  C_21
REMARK    7  A    between atoms: C_21  and  C_22
REMARK    8  A    between atoms: C_22  and  C_23
REMARK    9  A    between atoms: C_23  and  C_25
REMARK   10  A    between atoms: C_25  and  C_26
REMARK   11  A    between atoms: C_26  and  C_27
REMARK   12  A    between atoms: C_27  and  C_28
REMARK                            x       y       z     vdW  Elec       q    Type
REMARK                         _______ _______ _______ _____ _____    ______ ____
ROOT
ATOM      1  C   UNL     1       1.219   5.791  -7.526  0.00  0.00    +0.040 C 
ENDROOT
BRANCH   1  11
ATOM      2  C   UNL     1       4.654   6.398  -1.666  0.00  0.00    +0.034 C 
ATOM      3  C   UNL     1       3.565   6.493  -2.205  0.00  0.00    +0.016 A 
ATOM      4  C   UNL     1       2.518   5.724  -1.709  0.00  0.00    +0.187 A 
ATOM      5  O   UNL     1       2.774   4.671  -0.825  0.00  0.00    -0.287 OA
ATOM      6  C   UNL     1       1.240   5.798  -2.254  0.00  0.00    +0.016 A 
ATOM      7  C   UNL     1       0.073   5.125  -1.606  0.00  0.00    +0.034 C 
ATOM      8  C   UNL     1       1.081   6.315  -3.531  0.00  0.00    +0.011 A 
ATOM      9  C   UNL     1      -0.276   6.430  -4.122  0.00  0.00    +0.033 C 
ATOM     10  C   UNL     1      -0.190   6.657  -5.625  0.00  0.00    +0.045 C 
ATOM     11  C   UNL     1       1.112   6.053  -6.067  0.00  0.00    +0.133 C 
ATOM     12  O   UNL     1       2.154   6.875  -5.544  0.00  0.00    -0.483 OA
ATOM     13  C   UNL     1       1.259   4.700  -5.379  0.00  0.00    +0.044 C 
ATOM     14  C   UNL     1       2.165   6.935  -4.144  0.00  0.00    +0.130 A 
ATOM     15  C   UNL     1       3.312   7.164  -3.398  0.00  0.00    +0.011 A 
ATOM     16  C   UNL     1       4.532   7.646  -4.113  0.00  0.00    +0.034 C 
ENDBRANCH   1  11
BRANCH   1  17
ATOM     17  C   UNL     1       2.483   5.034  -7.787  0.00  0.00    +0.004 C 
BRANCH  17  18
ATOM     18  C   UNL     1       2.653   4.604  -9.238  0.00  0.00    +0.000 C 
BRANCH  18  19
ATOM     19  C   UNL     1       4.253   4.888  -9.490  0.00  0.00    +0.000 C 
ATOM     20  C   UNL     1       4.500   5.374  -7.939  0.00  0.00    +0.000 C 
BRANCH  19  21
ATOM     21  C   UNL     1       3.979   6.432  -9.975  0.00  0.00    +0.000 C 
BRANCH  21  22
ATOM     22  C   UNL     1       3.544   6.291 -11.400  0.00  0.00    +0.000 C 
BRANCH  22  23
ATOM     23  C   UNL     1       4.570   5.469 -12.116  0.00  0.00    +0.000 C 
BRANCH  23  24
ATOM     24  C   UNL     1       5.189   6.429 -13.299  0.00  0.00    +0.000 C 
ATOM     25  C   UNL     1       4.277   5.707 -14.461  0.00  0.00    +0.000 C 
BRANCH  24  26
ATOM     26  C   UNL     1       6.476   5.459 -13.610  0.00  0.00    +0.000 C 
BRANCH  26  27
ATOM     27  C   UNL     1       7.717   6.091 -13.206  0.00  0.00    +0.000 C 
BRANCH  27  28
ATOM     28  C   UNL     1       8.351   5.676 -11.928  0.00  0.00    +0.000 C 
BRANCH  28  29
ATOM     29  C   UNL     1       7.481   6.007 -10.750  0.00  0.00    +0.000 C 
ATOM     30  C   UNL     1       7.899   5.329  -9.479  0.00  0.00    +0.000 C 
ATOM     31  C   UNL     1       7.485   7.504 -10.558  0.00  0.00    +0.000 C 
ENDBRANCH  28  29
ENDBRANCH  27  28
ENDBRANCH  26  27
ENDBRANCH  24  26
ENDBRANCH  23  24
ENDBRANCH  22  23
ENDBRANCH  21  22
ENDBRANCH  19  21
ENDBRANCH  18  19
ENDBRANCH  17  18
ENDBRANCH   1  17
TORSDOF 12
ENDMDL
