MODEL 1
REMARK VINA RESULT:      -5.0      0.000      0.000
REMARK  Name = 
REMARK  3 active torsions:
REMARK  status: ('A' for Active; 'I' for Inactive)
REMARK    1  A    between atoms: C_2  and  O_4
REMARK    2  A    between atoms: O_4  and  C_5
REMARK    3  A    between atoms: C_5  and  C_7
REMARK                            x       y       z     vdW  Elec       q    Type
REMARK                         _______ _______ _______ _____ _____    ______ ____
ROOT
ATOM      1  C   UNL     1       6.655   6.158 -11.119  0.00  0.00    +0.378 C 
ATOM      2  F   UNL     1       6.427   6.187  -9.581  0.00  0.00    -0.194 F 
ENDROOT
BRANCH   1   3
ATOM      3  C   UNL     1       6.356   7.830 -11.237  0.00  0.00    +0.456 C 
ATOM      4  F   UNL     1       5.097   7.984 -10.807  0.00  0.00    -0.165 F 
ATOM      5  F   UNL     1       7.356   8.382 -10.524  0.00  0.00    -0.165 F 
ATOM      6  F   UNL     1       6.418   7.959 -12.586  0.00  0.00    -0.165 F 
ENDBRANCH   1   3
BRANCH   1   7
ATOM      7  O   UNL     1       8.202   6.374 -10.943  0.00  0.00    -0.264 OA
BRANCH   7   9
ATOM      8  F   UNL     1       9.336   6.110 -12.837  0.00  0.00    -0.166 F 
ATOM      9  C   UNL     1       8.680   5.526 -11.930  0.00  0.00    +0.452 C 
ATOM     10  F   UNL     1       7.658   4.776 -12.470  0.00  0.00    -0.166 F 
ENDBRANCH   7   9
ENDBRANCH   1   7
TORSDOF 3
ENDMDL
MODEL 2
REMARK VINA RESULT:      -4.9      1.192      3.462
REMARK  Name = 
REMARK  3 active torsions:
REMARK  status: ('A' for Active; 'I' for Inactive)
REMARK    1  A    between atoms: C_2  and  O_4
REMARK    2  A    between atoms: O_4  and  C_5
REMARK    3  A    between atoms: C_5  and  C_7
REMARK                            x       y       z     vdW  Elec       q    Type
REMARK                         _______ _______ _______ _____ _____    ______ ____
ROOT
ATOM      1  C   UNL     1       7.767   6.726 -11.038  0.00  0.00    +0.378 C 
ATOM      2  F   UNL     1       7.924   5.633  -9.944  0.00  0.00    -0.194 F 
ENDROOT
BRANCH   1   3
ATOM      3  C   UNL     1       8.449   5.704 -12.216  0.00  0.00    +0.456 C 
ATOM      4  F   UNL     1       9.768   5.750 -11.990  0.00  0.00    -0.165 F 
ATOM      5  F   UNL     1       7.802   4.537 -12.037  0.00  0.00    -0.165 F 
ATOM      6  F   UNL     1       8.131   6.419 -13.325  0.00  0.00    -0.165 F 
ENDBRANCH   1   3
BRANCH   1   7
ATOM      7  O   UNL     1       6.305   6.254 -11.370  0.00  0.00    -0.264 OA
BRANCH   7   9
ATOM      8  F   UNL     1       6.402   8.475 -11.331  0.00  0.00    -0.166 F 
ATOM      9  C   UNL     1       5.640   7.469 -11.318  0.00  0.00    +0.452 C 
ATOM     10  F   UNL     1       4.786   7.515 -10.238  0.00  0.00    -0.166 F 
ENDBRANCH   7   9
ENDBRANCH   1   7
TORSDOF 3
ENDMDL
MODEL 3
REMARK VINA RESULT:      -4.7      9.602     10.838
REMARK  Name = 
REMARK  3 active torsions:
REMARK  status: ('A' for Active; 'I' for Inactive)
REMARK    1  A    between atoms: C_2  and  O_4
REMARK    2  A    between atoms: O_4  and  C_5
REMARK    3  A    between atoms: C_5  and  C_7
REMARK                            x       y       z     vdW  Elec       q    Type
REMARK                         _______ _______ _______ _____ _____    ______ ____
ROOT
ATOM      1  C   UNL     1      -1.898   6.071  -4.663  0.00  0.00    +0.378 C 
ATOM      2  F   UNL     1      -0.785   6.013  -3.578  0.00  0.00    -0.194 F 
ENDROOT
BRANCH   1   3
ATOM      3  C   UNL     1      -1.954   7.770  -4.573  0.00  0.00    +0.456 C 
ATOM      4  F   UNL     1      -2.315   8.036  -3.310  0.00  0.00    -0.165 F 
ATOM      5  F   UNL     1      -0.733   8.152  -4.991  0.00  0.00    -0.165 F 
ATOM      6  F   UNL     1      -2.991   7.991  -5.420  0.00  0.00    -0.165 F 
ENDBRANCH   1   3
BRANCH   1   7
ATOM      7  O   UNL     1      -0.836   6.096  -5.822  0.00  0.00    -0.264 OA
BRANCH   7   9
ATOM      8  F   UNL     1      -0.953   5.240  -7.871  0.00  0.00    -0.166 F 
ATOM      9  C   UNL     1      -1.406   5.181  -6.693  0.00  0.00    +0.452 C 
ATOM     10  F   UNL     1      -2.779   5.290  -6.690  0.00  0.00    -0.166 F 
ENDBRANCH   7   9
ENDBRANCH   1   7
TORSDOF 3
ENDMDL
MODEL 4
REMARK VINA RESULT:      -4.6     11.045     12.375
REMARK  Name = 
REMARK  3 active torsions:
REMARK  status: ('A' for Active; 'I' for Inactive)
REMARK    1  A    between atoms: C_2  and  O_4
REMARK    2  A    between atoms: O_4  and  C_5
REMARK    3  A    between atoms: C_5  and  C_7
REMARK                            x       y       z     vdW  Elec       q    Type
REMARK                         _______ _______ _______ _____ _____    ______ ____
ROOT
ATOM      1  C   UNL     1      -1.759   6.535  -3.875  0.00  0.00    +0.378 C 
ATOM      2  F   UNL     1      -2.562   7.764  -4.388  0.00  0.00    -0.194 F 
ENDROOT
BRANCH   1   3
ATOM      3  C   UNL     1      -2.787   6.373  -2.528  0.00  0.00    +0.456 C 
ATOM      4  F   UNL     1      -4.022   6.545  -3.016  0.00  0.00    -0.165 F 
ATOM      5  F   UNL     1      -2.454   5.172  -2.017  0.00  0.00    -0.165 F 
ATOM      6  F   UNL     1      -2.393   7.468  -1.831  0.00  0.00    -0.165 F 
ENDBRANCH   1   3
BRANCH   1   7
ATOM      7  O   UNL     1      -2.621   5.548  -4.743  0.00  0.00    -0.264 OA
BRANCH   7   9
ATOM      8  F   UNL     1      -3.079   6.275  -6.794  0.00  0.00    -0.166 F 
ATOM      9  C   UNL     1      -2.170   5.882  -6.011  0.00  0.00    +0.452 C 
ATOM     10  F   UNL     1      -1.457   4.844  -6.568  0.00  0.00    -0.166 F 
ENDBRANCH   7   9
ENDBRANCH   1   7
TORSDOF 3
ENDMDL
MODEL 5
REMARK VINA RESULT:      -4.6      1.731      2.816
REMARK  Name = 
REMARK  3 active torsions:
REMARK  status: ('A' for Active; 'I' for Inactive)
REMARK    1  A    between atoms: C_2  and  O_4
REMARK    2  A    between atoms: O_4  and  C_5
REMARK    3  A    between atoms: C_5  and  C_7
REMARK                            x       y       z     vdW  Elec       q    Type
REMARK                         _______ _______ _______ _____ _____    ______ ____
ROOT
ATOM      1  C   UNL     1       7.752   5.287 -11.712  0.00  0.00    +0.378 C 
ATOM      2  F   UNL     1       9.242   5.731 -11.689  0.00  0.00    -0.194 F 
ENDROOT
BRANCH   1   3
ATOM      3  C   UNL     1       7.496   5.918 -10.152  0.00  0.00    +0.456 C 
ATOM      4  F   UNL     1       8.081   5.040  -9.327  0.00  0.00    -0.165 F 
ATOM      5  F   UNL     1       7.994   7.166 -10.228  0.00  0.00    -0.165 F 
ATOM      6  F   UNL     1       6.146   5.797 -10.096  0.00  0.00    -0.165 F 
ENDBRANCH   1   3
BRANCH   1   7
ATOM      7  O   UNL     1       7.312   6.628 -12.405  0.00  0.00    -0.264 OA
BRANCH   7   9
ATOM      8  F   UNL     1       7.437   5.028 -13.944  0.00  0.00    -0.166 F 
ATOM      9  C   UNL     1       6.931   6.146 -13.648  0.00  0.00    +0.452 C 
ATOM     10  F   UNL     1       7.182   7.075 -14.633  0.00  0.00    -0.166 F 
ENDBRANCH   7   9
ENDBRANCH   1   7
TORSDOF 3
ENDMDL
MODEL 6
REMARK VINA RESULT:      -4.5      1.765      3.633
REMARK  Name = 
REMARK  3 active torsions:
REMARK  status: ('A' for Active; 'I' for Inactive)
REMARK    1  A    between atoms: C_2  and  O_4
REMARK    2  A    between atoms: O_4  and  C_5
REMARK    3  A    between atoms: C_5  and  C_7
REMARK                            x       y       z     vdW  Elec       q    Type
REMARK                         _______ _______ _______ _____ _____    ______ ____
ROOT
ATOM      1  C   UNL     1       7.692   6.234 -10.409  0.00  0.00    +0.378 C 
ATOM      2  F   UNL     1       8.326   4.914  -9.887  0.00  0.00    -0.194 F 
ENDROOT
BRANCH   1   3
ATOM      3  C   UNL     1       8.108   5.848 -12.014  0.00  0.00    +0.456 C 
ATOM      4  F   UNL     1       7.759   4.563 -12.160  0.00  0.00    -0.165 F 
ATOM      5  F   UNL     1       7.465   6.780 -12.742  0.00  0.00    -0.165 F 
ATOM      6  F   UNL     1       9.456   5.967 -11.916  0.00  0.00    -0.165 F 
ENDBRANCH   1   3
BRANCH   1   7
ATOM      7  O   UNL     1       6.277   5.562 -10.537  0.00  0.00    -0.264 OA
BRANCH   7   9
ATOM      8  F   UNL     1       5.718   4.750  -8.544  0.00  0.00    -0.166 F 
ATOM      9  C   UNL     1       5.785   5.787  -9.261  0.00  0.00    +0.452 C 
ATOM     10  F   UNL     1       4.567   6.429  -9.311  0.00  0.00    -0.166 F 
ENDBRANCH   7   9
ENDBRANCH   1   7
TORSDOF 3
ENDMDL
MODEL 7
REMARK VINA RESULT:      -4.5     10.436     11.947
REMARK  Name = 
REMARK  3 active torsions:
REMARK  status: ('A' for Active; 'I' for Inactive)
REMARK    1  A    between atoms: C_2  and  O_4
REMARK    2  A    between atoms: O_4  and  C_5
REMARK    3  A    between atoms: C_5  and  C_7
REMARK                            x       y       z     vdW  Elec       q    Type
REMARK                         _______ _______ _______ _____ _____    ______ ____
ROOT
ATOM      1  C   UNL     1      -2.454   5.890  -5.088  0.00  0.00    +0.378 C 
ATOM      2  F   UNL     1      -2.840   7.264  -5.707  0.00  0.00    -0.194 F 
ENDROOT
BRANCH   1   3
ATOM      3  C   UNL     1      -0.853   6.041  -5.645  0.00  0.00    +0.456 C 
ATOM      4  F   UNL     1      -0.539   7.328  -5.444  0.00  0.00    -0.165 F 
ATOM      5  F   UNL     1      -0.186   5.096  -4.956  0.00  0.00    -0.165 F 
ATOM      6  F   UNL     1      -1.067   5.804  -6.964  0.00  0.00    -0.165 F 
ENDBRANCH   1   3
BRANCH   1   7
ATOM      7  O   UNL     1      -2.112   6.554  -3.705  0.00  0.00    -0.264 OA
BRANCH   7   9
ATOM      8  F   UNL     1      -3.285   4.705  -3.318  0.00  0.00    -0.166 F 
ATOM      9  C   UNL     1      -2.967   5.844  -2.876  0.00  0.00    +0.452 C 
ATOM     10  F   UNL     1      -4.089   6.585  -2.578  0.00  0.00    -0.166 F 
ENDBRANCH   7   9
ENDBRANCH   1   7
TORSDOF 3
ENDMDL
MODEL 8
REMARK VINA RESULT:      -4.5     10.911     12.448
REMARK  Name = 
REMARK  3 active torsions:
REMARK  status: ('A' for Active; 'I' for Inactive)
REMARK    1  A    between atoms: C_2  and  O_4
REMARK    2  A    between atoms: O_4  and  C_5
REMARK    3  A    between atoms: C_5  and  C_7
REMARK                            x       y       z     vdW  Elec       q    Type
REMARK                         _______ _______ _______ _____ _____    ______ ____
ROOT
ATOM      1  C   UNL     1      -1.656   6.454  -4.187  0.00  0.00    +0.378 C 
ATOM      2  F   UNL     1      -0.782   5.181  -4.371  0.00  0.00    -0.194 F 
ENDROOT
BRANCH   1   3
ATOM      3  C   UNL     1      -2.339   6.258  -5.734  0.00  0.00    +0.456 C 
ATOM      4  F   UNL     1      -2.908   5.046  -5.708  0.00  0.00    -0.165 F 
ATOM      5  F   UNL     1      -3.129   7.340  -5.872  0.00  0.00    -0.165 F 
ATOM      6  F   UNL     1      -1.197   6.232  -6.466  0.00  0.00    -0.165 F 
ENDBRANCH   1   3
BRANCH   1   7
ATOM      7  O   UNL     1      -2.801   5.628  -3.498  0.00  0.00    -0.264 OA
BRANCH   7   9
ATOM      8  F   UNL     1      -4.383   6.696  -2.357  0.00  0.00    -0.166 F 
ATOM      9  C   UNL     1      -3.142   6.495  -2.471  0.00  0.00    +0.452 C 
ATOM     10  F   UNL     1      -2.460   7.686  -2.588  0.00  0.00    -0.166 F 
ENDBRANCH   7   9
ENDBRANCH   1   7
TORSDOF 3
ENDMDL
MODEL 9
REMARK VINA RESULT:      -4.5      9.363     11.023
REMARK  Name = 
REMARK  3 active torsions:
REMARK  status: ('A' for Active; 'I' for Inactive)
REMARK    1  A    between atoms: C_2  and  O_4
REMARK    2  A    between atoms: O_4  and  C_5
REMARK    3  A    between atoms: C_5  and  C_7
REMARK                            x       y       z     vdW  Elec       q    Type
REMARK                         _______ _______ _______ _____ _____    ______ ____
ROOT
ATOM      1  C   UNL     1      -1.757   5.873  -5.248  0.00  0.00    +0.378 C 
ATOM      2  F   UNL     1      -2.685   6.468  -6.345  0.00  0.00    -0.194 F 
ENDROOT
BRANCH   1   3
ATOM      3  C   UNL     1      -0.605   5.412  -6.414  0.00  0.00    +0.456 C 
ATOM      4  F   UNL     1      -1.304   4.749  -7.345  0.00  0.00    -0.165 F 
ATOM      5  F   UNL     1      -0.014   6.574  -6.753  0.00  0.00    -0.165 F 
ATOM      6  F   UNL     1       0.122   4.549  -5.661  0.00  0.00    -0.165 F 
ENDBRANCH   1   3
BRANCH   1   7
ATOM      7  O   UNL     1      -1.065   7.264  -5.009  0.00  0.00    -0.264 OA
BRANCH   7   9
ATOM      8  F   UNL     1      -1.884   9.205  -4.298  0.00  0.00    -0.166 F 
ATOM      9  C   UNL     1      -2.142   7.990  -4.523  0.00  0.00    +0.452 C 
ATOM     10  F   UNL     1      -2.676   7.387  -3.406  0.00  0.00    -0.166 F 
ENDBRANCH   7   9
ENDBRANCH   1   7
TORSDOF 3
ENDMDL
