MODEL 1
REMARK VINA RESULT:      -8.6      0.000      0.000
REMARK  Name = 
REMARK  8 active torsions:
REMARK  status: ('A' for Active; 'I' for Inactive)
REMARK    1  A    between atoms: O_2  and  N_3
REMARK    2  A    between atoms: C_4  and  C_5
REMARK    3  A    between atoms: C_4  and  C_31
REMARK    4  A    between atoms: N_7  and  CA_8
REMARK    5  A    between atoms: CA_12  and  C_13
REMARK    6  A    between atoms: C_16  and  C_17
REMARK    7  A    between atoms: C_17  and  S_18
REMARK    8  A    between atoms: S_18  and  C_19
REMARK                            x       y       z     vdW  Elec       q    Type
REMARK                         _______ _______ _______ _____ _____    ______ ____
ROOT
ATOM      1  CA  UNL     1       1.962   5.147  -6.933  0.00  0.00    +0.201 C 
ATOM      2  C   UNL     1       2.910   4.562  -5.647  0.00  0.00    +0.157 C 
ATOM      3  N   UNL     1       2.025   5.524  -4.867  0.00  0.00    -0.242 N 
ATOM      4  CA  UNL     1       2.320   5.541  -3.466  0.00  0.00    +0.129 C 
ATOM      5  C   UNL     1       3.547   5.404  -2.969  0.00  0.00    -0.002 C 
ATOM      6  C   UNL     1       4.745   5.782  -3.787  0.00  0.00    +0.083 C 
ATOM      7  S   UNL     1       4.362   5.803  -5.572  0.00  0.00    -0.114 S 
ATOM      8  C   UNL     1       1.814   6.448  -5.961  0.00  0.00    +0.253 C 
ATOM      9  O   UNL     1       0.739   7.105  -6.149  0.00  0.00    -0.273 OA
ENDROOT
BRANCH   1  11
ATOM     10  C   UNL     1       3.216   5.032  -9.032  0.00  0.00    +0.288 C 
ATOM     11  N   UNL     1       3.175   5.750  -7.793  0.00  0.00    -0.190 NA
ATOM     12  O   UNL     1       3.076   3.772  -9.013  0.00  0.00    -0.267 OA
BRANCH  10  14
ATOM     13  N   UNL     1       2.138   6.117 -10.910  0.00  0.00    -0.077 NA
ATOM     14  C   UNL     1       3.228   5.691 -10.340  0.00  0.00    +0.192 C 
BRANCH  14  15
ATOM     15  C   UNL     1       4.539   6.116 -10.853  0.00  0.00    +0.115 A 
ATOM     16  N   UNL     1       5.549   5.221 -10.913  0.00  0.00    -0.220 NA
ATOM     17  C   UNL     1       6.506   5.634 -11.779  0.00  0.00    +0.201 A 
ATOM     18  N   UNL     1       7.479   4.823 -12.451  0.00  0.00    -0.100 NA
ATOM     19  S   UNL     1       6.548   7.301 -11.371  0.00  0.00    -0.048 S 
ATOM     20  C   UNL     1       5.041   7.379 -10.549  0.00  0.00    +0.059 A 
ENDBRANCH  14  15
BRANCH  13  22
ATOM     21  C   UNL     1       0.048   6.108 -10.084  0.00  0.00    +0.288 C 
ATOM     22  O   UNL     1       1.033   6.141 -10.071  0.00  0.00    -0.373 OA
ENDBRANCH  13  22
ENDBRANCH  10  14
ENDBRANCH   1  11
BRANCH   4  23
ATOM     23  C   UNL     1       1.133   5.646  -2.608  0.00  0.00    +0.401 C 
ATOM     24  OXT UNL     1       0.694   4.460  -2.009  0.00  0.00    -0.239 OA
ATOM     25  O   UNL     1       0.230   6.485  -2.856  0.00  0.00    -0.239 OA
ENDBRANCH   4  23
BRANCH   5  26
ATOM     26  C   UNL     1       3.705   5.692  -1.505  0.00  0.00    +0.089 C 
BRANCH  26  27
ATOM     27  S   UNL     1       3.765   7.511  -1.362  0.00  0.00    -0.071 S 
BRANCH  27  28
ATOM     28  C   UNL     1       2.649   8.119  -0.128  0.00  0.00    +0.190 A 
ATOM     29  N   UNL     1       2.618   9.430   0.178  0.00  0.00    -0.224 N 
ATOM     30  C   UNL     1       3.599  10.324  -0.404  0.00  0.00    +0.156 C 
ATOM     31  N   UNL     1       1.529   9.920   0.736  0.00  0.00    -0.121 NA
ATOM     32  C   UNL     1       0.502   9.149   1.106  0.00  0.00    +0.353 A 
ATOM     33  O   UNL     1      -0.752   9.760   1.169  0.00  0.00    -0.258 OA
ATOM     34  C   UNL     1       0.617   7.772   1.015  0.00  0.00    +0.340 A 
ATOM     35  O   UNL     1      -0.439   7.074   1.078  0.00  0.00    -0.260 OA
ATOM     36  N   UNL     1       1.771   7.299   0.500  0.00  0.00    -0.179 NA
ENDBRANCH  27  28
ENDBRANCH  26  27
ENDBRANCH   5  26
TORSDOF 8
ENDMDL
MODEL 2
REMARK VINA RESULT:      -8.6      1.577      2.413
REMARK  Name = 
REMARK  8 active torsions:
REMARK  status: ('A' for Active; 'I' for Inactive)
REMARK    1  A    between atoms: O_2  and  N_3
REMARK    2  A    between atoms: C_4  and  C_5
REMARK    3  A    between atoms: C_4  and  C_31
REMARK    4  A    between atoms: N_7  and  CA_8
REMARK    5  A    between atoms: CA_12  and  C_13
REMARK    6  A    between atoms: C_16  and  C_17
REMARK    7  A    between atoms: C_17  and  S_18
REMARK    8  A    between atoms: S_18  and  C_19
REMARK                            x       y       z     vdW  Elec       q    Type
REMARK                         _______ _______ _______ _____ _____    ______ ____
ROOT
ATOM      1  CA  UNL     1       2.154   5.101  -6.767  0.00  0.00    +0.201 C 
ATOM      2  C   UNL     1       2.889   4.490  -5.359  0.00  0.00    +0.157 C 
ATOM      3  N   UNL     1       1.939   5.489  -4.713  0.00  0.00    -0.242 N 
ATOM      4  CA  UNL     1       2.035   5.504  -3.284  0.00  0.00    +0.129 C 
ATOM      5  C   UNL     1       3.174   5.326  -2.620  0.00  0.00    -0.002 C 
ATOM      6  C   UNL     1       4.488   5.655  -3.261  0.00  0.00    +0.083 C 
ATOM      7  S   UNL     1       4.360   5.678  -5.082  0.00  0.00    -0.114 S 
ATOM      8  C   UNL     1       1.919   6.413  -5.827  0.00  0.00    +0.253 C 
ATOM      9  O   UNL     1       0.905   7.107  -6.165  0.00  0.00    -0.273 OA
ENDROOT
BRANCH   1  11
ATOM     10  C   UNL     1       3.605   5.036  -8.736  0.00  0.00    +0.288 C 
ATOM     11  N   UNL     1       3.496   5.654  -7.448  0.00  0.00    -0.190 NA
ATOM     12  O   UNL     1       3.357   3.797  -8.843  0.00  0.00    -0.267 OA
BRANCH  10  14
ATOM     13  N   UNL     1       4.990   6.202 -10.345  0.00  0.00    -0.077 NA
ATOM     14  C   UNL     1       3.810   5.793  -9.973  0.00  0.00    +0.192 C 
BRANCH  14  15
ATOM     15  C   UNL     1       2.690   5.822 -10.924  0.00  0.00    +0.115 A 
ATOM     16  N   UNL     1       2.928   6.123 -12.219  0.00  0.00    -0.220 NA
ATOM     17  C   UNL     1       1.912   5.692 -13.007  0.00  0.00    +0.201 A 
ATOM     18  N   UNL     1       1.961   5.415 -14.413  0.00  0.00    -0.100 NA
ATOM     19  S   UNL     1       0.584   6.128 -12.011  0.00  0.00    -0.048 S 
ATOM     20  C   UNL     1       1.449   6.325 -10.539  0.00  0.00    +0.059 A 
ENDBRANCH  14  15
BRANCH  13  22
ATOM     21  C   UNL     1       6.992   5.761  -9.426  0.00  0.00    +0.288 C 
ATOM     22  O   UNL     1       6.036   5.636  -9.631  0.00  0.00    -0.373 OA
ENDBRANCH  13  22
ENDBRANCH  10  14
ENDBRANCH   1  11
BRANCH   4  23
ATOM     23  C   UNL     1       0.743   5.658  -2.602  0.00  0.00    +0.401 C 
ATOM     24  OXT UNL     1       0.237   4.517  -1.970  0.00  0.00    -0.239 OA
ATOM     25  O   UNL     1      -0.124   6.458  -3.036  0.00  0.00    -0.239 OA
ENDBRANCH   4  23
BRANCH   5  26
ATOM     26  C   UNL     1       3.135   5.618  -1.148  0.00  0.00    +0.089 C 
BRANCH  26  27
ATOM     27  S   UNL     1       3.572   7.382  -0.982  0.00  0.00    -0.071 S 
BRANCH  27  28
ATOM     28  C   UNL     1       2.542   8.215   0.196  0.00  0.00    +0.190 A 
ATOM     29  N   UNL     1       2.551   9.558   0.282  0.00  0.00    -0.224 N 
ATOM     30  C   UNL     1       3.512  10.318  -0.494  0.00  0.00    +0.156 C 
ATOM     31  N   UNL     1       1.506  10.163   0.811  0.00  0.00    -0.121 NA
ATOM     32  C   UNL     1       0.490   9.491   1.360  0.00  0.00    +0.353 A 
ATOM     33  O   UNL     1      -0.748  10.139   1.391  0.00  0.00    -0.258 OA
ATOM     34  C   UNL     1       0.575   8.116   1.491  0.00  0.00    +0.340 A 
ATOM     35  O   UNL     1      -0.487   7.466   1.727  0.00  0.00    -0.260 OA
ATOM     36  N   UNL     1       1.688   7.533   0.998  0.00  0.00    -0.179 NA
ENDBRANCH  27  28
ENDBRANCH  26  27
ENDBRANCH   5  26
TORSDOF 8
ENDMDL
MODEL 3
REMARK VINA RESULT:      -8.4      3.375      4.547
REMARK  Name = 
REMARK  8 active torsions:
REMARK  status: ('A' for Active; 'I' for Inactive)
REMARK    1  A    between atoms: O_2  and  N_3
REMARK    2  A    between atoms: C_4  and  C_5
REMARK    3  A    between atoms: C_4  and  C_31
REMARK    4  A    between atoms: N_7  and  CA_8
REMARK    5  A    between atoms: CA_12  and  C_13
REMARK    6  A    between atoms: C_16  and  C_17
REMARK    7  A    between atoms: C_17  and  S_18
REMARK    8  A    between atoms: S_18  and  C_19
REMARK                            x       y       z     vdW  Elec       q    Type
REMARK                         _______ _______ _______ _____ _____    ______ ____
ROOT
ATOM      1  CA  UNL     1       3.668   6.471  -9.938  0.00  0.00    +0.201 C 
ATOM      2  C   UNL     1       2.573   6.223  -8.659  0.00  0.00    +0.157 C 
ATOM      3  N   UNL     1       3.875   6.100  -7.880  0.00  0.00    -0.242 N 
ATOM      4  CA  UNL     1       3.667   5.851  -6.485  0.00  0.00    +0.129 C 
ATOM      5  C   UNL     1       2.674   5.105  -6.009  0.00  0.00    -0.002 C 
ATOM      6  C   UNL     1       2.054   4.034  -6.856  0.00  0.00    +0.083 C 
ATOM      7  S   UNL     1       2.352   4.325  -8.633  0.00  0.00    -0.114 S 
ATOM      8  C   UNL     1       4.659   5.593  -8.986  0.00  0.00    +0.253 C 
ATOM      9  O   UNL     1       5.895   5.847  -9.166  0.00  0.00    -0.273 OA
ENDROOT
BRANCH   1  11
ATOM     10  C   UNL     1       2.980   5.714 -12.161  0.00  0.00    +0.288 C 
ATOM     11  N   UNL     1       3.190   5.227 -10.830  0.00  0.00    -0.190 NA
ATOM     12  O   UNL     1       2.378   6.819 -12.320  0.00  0.00    -0.267 OA
BRANCH  10  14
ATOM     13  N   UNL     1       2.871   4.451 -14.224  0.00  0.00    -0.077 NA
ATOM     14  C   UNL     1       3.582   5.096 -13.345  0.00  0.00    +0.192 C 
BRANCH  14  15
ATOM     15  C   UNL     1       4.966   5.479 -13.659  0.00  0.00    +0.115 A 
ATOM     16  N   UNL     1       5.876   5.550 -12.662  0.00  0.00    -0.220 NA
ATOM     17  C   UNL     1       7.136   5.484 -13.157  0.00  0.00    +0.201 A 
ATOM     18  N   UNL     1       8.324   5.090 -12.458  0.00  0.00    -0.100 NA
ATOM     19  S   UNL     1       6.946   6.490 -14.534  0.00  0.00    -0.048 S 
ATOM     20  C   UNL     1       5.230   6.459 -14.613  0.00  0.00    +0.059 A 
ENDBRANCH  14  15
BRANCH  13  22
ATOM     21  C   UNL     1       0.645   4.151 -14.164  0.00  0.00    +0.288 C 
ATOM     22  O   UNL     1       1.502   4.632 -14.089  0.00  0.00    -0.373 OA
ENDBRANCH  13  22
ENDBRANCH  10  14
ENDBRANCH   1  11
BRANCH   4  23
ATOM     23  C   UNL     1       4.608   6.559  -5.608  0.00  0.00    +0.401 C 
ATOM     24  OXT UNL     1       5.347   5.766  -4.723  0.00  0.00    -0.239 OA
ATOM     25  O   UNL     1       4.362   7.723  -5.203  0.00  0.00    -0.239 OA
ENDBRANCH   4  23
BRANCH   5  26
ATOM     26  C   UNL     1       2.751   4.749  -4.554  0.00  0.00    +0.089 C 
BRANCH  26  27
ATOM     27  S   UNL     1       1.743   5.998  -3.684  0.00  0.00    -0.071 S 
BRANCH  27  28
ATOM     28  C   UNL     1       0.043   5.515  -3.564  0.00  0.00    +0.190 A 
ATOM     29  N   UNL     1      -0.493   5.195  -2.371  0.00  0.00    -0.224 N 
ATOM     30  C   UNL     1       0.360   5.110  -1.203  0.00  0.00    +0.156 C 
ATOM     31  N   UNL     1      -1.801   5.276  -2.227  0.00  0.00    -0.121 NA
ATOM     32  C   UNL     1      -2.620   5.558  -3.244  0.00  0.00    +0.353 A 
ATOM     33  O   UNL     1      -3.849   6.137  -2.920  0.00  0.00    -0.258 OA
ATOM     34  C   UNL     1      -2.104   5.656  -4.525  0.00  0.00    +0.340 A 
ATOM     35  O   UNL     1      -2.813   6.208  -5.419  0.00  0.00    -0.260 OA
ATOM     36  N   UNL     1      -0.769   5.504  -4.649  0.00  0.00    -0.179 NA
ENDBRANCH  27  28
ENDBRANCH  26  27
ENDBRANCH   5  26
TORSDOF 8
ENDMDL
MODEL 4
REMARK VINA RESULT:      -8.3      1.694      2.152
REMARK  Name = 
REMARK  8 active torsions:
REMARK  status: ('A' for Active; 'I' for Inactive)
REMARK    1  A    between atoms: O_2  and  N_3
REMARK    2  A    between atoms: C_4  and  C_5
REMARK    3  A    between atoms: C_4  and  C_31
REMARK    4  A    between atoms: N_7  and  CA_8
REMARK    5  A    between atoms: CA_12  and  C_13
REMARK    6  A    between atoms: C_16  and  C_17
REMARK    7  A    between atoms: C_17  and  S_18
REMARK    8  A    between atoms: S_18  and  C_19
REMARK                            x       y       z     vdW  Elec       q    Type
REMARK                         _______ _______ _______ _____ _____    ______ ____
ROOT
ATOM      1  CA  UNL     1       2.030   4.860  -6.882  0.00  0.00    +0.201 C 
ATOM      2  C   UNL     1       2.877   4.518  -5.446  0.00  0.00    +0.157 C 
ATOM      3  N   UNL     1       1.820   5.455  -4.878  0.00  0.00    -0.242 N 
ATOM      4  CA  UNL     1       1.951   5.649  -3.465  0.00  0.00    +0.129 C 
ATOM      5  C   UNL     1       3.121   5.698  -2.833  0.00  0.00    -0.002 C 
ATOM      6  C   UNL     1       4.363   6.116  -3.562  0.00  0.00    +0.083 C 
ATOM      7  S   UNL     1       4.185   5.910  -5.367  0.00  0.00    -0.114 S 
ATOM      8  C   UNL     1       1.648   6.232  -6.087  0.00  0.00    +0.253 C 
ATOM      9  O   UNL     1       0.543   6.746  -6.459  0.00  0.00    -0.273 OA
ENDROOT
BRANCH   1  11
ATOM     10  C   UNL     1       3.393   4.786  -8.913  0.00  0.00    +0.288 C 
ATOM     11  N   UNL     1       3.269   5.498  -7.677  0.00  0.00    -0.190 NA
ATOM     12  O   UNL     1       3.286   3.522  -8.905  0.00  0.00    -0.267 OA
BRANCH  10  14
ATOM     13  N   UNL     1       2.384   5.723 -10.905  0.00  0.00    -0.077 NA
ATOM     14  C   UNL     1       3.456   5.449 -10.218  0.00  0.00    +0.192 C 
BRANCH  14  15
ATOM     15  C   UNL     1       4.742   6.056 -10.589  0.00  0.00    +0.115 A 
ATOM     16  N   UNL     1       5.888   5.518 -10.118  0.00  0.00    -0.220 NA
ATOM     17  C   UNL     1       6.946   5.904 -10.873  0.00  0.00    +0.201 A 
ATOM     18  N   UNL     1       8.213   5.244 -10.996  0.00  0.00    -0.100 NA
ATOM     19  S   UNL     1       6.530   7.552 -11.112  0.00  0.00    -0.048 S 
ATOM     20  C   UNL     1       4.869   7.440 -10.684  0.00  0.00    +0.059 A 
ENDBRANCH  14  15
BRANCH  13  22
ATOM     21  C   UNL     1       0.276   5.921 -10.155  0.00  0.00    +0.288 C 
ATOM     22  O   UNL     1       1.203   5.587 -10.192  0.00  0.00    -0.373 OA
ENDBRANCH  13  22
ENDBRANCH  10  14
ENDBRANCH   1  11
BRANCH   4  23
ATOM     23  C   UNL     1       0.669   5.714  -2.752  0.00  0.00    +0.401 C 
ATOM     24  OXT UNL     1       0.275   4.552  -2.078  0.00  0.00    -0.239 OA
ATOM     25  O   UNL     1      -0.272   6.428  -3.180  0.00  0.00    -0.239 OA
ENDBRANCH   4  23
BRANCH   5  26
ATOM     26  C   UNL     1       3.083   6.152  -1.403  0.00  0.00    +0.089 C 
BRANCH  26  27
ATOM     27  S   UNL     1       4.440   7.361  -1.231  0.00  0.00    -0.071 S 
BRANCH  27  28
ATOM     28  C   UNL     1       3.955   8.777  -0.283  0.00  0.00    +0.190 A 
ATOM     29  N   UNL     1       4.111   8.789   1.055  0.00  0.00    -0.224 N 
ATOM     30  C   UNL     1       4.548   7.585   1.735  0.00  0.00    +0.156 C 
ATOM     31  N   UNL     1       4.172   9.952   1.671  0.00  0.00    -0.121 NA
ATOM     32  C   UNL     1       3.978  11.112   1.037  0.00  0.00    +0.353 A 
ATOM     33  O   UNL     1       4.570  12.244   1.600  0.00  0.00    -0.258 OA
ATOM     34  C   UNL     1       3.582  11.104  -0.290  0.00  0.00    +0.340 A 
ATOM     35  O   UNL     1       3.689  12.176  -0.957  0.00  0.00    -0.260 OA
ATOM     36  N   UNL     1       3.465   9.893  -0.874  0.00  0.00    -0.179 NA
ENDBRANCH  27  28
ENDBRANCH  26  27
ENDBRANCH   5  26
TORSDOF 8
ENDMDL
MODEL 5
REMARK VINA RESULT:      -8.2      2.161      3.424
REMARK  Name = 
REMARK  8 active torsions:
REMARK  status: ('A' for Active; 'I' for Inactive)
REMARK    1  A    between atoms: O_2  and  N_3
REMARK    2  A    between atoms: C_4  and  C_5
REMARK    3  A    between atoms: C_4  and  C_31
REMARK    4  A    between atoms: N_7  and  CA_8
REMARK    5  A    between atoms: CA_12  and  C_13
REMARK    6  A    between atoms: C_16  and  C_17
REMARK    7  A    between atoms: C_17  and  S_18
REMARK    8  A    between atoms: S_18  and  C_19
REMARK                            x       y       z     vdW  Elec       q    Type
REMARK                         _______ _______ _______ _____ _____    ______ ____
ROOT
ATOM      1  CA  UNL     1       2.564   4.960  -6.819  0.00  0.00    +0.201 C 
ATOM      2  C   UNL     1       3.168   4.688  -5.251  0.00  0.00    +0.157 C 
ATOM      3  N   UNL     1       2.014   5.616  -4.900  0.00  0.00    -0.242 N 
ATOM      4  CA  UNL     1       1.904   5.861  -3.493  0.00  0.00    +0.129 C 
ATOM      5  C   UNL     1       2.952   5.960  -2.678  0.00  0.00    -0.002 C 
ATOM      6  C   UNL     1       4.289   6.385  -3.207  0.00  0.00    +0.083 C 
ATOM      7  S   UNL     1       4.417   6.114  -5.008  0.00  0.00    -0.114 S 
ATOM      8  C   UNL     1       2.029   6.348  -6.148  0.00  0.00    +0.253 C 
ATOM      9  O   UNL     1       0.992   6.821  -6.717  0.00  0.00    -0.273 OA
ENDROOT
BRANCH   1  11
ATOM     10  C   UNL     1       4.030   5.138  -8.770  0.00  0.00    +0.288 C 
ATOM     11  N   UNL     1       3.905   5.602  -7.420  0.00  0.00    -0.190 NA
ATOM     12  O   UNL     1       3.797   3.917  -9.021  0.00  0.00    -0.267 OA
BRANCH  10  14
ATOM     13  N   UNL     1       5.417   6.473 -10.239  0.00  0.00    -0.077 NA
ATOM     14  C   UNL     1       4.236   6.035  -9.910  0.00  0.00    +0.192 C 
BRANCH  14  15
ATOM     15  C   UNL     1       3.110   6.186 -10.843  0.00  0.00    +0.115 A 
ATOM     16  N   UNL     1       1.853   5.952 -10.407  0.00  0.00    -0.220 NA
ATOM     17  C   UNL     1       0.944   6.538 -11.225  0.00  0.00    +0.201 A 
ATOM     18  N   UNL     1      -0.404   6.905 -10.904  0.00  0.00    -0.100 NA
ATOM     19  S   UNL     1       1.659   6.172 -12.742  0.00  0.00    -0.048 S 
ATOM     20  C   UNL     1       3.234   5.788 -12.172  0.00  0.00    +0.059 A 
ENDBRANCH  14  15
BRANCH  13  22
ATOM     21  C   UNL     1       7.446   5.790  -9.559  0.00  0.00    +0.288 C 
ATOM     22  O   UNL     1       6.461   5.818  -9.605  0.00  0.00    -0.373 OA
ENDBRANCH  13  22
ENDBRANCH  10  14
ENDBRANCH   1  11
BRANCH   4  23
ATOM     23  C   UNL     1       0.521   5.917  -3.004  0.00  0.00    +0.401 C 
ATOM     24  OXT UNL     1       0.031   4.756  -2.395  0.00  0.00    -0.239 OA
ATOM     25  O   UNL     1      -0.342   6.618  -3.590  0.00  0.00    -0.239 OA
ENDBRANCH   4  23
BRANCH   5  26
ATOM     26  C   UNL     1       2.668   6.461  -1.293  0.00  0.00    +0.089 C 
BRANCH  26  27
ATOM     27  S   UNL     1       4.172   7.355  -0.772  0.00  0.00    -0.071 S 
BRANCH  27  28
ATOM     28  C   UNL     1       3.791   8.890   0.026  0.00  0.00    +0.190 A 
ATOM     29  N   UNL     1       3.951   9.027   1.356  0.00  0.00    -0.224 N 
ATOM     30  C   UNL     1       4.303   7.872   2.157  0.00  0.00    +0.156 C 
ATOM     31  N   UNL     1       4.096  10.241   1.851  0.00  0.00    -0.121 NA
ATOM     32  C   UNL     1       3.982  11.341   1.101  0.00  0.00    +0.353 A 
ATOM     33  O   UNL     1       4.655  12.479   1.549  0.00  0.00    -0.258 OA
ATOM     34  C   UNL     1       3.583  11.225  -0.220  0.00  0.00    +0.340 A 
ATOM     35  O   UNL     1       3.765  12.214  -0.992  0.00  0.00    -0.260 OA
ATOM     36  N   UNL     1       3.379   9.973  -0.679  0.00  0.00    -0.179 NA
ENDBRANCH  27  28
ENDBRANCH  26  27
ENDBRANCH   5  26
TORSDOF 8
ENDMDL
MODEL 6
REMARK VINA RESULT:      -8.2      2.979     10.208
REMARK  Name = 
REMARK  8 active torsions:
REMARK  status: ('A' for Active; 'I' for Inactive)
REMARK    1  A    between atoms: O_2  and  N_3
REMARK    2  A    between atoms: C_4  and  C_5
REMARK    3  A    between atoms: C_4  and  C_31
REMARK    4  A    between atoms: N_7  and  CA_8
REMARK    5  A    between atoms: CA_12  and  C_13
REMARK    6  A    between atoms: C_16  and  C_17
REMARK    7  A    between atoms: C_17  and  S_18
REMARK    8  A    between atoms: S_18  and  C_19
REMARK                            x       y       z     vdW  Elec       q    Type
REMARK                         _______ _______ _______ _____ _____    ______ ____
ROOT
ATOM      1  CA  UNL     1       0.339   6.305  -5.577  0.00  0.00    +0.201 C 
ATOM      2  C   UNL     1       1.637   6.378  -6.675  0.00  0.00    +0.157 C 
ATOM      3  N   UNL     1       0.542   5.934  -7.635  0.00  0.00    -0.242 N 
ATOM      4  CA  UNL     1       1.010   5.776  -8.979  0.00  0.00    +0.129 C 
ATOM      5  C   UNL     1       2.223   5.324  -9.289  0.00  0.00    -0.002 C 
ATOM      6  C   UNL     1       2.970   4.436  -8.339  0.00  0.00    +0.083 C 
ATOM      7  S   UNL     1       2.347   4.603  -6.631  0.00  0.00    -0.114 S 
ATOM      8  C   UNL     1      -0.237   5.218  -6.647  0.00  0.00    +0.253 C 
ATOM      9  O   UNL     1      -1.509   5.137  -6.656  0.00  0.00    -0.273 OA
ENDROOT
BRANCH   1  11
ATOM     10  C   UNL     1       1.335   5.882  -3.382  0.00  0.00    +0.288 C 
ATOM     11  N   UNL     1       0.988   5.212  -4.600  0.00  0.00    -0.190 NA
ATOM     12  O   UNL     1       1.893   7.019  -3.447  0.00  0.00    -0.267 OA
BRANCH  10  14
ATOM     13  N   UNL     1       1.718   4.741  -1.281  0.00  0.00    -0.077 NA
ATOM     14  C   UNL     1       0.917   5.410  -2.060  0.00  0.00    +0.192 C 
BRANCH  14  15
ATOM     15  C   UNL     1      -0.333   5.966  -1.524  0.00  0.00    +0.115 A 
ATOM     16  N   UNL     1      -1.254   6.467  -2.376  0.00  0.00    -0.220 NA
ATOM     17  C   UNL     1      -2.473   6.528  -1.785  0.00  0.00    +0.201 A 
ATOM     18  N   UNL     1      -3.751   6.568  -2.432  0.00  0.00    -0.100 NA
ATOM     19  S   UNL     1      -2.000   7.092  -0.234  0.00  0.00    -0.048 S 
ATOM     20  C   UNL     1      -0.329   6.703  -0.342  0.00  0.00    +0.059 A 
ENDBRANCH  14  15
BRANCH  13  22
ATOM     21  C   UNL     1       3.964   4.768  -1.329  0.00  0.00    +0.288 C 
ATOM     22  O   UNL     1       3.045   4.756  -1.685  0.00  0.00    -0.373 OA
ENDBRANCH  13  22
ENDBRANCH  10  14
ENDBRANCH   1  11
BRANCH   4  23
ATOM     23  C   UNL     1       0.057   6.231  -9.999  0.00  0.00    +0.401 C 
ATOM     24  OXT UNL     1      -0.497   5.238 -10.815  0.00  0.00    -0.239 OA
ATOM     25  O   UNL     1       0.179   7.359 -10.538  0.00  0.00    -0.239 OA
ENDBRANCH   4  23
BRANCH   5  26
ATOM     26  C   UNL     1       2.457   4.989 -10.733  0.00  0.00    +0.089 C 
BRANCH  26  27
ATOM     27  S   UNL     1       3.621   6.252 -11.352  0.00  0.00    -0.071 S 
BRANCH  27  28
ATOM     28  C   UNL     1       5.280   5.637 -11.449  0.00  0.00    +0.190 A 
ATOM     29  N   UNL     1       5.777   5.194 -12.619  0.00  0.00    -0.224 N 
ATOM     30  C   UNL     1       4.905   5.089 -13.772  0.00  0.00    +0.156 C 
ATOM     31  N   UNL     1       7.085   5.167 -12.778  0.00  0.00    -0.121 NA
ATOM     32  C   UNL     1       7.935   5.459 -11.789  0.00  0.00    +0.353 A 
ATOM     33  O   UNL     1       9.199   5.921 -12.162  0.00  0.00    -0.258 OA
ATOM     34  C   UNL     1       7.443   5.687 -10.515  0.00  0.00    +0.340 A 
ATOM     35  O   UNL     1       8.202   6.246  -9.668  0.00  0.00    -0.260 OA
ATOM     36  N   UNL     1       6.102   5.642 -10.371  0.00  0.00    -0.179 NA
ENDBRANCH  27  28
ENDBRANCH  26  27
ENDBRANCH   5  26
TORSDOF 8
ENDMDL
MODEL 7
REMARK VINA RESULT:      -8.2      2.425      3.315
REMARK  Name = 
REMARK  8 active torsions:
REMARK  status: ('A' for Active; 'I' for Inactive)
REMARK    1  A    between atoms: O_2  and  N_3
REMARK    2  A    between atoms: C_4  and  C_5
REMARK    3  A    between atoms: C_4  and  C_31
REMARK    4  A    between atoms: N_7  and  CA_8
REMARK    5  A    between atoms: CA_12  and  C_13
REMARK    6  A    between atoms: C_16  and  C_17
REMARK    7  A    between atoms: C_17  and  S_18
REMARK    8  A    between atoms: S_18  and  C_19
REMARK                            x       y       z     vdW  Elec       q    Type
REMARK                         _______ _______ _______ _____ _____    ______ ____
ROOT
ATOM      1  CA  UNL     1       2.498   6.662  -5.661  0.00  0.00    +0.201 C 
ATOM      2  C   UNL     1       1.124   7.095  -4.755  0.00  0.00    +0.157 C 
ATOM      3  N   UNL     1       1.746   6.107  -3.779  0.00  0.00    -0.242 N 
ATOM      4  CA  UNL     1       0.983   5.959  -2.576  0.00  0.00    +0.129 C 
ATOM      5  C   UNL     1      -0.346   6.002  -2.536  0.00  0.00    -0.002 C 
ATOM      6  C   UNL     1      -1.156   5.647  -3.746  0.00  0.00    +0.083 C 
ATOM      7  S   UNL     1      -0.175   5.794  -5.279  0.00  0.00    -0.114 S 
ATOM      8  C   UNL     1       2.386   5.289  -4.787  0.00  0.00    +0.253 C 
ATOM      9  O   UNL     1       3.502   4.695  -4.627  0.00  0.00    -0.273 OA
ENDROOT
BRANCH   1  11
ATOM     10  C   UNL     1       2.121   6.844  -8.072  0.00  0.00    +0.288 C 
ATOM     11  N   UNL     1       1.704   6.085  -6.930  0.00  0.00    -0.190 NA
ATOM     12  O   UNL     1       2.225   8.104  -7.965  0.00  0.00    -0.267 OA
BRANCH  10  14
ATOM     13  N   UNL     1       1.801   5.861 -10.262  0.00  0.00    -0.077 NA
ATOM     14  C   UNL     1       2.608   6.229  -9.309  0.00  0.00    +0.192 C 
BRANCH  14  15
ATOM     15  C   UNL     1       4.054   6.309  -9.561  0.00  0.00    +0.115 A 
ATOM     16  N   UNL     1       4.495   6.785 -10.746  0.00  0.00    -0.220 NA
ATOM     17  C   UNL     1       5.785   7.189 -10.651  0.00  0.00    +0.201 A 
ATOM     18  N   UNL     1       6.468   8.124 -11.498  0.00  0.00    -0.100 NA
ATOM     19  S   UNL     1       6.407   5.910  -9.691  0.00  0.00    -0.048 S 
ATOM     20  C   UNL     1       4.907   5.307  -9.105  0.00  0.00    +0.059 A 
ENDBRANCH  14  15
BRANCH  13  22
ATOM     21  C   UNL     1      -0.287   6.594 -10.652  0.00  0.00    +0.288 C 
ATOM     22  O   UNL     1       0.507   6.342 -10.125  0.00  0.00    -0.373 OA
ENDBRANCH  13  22
ENDBRANCH  10  14
ENDBRANCH   1  11
BRANCH   4  23
ATOM     23  C   UNL     1       1.802   5.829  -1.364  0.00  0.00    +0.401 C 
ATOM     24  OXT UNL     1       2.665   6.894  -1.083  0.00  0.00    -0.239 OA
ATOM     25  O   UNL     1       2.198   4.703  -0.970  0.00  0.00    -0.239 OA
ENDBRANCH   4  23
BRANCH   5  26
ATOM     26  C   UNL     1      -0.984   5.584  -1.243  0.00  0.00    +0.089 C 
BRANCH  26  27
ATOM     27  S   UNL     1      -1.991   7.007  -0.704  0.00  0.00    -0.071 S 
BRANCH  27  28
ATOM     28  C   UNL     1      -1.210   7.921   0.597  0.00  0.00    +0.190 A 
ATOM     29  N   UNL     1      -1.339   7.530   1.879  0.00  0.00    -0.224 N 
ATOM     30  C   UNL     1      -2.236   6.440   2.207  0.00  0.00    +0.156 C 
ATOM     31  N   UNL     1      -0.431   7.922   2.751  0.00  0.00    -0.121 NA
ATOM     32  C   UNL     1       0.547   8.776   2.435  0.00  0.00    +0.353 A 
ATOM     33  O   UNL     1       1.711   8.710   3.204  0.00  0.00    -0.258 OA
ATOM     34  C   UNL     1       0.553   9.370   1.185  0.00  0.00    +0.340 A 
ATOM     35  O   UNL     1       1.620   9.931   0.791  0.00  0.00    -0.260 OA
ATOM     36  N   UNL     1      -0.428   8.997   0.337  0.00  0.00    -0.179 NA
ENDBRANCH  27  28
ENDBRANCH  26  27
ENDBRANCH   5  26
TORSDOF 8
ENDMDL
MODEL 8
REMARK VINA RESULT:      -8.1      2.955     10.625
REMARK  Name = 
REMARK  8 active torsions:
REMARK  status: ('A' for Active; 'I' for Inactive)
REMARK    1  A    between atoms: O_2  and  N_3
REMARK    2  A    between atoms: C_4  and  C_5
REMARK    3  A    between atoms: C_4  and  C_31
REMARK    4  A    between atoms: N_7  and  CA_8
REMARK    5  A    between atoms: CA_12  and  C_13
REMARK    6  A    between atoms: C_16  and  C_17
REMARK    7  A    between atoms: C_17  and  S_18
REMARK    8  A    between atoms: S_18  and  C_19
REMARK                            x       y       z     vdW  Elec       q    Type
REMARK                         _______ _______ _______ _____ _____    ______ ____
ROOT
ATOM      1  CA  UNL     1       1.797   6.809  -4.546  0.00  0.00    +0.201 C 
ATOM      2  C   UNL     1       3.000   6.898  -5.746  0.00  0.00    +0.157 C 
ATOM      3  N   UNL     1       1.948   6.121  -6.525  0.00  0.00    -0.242 N 
ATOM      4  CA  UNL     1       2.363   5.808  -7.860  0.00  0.00    +0.129 C 
ATOM      5  C   UNL     1       3.617   5.513  -8.192  0.00  0.00    -0.002 C 
ATOM      6  C   UNL     1       4.558   4.939  -7.176  0.00  0.00    +0.083 C 
ATOM      7  S   UNL     1       4.011   5.299  -5.473  0.00  0.00    -0.114 S 
ATOM      8  C   UNL     1       1.362   5.472  -5.372  0.00  0.00    +0.253 C 
ATOM      9  O   UNL     1       0.125   5.184  -5.261  0.00  0.00    -0.273 OA
ENDROOT
BRANCH   1  11
ATOM     10  C   UNL     1       2.657   6.798  -2.256  0.00  0.00    +0.288 C 
ATOM     11  N   UNL     1       2.680   6.025  -3.461  0.00  0.00    -0.190 NA
ATOM     12  O   UNL     1       2.799   8.056  -2.332  0.00  0.00    -0.267 OA
BRANCH  10  14
ATOM     13  N   UNL     1       3.190   5.986  -0.037  0.00  0.00    -0.077 NA
ATOM     14  C   UNL     1       2.297   6.238  -0.950  0.00  0.00    +0.192 C 
BRANCH  14  15
ATOM     15  C   UNL     1       0.870   6.244  -0.600  0.00  0.00    +0.115 A 
ATOM     16  N   UNL     1      -0.054   6.161  -1.582  0.00  0.00    -0.220 NA
ATOM     17  C   UNL     1      -1.247   5.750  -1.087  0.00  0.00    +0.201 A 
ATOM     18  N   UNL     1      -2.320   5.128  -1.807  0.00  0.00    -0.100 NA
ATOM     19  S   UNL     1      -1.276   6.668   0.363  0.00  0.00    -0.048 S 
ATOM     20  C   UNL     1       0.398   7.055   0.429  0.00  0.00    +0.059 A 
ENDBRANCH  14  15
BRANCH  13  22
ATOM     21  C   UNL     1       5.185   7.004   0.142  0.00  0.00    +0.288 C 
ATOM     22  O   UNL     1       4.436   6.536  -0.297  0.00  0.00    -0.373 OA
ENDBRANCH  13  22
ENDBRANCH  10  14
ENDBRANCH   1  11
BRANCH   4  23
ATOM     23  C   UNL     1       1.290   5.915  -8.857  0.00  0.00    +0.401 C 
ATOM     24  OXT UNL     1       1.096   7.179  -9.424  0.00  0.00    -0.239 OA
ATOM     25  O   UNL     1       0.258   5.203  -8.774  0.00  0.00    -0.239 OA
ENDBRANCH   4  23
BRANCH   5  26
ATOM     26  C   UNL     1       3.826   4.972  -9.576  0.00  0.00    +0.089 C 
BRANCH  26  27
ATOM     27  S   UNL     1       4.485   6.364 -10.557  0.00  0.00    -0.071 S 
BRANCH  27  28
ATOM     28  C   UNL     1       5.365   5.810 -11.992  0.00  0.00    +0.190 A 
ATOM     29  N   UNL     1       4.733   5.683 -13.174  0.00  0.00    -0.224 N 
ATOM     30  C   UNL     1       3.297   5.865 -13.240  0.00  0.00    +0.156 C 
ATOM     31  N   UNL     1       5.452   5.709 -14.278  0.00  0.00    -0.121 NA
ATOM     32  C   UNL     1       6.788   5.750 -14.265  0.00  0.00    +0.353 A 
ATOM     33  O   UNL     1       7.411   6.303 -15.386  0.00  0.00    -0.258 OA
ATOM     34  C   UNL     1       7.459   5.642 -13.059  0.00  0.00    +0.340 A 
ATOM     35  O   UNL     1       8.682   5.976 -13.019  0.00  0.00    -0.260 OA
ATOM     36  N   UNL     1       6.695   5.550 -11.951  0.00  0.00    -0.179 NA
ENDBRANCH  27  28
ENDBRANCH  26  27
ENDBRANCH   5  26
TORSDOF 8
ENDMDL
MODEL 9
REMARK VINA RESULT:      -8.0      2.634      3.688
REMARK  Name = 
REMARK  8 active torsions:
REMARK  status: ('A' for Active; 'I' for Inactive)
REMARK    1  A    between atoms: O_2  and  N_3
REMARK    2  A    between atoms: C_4  and  C_5
REMARK    3  A    between atoms: C_4  and  C_31
REMARK    4  A    between atoms: N_7  and  CA_8
REMARK    5  A    between atoms: CA_12  and  C_13
REMARK    6  A    between atoms: C_16  and  C_17
REMARK    7  A    between atoms: C_17  and  S_18
REMARK    8  A    between atoms: S_18  and  C_19
REMARK                            x       y       z     vdW  Elec       q    Type
REMARK                         _______ _______ _______ _____ _____    ______ ____
ROOT
ATOM      1  CA  UNL     1       1.409   4.403  -7.449  0.00  0.00    +0.201 C 
ATOM      2  C   UNL     1       1.176   4.708  -5.791  0.00  0.00    +0.157 C 
ATOM      3  N   UNL     1      -0.113   5.316  -6.325  0.00  0.00    -0.242 N 
ATOM      4  CA  UNL     1      -0.946   5.852  -5.290  0.00  0.00    +0.129 C 
ATOM      5  C   UNL     1      -0.472   6.447  -4.198  0.00  0.00    -0.002 C 
ATOM      6  C   UNL     1       0.877   7.101  -4.212  0.00  0.00    +0.083 C 
ATOM      7  S   UNL     1       1.926   6.450  -5.556  0.00  0.00    -0.114 S 
ATOM      8  C   UNL     1       0.426   5.694  -7.614  0.00  0.00    +0.253 C 
ATOM      9  O   UNL     1      -0.240   5.691  -8.700  0.00  0.00    -0.273 OA
ENDROOT
BRANCH   1  11
ATOM     10  C   UNL     1       3.421   4.784  -8.789  0.00  0.00    +0.288 C 
ATOM     11  N   UNL     1       2.769   5.241  -7.599  0.00  0.00    -0.190 NA
ATOM     12  O   UNL     1       3.469   3.538  -9.021  0.00  0.00    -0.267 OA
BRANCH  10  14
ATOM     13  N   UNL     1       5.093   6.159  -9.876  0.00  0.00    -0.077 NA
ATOM     14  C   UNL     1       3.880   5.686  -9.849  0.00  0.00    +0.192 C 
BRANCH  14  15
ATOM     15  C   UNL     1       3.018   5.805 -11.034  0.00  0.00    +0.115 A 
ATOM     16  N   UNL     1       3.583   5.982 -12.248  0.00  0.00    -0.220 NA
ATOM     17  C   UNL     1       2.717   5.643 -13.235  0.00  0.00    +0.201 A 
ATOM     18  N   UNL     1       3.037   5.267 -14.581  0.00  0.00    -0.100 NA
ATOM     19  S   UNL     1       1.281   6.326 -12.589  0.00  0.00    -0.048 S 
ATOM     20  C   UNL     1       1.813   6.500 -10.964  0.00  0.00    +0.059 A 
ENDBRANCH  14  15
BRANCH  13  22
ATOM     21  C   UNL     1       6.924   5.375  -8.837  0.00  0.00    +0.288 C 
ATOM     22  O   UNL     1       5.964   5.533  -8.997  0.00  0.00    -0.373 OA
ENDBRANCH  13  22
ENDBRANCH  10  14
ENDBRANCH   1  11
BRANCH   4  23
ATOM     23  C   UNL     1      -2.380   5.621  -5.500  0.00  0.00    +0.401 C 
ATOM     24  OXT UNL     1      -2.969   4.625  -4.713  0.00  0.00    -0.239 OA
ATOM     25  O   UNL     1      -2.901   5.784  -6.632  0.00  0.00    -0.239 OA
ENDBRANCH   4  23
BRANCH   5  26
ATOM     26  C   UNL     1      -1.478   7.165  -3.347  0.00  0.00    +0.089 C 
BRANCH  26  27
ATOM     27  S   UNL     1      -1.626   6.179  -1.817  0.00  0.00    -0.071 S 
BRANCH  27  28
ATOM     28  C   UNL     1      -0.537   6.757  -0.545  0.00  0.00    +0.190 A 
ATOM     29  N   UNL     1       0.669   6.185  -0.366  0.00  0.00    -0.224 N 
ATOM     30  C   UNL     1       1.018   5.001  -1.125  0.00  0.00    +0.156 C 
ATOM     31  N   UNL     1       1.610   6.877   0.245  0.00  0.00    -0.121 NA
ATOM     32  C   UNL     1       1.382   8.078   0.786  0.00  0.00    +0.353 A 
ATOM     33  O   UNL     1       2.482   8.930   0.911  0.00  0.00    -0.258 OA
ATOM     34  C   UNL     1       0.091   8.575   0.818  0.00  0.00    +0.340 A 
ATOM     35  O   UNL     1      -0.073   9.810   1.051  0.00  0.00    -0.260 OA
ATOM     36  N   UNL     1      -0.862   7.812   0.242  0.00  0.00    -0.179 NA
ENDBRANCH  27  28
ENDBRANCH  26  27
ENDBRANCH   5  26
TORSDOF 8
ENDMDL
