MODEL 1
REMARK VINA RESULT:      -4.6      0.000      0.000
REMARK  Name = 
REMARK  5 active torsions:
REMARK  status: ('A' for Active; 'I' for Inactive)
REMARK    1  A    between atoms: C_2  and  C_3
REMARK    2  A    between atoms: C_3  and  C_4
REMARK    3  A    between atoms: C_4  and  C_5
REMARK    4  A    between atoms: C_4  and  C_8
REMARK    5  A    between atoms: C_5  and  C_6
REMARK                            x       y       z     vdW  Elec       q    Type
REMARK                         _______ _______ _______ _____ _____    ______ ____
ROOT
ATOM      1  C   UNL     1       7.419   6.573 -11.630  0.00  0.00    +0.103 C 
ENDROOT
BRANCH   1   2
ATOM      2  C   UNL     1       8.317   5.563 -12.155  0.00  0.00    +0.364 C 
ATOM      3  O   UNL     1       7.785   4.676 -13.099  0.00  0.00    -0.246 OA
ATOM      4  O   UNL     1       9.514   5.924 -12.373  0.00  0.00    -0.246 OA
ENDBRANCH   1   2
BRANCH   1   5
ATOM      5  C   UNL     1       7.508   6.927 -10.216  0.00  0.00    +0.011 C 
BRANCH   5   7
ATOM      6  C   UNL     1       6.132   5.458  -8.860  0.00  0.00    +0.000 C 
ATOM      7  C   UNL     1       7.552   5.654  -9.379  0.00  0.00    +0.001 C 
ENDBRANCH   5   7
ENDBRANCH   1   5
BRANCH   1   8
ATOM      8  C   UNL     1       6.343   7.075 -12.466  0.00  0.00    +0.011 C 
BRANCH   8   9
ATOM      9  C   UNL     1       4.985   6.676 -11.959  0.00  0.00    +0.001 C 
ATOM     10  C   UNL     1       4.490   5.423 -12.673  0.00  0.00    +0.000 C 
ENDBRANCH   8   9
ENDBRANCH   1   8
TORSDOF 5
ENDMDL
MODEL 2
REMARK VINA RESULT:      -4.6      0.241      2.699
REMARK  Name = 
REMARK  5 active torsions:
REMARK  status: ('A' for Active; 'I' for Inactive)
REMARK    1  A    between atoms: C_2  and  C_3
REMARK    2  A    between atoms: C_3  and  C_4
REMARK    3  A    between atoms: C_4  and  C_5
REMARK    4  A    between atoms: C_4  and  C_8
REMARK    5  A    between atoms: C_5  and  C_6
REMARK                            x       y       z     vdW  Elec       q    Type
REMARK                         _______ _______ _______ _____ _____    ______ ____
ROOT
ATOM      1  C   UNL     1       7.375   6.415 -11.529  0.00  0.00    +0.103 C 
ENDROOT
BRANCH   1   2
ATOM      2  C   UNL     1       8.308   5.512 -12.175  0.00  0.00    +0.364 C 
ATOM      3  O   UNL     1       7.798   4.707 -13.201  0.00  0.00    -0.246 OA
ATOM      4  O   UNL     1       9.481   5.954 -12.372  0.00  0.00    -0.246 OA
ENDBRANCH   1   2
BRANCH   1   5
ATOM      5  C   UNL     1       6.382   7.104 -12.349  0.00  0.00    +0.011 C 
BRANCH   5   7
ATOM      6  C   UNL     1       4.538   5.537 -12.161  0.00  0.00    +0.000 C 
ATOM      7  C   UNL     1       5.002   6.923 -11.728  0.00  0.00    +0.001 C 
ENDBRANCH   5   7
ENDBRANCH   1   5
BRANCH   1   8
ATOM      8  C   UNL     1       7.559   6.751 -10.129  0.00  0.00    +0.011 C 
BRANCH   8   9
ATOM      9  C   UNL     1       7.462   5.550  -9.230  0.00  0.00    +0.001 C 
ATOM     10  C   UNL     1       6.035   5.366  -8.728  0.00  0.00    +0.000 C 
ENDBRANCH   8   9
ENDBRANCH   1   8
TORSDOF 5
ENDMDL
MODEL 3
REMARK VINA RESULT:      -4.5     10.383     11.709
REMARK  Name = 
REMARK  5 active torsions:
REMARK  status: ('A' for Active; 'I' for Inactive)
REMARK    1  A    between atoms: C_2  and  C_3
REMARK    2  A    between atoms: C_3  and  C_4
REMARK    3  A    between atoms: C_4  and  C_5
REMARK    4  A    between atoms: C_4  and  C_8
REMARK    5  A    between atoms: C_5  and  C_6
REMARK                            x       y       z     vdW  Elec       q    Type
REMARK                         _______ _______ _______ _____ _____    ______ ____
ROOT
ATOM      1  C   UNL     1      -1.916   6.229  -3.935  0.00  0.00    +0.103 C 
ENDROOT
BRANCH   1   2
ATOM      2  C   UNL     1      -2.985   5.639  -3.153  0.00  0.00    +0.364 C 
ATOM      3  O   UNL     1      -2.609   4.719  -2.166  0.00  0.00    -0.246 OA
ATOM      4  O   UNL     1      -3.945   6.406  -2.834  0.00  0.00    -0.246 OA
ENDBRANCH   1   2
BRANCH   1   5
ATOM      5  C   UNL     1      -0.630   6.483  -3.290  0.00  0.00    +0.011 C 
BRANCH   5   7
ATOM      6  C   UNL     1       1.482   6.321  -4.475  0.00  0.00    +0.000 C 
ATOM      7  C   UNL     1       0.398   5.483  -3.805  0.00  0.00    +0.001 C 
ENDBRANCH   5   7
ENDBRANCH   1   5
BRANCH   1   8
ATOM      8  C   UNL     1      -2.196   6.716  -5.274  0.00  0.00    +0.011 C 
BRANCH   8   9
ATOM      9  C   UNL     1      -2.454   5.603  -6.251  0.00  0.00    +0.001 C 
ATOM     10  C   UNL     1      -1.203   5.305  -7.070  0.00  0.00    +0.000 C 
ENDBRANCH   8   9
ENDBRANCH   1   8
TORSDOF 5
ENDMDL
MODEL 4
REMARK VINA RESULT:      -4.5     10.209     11.794
REMARK  Name = 
REMARK  5 active torsions:
REMARK  status: ('A' for Active; 'I' for Inactive)
REMARK    1  A    between atoms: C_2  and  C_3
REMARK    2  A    between atoms: C_3  and  C_4
REMARK    3  A    between atoms: C_4  and  C_5
REMARK    4  A    between atoms: C_4  and  C_8
REMARK    5  A    between atoms: C_5  and  C_6
REMARK                            x       y       z     vdW  Elec       q    Type
REMARK                         _______ _______ _______ _____ _____    ______ ____
ROOT
ATOM      1  C   UNL     1      -1.408   5.687  -3.898  0.00  0.00    +0.103 C 
ENDROOT
BRANCH   1   2
ATOM      2  C   UNL     1      -0.079   5.398  -3.397  0.00  0.00    +0.364 C 
ATOM      3  O   UNL     1       0.000   4.749  -2.159  0.00  0.00    -0.246 OA
ATOM      4  O   UNL     1       0.783   5.030  -4.252  0.00  0.00    -0.246 OA
ENDBRANCH   1   2
BRANCH   1   5
ATOM      5  C   UNL     1      -1.549   6.580  -5.045  0.00  0.00    +0.011 C 
BRANCH   5   7
ATOM      6  C   UNL     1      -1.247   5.280  -7.073  0.00  0.00    +0.000 C 
ATOM      7  C   UNL     1      -2.313   5.862  -6.151  0.00  0.00    +0.001 C 
ENDBRANCH   5   7
ENDBRANCH   1   5
BRANCH   1   8
ATOM      8  C   UNL     1      -2.567   5.236  -3.148  0.00  0.00    +0.011 C 
BRANCH   8   9
ATOM      9  C   UNL     1      -3.354   6.375  -2.560  0.00  0.00    +0.001 C 
ATOM     10  C   UNL     1      -2.601   7.004  -1.394  0.00  0.00    +0.000 C 
ENDBRANCH   8   9
ENDBRANCH   1   8
TORSDOF 5
ENDMDL
MODEL 5
REMARK VINA RESULT:      -4.4     10.381     11.985
REMARK  Name = 
REMARK  5 active torsions:
REMARK  status: ('A' for Active; 'I' for Inactive)
REMARK    1  A    between atoms: C_2  and  C_3
REMARK    2  A    between atoms: C_3  and  C_4
REMARK    3  A    between atoms: C_4  and  C_5
REMARK    4  A    between atoms: C_4  and  C_8
REMARK    5  A    between atoms: C_5  and  C_6
REMARK                            x       y       z     vdW  Elec       q    Type
REMARK                         _______ _______ _______ _____ _____    ______ ____
ROOT
ATOM      1  C   UNL     1      -1.987   6.445  -3.965  0.00  0.00    +0.103 C 
ENDROOT
BRANCH   1   2
ATOM      2  C   UNL     1      -3.061   5.743  -3.291  0.00  0.00    +0.364 C 
ATOM      3  O   UNL     1      -2.709   4.593  -2.574  0.00  0.00    -0.246 OA
ATOM      4  O   UNL     1      -3.956   6.461  -2.748  0.00  0.00    -0.246 OA
ENDBRANCH   1   2
BRANCH   1   5
ATOM      5  C   UNL     1      -2.158   6.811  -5.369  0.00  0.00    +0.011 C 
BRANCH   5   7
ATOM      6  C   UNL     1      -1.255   5.289  -7.030  0.00  0.00    +0.000 C 
ATOM      7  C   UNL     1      -2.489   5.563  -6.178  0.00  0.00    +0.001 C 
ENDBRANCH   5   7
ENDBRANCH   1   5
BRANCH   1   8
ATOM      8  C   UNL     1      -0.709   6.608  -3.295  0.00  0.00    +0.011 C 
BRANCH   8   9
ATOM      9  C   UNL     1       0.334   5.649  -3.800  0.00  0.00    +0.001 C 
ATOM     10  C   UNL     1       1.449   6.396  -4.522  0.00  0.00    +0.000 C 
ENDBRANCH   8   9
ENDBRANCH   1   8
TORSDOF 5
ENDMDL
MODEL 6
REMARK VINA RESULT:      -4.4      1.535      3.679
REMARK  Name = 
REMARK  5 active torsions:
REMARK  status: ('A' for Active; 'I' for Inactive)
REMARK    1  A    between atoms: C_2  and  C_3
REMARK    2  A    between atoms: C_3  and  C_4
REMARK    3  A    between atoms: C_4  and  C_5
REMARK    4  A    between atoms: C_4  and  C_8
REMARK    5  A    between atoms: C_5  and  C_6
REMARK                            x       y       z     vdW  Elec       q    Type
REMARK                         _______ _______ _______ _____ _____    ______ ____
ROOT
ATOM      1  C   UNL     1       7.176   6.690 -12.400  0.00  0.00    +0.103 C 
ENDROOT
BRANCH   1   2
ATOM      2  C   UNL     1       8.183   5.692 -12.703  0.00  0.00    +0.364 C 
ATOM      3  O   UNL     1       9.493   5.977 -12.299  0.00  0.00    -0.246 OA
ATOM      4  O   UNL     1       7.835   4.478 -12.578  0.00  0.00    -0.246 OA
ENDBRANCH   1   2
BRANCH   1   5
ATOM      5  C   UNL     1       6.391   7.251 -13.496  0.00  0.00    +0.011 C 
BRANCH   5   7
ATOM      6  C   UNL     1       6.341   7.680 -15.884  0.00  0.00    +0.000 C 
ATOM      7  C   UNL     1       6.975   6.786 -14.825  0.00  0.00    +0.001 C 
ENDBRANCH   5   7
ENDBRANCH   1   5
BRANCH   1   8
ATOM      8  C   UNL     1       7.093   7.236 -11.057  0.00  0.00    +0.011 C 
BRANCH   8   9
ATOM      9  C   UNL     1       6.226   6.408 -10.150  0.00  0.00    +0.001 C 
ATOM     10  C   UNL     1       7.079   5.607  -9.172  0.00  0.00    +0.000 C 
ENDBRANCH   8   9
ENDBRANCH   1   8
TORSDOF 5
ENDMDL
MODEL 7
REMARK VINA RESULT:      -4.4     10.215     11.544
REMARK  Name = 
REMARK  5 active torsions:
REMARK  status: ('A' for Active; 'I' for Inactive)
REMARK    1  A    between atoms: C_2  and  C_3
REMARK    2  A    between atoms: C_3  and  C_4
REMARK    3  A    between atoms: C_4  and  C_5
REMARK    4  A    between atoms: C_4  and  C_8
REMARK    5  A    between atoms: C_5  and  C_6
REMARK                            x       y       z     vdW  Elec       q    Type
REMARK                         _______ _______ _______ _____ _____    ______ ____
ROOT
ATOM      1  C   UNL     1      -1.555   5.834  -3.963  0.00  0.00    +0.103 C 
ENDROOT
BRANCH   1   2
ATOM      2  C   UNL     1      -0.190   5.479  -3.625  0.00  0.00    +0.364 C 
ATOM      3  O   UNL     1       0.797   6.428  -3.917  0.00  0.00    -0.246 OA
ATOM      4  O   UNL     1      -0.020   4.844  -2.540  0.00  0.00    -0.246 OA
ENDBRANCH   1   2
BRANCH   1   5
ATOM      5  C   UNL     1      -2.644   5.272  -3.169  0.00  0.00    +0.011 C 
BRANCH   5   7
ATOM      6  C   UNL     1      -2.604   6.992  -1.457  0.00  0.00    +0.000 C 
ATOM      7  C   UNL     1      -3.468   6.406  -2.569  0.00  0.00    +0.001 C 
ENDBRANCH   5   7
ENDBRANCH   1   5
BRANCH   1   8
ATOM      8  C   UNL     1      -1.818   6.584  -5.178  0.00  0.00    +0.011 C 
BRANCH   8   9
ATOM      9  C   UNL     1      -2.233   5.702  -6.323  0.00  0.00    +0.001 C 
ATOM     10  C   UNL     1      -1.029   5.329  -7.179  0.00  0.00    +0.000 C 
ENDBRANCH   8   9
ENDBRANCH   1   8
TORSDOF 5
ENDMDL
MODEL 8
REMARK VINA RESULT:      -4.3      1.415      2.818
REMARK  Name = 
REMARK  5 active torsions:
REMARK  status: ('A' for Active; 'I' for Inactive)
REMARK    1  A    between atoms: C_2  and  C_3
REMARK    2  A    between atoms: C_3  and  C_4
REMARK    3  A    between atoms: C_4  and  C_5
REMARK    4  A    between atoms: C_4  and  C_8
REMARK    5  A    between atoms: C_5  and  C_6
REMARK                            x       y       z     vdW  Elec       q    Type
REMARK                         _______ _______ _______ _____ _____    ______ ____
ROOT
ATOM      1  C   UNL     1       6.071   5.984 -12.099  0.00  0.00    +0.103 C 
ENDROOT
BRANCH   1   2
ATOM      2  C   UNL     1       6.941   5.506 -13.155  0.00  0.00    +0.364 C 
ATOM      3  O   UNL     1       7.461   6.471 -14.028  0.00  0.00    -0.246 OA
ATOM      4  O   UNL     1       7.742   4.570 -12.852  0.00  0.00    -0.246 OA
ENDBRANCH   1   2
BRANCH   1   5
ATOM      5  C   UNL     1       4.756   5.368 -11.938  0.00  0.00    +0.011 C 
BRANCH   5   7
ATOM      6  C   UNL     1       3.683   5.133  -9.774  0.00  0.00    +0.000 C 
ATOM      7  C   UNL     1       3.965   6.136 -10.886  0.00  0.00    +0.001 C 
ENDBRANCH   5   7
ENDBRANCH   1   5
BRANCH   1   8
ATOM      8  C   UNL     1       6.443   7.170 -11.348  0.00  0.00    +0.011 C 
BRANCH   8   9
ATOM      9  C   UNL     1       7.645   6.944 -10.473  0.00  0.00    +0.001 C 
ATOM     10  C   UNL     1       7.372   5.844  -9.455  0.00  0.00    +0.000 C 
ENDBRANCH   8   9
ENDBRANCH   1   8
TORSDOF 5
ENDMDL
MODEL 9
REMARK VINA RESULT:      -4.2      5.052      6.447
REMARK  Name = 
REMARK  5 active torsions:
REMARK  status: ('A' for Active; 'I' for Inactive)
REMARK    1  A    between atoms: C_2  and  C_3
REMARK    2  A    between atoms: C_3  and  C_4
REMARK    3  A    between atoms: C_4  and  C_5
REMARK    4  A    between atoms: C_4  and  C_8
REMARK    5  A    between atoms: C_5  and  C_6
REMARK                            x       y       z     vdW  Elec       q    Type
REMARK                         _______ _______ _______ _____ _____    ______ ____
ROOT
ATOM      1  C   UNL     1       3.484   6.352  -7.114  0.00  0.00    +0.103 C 
ENDROOT
BRANCH   1   2
ATOM      2  C   UNL     1       2.265   7.133  -7.055  0.00  0.00    +0.364 C 
ATOM      3  O   UNL     1       2.214   8.285  -7.850  0.00  0.00    -0.246 OA
ATOM      4  O   UNL     1       1.177   6.483  -6.981  0.00  0.00    -0.246 OA
ENDBRANCH   1   2
BRANCH   1   5
ATOM      5  C   UNL     1       4.205   6.077  -5.874  0.00  0.00    +0.011 C 
BRANCH   5   7
ATOM      6  C   UNL     1       5.447   7.439  -4.295  0.00  0.00    +0.000 C 
ATOM      7  C   UNL     1       4.075   7.274  -4.940  0.00  0.00    +0.001 C 
ENDBRANCH   5   7
ENDBRANCH   1   5
BRANCH   1   8
ATOM      8  C   UNL     1       4.056   6.019  -8.407  0.00  0.00    +0.011 C 
BRANCH   8   9
ATOM      9  C   UNL     1       5.288   5.164  -8.290  0.00  0.00    +0.001 C 
ATOM     10  C   UNL     1       6.371   5.647  -9.248  0.00  0.00    +0.000 C 
ENDBRANCH   8   9
ENDBRANCH   1   8
TORSDOF 5
ENDMDL
