MODEL 1
REMARK VINA RESULT:      -6.5      0.000      0.000
REMARK  Name = 
REMARK  10 active torsions:
REMARK  status: ('A' for Active; 'I' for Inactive)
REMARK    1  A    between atoms: O_2  and  C_3
REMARK    2  A    between atoms: C_3  and  C_4
REMARK    3  A    between atoms: C_4  and  C_5
REMARK    4  A    between atoms: C_5  and  C_6
REMARK    5  A    between atoms: C_6  and  C_7
REMARK    6  A    between atoms: C_7  and  C_13
REMARK    7  A    between atoms: N_8  and  O_9
REMARK    8  A    between atoms: O_9  and  C_10
REMARK    9  A    between atoms: C_10  and  C_11
REMARK   10  A    between atoms: C_16  and  C_17
REMARK                            x       y       z     vdW  Elec       q    Type
REMARK                         _______ _______ _______ _____ _____    ______ ____
ROOT
ATOM      1  C   UNL     1       4.566   6.598 -10.678  0.00  0.00    +0.097 C 
ATOM      2  N   UNL     1       3.642   6.585 -11.593  0.00  0.00    -0.087 NA
ENDROOT
BRANCH   1   3
ATOM      3  C   UNL     1       4.133   6.186  -9.337  0.00  0.00    +0.017 A 
ATOM      4  C   UNL     1       3.196   6.951  -8.677  0.00  0.00    +0.001 A 
ATOM      5  C   UNL     1       2.993   6.873  -7.304  0.00  0.00    +0.004 A 
ATOM      6  C   UNL     1       4.006   6.234  -6.597  0.00  0.00    +0.071 A 
ATOM      7  C   UNL     1       4.630   5.166  -7.230  0.00  0.00    +0.004 A 
ATOM      8  C   UNL     1       4.768   5.208  -8.610  0.00  0.00    +0.001 A 
BRANCH   6   9
ATOM      9  C   UNL     1       4.230   6.579  -5.178  0.00  0.00    +0.419 C 
ATOM     10  F   UNL     1       3.246   7.489  -4.803  0.00  0.00    -0.166 F 
ATOM     11  F   UNL     1       5.436   7.230  -4.969  0.00  0.00    -0.166 F 
ATOM     12  F   UNL     1       4.210   5.450  -4.400  0.00  0.00    -0.166 F 
ENDBRANCH   6   9
ENDBRANCH   1   3
BRANCH   1  13
ATOM     13  C   UNL     1       5.629   7.606 -10.875  0.00  0.00    +0.049 C 
BRANCH  13  14
ATOM     14  C   UNL     1       7.011   7.071 -10.620  0.00  0.00    +0.009 C 
BRANCH  14  15
ATOM     15  C   UNL     1       7.630   6.735 -11.948  0.00  0.00    +0.032 C 
BRANCH  15  16
ATOM     16  C   UNL     1       8.181   5.333 -12.010  0.00  0.00    +0.142 C 
BRANCH  16  18
ATOM     17  C   UNL     1       6.987   5.514 -13.971  0.00  0.00    +0.174 C 
ATOM     18  O   UNL     1       7.464   4.651 -12.994  0.00  0.00    -0.351 OA
ENDBRANCH  16  18
ENDBRANCH  15  16
ENDBRANCH  14  15
ENDBRANCH  13  14
ENDBRANCH   1  13
BRANCH   2  19
ATOM     19  O   UNL     1       2.805   5.489 -11.722  0.00  0.00    -0.376 OA
BRANCH  19  20
ATOM     20  C   UNL     1       1.505   5.745 -12.211  0.00  0.00    +0.259 C 
BRANCH  20  21
ATOM     21  C   UNL     1       0.453   5.522 -11.141  0.00  0.00    +0.159 C 
ATOM     22  N   UNL     1       0.943   4.547 -10.185  0.00  0.00    -0.127 NA
ENDBRANCH  20  21
ENDBRANCH  19  20
ENDBRANCH   2  19
TORSDOF 10
ENDMDL
MODEL 2
REMARK VINA RESULT:      -6.5      4.455      7.507
REMARK  Name = 
REMARK  10 active torsions:
REMARK  status: ('A' for Active; 'I' for Inactive)
REMARK    1  A    between atoms: O_2  and  C_3
REMARK    2  A    between atoms: C_3  and  C_4
REMARK    3  A    between atoms: C_4  and  C_5
REMARK    4  A    between atoms: C_5  and  C_6
REMARK    5  A    between atoms: C_6  and  C_7
REMARK    6  A    between atoms: C_7  and  C_13
REMARK    7  A    between atoms: N_8  and  O_9
REMARK    8  A    between atoms: O_9  and  C_10
REMARK    9  A    between atoms: C_10  and  C_11
REMARK   10  A    between atoms: C_16  and  C_17
REMARK                            x       y       z     vdW  Elec       q    Type
REMARK                         _______ _______ _______ _____ _____    ______ ____
ROOT
ATOM      1  C   UNL     1      -0.825   5.754  -6.666  0.00  0.00    +0.097 C 
ATOM      2  N   UNL     1      -0.769   5.419  -7.922  0.00  0.00    -0.087 NA
ENDROOT
BRANCH   1   3
ATOM      3  C   UNL     1       0.401   5.521  -5.895  0.00  0.00    +0.017 A 
ATOM      4  C   UNL     1       0.999   6.586  -5.258  0.00  0.00    +0.001 A 
ATOM      5  C   UNL     1       2.320   6.559  -4.825  0.00  0.00    +0.004 A 
ATOM      6  C   UNL     1       3.093   5.536  -5.363  0.00  0.00    +0.071 A 
ATOM      7  C   UNL     1       2.452   4.325  -5.592  0.00  0.00    +0.004 A 
ATOM      8  C   UNL     1       1.113   4.346  -5.954  0.00  0.00    +0.001 A 
BRANCH   6   9
ATOM      9  C   UNL     1       4.555   5.715  -5.478  0.00  0.00    +0.419 C 
ATOM     10  F   UNL     1       5.160   4.866  -4.557  0.00  0.00    -0.166 F 
ATOM     11  F   UNL     1       4.968   6.993  -5.131  0.00  0.00    -0.166 F 
ATOM     12  F   UNL     1       4.970   5.463  -6.760  0.00  0.00    -0.166 F 
ENDBRANCH   6   9
ENDBRANCH   1   3
BRANCH   1  13
ATOM     13  C   UNL     1      -2.164   5.646  -6.048  0.00  0.00    +0.049 C 
BRANCH  13  14
ATOM     14  C   UNL     1      -2.581   6.888  -5.310  0.00  0.00    +0.009 C 
BRANCH  14  15
ATOM     15  C   UNL     1      -2.567   6.581  -3.839  0.00  0.00    +0.032 C 
BRANCH  15  16
ATOM     16  C   UNL     1      -3.178   5.244  -3.504  0.00  0.00    +0.142 C 
BRANCH  16  18
ATOM     17  C   UNL     1      -2.115   5.766  -1.529  0.00  0.00    +0.174 C 
ATOM     18  O   UNL     1      -2.499   4.747  -2.391  0.00  0.00    -0.351 OA
ENDBRANCH  16  18
ENDBRANCH  15  16
ENDBRANCH  14  15
ENDBRANCH  13  14
ENDBRANCH   1  13
BRANCH   2  19
ATOM     19  O   UNL     1       0.312   5.801  -8.697  0.00  0.00    -0.376 OA
BRANCH  19  20
ATOM     20  C   UNL     1       0.500   5.096  -9.906  0.00  0.00    +0.259 C 
BRANCH  20  21
ATOM     21  C   UNL     1       0.877   6.029 -11.042  0.00  0.00    +0.159 C 
ATOM     22  N   UNL     1       0.124   7.263 -10.918  0.00  0.00    -0.127 NA
ENDBRANCH  20  21
ENDBRANCH  19  20
ENDBRANCH   2  19
TORSDOF 10
ENDMDL
MODEL 3
REMARK VINA RESULT:      -6.5      3.917      5.885
REMARK  Name = 
REMARK  10 active torsions:
REMARK  status: ('A' for Active; 'I' for Inactive)
REMARK    1  A    between atoms: O_2  and  C_3
REMARK    2  A    between atoms: C_3  and  C_4
REMARK    3  A    between atoms: C_4  and  C_5
REMARK    4  A    between atoms: C_5  and  C_6
REMARK    5  A    between atoms: C_6  and  C_7
REMARK    6  A    between atoms: C_7  and  C_13
REMARK    7  A    between atoms: N_8  and  O_9
REMARK    8  A    between atoms: O_9  and  C_10
REMARK    9  A    between atoms: C_10  and  C_11
REMARK   10  A    between atoms: C_16  and  C_17
REMARK                            x       y       z     vdW  Elec       q    Type
REMARK                         _______ _______ _______ _____ _____    ______ ____
ROOT
ATOM      1  C   UNL     1       0.920   5.540  -8.548  0.00  0.00    +0.097 C 
ATOM      2  N   UNL     1       1.778   4.564  -8.620  0.00  0.00    -0.087 NA
ENDROOT
BRANCH   1   3
ATOM      3  C   UNL     1       0.282   5.725  -7.239  0.00  0.00    +0.017 A 
ATOM      4  C   UNL     1      -0.981   5.213  -7.037  0.00  0.00    +0.001 A 
ATOM      5  C   UNL     1      -1.806   5.634  -6.001  0.00  0.00    +0.004 A 
ATOM      6  C   UNL     1      -1.422   6.823  -5.391  0.00  0.00    +0.071 A 
ATOM      7  C   UNL     1      -0.056   7.053  -5.277  0.00  0.00    +0.004 A 
ATOM      8  C   UNL     1       0.778   6.569  -6.275  0.00  0.00    +0.001 A 
BRANCH   6   9
ATOM      9  C   UNL     1      -2.443   7.667  -4.737  0.00  0.00    +0.419 C 
ATOM     10  F   UNL     1      -3.371   8.037  -5.706  0.00  0.00    -0.166 F 
ATOM     11  F   UNL     1      -1.924   8.856  -4.249  0.00  0.00    -0.166 F 
ATOM     12  F   UNL     1      -3.028   6.994  -3.696  0.00  0.00    -0.166 F 
ENDBRANCH   6   9
ENDBRANCH   1   3
BRANCH   1  13
ATOM     13  C   UNL     1       0.210   5.845  -9.808  0.00  0.00    +0.049 C 
BRANCH  13  14
ATOM     14  C   UNL     1       0.031   4.645 -10.696  0.00  0.00    +0.009 C 
BRANCH  14  15
ATOM     15  C   UNL     1       0.483   5.019 -12.079  0.00  0.00    +0.032 C 
BRANCH  15  16
ATOM     16  C   UNL     1       0.605   6.508 -12.284  0.00  0.00    +0.142 C 
BRANCH  16  18
ATOM     17  C   UNL     1       2.738   5.861 -12.862  0.00  0.00    +0.174 C 
ATOM     18  O   UNL     1       1.684   6.720 -13.143  0.00  0.00    -0.351 OA
ENDBRANCH  16  18
ENDBRANCH  15  16
ENDBRANCH  14  15
ENDBRANCH  13  14
ENDBRANCH   1  13
BRANCH   2  19
ATOM     19  O   UNL     1       2.742   4.411  -7.639  0.00  0.00    -0.376 OA
BRANCH  19  20
ATOM     20  C   UNL     1       3.953   5.111  -7.834  0.00  0.00    +0.259 C 
BRANCH  20  21
ATOM     21  C   UNL     1       4.410   5.796  -6.559  0.00  0.00    +0.159 C 
ATOM     22  N   UNL     1       3.947   5.036  -5.414  0.00  0.00    -0.127 NA
ENDBRANCH  20  21
ENDBRANCH  19  20
ENDBRANCH   2  19
TORSDOF 10
ENDMDL
MODEL 4
REMARK VINA RESULT:      -6.5      5.665      8.748
REMARK  Name = 
REMARK  10 active torsions:
REMARK  status: ('A' for Active; 'I' for Inactive)
REMARK    1  A    between atoms: O_2  and  C_3
REMARK    2  A    between atoms: C_3  and  C_4
REMARK    3  A    between atoms: C_4  and  C_5
REMARK    4  A    between atoms: C_5  and  C_6
REMARK    5  A    between atoms: C_6  and  C_7
REMARK    6  A    between atoms: C_7  and  C_13
REMARK    7  A    between atoms: N_8  and  O_9
REMARK    8  A    between atoms: O_9  and  C_10
REMARK    9  A    between atoms: C_10  and  C_11
REMARK   10  A    between atoms: C_16  and  C_17
REMARK                            x       y       z     vdW  Elec       q    Type
REMARK                         _______ _______ _______ _____ _____    ______ ____
ROOT
ATOM      1  C   UNL     1       0.076   6.603  -4.993  0.00  0.00    +0.097 C 
ATOM      2  N   UNL     1       0.915   6.587  -3.999  0.00  0.00    -0.087 NA
ENDROOT
BRANCH   1   3
ATOM      3  C   UNL     1       0.638   6.242  -6.299  0.00  0.00    +0.017 A 
ATOM      4  C   UNL     1       1.432   7.155  -6.957  0.00  0.00    +0.001 A 
ATOM      5  C   UNL     1       1.704   7.074  -8.318  0.00  0.00    +0.004 A 
ATOM      6  C   UNL     1       0.869   6.222  -9.033  0.00  0.00    +0.071 A 
ATOM      7  C   UNL     1       0.443   5.073  -8.379  0.00  0.00    +0.004 A 
ATOM      8  C   UNL     1       0.240   5.133  -7.008  0.00  0.00    +0.001 A 
BRANCH   6   9
ATOM      9  C   UNL     1       0.641   6.468 -10.472  0.00  0.00    +0.419 C 
ATOM     10  F   UNL     1       0.024   5.340 -11.002  0.00  0.00    -0.166 F 
ATOM     11  F   UNL     1       1.822   6.615 -11.184  0.00  0.00    -0.166 F 
ATOM     12  F   UNL     1      -0.112   7.599 -10.653  0.00  0.00    -0.166 F 
ENDBRANCH   6   9
ENDBRANCH   1   3
BRANCH   1  13
ATOM     13  C   UNL     1      -1.030   7.575  -4.865  0.00  0.00    +0.049 C 
BRANCH  13  14
ATOM     14  C   UNL     1      -2.375   6.996  -5.204  0.00  0.00    +0.009 C 
BRANCH  14  15
ATOM     15  C   UNL     1      -2.495   5.667  -4.513  0.00  0.00    +0.032 C 
BRANCH  15  16
ATOM     16  C   UNL     1      -3.254   5.738  -3.212  0.00  0.00    +0.142 C 
BRANCH  16  18
ATOM     17  C   UNL     1      -1.740   5.641  -1.480  0.00  0.00    +0.174 C 
ATOM     18  O   UNL     1      -2.590   4.914  -2.302  0.00  0.00    -0.351 OA
ENDBRANCH  16  18
ENDBRANCH  15  16
ENDBRANCH  14  15
ENDBRANCH  13  14
ENDBRANCH   1  13
BRANCH   2  19
ATOM     19  O   UNL     1       1.769   5.512  -3.824  0.00  0.00    -0.376 OA
BRANCH  19  20
ATOM     20  C   UNL     1       3.143   5.813  -3.704  0.00  0.00    +0.259 C 
BRANCH  20  21
ATOM     21  C   UNL     1       3.385   7.311  -3.684  0.00  0.00    +0.159 C 
ATOM     22  N   UNL     1       4.294   7.663  -4.758  0.00  0.00    -0.127 NA
ENDBRANCH  20  21
ENDBRANCH  19  20
ENDBRANCH   2  19
TORSDOF 10
ENDMDL
MODEL 5
REMARK VINA RESULT:      -6.5      3.980      6.594
REMARK  Name = 
REMARK  10 active torsions:
REMARK  status: ('A' for Active; 'I' for Inactive)
REMARK    1  A    between atoms: O_2  and  C_3
REMARK    2  A    between atoms: C_3  and  C_4
REMARK    3  A    between atoms: C_4  and  C_5
REMARK    4  A    between atoms: C_5  and  C_6
REMARK    5  A    between atoms: C_6  and  C_7
REMARK    6  A    between atoms: C_7  and  C_13
REMARK    7  A    between atoms: N_8  and  O_9
REMARK    8  A    between atoms: O_9  and  C_10
REMARK    9  A    between atoms: C_10  and  C_11
REMARK   10  A    between atoms: C_16  and  C_17
REMARK                            x       y       z     vdW  Elec       q    Type
REMARK                         _______ _______ _______ _____ _____    ______ ____
ROOT
ATOM      1  C   UNL     1       3.648   5.719  -7.148  0.00  0.00    +0.097 C 
ATOM      2  N   UNL     1       2.759   4.778  -7.022  0.00  0.00    -0.087 NA
ENDROOT
BRANCH   1   3
ATOM      3  C   UNL     1       4.267   5.828  -8.474  0.00  0.00    +0.017 A 
ATOM      4  C   UNL     1       5.525   5.300  -8.666  0.00  0.00    +0.001 A 
ATOM      5  C   UNL     1       6.337   5.659  -9.737  0.00  0.00    +0.004 A 
ATOM      6  C   UNL     1       5.949   6.815 -10.405  0.00  0.00    +0.071 A 
ATOM      7  C   UNL     1       4.582   7.045 -10.511  0.00  0.00    +0.004 A 
ATOM      8  C   UNL     1       3.761   6.621  -9.476  0.00  0.00    +0.001 A 
BRANCH   6   9
ATOM      9  C   UNL     1       6.964   7.616 -11.119  0.00  0.00    +0.419 C 
ATOM     10  F   UNL     1       7.946   7.971 -10.200  0.00  0.00    -0.166 F 
ATOM     11  F   UNL     1       6.458   8.814 -11.602  0.00  0.00    -0.166 F 
ATOM     12  F   UNL     1       7.478   6.910 -12.175  0.00  0.00    -0.166 F 
ENDBRANCH   6   9
ENDBRANCH   1   3
BRANCH   1  13
ATOM     13  C   UNL     1       4.392   6.048  -5.914  0.00  0.00    +0.049 C 
BRANCH  13  14
ATOM     14  C   UNL     1       3.746   7.136  -5.102  0.00  0.00    +0.009 C 
BRANCH  14  15
ATOM     15  C   UNL     1       4.774   7.678  -4.150  0.00  0.00    +0.032 C 
BRANCH  15  16
ATOM     16  C   UNL     1       4.205   8.047  -2.804  0.00  0.00    +0.142 C 
BRANCH  16  18
ATOM     17  C   UNL     1       4.096   6.512  -1.091  0.00  0.00    +0.174 C 
ATOM     18  O   UNL     1       4.924   7.334  -1.843  0.00  0.00    -0.351 OA
ENDBRANCH  16  18
ENDBRANCH  15  16
ENDBRANCH  14  15
ENDBRANCH  13  14
ENDBRANCH   1  13
BRANCH   2  19
ATOM     19  O   UNL     1       1.771   4.620  -7.979  0.00  0.00    -0.376 OA
BRANCH  19  20
ATOM     20  C   UNL     1       0.609   5.406  -7.819  0.00  0.00    +0.259 C 
BRANCH  20  21
ATOM     21  C   UNL     1      -0.121   5.064  -6.533  0.00  0.00    +0.159 C 
ATOM     22  N   UNL     1      -1.546   5.251  -6.729  0.00  0.00    -0.127 NA
ENDBRANCH  20  21
ENDBRANCH  19  20
ENDBRANCH   2  19
TORSDOF 10
ENDMDL
MODEL 6
REMARK VINA RESULT:      -6.4      4.487      6.368
REMARK  Name = 
REMARK  10 active torsions:
REMARK  status: ('A' for Active; 'I' for Inactive)
REMARK    1  A    between atoms: O_2  and  C_3
REMARK    2  A    between atoms: C_3  and  C_4
REMARK    3  A    between atoms: C_4  and  C_5
REMARK    4  A    between atoms: C_5  and  C_6
REMARK    5  A    between atoms: C_6  and  C_7
REMARK    6  A    between atoms: C_7  and  C_13
REMARK    7  A    between atoms: N_8  and  O_9
REMARK    8  A    between atoms: O_9  and  C_10
REMARK    9  A    between atoms: C_10  and  C_11
REMARK   10  A    between atoms: C_16  and  C_17
REMARK                            x       y       z     vdW  Elec       q    Type
REMARK                         _______ _______ _______ _____ _____    ______ ____
ROOT
ATOM      1  C   UNL     1       1.628   5.721  -7.488  0.00  0.00    +0.097 C 
ATOM      2  N   UNL     1       2.125   6.602  -8.308  0.00  0.00    -0.087 NA
ENDROOT
BRANCH   1   3
ATOM      3  C   UNL     1       0.347   6.085  -6.872  0.00  0.00    +0.017 A 
ATOM      4  C   UNL     1       0.348   6.947  -5.797  0.00  0.00    +0.001 A 
ATOM      5  C   UNL     1      -0.731   7.065  -4.927  0.00  0.00    +0.004 A 
ATOM      6  C   UNL     1      -1.662   6.036  -5.004  0.00  0.00    +0.071 A 
ATOM      7  C   UNL     1      -1.891   5.495  -6.263  0.00  0.00    +0.004 A 
ATOM      8  C   UNL     1      -0.833   5.443  -7.160  0.00  0.00    +0.001 A 
BRANCH   6   9
ATOM      9  C   UNL     1      -2.482   5.709  -3.820  0.00  0.00    +0.419 C 
ATOM     10  F   UNL     1      -1.653   5.093  -2.888  0.00  0.00    -0.166 F 
ATOM     11  F   UNL     1      -3.480   4.787  -4.096  0.00  0.00    -0.166 F 
ATOM     12  F   UNL     1      -3.071   6.840  -3.315  0.00  0.00    -0.166 F 
ENDBRANCH   6   9
ENDBRANCH   1   3
BRANCH   1  13
ATOM     13  C   UNL     1       2.626   4.894  -6.778  0.00  0.00    +0.049 C 
BRANCH  13  14
ATOM     14  C   UNL     1       3.974   5.551  -6.668  0.00  0.00    +0.009 C 
BRANCH  14  15
ATOM     15  C   UNL     1       4.209   5.890  -5.223  0.00  0.00    +0.032 C 
BRANCH  15  16
ATOM     16  C   UNL     1       4.388   4.677  -4.347  0.00  0.00    +0.142 C 
BRANCH  16  18
ATOM     17  C   UNL     1       2.794   5.808  -3.130  0.00  0.00    +0.174 C 
ATOM     18  O   UNL     1       3.933   5.017  -3.072  0.00  0.00    -0.351 OA
ENDBRANCH  16  18
ENDBRANCH  15  16
ENDBRANCH  14  15
ENDBRANCH  13  14
ENDBRANCH   1  13
BRANCH   2  19
ATOM     19  O   UNL     1       1.323   7.182  -9.276  0.00  0.00    -0.376 OA
BRANCH  19  20
ATOM     20  C   UNL     1       1.197   6.477 -10.493  0.00  0.00    +0.259 C 
BRANCH  20  21
ATOM     21  C   UNL     1      -0.247   6.418 -10.955  0.00  0.00    +0.159 C 
ATOM     22  N   UNL     1      -0.610   7.689 -11.553  0.00  0.00    -0.127 NA
ENDBRANCH  20  21
ENDBRANCH  19  20
ENDBRANCH   2  19
TORSDOF 10
ENDMDL
MODEL 7
REMARK VINA RESULT:      -6.4      3.787      6.184
REMARK  Name = 
REMARK  10 active torsions:
REMARK  status: ('A' for Active; 'I' for Inactive)
REMARK    1  A    between atoms: O_2  and  C_3
REMARK    2  A    between atoms: C_3  and  C_4
REMARK    3  A    between atoms: C_4  and  C_5
REMARK    4  A    between atoms: C_5  and  C_6
REMARK    5  A    between atoms: C_6  and  C_7
REMARK    6  A    between atoms: C_7  and  C_13
REMARK    7  A    between atoms: N_8  and  O_9
REMARK    8  A    between atoms: O_9  and  C_10
REMARK    9  A    between atoms: C_10  and  C_11
REMARK   10  A    between atoms: C_16  and  C_17
REMARK                            x       y       z     vdW  Elec       q    Type
REMARK                         _______ _______ _______ _____ _____    ______ ____
ROOT
ATOM      1  C   UNL     1       3.106   5.766  -8.799  0.00  0.00    +0.097 C 
ATOM      2  N   UNL     1       2.386   6.687  -8.227  0.00  0.00    -0.087 NA
ENDROOT
BRANCH   1   3
ATOM      3  C   UNL     1       4.440   6.190  -9.240  0.00  0.00    +0.017 A 
ATOM      4  C   UNL     1       4.543   7.046 -10.314  0.00  0.00    +0.001 A 
ATOM      5  C   UNL     1       5.723   7.215 -11.031  0.00  0.00    +0.004 A 
ATOM      6  C   UNL     1       6.685   6.234 -10.817  0.00  0.00    +0.071 A 
ATOM      7  C   UNL     1       6.766   5.711  -9.533  0.00  0.00    +0.004 A 
ATOM      8  C   UNL     1       5.600   5.609  -8.787  0.00  0.00    +0.001 A 
BRANCH   6   9
ATOM      9  C   UNL     1       7.673   5.943 -11.876  0.00  0.00    +0.419 C 
ATOM     10  F   UNL     1       7.618   4.579 -12.145  0.00  0.00    -0.166 F 
ATOM     11  F   UNL     1       8.978   6.189 -11.473  0.00  0.00    -0.166 F 
ATOM     12  F   UNL     1       7.419   6.698 -12.992  0.00  0.00    -0.166 F 
ENDBRANCH   6   9
ENDBRANCH   1   3
BRANCH   1  13
ATOM     13  C   UNL     1       2.339   4.733  -9.527  0.00  0.00    +0.049 C 
BRANCH  13  14
ATOM     14  C   UNL     1       0.853   4.958  -9.489  0.00  0.00    +0.009 C 
BRANCH  14  15
ATOM     15  C   UNL     1       0.311   4.717 -10.870  0.00  0.00    +0.032 C 
BRANCH  15  16
ATOM     16  C   UNL     1       0.668   5.807 -11.849  0.00  0.00    +0.142 C 
BRANCH  16  18
ATOM     17  C   UNL     1      -0.678   7.666 -11.660  0.00  0.00    +0.174 C 
ATOM     18  O   UNL     1       0.465   7.026 -11.201  0.00  0.00    -0.351 OA
ENDBRANCH  16  18
ENDBRANCH  15  16
ENDBRANCH  14  15
ENDBRANCH  13  14
ENDBRANCH   1  13
BRANCH   2  19
ATOM     19  O   UNL     1       2.937   7.490  -7.243  0.00  0.00    -0.376 OA
BRANCH  19  20
ATOM     20  C   UNL     1       2.921   6.973  -5.929  0.00  0.00    +0.259 C 
BRANCH  20  21
ATOM     21  C   UNL     1       4.325   6.706  -5.419  0.00  0.00    +0.159 C 
ATOM     22  N   UNL     1       4.672   7.706  -4.427  0.00  0.00    -0.127 NA
ENDBRANCH  20  21
ENDBRANCH  19  20
ENDBRANCH   2  19
TORSDOF 10
ENDMDL
MODEL 8
REMARK VINA RESULT:      -6.4      3.221      5.659
REMARK  Name = 
REMARK  10 active torsions:
REMARK  status: ('A' for Active; 'I' for Inactive)
REMARK    1  A    between atoms: O_2  and  C_3
REMARK    2  A    between atoms: C_3  and  C_4
REMARK    3  A    between atoms: C_4  and  C_5
REMARK    4  A    between atoms: C_5  and  C_6
REMARK    5  A    between atoms: C_6  and  C_7
REMARK    6  A    between atoms: C_7  and  C_13
REMARK    7  A    between atoms: N_8  and  O_9
REMARK    8  A    between atoms: O_9  and  C_10
REMARK    9  A    between atoms: C_10  and  C_11
REMARK   10  A    between atoms: C_16  and  C_17
REMARK                            x       y       z     vdW  Elec       q    Type
REMARK                         _______ _______ _______ _____ _____    ______ ____
ROOT
ATOM      1  C   UNL     1       2.265   6.362  -8.876  0.00  0.00    +0.097 C 
ATOM      2  N   UNL     1       1.541   5.305  -8.648  0.00  0.00    -0.087 NA
ENDROOT
BRANCH   1   3
ATOM      3  C   UNL     1       3.510   6.127  -9.616  0.00  0.00    +0.017 A 
ATOM      4  C   UNL     1       4.608   5.649  -8.936  0.00  0.00    +0.001 A 
ATOM      5  C   UNL     1       5.902   5.739  -9.438  0.00  0.00    +0.004 A 
ATOM      6  C   UNL     1       6.061   6.627 -10.496  0.00  0.00    +0.071 A 
ATOM      7  C   UNL     1       5.001   6.727 -11.389  0.00  0.00    +0.004 A 
ATOM      8  C   UNL     1       3.712   6.565 -10.904  0.00  0.00    +0.001 A 
BRANCH   6   9
ATOM      9  C   UNL     1       7.378   7.255 -10.725  0.00  0.00    +0.419 C 
ATOM     10  F   UNL     1       7.160   8.591 -11.047  0.00  0.00    -0.166 F 
ATOM     11  F   UNL     1       8.046   6.715 -11.814  0.00  0.00    -0.166 F 
ATOM     12  F   UNL     1       8.176   7.115  -9.620  0.00  0.00    -0.166 F 
ENDBRANCH   6   9
ENDBRANCH   1   3
BRANCH   1  13
ATOM     13  C   UNL     1       2.157   7.427  -7.856  0.00  0.00    +0.049 C 
BRANCH  13  14
ATOM     14  C   UNL     1       2.046   6.899  -6.453  0.00  0.00    +0.009 C 
BRANCH  14  15
ATOM     15  C   UNL     1       3.401   7.004  -5.810  0.00  0.00    +0.032 C 
BRANCH  15  16
ATOM     16  C   UNL     1       3.350   6.962  -4.304  0.00  0.00    +0.142 C 
BRANCH  16  18
ATOM     17  C   UNL     1       4.630   5.051  -4.411  0.00  0.00    +0.174 C 
ATOM     18  O   UNL     1       4.512   6.324  -3.868  0.00  0.00    -0.351 OA
ENDBRANCH  16  18
ENDBRANCH  15  16
ENDBRANCH  14  15
ENDBRANCH  13  14
ENDBRANCH   1  13
BRANCH   2  19
ATOM     19  O   UNL     1       1.279   4.408  -9.669  0.00  0.00    -0.376 OA
BRANCH  19  20
ATOM     20  C   UNL     1       0.147   4.679 -10.469  0.00  0.00    +0.259 C 
BRANCH  20  21
ATOM     21  C   UNL     1       0.533   4.907 -11.919  0.00  0.00    +0.159 C 
ATOM     22  N   UNL     1       0.375   6.313 -12.240  0.00  0.00    -0.127 NA
ENDBRANCH  20  21
ENDBRANCH  19  20
ENDBRANCH   2  19
TORSDOF 10
ENDMDL
MODEL 9
REMARK VINA RESULT:      -6.4      3.785      6.213
REMARK  Name = 
REMARK  10 active torsions:
REMARK  status: ('A' for Active; 'I' for Inactive)
REMARK    1  A    between atoms: O_2  and  C_3
REMARK    2  A    between atoms: C_3  and  C_4
REMARK    3  A    between atoms: C_4  and  C_5
REMARK    4  A    between atoms: C_5  and  C_6
REMARK    5  A    between atoms: C_6  and  C_7
REMARK    6  A    between atoms: C_7  and  C_13
REMARK    7  A    between atoms: N_8  and  O_9
REMARK    8  A    between atoms: O_9  and  C_10
REMARK    9  A    between atoms: C_10  and  C_11
REMARK   10  A    between atoms: C_16  and  C_17
REMARK                            x       y       z     vdW  Elec       q    Type
REMARK                         _______ _______ _______ _____ _____    ______ ____
ROOT
ATOM      1  C   UNL     1       3.701   6.562  -9.480  0.00  0.00    +0.097 C 
ATOM      2  N   UNL     1       2.979   5.723 -10.164  0.00  0.00    -0.087 NA
ENDROOT
BRANCH   1   3
ATOM      3  C   UNL     1       5.101   6.683  -9.904  0.00  0.00    +0.017 A 
ATOM      4  C   UNL     1       5.420   7.592 -10.889  0.00  0.00    +0.001 A 
ATOM      5  C   UNL     1       6.608   7.533 -11.610  0.00  0.00    +0.004 A 
ATOM      6  C   UNL     1       7.293   6.327 -11.516  0.00  0.00    +0.071 A 
ATOM      7  C   UNL     1       7.235   5.672 -10.292  0.00  0.00    +0.004 A 
ATOM      8  C   UNL     1       6.077   5.788  -9.536  0.00  0.00    +0.001 A 
BRANCH   6   9
ATOM      9  C   UNL     1       8.182   5.909 -12.619  0.00  0.00    +0.419 C 
ATOM     10  F   UNL     1       8.103   4.524 -12.725  0.00  0.00    -0.166 F 
ATOM     11  F   UNL     1       9.517   6.186 -12.365  0.00  0.00    -0.166 F 
ATOM     12  F   UNL     1       7.829   6.536 -13.786  0.00  0.00    -0.166 F 
ENDBRANCH   6   9
ENDBRANCH   1   3
BRANCH   1  13
ATOM     13  C   UNL     1       3.301   6.725  -8.066  0.00  0.00    +0.049 C 
BRANCH  13  14
ATOM     14  C   UNL     1       1.962   7.389  -7.900  0.00  0.00    +0.009 C 
BRANCH  14  15
ATOM     15  C   UNL     1       1.239   6.698  -6.778  0.00  0.00    +0.032 C 
BRANCH  15  16
ATOM     16  C   UNL     1       0.216   5.699  -7.254  0.00  0.00    +0.142 C 
BRANCH  16  18
ATOM     17  C   UNL     1       1.446   4.213  -5.997  0.00  0.00    +0.174 C 
ATOM     18  O   UNL     1       0.173   4.670  -6.312  0.00  0.00    -0.351 OA
ENDBRANCH  16  18
ENDBRANCH  15  16
ENDBRANCH  14  15
ENDBRANCH  13  14
ENDBRANCH   1  13
BRANCH   2  19
ATOM     19  O   UNL     1       3.016   5.739 -11.547  0.00  0.00    -0.376 OA
BRANCH  19  20
ATOM     20  C   UNL     1       1.818   6.097 -12.204  0.00  0.00    +0.259 C 
BRANCH  20  21
ATOM     21  C   UNL     1       0.615   5.937 -11.292  0.00  0.00    +0.159 C 
ATOM     22  N   UNL     1      -0.097   7.198 -11.214  0.00  0.00    -0.127 NA
ENDBRANCH  20  21
ENDBRANCH  19  20
ENDBRANCH   2  19
TORSDOF 10
ENDMDL
